#------------------------------------------------------------------------------
#$Date: 2020-08-22 01:59:36 +0300 (Sat, 22 Aug 2020) $
#$Revision: 255541 $
#$URL: file:///home/coder/svn-repositories/cod/cif/4/13/51/4135188.cif $
#------------------------------------------------------------------------------
#
# This file is available in the Crystallography Open Database (COD),
# http://www.crystallography.net/
#
# All data on this site have been placed in the public domain by the
# contributors.
#
data_4135188
loop_
_publ_author_name
'Yan, Yong'
'Carrington, Elliot J.'
'P\'etuya, R\'emi'
'Whitehead, George F. S.'
'Verma, Ajay'
'Hylton, Rebecca K.'
'Tang, Chiu C.'
'Berry, Neil G.'
'Darling, George R.'
'Dyer, Matthew S.'
'Antypov, Dmytro'
'Katsoulidis, Alexandros P.'
'Rosseinsky, Matthew J.'
_publ_section_title
;
 Amino Acid Residues Determine the Response of Flexible Metal-Organic
 Frameworks to Guests.
;
_journal_name_full               'Journal of the American Chemical Society'
_journal_paper_doi               10.1021/jacs.0c03853
_journal_year                    2020
_chemical_formula_moiety         'C6 H5 N3 O3 Zn, 0.5(C4 H8 O2)'
_chemical_formula_sum            'C8.01 H9.02 N3 O4.01 Zn'
_chemical_formula_weight         276.83
_space_group_crystal_system      trigonal
_space_group_IT_number           161
_space_group_name_Hall           'R 3 -2"c'
_space_group_name_H-M_alt        'R 3 c :H'
_atom_sites_solution_hydrogens   geom
_audit_creation_date             2018-07-05
_audit_creation_method
;
Olex2 1.2
(compiled 2018.05.29 svn.r3508 for OlexSys, GUI svn.r5506)
;
_cell_angle_alpha                90
_cell_angle_beta                 90
_cell_angle_gamma                120
_cell_formula_units_Z            18
_cell_length_a                   27.0355(9)
_cell_length_b                   27.0355(9)
_cell_length_c                   10.1431(4)
_cell_measurement_reflns_used    12063
_cell_measurement_temperature    100
_cell_measurement_theta_max      27.4040
_cell_measurement_theta_min      2.5880
_cell_volume                     6420.5(4)
_computing_cell_refinement       'CrysAlisPro 1.171.38.46 (Rigaku OD, 2015)'
_computing_data_collection       'CrysAlisPro 1.171.38.46 (Rigaku OD, 2015)'
_computing_data_reduction        'CrysAlisPro 1.171.38.46 (Rigaku OD, 2015)'
_computing_molecular_graphics    'Olex2 (Dolomanov et al., 2009)'
_computing_publication_material  'Olex2 (Dolomanov et al., 2009)'
_computing_structure_refinement  'ShelXL (Sheldrick, 2015)'
_diffrn_ambient_temperature      100
_diffrn_detector                 'CCD plate'
_diffrn_measured_fraction_theta_full 0.999
_diffrn_measured_fraction_theta_max 0.999
_diffrn_measurement_details
;
List of Runs (angles in degrees, time in seconds):

  # Type    Start    End  Width  t~exp~   \w     \q     \k     \f   Frames
--------------------------------------------------------------------------
  1  \w   -110.00  15.00   1.00   10.00    --  -20.00 -68.00   0.00  125
  2  \w   -110.00  15.00   1.00   10.00    --  -20.00 -68.00 120.00  125
  3  \w   -110.00  15.00   1.00   10.00    --  -20.00 -68.00 240.00  125
  4  \w   -110.00  15.00   1.00   10.00    --  -20.00 -30.00  90.00  125
;
_diffrn_measurement_device       'abstract diffractometer'
_diffrn_measurement_device_type
'dtrek-CrysAlisPro-abstract goniometer imported rigaku-d*trek images'
_diffrn_measurement_method       '\w scans'
_diffrn_orient_matrix_type
'CrysAlisPro convention (1999,Acta A55,543-557)'
_diffrn_orient_matrix_UB_11      -0.0223457000
_diffrn_orient_matrix_UB_12      -0.0227718000
_diffrn_orient_matrix_UB_13      -0.0356507000
_diffrn_orient_matrix_UB_21      -0.0171348000
_diffrn_orient_matrix_UB_22      0.0128914000
_diffrn_orient_matrix_UB_23      0.0076055000
_diffrn_orient_matrix_UB_31      0.0111140000
_diffrn_orient_matrix_UB_32      0.0152481000
_diffrn_orient_matrix_UB_33      -0.0596914000
_diffrn_radiation_monochromator  graphite
_diffrn_radiation_probe          x-ray
_diffrn_radiation_type           MoK\a
_diffrn_radiation_wavelength     0.71073
_diffrn_reflns_av_R_equivalents  0.0756
_diffrn_reflns_av_unetI/netI     0.0437
_diffrn_reflns_Laue_measured_fraction_full 0.999
_diffrn_reflns_Laue_measured_fraction_max 0.999
_diffrn_reflns_limit_h_max       34
_diffrn_reflns_limit_h_min       -35
_diffrn_reflns_limit_k_max       31
_diffrn_reflns_limit_k_min       -35
_diffrn_reflns_limit_l_max       13
_diffrn_reflns_limit_l_min       -10
_diffrn_reflns_number            25902
_diffrn_reflns_point_group_measured_fraction_full 0.980
_diffrn_reflns_point_group_measured_fraction_max 0.966
_diffrn_reflns_theta_full        25.242
_diffrn_reflns_theta_max         27.481
_diffrn_reflns_theta_min         2.610
_diffrn_source                   'fine-focus sealed X-ray tube'
_diffrn_source_type              'Enhance (Mo) X-ray Source'
_exptl_absorpt_coefficient_mu    1.723
_exptl_absorpt_correction_T_max  1.00000
_exptl_absorpt_correction_T_min  0.75459
_exptl_absorpt_correction_type   multi-scan
_exptl_absorpt_process_details
;
CrysAlisPro 1.171.38.46 (Rigaku Oxford Diffraction, 2015)
Empirical absorption correction using spherical harmonics,
 implemented in SCALE3 ABSPACK scaling algorithm.
;
_exptl_crystal_colour            white
_exptl_crystal_colour_primary    white
_exptl_crystal_density_diffrn    1.289
_exptl_crystal_description       block
_exptl_crystal_F_000             2523
_exptl_crystal_preparation       'Solvent Exchnage in Dioxane'
_exptl_crystal_size_max          0.208
_exptl_crystal_size_mid          0.027
_exptl_crystal_size_min          0.021
_refine_diff_density_max         1.014
_refine_diff_density_min         -0.429
_refine_diff_density_rms         0.149
_refine_ls_abs_structure_details
;
 Flack x determined using 1278 quotients [(I+)-(I-)]/[(I+)+(I-)]
 (Parsons, Flack and Wagner, Acta Cryst. B69 (2013) 249-259).
;
_refine_ls_abs_structure_Flack   0.000(11)
_refine_ls_extinction_method     none
_refine_ls_goodness_of_fit_ref   1.177
_refine_ls_hydrogen_treatment    constr
_refine_ls_matrix_type           full
_refine_ls_number_parameters     143
_refine_ls_number_reflns         3167
_refine_ls_number_restraints     18
_refine_ls_restrained_S_all      1.176
_refine_ls_R_factor_all          0.0555
_refine_ls_R_factor_gt           0.0508
_refine_ls_shift/su_max          0.000
_refine_ls_shift/su_mean         0.000
_refine_ls_structure_factor_coef Fsqd
_refine_ls_weighting_details
'w=1/[\s^2^(Fo^2^)+(0.0854P)^2^+14.6014P] where P=(Fo^2^+2Fc^2^)/3'
_refine_ls_weighting_scheme      calc
_refine_ls_wR_factor_gt          0.1421
_refine_ls_wR_factor_ref         0.1451
_reflns_Friedel_coverage         0.923
_reflns_Friedel_fraction_full    0.960
_reflns_Friedel_fraction_max     0.932
_reflns_number_gt                2970
_reflns_number_total             3167
_reflns_threshold_expression     'I > 2\s(I)'
_cod_data_source_file            ZnGlyPyr_Dioxane_100K.cif
_cod_data_source_block           ZnGlyPyr_Dioxane_100K
_cod_original_cell_volume        6420.5(5)
_cod_original_sg_symbol_H-M      'R 3 c'
_cod_database_code               4135188
_shelx_shelxl_version_number     2014/7
_chemical_oxdiff_formula         'Zn C6 H8 N3 O5'
_shelx_space_group_comment
;
The symmetry employed for this shelxl refinement is uniquely defined
by the following loop, which should always be used as a source of
symmetry information in preference to the above space-group names.
They are only intended as comments.
;
_reflns_odcompleteness_completeness 99.89
_reflns_odcompleteness_iscentric 1
_reflns_odcompleteness_theta     27.42
_olex2_refinement_description
;
1. Fixed Uiso
 At 1.2 times of:
  All C(H) groups, All C(H,H) groups, All N(H) groups
2. Restrained distances
 C9-O5 \\sim O5-C7
 with sigma of 0.02
 C9-C10 \\sim C7-C8
 with sigma of 0.02
 C10-O4 \\sim O4-C8
 with sigma of 0.02
3. Rigid bond restraints
 O3, C4
 with sigma for 1-2 distances of 0.01 and sigma for 1-3 distances of 0.01
 O1, C6
 with sigma for 1-2 distances of 0.01 and sigma for 1-3 distances of 0.01
4. Uiso/Uaniso restraints and constraints
C4 \\sim O3: within 2A with sigma of 0.04 and sigma for terminal atoms of 0.08
C6 \\sim O1: within 2A with sigma of 0.04 and sigma for terminal atoms of 0.08
5. Others
 Sof(C10)=Sof(H10A)=Sof(H10B)=Sof(O4)=Sof(O5)=Sof(C9)=Sof(H9A)=Sof(H9B)=
 Sof(C7)=Sof(H7A)=Sof(H7B)=Sof(C8)=Sof(H8A)=Sof(H8B)=FVAR(1)
6.a Secondary CH2 refined with riding coordinates:
 C5(H5A,H5B), C10(H10A,H10B), C9(H9A,H9B), C7(H7A,H7B), C8(H8A,H8B)
6.b Aromatic/amide H refined with riding coordinates:
 N3(H3), C3(H3A), C1(H1)
;
_shelx_res_file
;
    yy_zn_gly_pyr_dioxane_0-77.res created by SHELXL-2014/7

TITL YY_Zn_Gly_Pyr_Dioxane_0-77 in R3c
REM R3c (#161 in standard setting)
CELL 0.71073 27.035491 27.035491 10.143052 90 90 120
ZERR 18 0.000862 0.000862 0.000355 0 0 0
LATT -3
SYMM -Y,+X-Y,+Z
SYMM +Y-X,-X,+Z
SYMM +Y-X,+Y,0.5+Z
SYMM +X,+X-Y,0.5+Z
SYMM -Y,-X,0.5+Z
SFAC C H N O Zn
UNIT 144.23 162.45 54 72.11 18
SADI C9 O5 O5 C7
SADI C9 C10 C7 C8
SADI C10 O4 O4 C8
DELU O3 C4
DELU O1 C6
SIMU C4 O3
SIMU C6 O1

L.S. 16
PLAN  20
BOND
fmap 2
acta
REM <olex2.extras>
REM <HklSrc "%.\\YY_Zn_Gly_Pyr_Dioxane_0-77.hkl">
REM </olex2.extras>

WGHT    0.085400   14.601400
FVAR       0.73529   0.50428
ZN1   5   -0.352473   -0.326126   -0.385751    11.00000    0.01711    0.01824 =
         0.00620   -0.00038    0.00035    0.00845
N1    3   -0.316285   -0.371249   -0.438357    11.00000    0.02275    0.02401 =
         0.01010   -0.00061    0.00288    0.01328
O1    4   -0.401908   -0.323575   -0.524824    11.00000    0.02319    0.02082 =
         0.01658   -0.00298   -0.00733    0.01019
N2    3   -0.404603   -0.355403   -0.234825    11.00000    0.01960    0.01757 =
         0.00463    0.00094   -0.00171    0.00622
O2    4   -0.292046   -0.245631   -0.367177    11.00000    0.02513    0.01608 =
         0.01598    0.00029   -0.00510    0.00419
N3    3   -0.582687   -0.464039   -0.162677    11.00000    0.01747    0.02397 =
         0.01031    0.00107    0.00124    0.00839
AFIX  43
H3    2   -0.573635   -0.455146   -0.244021    11.00000   -1.20000
AFIX   0
C3    1   -0.461020   -0.385572   -0.240789    11.00000    0.01999    0.01754 =
         0.00779   -0.00119   -0.00062    0.00699
AFIX  43
H3A   2   -0.482514   -0.395073   -0.317823    11.00000   -1.20000
AFIX   0
C6    1   -0.434070   -0.354432   -0.616071    11.00000    0.01990    0.01525 =
         0.00782    0.00055    0.00008    0.00546
O3    4   -0.555351   -0.444550    0.050391    11.00000    0.02701    0.03798 =
         0.01383    0.00194    0.00099    0.00324
C2    1   -0.483386   -0.400998   -0.113126    11.00000    0.01981    0.01562 =
         0.00959   -0.00030    0.00039    0.00734
C4    1   -0.543633   -0.438018   -0.068719    11.00000    0.01820    0.01855 =
         0.01116    0.00408    0.00151    0.00735
C1    1   -0.435188   -0.377428   -0.031665    11.00000    0.02688    0.02284 =
         0.00735    0.00398    0.00080    0.01050
AFIX  43
H1    2   -0.435834   -0.380239    0.059771    11.00000   -1.20000
AFIX   0
C5    1   -0.640204   -0.507158   -0.128178    11.00000    0.02107    0.02148 =
         0.01393   -0.00071    0.00429    0.01138
AFIX  23
H5A   2   -0.666424   -0.508442   -0.195177    11.00000   -1.20000
H5B   2   -0.650667   -0.497134   -0.045058    11.00000   -1.20000
AFIX   0

PART -1
C10   1   -0.455206   -0.515207   -0.225894    21.00000    0.09668
AFIX  23
H10A  2   -0.482617   -0.550156   -0.181898    21.00000   -1.20000
H10B  2   -0.455539   -0.483137   -0.183919    21.00000   -1.20000
AFIX   0
O4    4   -0.397745   -0.508278   -0.222402    21.00000    0.10308
O5    4   -0.462489   -0.554933   -0.447375    21.00000    0.10329
C9    1   -0.467635   -0.517421   -0.361004    21.00000    0.07855
AFIX  23
H9A   2   -0.506722   -0.525337   -0.367692    21.00000   -1.20000
H9B   2   -0.443574   -0.479223   -0.395588    21.00000   -1.20000
AFIX   0
C7    1   -0.411798   -0.550226   -0.435564    21.00000    0.08275
AFIX  23
H7A   2   -0.385047   -0.516652   -0.484898    21.00000   -1.20000
H7B   2   -0.413538   -0.582940   -0.479437    21.00000   -1.20000
AFIX   0
C8    1   -0.387826   -0.546218   -0.309399    21.00000    0.10814
AFIX  23
H8A   2   -0.347086   -0.531506   -0.318035    21.00000   -1.20000
H8B   2   -0.404733   -0.583956   -0.270286    21.00000   -1.20000
AFIX   0
HKLF 4

REM  YY_Zn_Gly_Pyr_Dioxane_0-77 in R3c
REM R1 =  0.0508 for    2970 Fo > 4sig(Fo)  and  0.0555 for all    3167 data
REM    143 parameters refined using     18 restraints

END

WGHT      0.0854     14.5796

REM Highest difference peak  1.014,  deepest hole -0.429,  1-sigma level  0.149
Q1    1  -0.4401 -0.5644 -0.5730  11.00000  0.05    1.01
Q2    1  -0.4618 -0.4788 -0.5451  11.00000  0.05    0.92
Q3    1  -0.4642 -0.5660 -0.1603  11.00000  0.05    0.77
Q4    1  -0.2953 -0.5959 -0.2913  11.00000  0.05    0.62
Q5    1  -0.3550 -0.6707 -0.1824  11.00000  0.05    0.59
Q6    1  -0.4848 -0.5300 -0.1547  11.00000  0.05    0.57
Q7    1  -0.3333 -0.6667 -0.3351  10.33333  0.05    0.57
Q8    1  -0.4238 -0.4875 -0.1498  11.00000  0.05    0.57
Q9    1  -0.4242 -0.5459 -0.1430  11.00000  0.05    0.55
Q10   1  -0.3493 -0.6591 -0.3978  11.00000  0.05    0.53
Q11   1  -0.4280 -0.5232 -0.3160  11.00000  0.05    0.52
Q12   1  -0.4815 -0.5322 -0.0686  11.00000  0.05    0.51
Q13   1  -0.4674 -0.5118 -0.4339  11.00000  0.05    0.51
Q14   1  -0.4602 -0.4811 -0.4559  11.00000  0.05    0.50
Q15   1  -0.5175 -0.5022 -0.2395  11.00000  0.05    0.50
Q16   1  -0.4517 -0.5256 -0.1053  11.00000  0.05    0.49
Q17   1  -0.5336 -0.5173 -0.1358  11.00000  0.05    0.48
Q18   1  -0.3495 -0.6523 -0.2613  11.00000  0.05    0.48
Q19   1  -0.4384 -0.5666 -0.4776  11.00000  0.05    0.48
Q20   1  -0.3333 -0.6667 -0.5863  10.33333  0.05    0.48
;
_shelx_res_checksum              76649
_shelx_hkl_file
;
   0   0  -3-113.399 171.223   1
   0   0   3 55.3677 201.948   1
   0   0   6 97843.6 1457.66   2
   0   0   6 95197.0 2222.73   1
   0   0   9-26.1581 164.591   2
   0   0   9 395.067 409.697   1
   0   0   9 169.275 174.084   2
   0   0  12 29458.1 1891.52   1
   1  -1  -4 7773.34 552.717   1
  -1   0  -4 7437.83 236.359   4
   0   1  -4 8286.34 549.982   1
  -1   0  -4 8883.75 605.435   1
  -1   0  -1-51.5228 91.1000   1
   1  -1  -1 41.6749 69.2426   1
   0   1   2 13081.6 484.414   1
   1  -1   2 13322.3 503.844   1
  -1   0   2 13381.5 456.214   1
   0   1   5-191.923 251.176   1
   0   1   5-16.2407 116.471   2
   1  -1   5 413.036 302.631   1
  -1   0   5 93.1717 153.365   2
   1  -1   5 107.221 148.463   2
  -1   0   5 34.3178 227.048   1
   1  -1   8 1353.21 232.222   2
  -1   0   8 2754.56 544.902   1
  -1   0   8 2339.23 361.160   2
   1  -1   8 1282.43 400.234   1
   0   1   8 1438.26 241.255   2
   1  -1   8 1286.88 245.758   2
   0   1   8 899.284 188.993   2
  -1   0   8 1443.02 281.131   2
   0   1   8 1653.02 461.274   1
   1  -1  11 446.011 476.076   1
  -1   0  11 444.629 493.736   1
   0   1  11-16.2480 525.782   1
  -1   1  -5-12.2424 282.146   1
   1   0  -5-291.029 284.210   1
   0  -1  -5-120.709 237.782   1
   0  -1  -5 29.2323 54.5457   4
  -1   1  -2 13586.3 509.417   1
   0  -1  -2 14816.4 517.870   1
   1   0  -2 14767.7 475.301   1
  -1   1   1-44.2670 79.4201   1
   1   0   1 38.3787 82.6697   1
   0  -1   1-24.1885 76.4197   1
   1   0   4 7243.41 542.393   1
   1   0   4 8058.97 303.966   2
   0  -1   4 7219.47 549.877   1
  -1   1   4 8477.39 550.699   1
  -1   1   4 8425.68 393.291   2
   0  -1   7-9.64125 169.798   2
   1   0   7 124.917 129.938   2
   0  -1   7 17.8343 191.952   2
  -1   1   7 83.3074 296.403   1
   1   0   7 130.485 131.913   2
  -1   1   7-19.6026 158.969   2
   0  -1   7 196.577 286.527   1
   1   0   7-303.380 310.477   1
  -1   1  10 1645.14 603.326   1
   0  -1  10 534.206 254.814   2
   0  -1  10 1078.30 513.905   1
  -1   1  10 513.957 241.091   2
   1   0  10-183.937 381.775   1
   0  -1  13 811.726 692.168   1
   1   0  13 53.5512 624.982   1
  -1   1  13 215.136 582.051   1
   2  -2  -5 8.24900 65.3429   4
  -2   0  -5 4.46186 80.0831   4
  -2   0  -5-103.610 247.156   1
   0   2  -5-11.7041 241.678   1
   2  -2  -5-540.569 286.217   1
  -2   0  -2 33165.1 822.543   1
   2  -2  -2 30855.9 506.585   4
   2  -2  -2 31723.7 683.112   1
   2  -2  -2 32562.8 682.841   2
   0   2   1 74.2229 99.7072   4
   0   2   1 19.5617 94.8009   1
   2  -2   1 28.4595 70.5691   4
   2  -2   1-16.6107 90.8837   2
  -2   0   1 101.595 99.7534   3
   2  -2   1 26.8084 106.482   1
   2  -2   1-17.5627 116.243   3
   0   2   4 10394.2 632.883   1
   2  -2   4 11681.9 441.898   2
   0   2   4 11729.6 393.076   2
  -2   0   4 10473.7 592.603   1
   2  -2   4 9768.59 648.024   1
   0   2   7-162.243 131.149   2
   2  -2   7-239.662 307.565   1
   2  -2   7 9.68301 143.698   2
   0   2   7-145.591 280.566   1
   2  -2   7 9.10310 125.607   2
  -2   0   7 211.862 289.532   1
  -2   0   7-184.419 228.743   2
  -2   0  10 2585.93 424.441   2
   0   2  10 1785.81 511.062   1
  -2   0  10 3440.98 688.328   1
   2  -2  10 2222.13 604.604   1
  -2   0  13 227.332 661.359   3
   2  -2  13 289.627 661.860   1
  -2   0  13 657.047 610.609   1
   0   2  13-314.691 613.216   1
   1   1  -6 31032.6 1267.70   1
   1  -2  -6 28792.3 480.010   4
  -1  -1  -6 30131.3 536.997   4
   2  -1  -6 32156.0 1287.10   1
  -2   1  -3 79492.6 758.982   4
  -1   2  -3 79615.7 1462.39   1
   2  -1  -3 81803.2 1322.93   1
   1   1  -3 79595.3 1346.99   1
  -2   1  -3 81551.4 1523.00   1
  -1  -1  -3 79363.3 910.041   4
   1  -2  -3 79554.1 860.966   4
   2  -1  -3 76300.5 688.647   4
  -1  -1  -3 80737.3 1488.62   1
   1  -2  -3 80822.3 1399.43   1
  -2   1   3 82203.8 1232.76   2
  -2   1   3 81128.2 727.549   4
  -1  -1   3 77744.0 1343.69   1
  -1   2   3 80838.8 1388.23   1
   1  -2   3 82137.5 1186.37   2
   1   1   3 77402.0 1466.04   1
  -1   2   3 81436.2 898.707   4
  -2   1   3 77388.9 1297.00   1
   2  -1   3 74858.3 1474.23   1
  -1   2   3 81754.6 1055.69   2
   1  -2   3 81528.6 1475.12   1
   1   1   6 32418.2 1325.35   1
  -2   1   6 31399.6 967.640   2
  -1   2   6 30017.8 1235.97   1
   2  -1   6 31875.5 1321.84   1
   1   1   6 28956.0 686.726   2
   2  -1   6 27683.9 700.993   2
  -1   2   6 30593.2 845.847   2
  -2   1   6 29302.3 1191.01   1
   1  -2   6 29922.9 919.770   2
   1   1   6 30683.1 651.543   2
   2  -1   6 30779.2 687.636   2
   1  -2   6 29710.1 1282.02   1
  -1  -1   6 30080.6 1238.65   1
  -1   2   9 21755.5 782.008   2
  -2   1   9 21013.1 902.957   2
  -1   2   9 24514.7 1424.38   1
   1   1   9 23536.1 1439.19   1
  -2   1   9 22908.6 1017.96   2
  -1   2   9 20101.4 807.191   2
   2  -1   9 22205.4 1421.93   1
   1  -2   9 21959.9 1396.75   1
  -2   1   9 23359.9 1363.90   1
  -1  -1   9 24008.4 1409.48   1
  -1  -1   9 21485.8 978.046   2
   1  -2   9 22443.8 856.664   2
  -1  -1   9 22998.3 933.476   2
   1  -2   9 20809.9 777.514   2
   1   1  12 5030.31 885.403   1
  -1   2  12 6054.24 964.117   1
   2  -1  12 4190.61 868.052   1
  -1  -1  12 5716.22 933.063   1
  -2   1  12 4647.46 858.802   1
   1  -2  12 6839.71 1009.84   1
   0  -2  -4 12769.5 716.722   1
   2   0  -4 11272.9 620.446   1
   0  -2  -4 11596.8 380.884   4
  -2   2  -4 11195.0 659.078   1
   0  -2  -1-93.5482 77.3840   4
   0  -2  -1 2.64837 111.881   1
  -2   2  -1-33.3158 75.1083   4
  -2   2  -1-38.7731 119.740   3
  -2   2  -1 15.1685 90.4918   2
   2   0  -1-23.1957 98.3716   3
  -2   2   2 35477.8 549.930   4
   2   0   2 36496.5 966.333   3
   0  -2   2 34079.0 778.123   1
   0  -2   2 34481.0 782.776   2
  -2   2   2 33364.6 701.873   1
  -2   2   2 34611.0 696.651   2
   2   0   2 33074.1 827.394   1
  -2   2   5 0.08491 73.2984   4
   2   0   5-122.019 248.713   1
  -2   2   5 73.9689 139.057   2
  -2   2   5 27.8126 244.311   1
   0  -2   5 112.470 235.209   1
   0  -2   5 135.556 199.169   2
   0  -2   8 6492.21 500.484   2
  -2   2   8 6557.05 756.297   1
   0  -2   8 6163.90 518.047   2
   2   0   8 5393.66 691.481   1
   0  -2   8 6028.24 725.299   1
  -2   2   8 5214.07 455.434   2
   0  -2  11 278.322 525.842   1
   2   0  11 347.281 493.369   1
  -2   2  11-66.3179 432.860   1
  -3   0  -6 120870. 1253.30   4
   3  -3  -6 115780. 1139.62   4
   3  -3  -6 116218. 2404.90   1
  -3   0  -6 115631. 1316.14   4
   3  -3  -3-259.148 188.349   1
  -3   0  -3 343.453 225.773   1
   3  -3  -3-139.600 171.332   2
   3  -3  -3-56.8446 105.042   4
   0   3   0 126698. 1221.26   4
   3  -3   0 126411. 1175.59   4
   3  -3   0 122195. 1303.45   2
   0   3   0 125609. 1082.62   1
  -3   0   0 124843. 1349.01   3
   0   3   0 124916. 1375.20   2
   3  -3   0 125399. 1046.62   3
   0   3   3 8.92084 130.790   4
  -3   0   3 16.5799 78.7724   4
   3  -3   3 195.612 130.811   2
  -3   0   3 178.043 218.905   3
   0   3   3 113.878 219.793   1
   3  -3   3 178.756 243.808   1
  -3   0   3-30.8236 162.675   1
   3  -3   3-117.058 94.3097   4
   0   3   3-120.627 121.797   2
   0   3   6 86954.2 1220.74   2
   0   3   6 80313.2 2069.66   1
   3  -3   6 85699.0 1365.32   2
  -3   0   6 83484.8 1827.58   2
   3  -3   6 85269.2 2210.65   1
  -3   0   6 79952.9 1925.22   1
   3  -3   9 19.0668 118.743   2
  -3   0   9-350.922 316.138   2
  -3   0   9 133.021 386.784   1
   3  -3   9 229.579 387.945   1
  -3   0   9 90.1041 272.806   2
   0   3   9 32.5257 75.9480   2
   3  -3   9 42.4272 124.139   2
  -3   0  12 15134.4 1393.76   1
   3  -3  12 16284.7 1456.49   1
   0   3  12 17256.2 1484.69   1
  -3   0  12 17149.0 1541.63   3
  -2  -1  -7 13892.1 405.431   4
  -2  -1  -7 13963.2 396.360   4
  -2  -1  -4 1113.00 291.185   1
   3  -2  -4 535.809 252.701   1
   3  -2  -4 675.247 111.293   4
   2  -3  -4 600.810 125.855   4
   2  -3  -4 818.244 242.041   1
  -2  -1  -4 493.542 141.557   4
  -3   1  -4 1000.84 141.269   4
  -3   1  -4 1024.41 340.147   1
  -3   1  -1 6947.58 378.125   3
  -2  -1  -1 7686.05 387.286   3
   1   2  -1 6890.53 258.842   3
  -1   3  -1 6649.66 257.917   4
  -1   3  -1 6509.52 332.493   2
   2  -3  -1 6740.02 309.221   2
   3  -2  -1 7160.17 277.664   4
  -3   1  -1 6580.20 314.386   1
   2  -3  -1 6494.33 260.806   1
   3  -2  -1 6773.28 317.276   3
  -2  -1  -1 6774.08 328.135   1
   3  -2  -1 6933.02 340.704   2
   2  -3  -1 7037.08 290.283   4
  -3   1  -1 7106.01 239.375   2
  -1   3   2 28856.2 608.838   2
  -2  -1   2 28828.8 723.376   3
   3  -2   2 28557.7 506.664   2
  -3   1   2 29455.1 584.015   1
   3  -2   2 28008.6 797.912   1
  -2  -1   2 29329.5 629.425   1
  -3   1   2 30079.5 779.980   3
  -3   1   2 29681.0 511.275   4
   1   2   2 29239.9 779.722   1
   2  -3   2 30387.0 804.882   1
  -1   3   2 29182.5 734.704   1
   2  -3   2 29555.3 683.749   2
  -1   3   2 29979.8 619.723   4
   3  -2   2 29683.6 869.450   3
   2  -3   2 29300.2 491.029   4
   1   2   5 307.494 91.1208   2
   1   2   5 832.814 336.830   1
  -1   3   5 400.299 160.195   2
  -3   1   5 537.783 195.046   2
   2  -3   5 91.6014 303.094   1
  -3   1   5 294.428 243.291   1
  -1   3   5 569.144 265.348   1
   2  -3   5 135.496 163.992   2
   3  -2   5 381.861 113.047   2
  -2  -1   5 335.462 257.595   1
   3  -2   5 584.143 339.015   1
  -2  -1   8 693.892 259.386   2
  -2  -1   8 953.221 346.838   2
  -3   1   8 773.540 373.034   1
   2  -3   8 415.585 395.271   1
  -2  -1   8 1095.20 389.546   1
  -1   3   8 734.761 448.655   1
  -3   1   8 825.280 285.950   2
   2  -3   8 627.281 240.939   2
   3  -2   8 1089.84 451.883   1
   1   2   8 146.750 329.464   1
   3  -2   8 687.360 134.760   2
   3  -2   8 519.478 120.926   2
   2  -3   8 855.822 242.575   2
  -1   3   8 664.264 183.684   2
  -3   1  11-104.768 469.892   1
  -2  -1  11 873.720 578.451   1
  -1   3  11 1628.66 640.684   1
   3  -2  11-698.634 592.862   1
   1   2  11 365.816 519.399   1
   2  -3  11 33.3693 467.439   1
  -1  -2  -5 419.193 143.019   4
   1  -3  -5 191.222 105.330   4
   2   1  -5 900.094 300.962   1
  -2   3  -5 446.877 266.784   1
  -3   2  -5 175.551 284.789   1
   3  -1  -5 170.905 213.969   1
  -3   2  -5 327.440 77.3012   4
  -1  -2  -5 4.82584 249.524   1
   1  -3  -5 180.109 266.181   1
  -3   2  -2 29153.0 529.137   4
  -3   2  -2 29026.9 791.515   1
  -2   3  -2 30708.5 688.289   2
  -1  -2  -2 31473.1 806.192   1
  -3   2  -2 30674.5 540.650   2
  -2   3  -2 30301.8 494.702   4
   1  -3  -2 30226.1 743.343   1
   3  -1  -2 30552.7 597.949   1
   3  -1  -2 29874.7 526.141   4
  -1  -2  -2 30123.1 644.002   4
   1  -3  -2 29708.0 606.614   2
   1  -3  -2 29062.2 603.200   4
  -2   3   1 6562.66 281.959   4
  -3   2   1 6888.73 321.694   3
  -2   3   1 6653.19 322.391   2
  -3   2   1 6602.62 268.900   4
  -1  -2   1 6668.68 267.804   4
   3  -1   1 6988.77 239.624   2
   3  -1   1 6129.67 380.351   3
   1  -3   1 6694.56 256.577   4
  -3   2   1 7077.07 334.808   2
   3  -1   1 6471.64 315.669   1
  -2   3   1 6898.56 276.827   1
  -1  -2   1 7160.50 264.204   3
   2   1   1 7179.78 406.665   3
   2   1   1 6992.82 319.081   1
   1  -3   1 6986.65 349.489   2
   1  -3   4 912.036 279.291   1
  -2   3   4 481.471 141.527   2
  -3   2   4 612.149 114.064   4
  -3   2   4 694.790 183.577   2
   3  -1   4 461.431 290.665   1
   1  -3   4 1121.27 239.792   2
  -1  -2   4 135.351 200.441   1
  -2   3   4 723.212 247.280   1
  -3   2   4 910.946 254.216   1
  -2   3   4 772.703 147.496   4
   2   1   4 265.380 235.453   1
   1  -3   7 15359.3 761.316   2
   1  -3   7 15661.4 1035.23   1
  -1  -2   7 14762.8 824.325   2
   3  -1   7 15264.8 1052.74   1
  -2   3   7 15173.2 959.499   1
  -2   3   7 14795.5 677.188   2
   2   1   7 16141.4 1072.11   1
  -3   2   7 14569.6 933.450   1
  -3   2   7 16882.5 799.688   2
  -1  -2   7 16353.1 1005.26   1
  -1  -2  10-218.003 412.591   1
  -2   3  10-24.3559 205.609   2
   2   1  10 872.987 548.085   1
  -3   2  10 278.348 426.410   1
  -2   3  10-826.182 551.846   1
   1  -3  10-337.163 549.442   1
   3  -1  10-249.223 464.430   1
   1  -3  10 383.053 249.036   2
  -1  -2  10-30.0987 272.788   2
  -3   2  10-9.53260 294.086   2
   2   1  13 3836.60 961.367   1
  -1  -2  13 5056.30 965.036   1
  -3   2  13 2235.26 735.219   1
  -2   3  13 2717.87 737.294   1
  -3   2  13 3890.07 986.946   3
   3  -1  13 2218.60 828.158   1
  -1  -2  13 2722.01 861.861   3
   1  -3  13 1378.96 689.507   1
   0  -3  -6 82145.5 1156.20   4
   3   0  -6 79304.2 1913.53   1
   3   0  -3 9.15790 154.125   1
   0  -3  -3-86.2186 98.9216   2
  -3   3  -3-60.0743 187.667   1
  -3   3  -3 57.5130 127.927   2
   0  -3  -3 104.582 144.530   4
  -3   3  -3-66.2616 92.3457   4
   0  -3  -3-56.0122 221.882   1
  -3   3   0 131298. 1085.56   3
   0  -3   0 129511. 1235.07   4
   0  -3   0 130882. 1420.81   2
   3   0   0 130419. 1348.99   3
   0  -3   0 128824. 1103.62   1
  -3   3   0 135063. 1352.02   2
  -3   3   3 40.1571 137.025   2
   3   0   3-6.22019 247.005   1
   0  -3   3 317.811 206.682   2
  -3   3   3 29.5767 113.330   4
  -3   3   3 375.152 184.272   1
   0  -3   3-109.279 208.287   1
   3   0   3-84.2809 250.749   3
   0  -3   3 45.7008 63.4948   4
  -3   3   6 116175. 2336.73   1
   3   0   6 118224. 2578.03   1
   0  -3   6 112451. 2412.46   1
   0  -3   6 116994. 2131.21   2
  -3   3   6 117016. 1924.90   2
  -3   3   6 118160. 1237.75   4
  -3   3   9-110.460 251.781   2
   0  -3   9 164.549 375.942   1
   0  -3   9 56.1758 246.987   2
   0  -3   9-24.9428 255.035   2
  -3   3   9 266.911 355.855   1
   3   0   9 178.634 415.360   1
  -3   3  12 15954.8 1374.47   1
   3   0  12 11906.4 1334.72   1
   0  -3  12 14089.0 1353.37   1
   4  -4  -7 31.7905 88.9354   4
  -4   0  -7 83.2618 115.286   4
  -4   0  -7 85.5916 126.835   4
   4  -4  -4 2400.92 307.318   1
  -4   0  -4 2130.96 362.401   1
   4  -4  -4 2155.31 220.517   4
   0   4  -1-185.943 193.723   2
  -4   0  -1-184.488 168.302   1
   4  -4  -1-8.30528 128.873   3
   0   4  -1 38.4373 121.735   4
   4  -4  -1-97.7460 151.133   2
  -4   0  -1-0.42517 224.282   3
   4  -4  -1-57.3187 95.0986   1
   4  -4  -1 51.6647 128.390   4
   4  -4   2 8584.73 362.375   4
  -4   0   2 9821.17 331.184   1
  -4   0   2 10009.5 487.672   3
   0   4   2 9831.32 428.545   2
   4  -4   2 9883.50 530.375   1
   0   4   2 9580.99 481.600   1
   0   4   2 9172.26 436.679   4
   4  -4   2 9464.77 515.327   3
   4  -4   2 9539.66 434.675   2
  -4   0   5-43.5293 61.1392   4
   4  -4   5 14.6951 262.300   1
   4  -4   5 80.4679 144.102   2
   0   4   5-181.236 323.670   1
   0   4   5 99.9743 122.102   2
  -4   0   5 38.3615 201.561   1
  -4   0   5-9.91756 226.339   3
   4  -4   8 20361.9 1306.80   1
  -4   0   8 19417.0 1010.21   2
   0   4   8 16923.7 537.134   2
   0   4   8 21195.0 1263.46   1
   4  -4   8 21192.5 717.522   2
  -4   0   8 21850.6 1192.27   1
   0   4  11 202.301 488.585   1
  -4   0  11 525.435 518.269   1
  -4   0  11 334.920 566.615   3
   4  -4  11 354.054 535.315   1
  -3  -1  -8 5451.77 262.306   4
  -3  -1  -8 5420.92 276.662   4
  -4   1  -5 7601.47 356.402   4
  -3  -1  -5 6654.99 377.351   4
  -4   1  -5 6746.01 635.281   1
  -3  -1  -5 7404.76 655.731   1
   3  -4  -5 7134.37 346.933   4
   3  -4  -5 7475.98 593.401   1
   4  -3  -5 8159.79 571.788   1
   4  -3  -5 7109.35 326.155   4
   4  -3  -2 4726.56 354.897   2
  -4   1  -2 4519.13 196.580   2
   4  -3  -2 4117.13 262.260   4
   3  -4  -2 4528.78 304.392   1
  -1   4  -2 4140.96 350.682   2
  -3  -1  -2 4859.23 377.009   1
  -4   1  -2 4476.83 363.666   1
   3  -4  -2 4214.66 273.930   4
  -3  -1  -2 3797.07 417.374   3
   3  -4  -2 4396.92 317.648   2
   4  -3  -2 4667.63 259.945   1
  -4   1  -2 5110.58 424.542   3
  -1   4  -2 4727.46 246.480   4
  -1   4   1 3313.68 251.346   1
  -1   4   1 3091.15 272.832   2
   1   3   1 2607.67 276.445   3
   1   3   1 3415.71 284.593   4
   4  -3   1 3234.54 264.459   1
  -1   4   1 3705.34 261.378   4
  -3  -1   1 3190.58 260.115   3
  -4   1   1 3095.84 224.720   4
   3  -4   1 3455.17 299.549   2
  -4   1   1 3458.50 269.645   3
   1   3   1 3284.10 258.505   1
   4  -3   1 3408.41 290.182   3
   4  -3   1 3280.06 240.333   2
   3  -4   1 3864.19 247.599   4
   1   3   1 3095.86 242.202   2
   3  -4   1 3403.26 232.644   3
   4  -3   1 3062.19 225.019   4
  -1   4   4 534.552 156.364   4
  -1   4   4 386.374 232.777   1
   3  -4   4 191.148 91.4731   4
   4  -3   4 379.036 132.604   2
  -3  -1   4 193.183 64.8961   4
  -4   1   4 208.708 186.758   1
  -1   4   4 88.2935 128.863   2
  -4   1   4 354.853 108.388   4
   1   3   4 281.574 276.215   1
   1   3   4 246.847 101.046   2
  -4   1   4 133.207 178.713   2
  -3  -1   4 534.542 219.755   1
   4  -3   4 339.600 294.967   3
   3  -4   4 444.261 272.444   1
  -4   1   4 249.785 239.342   3
   4  -3   4 218.414 228.868   1
   3  -4   4 307.968 156.738   2
   1   3   7 2999.65 496.196   1
   3  -4   7 3856.23 376.129   2
   4  -3   7 3537.95 555.248   1
   3  -4   7 4111.06 604.332   1
  -1   4   7 3421.32 528.448   1
  -4   1   7 3757.74 443.059   2
  -3  -1   7 3601.50 516.961   1
  -3  -1   7 3612.62 458.956   2
  -4   1   7 4092.79 545.106   1
  -1   4   7 3704.54 320.827   2
   4  -3   7 3695.52 272.028   2
   3  -4  10 4774.67 797.206   1
   4  -3  10 4113.00 787.886   1
  -4   1  10 3206.17 544.025   2
  -3  -1  10 3343.46 562.548   2
   1   3  10 3977.47 750.775   1
  -4   1  10 4797.39 739.715   1
  -3  -1  10 3085.40 641.905   1
  -1   4  10 3519.07 652.183   1
  -4   1  10 2907.51 701.828   3
  -3  -1  13 2128.86 725.390   1
  -4   1  13 2126.56 759.391   1
   1   3  13 2892.36 858.748   1
  -4   1  13 2504.72 838.975   3
  -1   4  13 1223.91 631.181   1
   4  -3  13 2339.71 807.115   1
  -3  -1  13 3875.24 1002.01   3
   3  -4  13 2691.67 873.595   1
   2  -4  -6 14857.8 492.583   4
  -4   2  -6 13730.6 434.692   4
   4  -2  -6 14636.0 849.842   1
  -2  -2  -6 14981.1 541.891   4
  -4   2  -6 14139.8 416.604   4
  -2  -2  -3 94361.7 1698.26   1
  -2  -2  -3 87944.2 1267.19   4
   2  -4  -3 90359.5 1297.06   2
  -2   4  -3 89862.4 1456.37   2
  -4   2  -3 90319.1 925.020   2
  -4   2  -3 92774.7 1109.63   4
  -4   2  -3 89135.4 1661.58   1
   2  -4  -3 92525.2 1537.64   1
   2  -4  -3 89630.6 1195.34   4
   4  -2  -3 92544.1 1063.36   4
   4  -2  -3 95287.3 1332.78   1
  -2   4  -3 92852.2 950.645   4
   2  -4   0 33582.5 607.790   1
   2   2   0 33245.8 542.145   1
  -2  -2   0 34150.3 686.605   3
   4  -2   0 31347.3 711.059   3
  -2   4   0 31936.3 662.087   4
  -4   2   0 33150.8 692.005   2
  -4   2   0 32922.3 728.652   3
  -2  -2   0 32796.9 546.455   1
  -2   4   0 33803.8 782.939   2
   4  -2   0 31455.1 699.855   2
   2  -4   0 32744.8 778.383   2
  -4   2   0 33501.5 642.656   4
   4  -2   0 33544.9 651.488   4
   2  -4   0 32040.7 661.235   4
   2   2   0 33410.3 655.944   3
  -2   4   3 87510.1 1320.07   2
  -2   4   3 86049.7 1473.10   1
   2   2   3 83535.4 1589.52   1
  -4   2   3 85900.3 1247.70   1
   4  -2   3 82169.7 1625.48   1
  -4   2   3 87530.8 1041.09   4
   4  -2   3 81374.2 1767.32   3
  -2   4   3 86543.9 1195.04   4
  -4   2   3 85000.5 1477.59   2
  -4   2   3 85497.9 1603.79   3
  -2  -2   3 86115.7 1383.68   1
   2  -4   3 82649.4 1589.91   1
   2  -4   3 83869.0 1415.98   2
   4  -2   3 85033.0 843.492   2
  -2  -2   3 84697.5 912.659   4
   2  -4   3 86396.2 908.255   4
  -4   2   6 13755.5 808.105   1
  -4   2   6 12455.8 347.476   4
   2   2   6 13355.5 885.055   1
  -2   4   6 14730.2 663.780   2
  -2   4   6 12533.4 821.498   1
  -4   2   6 14304.2 738.632   2
   4  -2   6 14431.8 958.210   1
   2  -4   6 14211.9 704.438   2
  -2  -2   6 14592.3 866.169   1
   2  -4   6 13802.4 919.488   1
   2  -4   9 23910.6 957.311   2
  -2  -2   9 21941.3 1139.33   2
   2   2   9 22395.9 1388.14   1
  -2  -2   9 21105.7 1048.06   2
   4  -2   9 23909.6 1490.57   1
  -2   4   9 21165.8 820.897   2
  -2   4   9 21333.2 1312.80   1
   2  -4   9 20801.3 1366.46   1
  -4   2   9 21072.5 1040.68   2
  -4   2   9 24088.9 1366.57   1
  -2  -2   9 20465.7 1284.43   1
   2  -4   9 21021.6 877.010   2
  -4   2  12 5252.16 881.453   1
  -2   4  12 5924.32 966.734   1
   4  -2  12 2524.14 752.166   1
  -2  -2  12 3611.88 773.331   1
   2   2  12 4902.84 909.504   1
   2  -4  12 3748.40 814.183   1
  -4   2  12 3758.81 867.060   3
  -2  -2  12 5806.51 1025.23   3
   1  -4  -7 3594.90 265.279   4
  -1  -3  -7 3838.71 285.353   4
  -4   3  -4 556.997 126.909   4
  -4   3  -4 493.028 279.303   1
   1  -4  -4 503.552 154.619   4
  -1  -3  -4 573.814 110.152   2
  -1  -3  -4 444.727 163.400   4
   1  -4  -4 448.242 262.676   1
  -3   4  -4 509.391 103.942   4
  -1  -3  -4 508.518 263.966   1
   4  -1  -4 467.251 193.548   1
   1  -4  -4 711.100 154.424   2
   4  -1  -1 2709.74 262.501   3
   1  -4  -1 3380.82 260.386   4
  -1  -3  -1 2929.03 243.890   2
  -1  -3  -1 3118.12 252.340   1
  -4   3  -1 3016.90 294.194   3
  -4   3  -1 2765.09 224.486   2
  -3   4  -1 3200.63 225.838   4
   1  -4  -1 3186.79 279.882   2
   3   1  -1 2740.85 224.992   3
  -3   4  -1 2754.66 210.179   3
  -1  -3  -1 2848.73 251.111   4
  -4   3  -1 3311.66 227.572   4
  -1  -3  -1 3002.39 262.424   3
  -3   4  -1 2860.94 261.470   2
   1  -4  -1 2716.21 229.020   1
  -1  -3   2 4489.61 284.355   3
   4  -1   2 4622.36 445.787   3
  -4   3   2 4294.19 341.163   2
  -1  -3   2 4073.77 380.299   2
   1  -4   2 3987.65 234.260   4
   3   1   2 3771.86 360.125   1
  -4   3   2 4152.89 336.176   3
  -4   3   2 3841.50 254.852   4
   4  -1   2 4110.68 361.470   1
  -1  -3   2 4155.16 241.393   4
  -4   3   2 4406.87 250.948   1
  -3   4   2 4157.94 279.094   1
   1  -4   2 4054.83 339.492   2
   4  -1   2 3772.27 190.203   2
  -3   4   2 3949.80 273.695   4
  -3   4   2 4387.26 328.853   2
   3   1   2 3917.51 392.806   3
  -4   3   5 8724.97 601.318   1
  -1  -3   5 8381.60 632.222   1
   1  -4   5 7414.79 632.245   1
   1  -4   5 8604.61 576.386   2
  -4   3   5 8453.74 368.421   4
  -4   3   5 8441.03 539.104   2
  -1  -3   5 8437.66 622.302   2
   4  -1   5 7358.94 669.022   1
   3   1   5 8943.79 671.296   1
  -3   4   5 8469.67 617.241   1
  -3   4   5 8494.23 399.715   4
  -3   4   5 8162.27 513.693   2
   4  -1   5 9218.92 790.790   3
   1  -4   8 7030.01 777.484   1
  -1  -3   8 8170.78 799.944   1
   4  -1   8 5341.16 707.229   1
  -3   4   8 6939.08 749.879   1
   1  -4   8 6603.70 571.215   2
   3   1   8 5638.84 711.348   1
  -4   3   8 6533.38 697.894   1
  -3   4   8 6267.34 518.767   2
  -1  -3   8 5964.90 590.455   2
  -4   3   8 5770.37 549.603   2
  -3   4  11 841.861 540.145   1
   4  -1  11 1194.63 574.680   1
   3   1  11 1451.63 639.270   1
  -4   3  11 347.713 468.273   1
   1  -4  11-219.603 522.977   1
  -1  -3  11 894.710 477.443   1
   0  -4  -8 19000.0 560.445   4
   0  -4  -5-13.6352 126.448   4
   0  -4  -5 319.778 260.913   1
  -4   4  -5-6.43077 294.792   1
  -4   4  -5-1.09867 83.8150   4
   4   0  -5 308.421 225.468   1
   4   0  -2 7927.85 440.203   3
   0  -4  -2 7638.99 444.950   1
  -4   4  -2 7056.61 423.432   3
   0  -4  -2 7983.17 405.930   4
  -4   4  -2 7935.97 343.574   4
   0  -4  -2 8085.03 390.213   2
  -4   4  -2 7405.61 389.343   2
  -4   4   1 90.7187 141.447   4
   0  -4   1 43.7899 131.896   4
   4   0   1-143.073 203.561   3
  -4   4   1-51.8192 165.156   2
  -4   4   1 94.8161 125.895   3
   0  -4   1-41.3672 76.6354   3
   0  -4   1-277.058 201.990   2
   4   0   1 15.5073 139.621   1
  -4   4   1-71.1349 101.639   1
   4   0   4 3031.23 517.515   3
   0  -4   4 3318.10 173.989   4
  -4   4   4 3135.72 367.484   1
   0  -4   4 3495.98 402.475   2
  -4   4   4 3747.89 367.710   2
   4   0   4 2816.75 411.011   1
   0  -4   4 4041.07 445.746   1
  -4   4   4 3746.96 287.181   4
  -4   4   7-143.698 278.146   1
   0  -4   7-217.484 276.401   1
  -4   4   7-29.0447 205.360   2
  -4   4   7-27.8542 98.4973   4
   4   0   7-399.640 329.587   1
   0  -4   7-277.932 272.934   2
   0  -4  10 8395.75 956.797   1
  -4   4  10 8433.52 920.576   1
   0  -4  10 6679.09 668.728   2
  -4   4  13 1471.01 712.306   1
   4   0  13-615.530 632.702   1
  -4   4  13-893.410 754.870   3
   0  -4  13 25.7354 555.328   1
  -5   0  -8 1759.20 199.731   4
  -5   0  -8 1611.65 218.374   4
   5  -5  -8 1619.87 172.617   4
   5  -5  -5-77.5503 137.585   4
   5  -5  -5 110.171 208.256   1
   0   5  -2 55413.1 1325.11   2
  -5   0  -2 54199.7 825.557   2
   5  -5  -2 52809.8 1191.51   2
   0   5  -2 54486.1 968.802   4
   5  -5  -2 54741.5 922.115   1
  -5   0  -2 53874.3 1384.46   3
  -5   0  -2 56771.5 1222.07   1
   5  -5   1-94.5630 148.330   3
   0   5   1-143.009 155.143   1
   5  -5   1 107.851 152.115   4
  -5   0   1 52.3827 187.695   3
   5  -5   1 85.1715 186.957   2
   0   5   1-93.7948 160.215   3
   0   5   1-134.429 185.895   2
   0   5   1-79.7548 153.127   4
   5  -5   4 13296.9 815.650   3
  -5   0   4 12943.0 446.516   4
   0   5   4 12729.8 594.827   4
   5  -5   4 12922.4 472.112   4
  -5   0   4 13404.7 747.695   3
   5  -5   4 12528.3 775.779   1
   0   5   4 12371.0 720.584   1
  -5   0   4 12554.9 570.176   1
   5  -5   4 13762.4 592.635   2
   0   5   4 12731.0 527.824   2
   0   5   7-2.01389 121.429   2
   5  -5   7 21.5416 374.481   1
  -5   0   7 108.199 258.079   2
  -5   0   7 300.055 358.161   3
  -5   0   7 244.983 303.339   1
   5  -5   7-87.8367 146.535   2
   0   5   7 161.217 369.013   1
   0   5  10 12789.9 1169.93   1
  -5   0  10 12634.8 1069.77   1
  -5   0  10 13938.4 1252.67   3
  -5   0  10 12927.6 1029.17   2
   5  -5  10 13955.3 1319.73   1
  -4  -1  -9 9619.40 315.420   4
   4  -5  -6 17859.1 589.694   4
  -5   1  -6 18436.8 597.645   4
  -5   1  -6 18192.4 636.570   4
   5  -4  -6 17327.9 538.422   4
  -4  -1  -6 18534.9 668.762   4
   4  -5  -6 17942.7 963.525   1
   5  -4  -6 18534.1 933.915   1
   5  -4  -3 38179.6 835.117   4
   5  -4  -3 38258.8 1069.67   2
   4  -5  -3 40434.6 1020.17   2
   5  -4  -3 38875.7 881.528   1
  -4  -1  -3 40517.5 1188.37   1
  -1   5  -3 40446.4 745.179   4
   4  -5  -3 40877.9 989.761   1
   4  -5  -3 39485.8 863.714   4
  -5   1  -3 38647.4 1168.47   1
  -1   5   0 3391.95 286.186   4
  -5   1   0 4439.23 363.625   3
  -1   5   0 3912.15 343.699   2
   1   4   0 3670.09 267.409   1
   5  -4   0 4217.44 301.370   4
   4  -5   0 3137.25 279.000   4
   4  -5   0 3685.74 330.056   2
  -5   1   0 4010.25 198.301   1
   1   4   0 4044.72 349.263   2
   1   4   0 4275.33 247.969   3
  -1   5   0 4115.75 274.121   1
   5  -4   0 3989.15 282.393   3
  -4  -1   0 3819.15 215.756   1
   5  -4   0 4503.30 349.825   2
   1   4   0 4378.16 327.023   4
  -4  -1   0 3751.26 342.566   3
  -5   1   0 3954.63 312.992   2
   4  -5   0 4237.25 230.570   3
   5  -4   3 83651.8 1164.85   4
  -5   1   3 86649.5 1649.15   3
   4  -5   3 86236.1 1451.15   2
  -1   5   3 90472.9 1410.48   2
   1   4   3 86560.2 1177.45   2
   4  -5   3 82848.1 1100.94   4
  -1   5   3 82821.9 1557.63   1
   5  -4   3 92426.7 1842.77   3
   5  -4   3 76856.2 1616.94   1
  -4  -1   3 85243.3 1584.26   3
  -1   5   3 83619.2 1385.98   4
  -5   1   3 88277.0 1189.12   1
  -4  -1   3 85932.7 1273.04   1
   4  -5   3 82970.9 1641.24   3
   1   4   3 81782.9 1610.44   1
   4  -5   3 84864.7 1720.77   1
  -5   1   3 87100.6 1137.26   4
   5  -4   3 81296.3 1178.63   2
   5  -4   6 8683.09 781.399   1
   4  -5   6 8056.13 502.457   2
  -4  -1   6 8077.55 706.174   3
   1   4   6 6922.93 314.330   2
   5  -4   6 8446.52 400.661   2
  -5   1   6 10068.4 690.427   1
  -4  -1   6 8079.85 630.569   1
  -5   1   6 9614.05 775.188   3
   4  -5   6 8257.49 767.248   1
  -1   5   6 7870.80 699.892   1
   1   4   6 8382.03 717.019   1
  -5   1   6 7713.88 291.077   4
  -1   5   6 8877.23 482.593   2
  -5   1   6 8670.23 646.246   2
  -4  -1   9 22928.1 1444.21   3
   1   4   9 25446.4 1501.44   1
  -1   5   9 23537.0 1416.58   1
  -4  -1   9 25258.0 1382.42   1
   4  -5   9 26479.0 1559.01   1
  -5   1   9 23687.0 1319.98   1
  -5   1   9 25039.1 1513.14   3
   4  -5   9 21005.5 787.001   2
   4  -5   9 23230.5 848.177   2
  -4  -1   9 22893.6 1253.82   2
   5  -4   9 24258.4 1520.69   1
  -1   5   9 19089.5 641.581   2
   4  -5  12 4293.05 930.355   1
   1   4  12 4512.16 835.813   1
  -4  -1  12 4232.93 923.868   3
  -5   1  12 3880.33 850.148   3
  -5   1  12 4902.90 820.998   1
  -4  -1  12 4474.60 848.985   1
   5  -4  12 3551.95 841.369   1
  -1   5  12 2725.99 789.324   1
  -5   2  -7 13289.1 476.235   4
   3  -5  -7 13989.7 515.222   4
  -3  -2  -7 14436.0 568.934   4
  -5   2  -7 13230.9 445.726   4
   3  -5  -4 4127.26 430.862   1
  -3  -2  -4 3868.90 457.628   1
   3  -5  -4 3203.73 332.558   2
  -2   5  -4 3355.06 214.609   4
  -5   2  -4 3574.10 483.188   1
   5  -3  -4 4345.58 365.939   1
   5  -3  -4 3300.42 247.903   4
  -3  -2  -4 3768.83 329.496   4
  -5   2  -4 2982.89 254.405   4
   3  -5  -4 3498.58 297.904   4
  -5   2  -1 22619.4 613.726   4
  -5   2  -1 21049.1 750.116   3
  -5   2  -1 22926.9 628.537   1
  -2   5  -1 22496.8 602.246   4
   3  -5  -1 22934.1 644.274   4
   2   3  -1 21287.7 505.133   3
   3  -5  -1 23263.0 705.580   2
  -5   2  -1 21941.6 581.154   2
  -3  -2  -1 23197.5 754.141   3
  -2   5  -1 23143.9 765.881   2
   3  -5  -1 23070.6 584.502   1
  -3  -2  -1 23243.9 643.135   1
   5  -3  -1 23101.2 365.437   1
   5  -3  -1 20678.1 587.934   4
   5  -3  -1 22743.5 645.722   3
   5  -3  -1 22497.9 719.063   2
  -2   5   2 27663.1 760.732   1
   2   3   2 28045.3 653.145   2
   3  -5   2 26844.2 633.514   4
   2   3   2 28937.0 959.571   3
   5  -3   2 27864.6 671.962   4
   5  -3   2 28843.1 977.030   3
  -5   2   2 28669.4 871.552   2
  -5   2   2 27211.0 850.715   3
  -2   5   2 27960.2 734.875   4
   5  -3   2 27789.9 855.750   1
   5  -3   2 25804.5 609.146   2
   3  -5   2 29807.6 865.617   2
  -5   2   2 29066.7 668.274   4
  -2   5   2 29850.8 817.296   2
   3  -5   2 29301.5 759.461   3
  -3  -2   2 29748.4 768.313   3
  -5   2   2 28987.0 490.408   1
   2   3   2 26607.9 809.866   1
  -5   2   5 4305.20 439.159   2
  -2   5   5 3811.27 316.651   4
   2   3   5 3594.76 487.951   1
   3  -5   5 4504.49 411.546   2
   5  -3   5 3525.47 484.670   1
  -3  -2   5 3028.25 164.068   4
  -3  -2   5 4040.06 429.655   1
  -2   5   5 3342.86 435.574   1
  -5   2   5 4078.84 255.114   4
  -5   2   5 3141.48 437.293   3
  -2   5   5 4243.36 369.418   2
   5  -3   5 3286.75 207.806   2
   5  -3   5 3212.86 535.050   3
  -3  -2   5 3284.10 175.863   4
   3  -5   5 3970.75 526.084   1
  -5   2   5 4448.64 436.769   1
  -3  -2   8 13354.0 949.779   1
   3  -5   8 14262.2 743.375   2
  -5   2   8 14190.3 857.916   2
  -2   5   8 13703.6 660.932   2
   5  -3   8 13639.4 1111.81   1
   3  -5   8 13108.8 1059.85   1
  -3  -2   8 15893.3 1010.73   2
  -5   2   8 12875.1 929.192   1
   2   3   8 12802.8 1052.24   1
  -2   5   8 16821.4 1106.29   1
  -3  -2   8 11257.1 856.355   2
  -3  -2  11 726.836 487.987   1
  -2   5  11 1408.74 564.749   1
   5  -3  11-220.783 549.616   1
  -3  -2  11-94.6285 469.699   3
  -5   2  11 86.1090 434.893   1
   2   3  11-35.0934 481.919   1
  -5   2  11 959.881 575.839   3
   3  -5  11 953.441 539.441   1
   2  -5  -8 13606.7 486.454   4
  -2  -3  -8 14576.0 544.391   4
   5  -2  -5 4093.11 404.907   1
   2  -5  -5 5019.43 377.953   2
  -2  -3  -5 5053.68 356.902   4
  -3   5  -5 4274.21 222.764   4
  -5   3  -5 4772.93 289.396   4
  -2  -3  -5 4886.95 549.859   1
   2  -5  -5 4951.86 337.857   4
   2  -5  -5 4466.20 497.479   1
  -5   3  -5 4043.09 531.597   1
   5  -2  -2 26740.2 656.611   4
  -3   5  -2 26642.6 827.900   2
   2  -5  -2 26037.8 744.303   1
  -2  -3  -2 26250.5 817.975   1
  -5   3  -2 26873.6 829.430   1
  -5   3  -2 25465.6 646.989   4
  -2  -3  -2 24741.4 603.688   2
   3   2  -2 25620.3 715.452   3
   2  -5  -2 24417.8 697.006   4
  -5   3  -2 26119.4 623.518   2
  -5   3  -2 27588.7 937.074   3
   5  -2  -2 27178.6 493.794   1
  -2  -3  -2 26056.9 759.176   4
   5  -2  -2 26090.1 785.320   3
   2  -5  -2 26181.1 732.124   2
  -3   5  -2 26677.2 623.176   4
  -3   5   1 22581.3 557.244   3
   3   2   1 24151.5 790.467   3
   2  -5   1 22077.1 599.787   4
   5  -2   1 22443.2 767.834   3
  -5   3   1 23346.2 667.469   3
   5  -2   1 21812.8 621.171   1
  -3   5   1 22076.6 718.896   2
  -5   3   1 22357.0 721.874   2
  -5   3   1 23253.0 615.326   4
   2  -5   1 22935.3 767.711   2
  -2  -3   1 24529.9 656.180   4
   5  -2   1 21587.8 581.513   2
  -2  -3   1 23743.2 521.029   1
  -3   5   1 22932.7 589.857   1
  -3   5   1 22975.5 653.273   4
  -2  -3   1 23279.6 547.007   3
   3   2   1 23303.7 625.895   1
   3   2   4 2219.56 457.760   3
  -3   5   4 3292.10 380.714   1
  -5   3   4 2985.07 428.328   3
   2  -5   4 2671.85 341.682   2
   5  -2   4 3518.52 460.486   1
  -5   3   4 3079.60 245.906   4
   2  -5   4 2952.30 195.283   4
  -2  -3   4 2908.65 343.267   1
  -3   5   4 3008.66 333.345   2
   2  -5   4 2257.44 369.817   1
  -2  -3   4 2732.33 181.600   4
  -3   5   4 3247.47 284.864   4
  -5   3   4 2985.55 348.538   2
  -5   3   4 3066.52 319.079   1
   3   2   4 2982.61 418.167   1
   5  -2   4 2661.30 457.286   3
   5  -2   7 13269.8 1033.33   1
  -3   5   7 13129.2 706.655   2
  -2  -3   7 12744.8 856.461   2
   3   2   7 13102.0 998.434   1
   2  -5   7 13017.5 779.423   2
  -5   3   7 15005.9 838.187   2
  -5   3   7 11814.1 379.399   4
  -5   3   7 13471.0 860.862   1
  -2  -3   7 13849.2 937.193   1
   2  -5   7 11902.3 991.356   1
  -3   5   7 12830.1 881.868   1
  -2  -3  10 6507.54 685.534   2
   3   2  10 5999.24 898.312   1
   2  -5  10 8249.96 976.089   1
   5  -2  10 6085.98 900.003   1
   2  -5  10 6603.72 587.406   2
  -2  -3  10 6193.75 859.259   1
  -5   3  10 6508.39 911.168   3
  -5   3  10 6764.04 804.460   1
  -3   5  10 7085.67 879.712   1
  -5   3  13 3336.23 828.053   1
   5  -2  13 2440.35 863.460   1
  -3   5  13 2111.59 744.605   1
  -2  -3  13 2543.08 796.367   1
   3   2  13 975.649 701.989   1
   2  -5  13 1299.46 776.073   1
  -1  -4  -9 23189.9 587.162   4
   1  -5  -9 21953.5 559.962   4
  -5   4  -6 8137.39 341.679   4
  -4   5  -6 7524.34 280.303   4
   1  -5  -6 8693.01 466.996   4
   5  -1  -6 8441.68 640.248   1
  -1  -4  -6 9121.77 481.291   4
  -4   5  -3 88944.4 1149.51   4
  -1  -4  -3 88486.9 1128.71   2
  -5   4  -3 93999.0 1244.34   4
   5  -1  -3 91257.2 1216.19   1
  -1  -4  -3 92471.8 1712.94   1
  -5   4  -3 91621.2 1301.64   2
   1  -5  -3 92621.5 1655.04   1
   1  -5  -3 87334.2 1366.96   4
  -4   5  -3 93663.1 1503.39   2
   1  -5  -3 88704.7 1308.55   2
  -1  -4  -3 87856.2 1396.08   4
  -1  -4   0 5992.89 292.855   3
  -4   5   0 6140.19 403.162   2
   4   1   0 6117.82 257.475   1
  -4   5   0 5899.80 278.273   3
  -4   5   0 5915.89 354.604   4
   1  -5   0 6074.58 422.795   2
  -5   4   0 4361.79 304.029   4
  -1  -4   0 6410.51 384.796   4
   1  -5   0 5818.34 318.742   1
  -5   4   0 6516.83 400.805   2
  -1  -4   0 5370.83 405.061   2
   5  -1   0 5120.12 365.251   3
  -5   4   0 5932.15 353.039   3
   5  -1   0 5812.29 235.782   1
  -1  -4   0 6543.68 319.146   1
   4   1   0 7095.29 409.690   3
   1  -5   0 6061.49 359.051   4
   5  -1   3 37992.6 1328.15   3
  -5   4   3 40946.7 886.705   1
   5  -1   3 42623.7 1211.10   1
   1  -5   3 41059.0 1157.54   2
  -4   5   3 41620.1 922.953   4
  -5   4   3 40388.9 1100.53   2
  -1  -4   3 40193.7 1211.25   2
  -5   4   3 42541.2 1168.35   3
  -1  -4   3 40951.1 741.229   4
  -5   4   3 41882.8 873.007   4
   1  -5   3 42321.7 747.351   4
  -4   5   3 43199.9 1099.63   2
   4   1   3 41008.0 1189.69   1
   4   1   3 39070.4 1322.89   3
  -4   5   3 40499.8 978.971   1
   1  -5   6 17778.4 1033.51   1
  -4   5   6 18395.9 830.766   2
  -5   4   6 18915.0 877.976   2
  -5   4   6 19486.1 942.787   1
   5  -1   6 16629.5 1034.44   1
  -4   5   6 18022.7 942.174   1
  -1  -4   6 17670.1 967.700   2
  -4   5   6 19039.3 651.342   4
  -5   4   6 19053.1 593.625   4
  -1  -4   6 18257.0 998.524   1
   1  -5   6 18689.7 913.514   2
   4   1   6 15349.4 1000.84   1
   1  -5   9 13017.3 858.620   2
   4   1   9 13108.5 1108.55   1
   5  -1   9 13458.3 1135.83   1
  -1  -4   9 12880.6 918.619   2
   1  -5   9 14741.2 1167.04   1
  -4   5   9 11590.9 752.919   2
  -5   4   9 11877.4 820.289   2
  -4   5   9 13098.3 1049.68   1
  -1  -4   9 13155.2 1065.96   1
  -5   4   9 14677.3 1077.86   1
  -4   5  12 2465.76 717.292   1
  -4   5  12 1391.79 701.314   3
   5  -1  12 3837.53 885.614   1
  -1  -4  12 1904.91 625.281   1
  -5   4  12 2248.24 771.180   3
  -5   4  12 2058.79 663.676   1
  -1  -4  12 1765.10 782.652   3
   1  -5  12 2865.03 748.511   1
   4   1  12 1522.61 643.246   1
  -5   5  -7-36.9364 52.0567   4
   0  -5  -7 83.8662 163.342   4
  -5   5  -4 14229.7 602.538   2
   0  -5  -4 12558.0 578.160   4
   0  -5  -4 13906.9 511.412   2
   0  -5  -4 14107.4 761.626   1
  -5   5  -4 13585.6 484.469   4
   5   0  -1 23.9729 164.754   3
  -5   5  -1-217.012 188.736   2
   0  -5  -1 5.37144 205.592   2
  -5   5  -1-110.594 185.709   3
   0  -5  -1 160.961 160.810   4
   0  -5  -1-137.880 152.387   1
  -5   5  -1-23.3378 140.983   4
  -5   5   2 55270.4 1172.49   3
   0  -5   2 53824.8 1334.06   2
   0  -5   2 53776.4 855.657   3
   0  -5   2 52526.1 934.482   4
   5   0   2 52592.4 1174.85   1
  -5   5   2 52873.8 1034.82   4
  -5   5   2 54391.2 1226.07   2
  -5   5   2 52908.8 891.938   1
  -5   5   5 72.7092 161.066   4
   5   0   5 74.9551 291.327   1
  -5   5   5-66.3425 182.998   2
  -5   5   5-5.94554 216.231   1
   0  -5   5-289.289 261.157   1
   0  -5   5-43.7077 245.569   2
   0  -5   5 1.50953 61.6077   4
   0  -5   8 2119.75 511.476   1
  -5   5   8 1937.70 441.041   1
   0  -5   8 2193.70 447.672   2
   5   0   8 2433.23 579.789   1
  -5   5   8 2437.05 420.077   2
   0  -5  11-594.137 453.509   1
  -5   5  11 732.286 532.118   1
   5   0  11-46.7544 567.905   1
  -5   5  11 242.259 523.072   3
  -6   0  -9 50.3662 120.869   4
  -6   0  -9-6.73821 121.335   4
   6  -6  -6 32512.0 1277.74   1
   6  -6  -6 34276.6 915.068   4
   6  -6  -3 33.1944 161.049   4
   6  -6  -3-220.212 231.510   2
   6  -6  -3 59.8190 174.861   1
  -6   0  -3-59.9819 237.378   1
  -6   0  -3-83.0872 295.449   3
  -6   0  -3 22.0721 88.3472   2
   0   6  -3-1.18922 138.524   4
   6  -6   0 29138.4 823.916   4
   0   6   0 30397.6 586.630   3
  -6   0   0 28190.8 967.142   3
   0   6   0 29292.1 851.154   4
  -6   0   0 30445.1 612.189   1
   6  -6   0 28886.5 910.129   2
   0   6   0 31475.1 1002.16   2
   6  -6   0 29329.0 729.885   3
   0   6   0 28939.0 770.141   1
  -6   0   3 148.595 129.006   1
   0   6   3-152.210 202.272   4
  -6   0   3 252.246 159.834   4
   6  -6   3 52.6795 161.205   4
   6  -6   3-131.303 185.504   2
   6  -6   3-19.8355 236.062   3
  -6   0   3-151.254 233.197   3
   6  -6   3-184.296 270.298   1
   0   6   3 95.7842 185.213   2
   0   6   3 368.067 244.212   1
   6  -6   6 24413.9 839.065   2
   0   6   6 24061.4 757.896   2
   0   6   6 23939.1 1188.53   1
  -6   0   6 25159.9 1021.29   1
  -6   0   6 23544.7 587.049   4
   6  -6   6 24003.6 1268.26   1
  -6   0   6 25913.4 1240.27   3
   6  -6   9-60.0139 124.833   2
   0   6   9-70.0720 361.736   1
  -6   0   9 521.664 421.901   3
   6  -6   9-290.293 515.401   1
  -6   0   9-246.258 337.046   1
  -6   0  12 19776.0 1694.17   3
  -6   0  12 15071.9 1303.70   1
   6  -6  12 16113.5 1546.92   1
   0   6  12 17271.3 1474.20   1
   5  -6  -7 15892.2 608.845   4
  -5  -1  -7 16555.1 679.128   4
   6  -5  -7 15109.0 551.401   4
  -6   1  -7 17254.2 625.293   4
  -6   1  -7 17383.8 668.422   4
   5  -6  -4 828.000 247.698   1
   6  -5  -4 1131.89 273.564   2
   6  -5  -4 851.850 197.845   4
   6  -5  -4 1085.93 238.752   1
   5  -6  -4 935.506 212.076   4
  -6   1  -4 914.124 289.313   1
   5  -6  -4 381.513 203.696   2
  -1   6  -4 779.049 154.362   4
  -5  -1  -4 987.866 352.045   1
   1   5  -1 63989.3 792.230   3
   1   5  -1 65742.4 1463.56   2
  -5  -1  -1 63840.7 1107.09   1
  -6   1  -1 65191.8 1133.10   2
   6  -5  -1 65631.8 1336.75   2
  -1   6  -1 62775.7 1144.08   4
   6  -5  -1 61954.4 1113.99   3
  -6   1  -1 65058.6 1115.56   1
   6  -5  -1 64107.6 1170.64   4
  -1   6  -1 64550.5 1425.17   2
   6  -5  -1 64546.9 853.389   1
   5  -6  -1 64053.9 1320.56   2
   5  -6  -1 65036.5 1054.60   3
  -5  -1  -1 62380.8 1419.11   3
   1   5  -1 64674.2 1178.79   4
   5  -6  -1 65623.7 1009.33   1
   5  -6  -1 63677.4 1160.60   4
   5  -6   2 1256.43 260.303   3
   1   5   2 1762.74 265.050   4
  -1   6   2 1932.33 292.151   1
   5  -6   2 1846.25 298.640   2
   6  -5   2 1706.66 300.572   3
  -6   1   2 1744.19 314.904   3
   1   5   2 2096.32 343.001   3
  -5  -1   2 2039.00 301.666   3
   1   5   2 2072.98 294.744   1
  -1   6   2 1920.38 269.771   4
   1   5   2 1742.29 251.802   2
  -1   6   2 2028.80 290.985   2
   6  -5   2 2043.67 231.492   4
   6  -5   2 1722.02 246.096   2
   6  -5   2 1807.70 301.111   1
  -6   1   2 1546.79 215.520   4
   5  -6   2 1736.45 228.521   4
   5  -6   5 9267.26 554.775   2
  -5  -1   5 8963.38 574.756   1
   5  -6   5 9017.11 396.567   4
  -5  -1   5 9005.70 659.790   3
   5  -6   5 9909.14 767.039   1
   6  -5   5 8770.36 447.186   2
  -1   6   5 10380.2 555.518   2
  -1   6   5 8806.07 536.808   4
   5  -6   5 8555.99 718.768   3
  -6   1   5 9679.46 693.507   2
   1   5   5 8573.73 410.685   2
  -5  -1   5 9164.96 368.457   4
  -6   1   5 8712.41 683.901   3
   1   5   5 9599.39 736.201   1
   6  -5   5 9222.63 770.346   3
  -1   6   5 8960.13 675.017   1
  -6   1   5 9498.28 562.938   1
  -6   1   5 8860.28 396.525   4
   6  -5   5 8715.95 737.742   1
   1   5   8 1723.90 493.079   1
  -5  -1   8 2529.89 547.676   3
  -6   1   8 1643.69 422.774   1
   6  -5   8 1532.19 177.426   2
   5  -6   8 1410.69 470.415   1
  -1   6   8 1271.17 219.530   2
   5  -6   8 1374.47 264.861   2
  -6   1   8 1901.40 472.425   3
   6  -5   8 1846.30 542.308   1
  -5  -1   8 1581.92 406.196   1
  -1   6   8 2291.19 540.228   1
  -6   1  11 1034.40 601.500   3
  -6   1  11 2188.19 639.012   1
  -6   1  11 2184.77 580.427   2
  -1   6  11 1510.06 572.075   1
   1   5  11 2467.27 675.372   1
   5  -6  11 1623.64 682.322   1
   6  -5  11 2910.04 750.455   1
  -5  -1  11 1523.76 542.224   2
  -5  -1  11 1189.23 592.578   3
  -5  -1  11 2277.05 649.772   1
  -4  -2  -8 228.094 150.722   4
  -6   2  -8-19.3956 105.293   4
  -6   2  -8-11.0959 101.867   4
   4  -6  -8 64.2684 136.916   4
   4  -6  -5 17651.0 877.846   1
   4  -6  -5 16293.8 738.189   2
   4  -6  -5 16589.5 627.145   4
  -4  -2  -5 16009.4 683.761   4
  -2   6  -5 15200.3 448.869   4
   6  -4  -5 17906.1 820.470   1
  -6   2  -5 17392.2 622.839   4
   6  -4  -5 17208.3 580.556   4
  -2   6  -2 19466.0 606.680   4
  -6   2  -2 18844.3 538.935   2
   4  -6  -2 18043.1 637.072   4
  -4  -2  -2 19149.5 579.416   2
   6  -4  -2 18642.5 628.261   4
   4  -6  -2 19844.2 642.205   1
   6  -4  -2 18500.2 706.401   3
   6  -4  -2 20362.0 482.661   1
   6  -4  -2 20349.5 786.336   2
  -6   2  -2 18605.4 631.609   4
  -6   2  -2 18952.5 732.013   1
  -4  -2  -2 19374.4 856.116   3
  -6   2  -2 19482.1 866.101   3
   4  -6  -2 18661.0 714.240   2
   2   4  -2 19076.7 589.238   3
  -4  -2  -2 18068.9 714.073   1
  -2   6  -2 19556.7 797.872   2
  -4  -2   1 11263.5 495.507   3
   2   4   1 11570.3 487.953   1
  -6   2   1 10490.4 560.294   2
   4  -6   1 10669.5 465.397   4
  -2   6   1 10511.0 470.088   1
   6  -4   1 11590.8 573.524   3
   2   4   1 10944.1 544.314   2
   6  -4   1 10785.7 488.428   4
  -2   6   1 11392.7 517.293   4
  -2   6   1 11029.8 559.598   2
  -6   2   1 10677.2 469.996   4
   4  -6   1 11778.2 391.194   3
   6  -4   1 11337.7 492.233   1
  -4  -2   1 10710.7 325.953   1
   6  -4   1 10724.2 489.222   2
  -6   2   1 10826.7 543.606   3
   4  -6   1 12331.8 611.497   2
   2   4   1 10691.0 547.493   3
  -4  -2   4 11429.3 661.255   3
   4  -6   4 10843.8 599.652   2
   2   4   4 11648.0 709.989   1
  -2   6   4 11555.5 569.670   4
  -2   6   4 10958.2 659.402   1
  -6   2   4 12683.2 549.089   1
  -6   2   4 13091.3 494.899   4
   4  -6   4 12676.9 454.600   4
  -6   2   4 12399.6 751.894   3
   6  -4   4 11525.5 759.948   1
   6  -4   4 11540.7 447.357   2
   6  -4   4 10920.4 768.853   3
  -4  -2   4 12522.4 619.679   1
  -6   2   4 11440.5 688.555   2
   2   4   4 11067.0 413.140   2
   4  -6   4 11062.6 739.440   1
  -2   6   4 12391.5 598.602   2
  -6   2   7 18517.1 1003.18   2
   6  -4   7 17460.2 424.523   2
   6  -4   7 21502.5 1284.70   1
   4  -6   7 20854.7 1282.22   1
   4  -6   7 20440.3 884.923   2
  -4  -2   7 19972.1 1156.01   3
  -4  -2   7 20761.6 1078.94   1
  -6   2   7 20457.3 1205.78   3
  -2   6   7 22020.1 848.630   2
   2   4   7 21421.0 1224.72   1
  -2   6   7 21256.6 1159.19   1
  -6   2   7 17729.3 455.023   4
  -6   2   7 21015.0 1031.64   1
   4  -6  10 1867.28 603.214   1
  -4  -2  10 1043.42 484.967   1
  -2   6  10 901.861 458.062   1
  -6   2  10 1540.94 528.358   1
   6  -4  10 2407.59 773.954   1
  -6   2  10 1452.10 558.950   3
  -4  -2  10 1318.10 469.873   2
   2   4  10 2061.99 594.925   1
  -4  -2  10 1884.52 646.806   3
   3  -6  -9 98.8414 97.1777   4
  -3  -3  -9 160.664 123.932   4
  -3  -3  -9 347.120 132.036   4
  -6   3  -6 31400.5 773.351   4
  -3  -3  -6 30890.2 922.640   4
   6  -3  -6 33579.7 1206.95   1
   3  -6  -6 32354.1 882.682   4
  -6   3  -3 4402.52 323.015   4
   6  -3  -3 4255.01 302.564   4
   6  -3  -3 4621.33 299.259   1
  -6   3  -3 4067.70 446.049   1
  -3  -3  -3 4282.79 252.509   2
   3  -6  -3 4460.71 335.213   4
   3  -6  -3 4256.87 362.946   2
  -3   6  -3 4526.17 423.981   2
  -3  -3  -3 4463.86 367.435   4
  -6   3  -3 4131.87 476.336   3
  -6   3  -3 4260.37 277.775   2
   3  -6  -3 3905.97 365.880   1
  -3  -3  -3 4327.56 452.497   1
  -3   6  -3 4114.15 283.207   4
   3  -6   0 391737. 2547.56   1
   3   3   0 399298. 2761.62   3
   3  -6   0 388228. 2738.71   4
   6  -3   0 387977. 2946.30   3
   6  -3   0 381110. 2712.35   4
  -6   3   0 385744. 2937.05   2
   6  -3   0 392814. 2061.57   1
  -6   3   0 394407. 3084.00   3
  -3   6   0 398990. 2779.23   4
  -6   3   0 401419. 2721.29   4
   6  -3   0 392567. 2919.71   2
  -3   6   0 400867. 3258.51   2
  -3  -3   0 390135. 2824.30   3
  -3  -3   3 4223.16 282.994   4
  -3   6   3 4990.88 377.424   4
   3  -6   3 4470.09 289.851   4
   3   3   3 4025.33 418.502   1
   3   3   3 4184.80 476.468   3
  -3  -3   3 3803.65 359.759   3
  -6   3   3 4460.08 429.947   3
  -6   3   3 4742.76 295.334   1
   6  -3   3 3780.63 452.300   1
  -6   3   3 4059.08 416.411   2
  -3   6   3 3981.20 387.592   1
   6  -3   3 4615.58 271.092   2
  -3   6   3 5613.98 426.650   2
   3  -6   3 4566.28 414.951   2
   6  -3   3 4761.83 520.756   3
  -6   3   3 4749.65 338.415   4
  -3   6   6 29441.7 1242.80   1
   3   3   6 26784.5 1283.02   1
  -3   6   6 30294.2 923.869   4
  -3  -3   6 24499.1 1107.78   1
  -6   3   6 29001.7 1312.36   3
   6  -3   6 30059.5 1402.23   1
  -3  -3   6 26920.4 1225.84   3
  -6   3   6 29827.6 717.383   4
  -6   3   6 28171.8 1089.05   1
  -3   6   6 28583.4 997.374   2
   3  -6   6 28078.9 1081.17   2
   3  -6   6 26249.2 1320.58   1
  -6   3   6 28672.4 1159.20   2
  -6   3   9 385.727 334.527   1
  -3   6   9 468.435 263.373   2
  -3   6   9-91.8552 386.161   1
   3  -6   9-555.571 436.395   1
   6  -3   9 200.459 418.776   1
  -3  -3   9 255.221 447.443   3
  -3  -3   9 227.008 366.201   1
   3   3   9 546.302 420.719   1
   3  -6   9 178.798 270.412   2
  -3  -3   9 840.147 411.743   2
  -6   3   9 126.516 482.712   3
  -3   6  12 12169.6 1251.80   1
   6  -3  12 11677.1 1323.15   1
  -3  -3  12 11215.2 1180.29   1
   3   3  12 11591.0 1328.51   1
  -6   3  12 10572.3 1125.36   1
   3  -6  12 10077.7 1224.63   1
  -3  -3  12 10613.8 1290.27   3
  -6   3  12 11839.9 1382.07   3
   6  -2  -7 18993.8 1019.02   1
  -6   4  -7 19491.9 548.263   4
  -2  -4  -7 21349.8 770.878   4
   2  -6  -7 22292.0 753.025   4
  -6   4  -4 10580.2 458.185   2
  -4   6  -4 11836.0 641.295   2
  -6   4  -4 11694.5 485.177   4
  -2  -4  -4 12232.9 401.965   2
   6  -2  -4 10870.3 528.393   1
  -2  -4  -4 10675.6 549.098   4
  -2  -4  -4 11309.6 738.422   1
   2  -6  -4 11503.2 541.552   2
   2  -6  -4 11190.2 548.499   4
   2  -6  -4 12246.4 710.709   1
  -4   6  -4 11499.4 444.041   4
  -6   4  -1 12149.9 502.706   4
  -4   6  -1 12957.5 413.639   3
  -4   6  -1 12530.4 610.855   2
  -2  -4  -1 11929.0 508.898   1
  -2  -4  -1 12572.9 568.514   4
  -4   6  -1 11935.5 495.301   4
   2  -6  -1 13231.2 523.333   1
  -6   4  -1 12320.2 532.729   2
  -2  -4  -1 11685.0 540.719   2
   4   2  -1 12222.3 497.459   3
  -2  -4  -1 12406.0 563.681   3
  -6   4  -1 11293.0 578.593   3
   6  -2  -1 11488.5 512.362   3
   2  -6  -1 13248.9 627.474   2
   2  -6  -1 12149.3 528.749   4
  -6   4   2 19320.6 740.234   3
   4   2   2 18278.9 714.354   1
   2  -6   2 18703.3 590.881   4
  -2  -4   2 18711.0 613.315   4
  -2  -4   2 18116.9 827.703   2
   4   2   2 18948.3 884.552   3
  -6   4   2 20038.4 792.675   2
  -4   6   2 18423.0 617.522   1
  -6   4   2 19226.0 456.047   1
   6  -2   2 18615.9 550.214   2
  -2  -4   2 19678.1 598.518   3
  -4   6   2 18021.5 715.698   2
   2  -6   2 18893.2 788.077   2
  -6   4   2 18545.3 620.276   4
   6  -2   2 20221.2 912.086   3
  -4   6   2 18555.7 660.270   4
   6  -2   2 18695.8 722.474   1
  -6   4   5 16882.9 767.624   1
  -2  -4   5 19052.3 902.328   1
  -2  -4   5 17797.2 962.051   2
  -2  -4   5 16453.6 435.669   4
  -6   4   5 16406.8 954.111   3
  -4   6   5 18130.8 692.037   4
   2  -6   5 18084.2 876.387   2
   4   2   5 16311.9 933.305   1
  -4   6   5 15692.6 799.648   1
   6  -2   5 17728.2 992.692   1
  -6   4   5 16615.2 593.950   4
   2  -6   5 17076.9 451.021   4
   2  -6   5 18338.2 963.630   1
  -6   4   5 16707.2 837.717   2
  -4   6   5 17124.6 798.478   2
  -6   4   8-21.2481 348.953   3
   2  -6   8-163.156 431.274   1
  -2  -4   8-11.1889 305.803   2
   4   2   8 160.760 381.672   1
  -4   6   8-78.6340 328.886   1
   2  -6   8 119.776 253.525   2
  -6   4   8 67.8116 301.539   1
  -4   6   8 150.928 236.626   2
  -6   4   8 207.292 305.161   2
  -6   4   8 40.9179 79.4834   4
  -2  -4   8-20.7761 367.403   1
   6  -2   8 686.731 508.170   1
   6  -2  11 2660.21 763.446   1
  -6   4  11 4245.72 823.288   3
  -6   4  11 4679.88 764.819   1
  -2  -4  11 4894.41 898.511   3
  -2  -4  11 4410.21 785.542   1
   4   2  11 2780.39 737.024   1
  -4   6  11 3382.84 700.753   1
   2  -6  11 2520.28 668.036   1
  -1  -5  -8 1381.37 252.369   4
   1  -6  -8 938.116 213.753   4
  -6   5  -5 8747.30 467.026   2
   6  -1  -5 8040.06 542.590   1
  -5   6  -5 7242.54 361.033   4
  -1  -5  -5 8203.52 368.530   2
  -5   6  -5 7880.03 515.445   2
   1  -6  -5 7250.24 644.317   1
  -6   5  -5 8380.49 412.578   4
  -1  -5  -5 7115.08 462.654   4
   1  -6  -5 7862.89 441.707   2
   1  -6  -5 7806.22 475.410   4
   1  -6  -2 2146.99 289.333   1
  -6   5  -2 2688.42 311.517   2
   1  -6  -2 2306.36 299.599   2
   1  -6  -2 2065.90 286.564   4
   6  -1  -2 2845.22 309.228   3
  -5   6  -2 2356.36 257.643   4
  -1  -5  -2 2424.33 266.146   2
  -1  -5  -2 2778.79 311.569   4
   5   1  -2 2250.90 287.057   3
  -6   5  -2 2258.11 256.840   4
  -5   6  -2 2162.15 271.391   3
  -5   6  -2 1988.77 287.116   2
  -6   5  -2 2404.51 342.038   3
  -1  -5  -2 2400.74 332.955   1
   6  -1   1 65998.2 1444.75   3
  -1  -5   1 62841.9 1028.28   1
  -1  -5   1 64254.0 838.186   3
   1  -6   1 64444.3 1149.45   4
   1  -6   1 61559.3 1389.62   2
  -5   6   1 63487.8 1165.88   4
  -5   6   1 65553.3 1073.29   3
  -6   5   1 65541.0 1346.26   2
  -5   6   1 65439.0 1001.48   1
   5   1   1 62750.6 1400.10   3
  -1  -5   1 64799.3 1186.16   4
  -5   6   1 61072.0 1319.42   2
  -6   5   1 66448.6 1189.86   4
   5   1   1 63239.3 1091.00   1
   6  -1   1 63577.5 1087.70   1
  -6   5   1 63211.9 1185.92   3
  -1  -5   1 65488.0 1458.50   2
   6  -1   4 745.038 365.479   3
  -6   5   4 826.234 219.757   1
  -1  -5   4 765.204 138.609   4
  -6   5   4 1022.33 205.910   4
  -6   5   4 1394.69 327.273   3
  -6   5   4 1299.07 311.522   2
   1  -6   4 736.104 267.728   2
  -5   6   4 882.145 253.098   1
   5   1   4 800.452 385.538   3
  -5   6   4 875.028 210.911   4
  -1  -5   4 982.597 299.335   2
  -5   6   4 665.519 234.536   2
   1  -6   4 1301.30 349.662   1
   1  -6   4 866.483 161.155   4
  -1  -5   4 945.239 270.947   1
   5   1   4 512.662 277.468   1
   6  -1   4 1060.15 358.272   1
  -6   5   7 17911.1 631.903   4
  -5   6   7 18577.4 693.972   4
   5   1   7 16454.9 1109.16   1
  -5   6   7 16740.8 898.753   2
   6  -1   7 14296.8 1067.61   1
   1  -6   7 18520.5 1149.68   1
  -1  -5   7 17013.0 1030.35   2
  -6   5   7 16867.8 937.488   2
  -5   6   7 16872.1 988.574   1
  -1  -5   7 17216.9 1066.11   1
  -6   5   7 15706.9 929.730   1
   1  -6   7 18046.8 997.828   2
  -6   5  10 657.783 536.975   3
  -6   5  10-3.55635 392.670   1
   1  -6  10 102.233 330.082   2
  -5   6  10 431.760 420.561   1
  -1  -5  10 935.563 400.486   2
   6  -1  10 240.122 482.039   1
  -1  -5  10 224.095 403.602   1
   5   1  10 107.367 398.122   1
   1  -6  10 481.057 453.214   1
   0  -6  -9 145.943 156.394   4
   0  -6  -6 28185.7 944.601   4
  -6   6  -6 26880.9 685.464   4
   0  -6  -6 26197.7 745.304   2
   0  -6  -3 9.56038 170.584   2
   0  -6  -3 102.577 168.526   4
  -6   6  -3 193.084 170.831   2
   6   0  -3 185.145 230.803   3
  -6   6  -3 123.839 150.690   4
   0  -6  -3 63.6629 224.811   1
   0  -6   0 41284.8 679.394   3
   6   0   0 39907.0 668.850   1
  -6   6   0 40114.6 889.327   3
  -6   6   0 41625.2 988.225   4
   0  -6   0 39183.8 1113.07   2
  -6   6   0 39365.0 1078.38   2
   0  -6   0 38930.2 985.909   4
   6   0   0 41123.7 1076.39   3
   0  -6   0 41874.6 901.028   1
   6   0   3 304.617 301.021   3
   0  -6   3-5.37235 234.827   2
   6   0   3-28.8150 221.381   1
  -6   6   3-105.650 162.218   1
  -6   6   3 101.685 157.247   4
  -6   6   3 318.692 275.170   2
  -6   6   3 125.021 236.095   3
   0  -6   3 37.6662 144.674   4
   0  -6   6 36316.0 528.909   4
   6   0   6 36146.7 1537.13   1
  -6   6   6 35844.4 1310.03   2
  -6   6   6 40941.1 1044.50   4
   0  -6   6 39761.4 1491.70   1
   0  -6   6 39911.1 1480.96   2
  -6   6   6 39467.4 1317.31   1
   0  -6   9 751.661 403.183   1
  -6   6   9 494.244 412.409   1
   6   0   9 350.795 388.826   1
   0  -6   9-22.5710 317.905   2
   6   0  12 6913.94 1075.47   1
  -6   6  12 9525.45 1255.84   3
   0  -6  12 7252.73 1017.15   1
  -6   6  12 7673.87 1024.12   1
   0  -6  12 6960.45 1024.39   3
   7  -7  -7-155.426 150.110   4
  -7   0  -7-56.6646 191.920   4
  -7   0  -7 284.791 211.044   4
   7  -7  -4 4780.57 414.883   1
   7  -7  -4 4995.26 508.951   2
  -7   0  -4 4661.86 228.084   2
   7  -7  -4 5081.17 399.616   4
  -7   0  -4 5198.90 552.971   1
   0   7  -4 5918.40 381.402   4
   7  -7  -1 29.0218 160.116   3
   0   7  -1 25.6646 68.4167   3
   7  -7  -1-103.658 143.532   1
   7  -7  -1-105.373 195.294   4
  -7   0  -1-27.3028 298.982   3
   0   7  -1 129.055 243.797   2
  -7   0  -1 182.066 171.442   1
   7  -7  -1-170.955 214.835   2
   0   7  -1 137.232 180.082   4
  -7   0   2 46153.9 1215.76   3
   0   7   2 44389.9 1152.55   1
   7  -7   2 43268.0 1171.99   2
   0   7   2 45243.3 1222.01   2
   7  -7   2 48133.4 1232.41   3
   0   7   2 45459.2 1216.15   4
   7  -7   2 45015.1 1078.84   4
  -7   0   5 153.843 177.845   1
   7  -7   5 44.6342 153.224   4
   0   7   5 432.030 183.738   2
   7  -7   5-26.3269 182.236   2
   7  -7   5 523.880 396.208   1
   0   7   5 67.9632 246.302   1
  -7   0   5-360.693 295.904   3
   0   7   5 87.4489 187.084   4
   7  -7   5 190.690 360.284   3
  -7   0   5 77.8007 139.822   4
   0   7   8 31011.9 1558.13   1
   7  -7   8 32699.3 946.090   2
   7  -7   8 34026.5 1804.70   1
  -7   0   8 37084.3 1459.88   1
  -7   0   8 36367.9 1721.45   3
  -7   0  11-47.4067 439.931   2
  -7   0  11-304.849 538.981   3
   7  -7  11 521.732 512.790   1
  -7   0  11-265.232 514.721   1
   0   7  11-4.71060 470.469   1
  -7   1  -8 2566.04 315.393   4
   7  -6  -8 1945.58 243.451   4
  -6  -1  -8 2791.45 336.541   4
   6  -7  -8 2450.60 283.093   4
  -6  -1  -8 2339.31 306.235   4
  -7   1  -8 2438.57 286.162   4
   6  -7  -5 5451.42 499.247   2
   7  -6  -5 5651.56 476.440   1
   6  -7  -5 4843.37 389.781   4
   7  -6  -5 5220.99 384.833   4
  -1   7  -5 5650.33 328.676   4
   6  -7  -5 5674.58 525.260   1
   7  -6  -2 4358.06 452.218   2
  -6  -1  -2 4390.56 523.774   3
   7  -6  -2 4724.53 380.739   4
   6  -7  -2 4463.94 443.275   2
   6  -7  -2 4682.45 382.098   4
   7  -6  -2 5139.57 299.249   1
  -7   1  -2 4720.06 517.233   3
  -7   1  -2 4355.00 316.835   2
   1   6  -2 5448.61 390.863   4
   7  -6  -2 5000.24 415.439   3
  -1   7  -2 4976.52 368.576   4
  -6  -1  -2 5159.68 438.188   1
  -1   7  -2 5311.96 498.777   2
   6  -7  -2 4989.16 345.250   1
  -7   1  -2 4948.87 422.242   1
   7  -6   1 1051.06 250.629   3
   1   6   1 1183.48 262.568   4
   6  -7   1 1593.43 253.887   4
  -1   7   1 1500.79 275.154   2
  -1   7   1 1290.36 247.090   4
  -6  -1   1 1259.10 126.854   1
   1   6   1 1193.50 249.422   3
  -7   1   1 1169.95 273.174   3
   6  -7   1 1629.35 223.463   3
   7  -6   1 1612.73 261.479   4
   6  -7   1 1219.29 300.560   2
   1   6   1 1562.74 302.237   2
   7  -6   1 1043.16 243.875   2
  -6  -1   1 1248.48 286.689   3
  -1   7   1 1538.06 250.348   1
   1   6   1 1287.24 232.091   1
   7  -6   4 9215.96 747.686   3
   6  -7   4 10459.5 752.816   1
  -7   1   4 10424.8 482.205   4
  -1   7   4 9569.96 563.224   2
   7  -6   4 10887.4 521.491   4
  -1   7   4 10082.8 606.025   4
   7  -6   4 8240.83 690.117   1
  -7   1   4 11888.7 746.576   3
  -6  -1   4 10975.0 478.886   4
  -6  -1   4 10615.2 681.078   3
  -6  -1   4 10810.7 535.293   1
   1   6   4 9135.78 652.038   1
   6  -7   4 9298.65 697.402   3
  -1   7   4 10476.6 688.145   1
   1   6   4 11120.6 544.604   2
   7  -6   4 9775.04 528.044   2
   6  -7   4 9397.20 467.247   4
  -7   1   4 11156.6 498.557   1
   6  -7   4 10741.0 627.994   2
  -7   1   7 5856.90 579.048   1
   6  -7   7 5321.65 461.389   2
  -1   7   7 6420.55 699.480   1
  -6  -1   7 4153.14 216.330   4
   1   6   7 3982.36 260.264   2
  -6  -1   7 4984.18 219.071   4
  -1   7   7 5495.95 433.346   2
   7  -6   7 4745.39 345.714   2
  -7   1   7 4408.63 600.022   3
  -7   1   7 4930.86 274.628   4
   6  -7   7 5652.08 729.011   1
   7  -6   7 5259.93 733.139   1
  -6  -1   7 5003.85 660.790   3
  -6  -1   7 5452.49 594.673   1
   1   6   7 4566.64 618.196   1
  -6  -1  10 999.881 457.569   2
  -7   1  10 1002.25 451.702   1
  -6  -1  10 112.927 395.937   1
  -7   1  10 2006.60 630.013   3
  -6  -1  10 806.746 465.886   3
  -1   7  10 614.538 541.299   1
   1   6  10 596.406 474.591   1
   7  -6  10 130.125 490.493   1
   6  -7  10 513.558 498.452   1
  -5  -2  -9 3117.36 311.331   4
  -5  -2  -9 2958.37 314.291   4
   5  -7  -9 2732.13 255.221   4
  -7   2  -9 2335.68 212.080   4
  -7   2  -9 2219.24 231.246   4
   5  -7  -6 11196.7 557.168   4
  -7   2  -6 10352.8 529.933   4
   7  -5  -6 11324.4 727.115   1
   7  -5  -6 11255.3 514.775   4
  -5  -2  -6 11549.3 624.374   4
  -2   7  -3 53389.7 1068.29   4
  -5  -2  -3 53701.8 1425.38   1
   7  -5  -3 56573.7 1017.37   1
  -7   2  -3 57569.5 934.645   2
   5  -7  -3 53826.1 1323.89   2
   5  -7  -3 52797.9 1168.86   4
  -7   2  -3 57184.6 1649.41   3
  -5  -2  -3 58227.4 1694.91   3
  -7   2  -3 56456.6 1477.82   1
  -5  -2  -3 55445.3 932.817   2
  -2   7  -3 54634.9 1489.43   2
  -7   2  -3 55635.1 1171.23   4
   7  -5  -3 55285.9 1438.98   2
   5  -7  -3 54720.4 1226.07   1
   7  -5  -3 53505.0 1132.79   4
  -7   2   0 70287.7 1467.09   3
  -5  -2   0 73194.9 1473.63   3
   5  -7   0 72467.0 1489.58   2
   2   5   0 75787.0 1184.99   1
  -7   2   0 74546.2 921.342   1
   2   5   0 78028.6 1593.44   2
  -2   7   0 76645.4 1580.61   2
   7  -5   0 76317.0 1452.37   2
   5  -7   0 73040.5 1309.00   4
  -2   7   0 74131.7 1261.21   1
  -2   7   0 77181.4 1363.19   4
   2   5   0 79068.0 1190.58   3
   5  -7   0 73201.5 934.968   3
  -7   2   0 74755.0 1398.02   2
  -7   2   0 75866.0 1314.27   4
   7  -5   0 74638.4 1337.15   3
   7  -5   0 72778.9 1311.60   4
  -5  -2   0 73433.9 1036.09   1
   7  -5   3 62123.5 1163.69   2
   5  -7   3 63450.0 1164.98   4
  -5  -2   3 62744.0 1109.84   1
  -2   7   3 63303.3 1363.11   4
   7  -5   3 62749.7 1568.25   1
  -7   2   3 61871.0 1159.76   4
  -7   2   3 64704.8 1520.69   3
   5  -7   3 63675.1 1478.14   2
  -7   2   3 62595.9 1578.72   2
   5  -7   3 64261.7 1432.60   3
  -5  -2   3 65367.1 1438.13   3
   7  -5   3 68473.1 1763.63   3
  -7   2   3 63959.3 884.440   1
   2   5   3 61751.6 1487.52   1
   2   5   3 67090.6 1775.17   3
  -2   7   3 65426.9 1445.47   2
  -2   7   3 64631.1 1430.51   1
   2   5   3 62929.0 1190.71   2
   7  -5   3 62934.7 1213.49   4
   2   5   6 5142.64 255.182   2
  -2   7   6 7276.10 672.421   1
  -5  -2   6 7238.37 587.387   1
   7  -5   6 7596.28 756.446   1
   5  -7   6 7508.08 562.401   2
   7  -5   6 7130.57 366.700   2
  -2   7   6 8109.83 562.839   2
  -2   7   6 7048.20 522.559   4
  -5  -2   6 7737.53 318.510   4
  -7   2   6 6949.37 551.951   1
  -7   2   6 5855.06 590.287   2
  -5  -2   6 8562.45 711.453   3
  -5  -2   6 7166.48 330.030   4
   2   5   6 6854.31 690.042   1
  -7   2   6 6782.23 721.061   3
   5  -7   6 7048.28 753.757   1
  -7   2   6 7056.64 373.950   4
   7  -5   9 16333.6 1283.46   1
   5  -7   9 15905.6 1296.39   1
  -5  -2   9 16395.6 1230.95   3
  -7   2   9 17426.2 1122.56   1
   5  -7   9 16241.7 840.558   2
  -2   7   9 15345.5 1160.48   1
  -7   2   9 15176.1 1223.79   3
   2   5   9 17545.3 1279.74   1
  -5  -2   9 18337.5 1164.85   1
  -5  -2   9 17765.2 1203.75   2
  -5  -2  12 4321.17 902.874   3
   2   5  12 1692.61 684.306   1
  -5  -2  12 3709.61 765.678   1
  -2   7  12 3455.87 841.694   1
  -7   2  12 3229.75 761.068   1
   5  -7  12 3853.96 869.216   1
   7  -5  12 3452.77 824.307   1
  -7   2  12 4190.34 880.327   3
  -7   3  -7 420.298 169.423   4
   4  -7  -7 626.831 191.323   4
  -4  -3  -7 306.954 194.881   4
   7  -4  -7 218.628 283.750   1
  -4  -3  -4 17519.5 750.362   4
   7  -4  -4 18036.4 664.565   1
  -3   7  -4 17399.4 853.672   2
  -7   3  -4 16398.3 640.373   4
  -7   3  -4 17510.3 502.538   2
  -4  -3  -4 14584.0 828.974   1
   7  -4  -4 15442.7 605.881   4
  -3   7  -4 17581.4 586.542   4
  -4  -3  -4 16852.2 427.535   2
   4  -7  -4 17481.5 693.867   4
   4  -7  -4 16567.2 799.758   1
  -7   3  -4 17012.3 925.711   1
   4  -7  -4 17394.0 760.317   2
  -7   3  -1 29057.4 818.303   4
  -4  -3  -1 28699.9 791.159   1
  -7   3  -1 27427.3 792.437   2
  -3   7  -1 28186.0 804.175   4
   7  -4  -1 27903.8 838.376   3
   4  -7  -1 28538.2 834.532   4
   3   4  -1 27729.8 685.912   3
   7  -4  -1 29536.5 465.646   1
  -3   7  -1 29278.2 1001.89   2
  -4  -3  -1 28056.1 944.863   3
  -7   3  -1 27290.8 997.955   3
   7  -4  -1 26776.2 793.202   4
  -7   3  -1 27590.0 756.308   1
   4  -7  -1 26691.7 894.116   2
   4  -7  -1 29455.5 777.106   1
   7  -4   2 10908.6 593.052   1
   3   4   2 11635.1 668.150   3
   4  -7   2 10939.6 649.939   2
  -7   3   2 10521.3 616.392   2
   7  -4   2 11265.6 678.067   3
  -3   7   2 10535.2 599.653   2
   3   4   2 10288.1 561.162   1
  -3   7   2 10072.2 543.884   4
   7  -4   2 10250.4 476.184   2
  -3   7   2 10672.0 523.750   1
  -4  -3   2 10176.1 520.112   3
   4  -7   2 10142.2 483.099   4
   7  -4   2 9493.33 485.244   4
  -7   3   2 11238.9 508.046   4
  -7   3   2 9469.39 564.447   3
   4  -7   2 10063.7 465.026   3
   4  -7   5 2881.36 370.883   2
  -4  -3   5 3884.64 425.809   1
  -7   3   5 3776.29 548.674   3
   7  -4   5 2448.82 518.276   3
   7  -4   5 3355.52 559.327   1
   4  -7   5 3435.54 261.055   4
  -3   7   5 3293.71 437.947   1
   3   4   5 3698.21 501.343   1
  -7   3   5 2448.40 399.374   2
   4  -7   5 2902.30 481.928   1
  -7   3   5 3566.61 302.469   4
  -4  -3   5 2863.02 413.226   3
  -3   7   5 3658.31 400.859   2
  -3   7   5 3399.75 354.045   4
  -7   3   5 3138.20 352.232   1
  -4  -3   5 3314.56 248.321   4
   7  -4   5 3025.05 224.594   2
  -3   7   8 4402.80 473.919   2
   4  -7   8 5711.98 755.966   1
  -4  -3   8 5285.75 697.964   2
   4  -7   8 5267.12 532.159   2
  -7   3   8 4642.13 549.498   1
   3   4   8 3500.42 622.742   1
  -7   3   8 4384.03 686.673   3
  -4  -3   8 5718.26 686.097   1
   7  -4   8 4317.16 671.265   1
  -4  -3   8 5163.47 688.413   3
  -3   7   8 4865.62 628.526   1
   4  -7  11 2202.11 714.369   1
  -3   7  11 2528.56 628.818   1
  -4  -3  11 1412.56 600.230   3
  -4  -3  11 1607.93 564.171   1
  -4  -3  11 2203.61 596.050   2
   7  -4  11 2116.29 655.511   1
   3   4  11 1760.46 648.309   1
  -7   3  11 2066.51 656.612   3
  -7   3  11 2968.99 627.045   1
   3  -7  -8 4450.13 374.421   4
  -7   4  -8 3446.58 257.745   4
  -7   4  -8 3603.81 283.025   4
  -3  -4  -8 3709.92 373.234   4
   7  -3  -5 3709.48 383.758   1
   3  -7  -5 3142.40 355.440   2
  -3  -4  -5 3151.60 353.648   4
  -4   7  -5 3496.61 272.598   4
   3  -7  -5 2858.74 314.265   4
  -7   4  -5 3204.27 300.719   4
   3  -7  -5 3249.46 456.985   1
  -7   4  -5 3141.37 249.259   2
   3  -7  -2 14629.8 668.593   2
  -3  -4  -2 14517.3 662.024   4
  -3  -4  -2 15030.4 676.201   1
  -7   4  -2 13897.8 739.851   3
   7  -3  -2 14475.5 669.636   3
  -4   7  -2 13650.5 555.047   4
   3  -7  -2 13797.2 596.699   1
   3  -7  -2 12099.5 579.033   4
   4   3  -2 15250.5 603.630   3
   7  -3  -2 14015.5 584.587   4
  -7   4  -2 13948.6 564.716   2
  -3  -4  -2 12291.4 748.294   3
  -3  -4  -2 13974.0 585.869   2
  -4   7  -2 13837.8 710.719   2
  -7   4  -2 14024.1 664.296   1
  -7   4  -2 13898.6 586.786   4
   3  -7   1 25171.5 763.703   4
  -3  -4   1 27363.4 711.658   3
  -4   7   1 27150.6 655.987   3
  -7   4   1 26822.1 846.694   3
  -7   4   1 26731.3 897.999   2
   7  -3   1 26111.8 746.420   1
  -3  -4   1 25964.6 815.933   4
   3  -7   1 25602.2 960.658   2
  -4   7   1 26099.4 811.086   4
   7  -3   1 26735.3 947.688   3
  -4   7   1 27921.6 961.519   2
   4   3   1 25776.8 889.972   3
  -4   7   1 26023.6 735.196   1
   4   3   1 25731.7 733.458   1
  -7   4   1 27962.7 792.126   4
   7  -3   1 26018.8 789.420   2
  -3  -4   1 26921.7 639.436   1
  -7   4   4 14322.6 837.375   3
  -3  -4   4 15122.0 720.198   1
   7  -3   4 14877.7 440.936   2
   3  -7   4 15344.2 874.309   1
  -7   4   4 16111.3 626.329   4
  -7   4   4 16005.2 813.950   2
   7  -3   4 16579.6 912.848   1
  -4   7   4 14273.8 718.088   1
   7  -3   4 14427.8 935.190   3
   3  -7   4 15681.9 539.062   4
  -7   4   4 15787.6 609.831   1
  -4   7   4 15551.2 680.355   4
   3  -7   4 14784.6 783.440   2
   4   3   4 14431.5 937.755   3
  -3  -4   4 14880.3 726.982   3
  -3  -4   4 16193.7 556.106   4
  -4   7   4 15404.2 751.234   2
   4   3   4 15545.3 863.079   1
  -7   4   7 662.467 302.103   1
   4   3   7 432.811 378.122   1
  -7   4   7 676.817 377.488   3
   3  -7   7 503.688 300.543   2
  -3  -4   7 658.885 359.389   1
  -4   7   7 546.388 321.561   1
  -4   7   7 496.666 275.280   2
  -7   4   7 660.049 169.836   4
  -7   4   7 787.810 326.015   2
   7  -3   7 897.985 415.571   1
   3  -7   7-131.647 334.433   1
  -3  -4   7 1166.09 433.421   2
  -3  -4   7 514.677 312.221   3
  -4   7   7 425.295 212.773   4
  -3  -4  10 3899.93 663.533   1
   7  -3  10 2883.29 718.546   1
  -3  -4  10 2865.49 608.786   2
  -7   4  10 3621.02 747.831   3
  -4   7  10 4055.25 712.628   1
  -3  -4  10 2525.50 653.032   3
  -7   4  10 3651.01 629.615   1
   4   3  10 2935.24 696.087   1
   3  -7  10 1810.45 622.607   1
   3  -7  10 2988.92 462.310   2
  -2  -5  -9 18309.6 710.380   4
   2  -7  -9 16221.8 642.230   4
  -5   7  -6 8337.97 380.388   4
  -2  -5  -6 7089.07 506.890   4
   2  -7  -6 8010.94 524.624   4
   2  -7  -6 8547.70 524.295   2
   7  -2  -6 7719.01 579.655   1
  -7   5  -6 7749.34 423.529   4
  -7   5  -3 66011.7 1659.33   3
  -5   7  -3 63982.5 1163.11   4
   2  -7  -3 62950.0 1333.60   4
   7  -2  -3 66879.6 1528.60   3
   7  -2  -3 65329.8 918.764   1
  -2  -5  -3 64031.2 1403.32   4
  -7   5  -3 66555.6 1271.81   2
  -5   7  -3 64531.5 1491.30   2
  -2  -5  -3 62228.4 1503.19   1
   2  -7  -3 62928.7 1326.78   2
   2  -7  -3 65971.2 1479.43   1
  -2  -5  -3 65064.0 1193.93   2
  -7   5  -3 63935.5 1226.74   4
   5   2  -3 65503.3 1421.71   3
  -2  -5   0 82727.2 1496.26   4
   7  -2   0 80024.7 1537.94   3
  -5   7   0 84633.0 1652.24   2
  -5   7   0 82894.5 1046.89   3
  -5   7   0 81669.5 1378.68   4
   5   2   0 81726.0 1488.13   3
  -2  -5   0 80492.0 1606.71   2
   5   2   0 80542.3 1059.49   1
  -7   5   0 83995.5 1526.74   2
   2  -7   0 81072.6 1651.53   2
  -2  -5   0 82933.9 1240.54   1
   2  -7   0 79738.0 1279.69   1
  -7   5   0 79748.0 1453.79   3
  -2  -5   0 82064.7 1265.37   3
   7  -2   0 81181.6 969.761   1
   2  -7   0 79778.1 1395.46   4
  -5   7   3 57027.2 1249.32   4
  -2  -5   3 55434.7 1075.03   4
  -7   5   3 56113.1 970.582   1
   2  -7   3 53890.9 1041.79   4
  -7   5   3 56800.8 1452.36   2
   7  -2   3 53912.6 1682.86   3
   2  -7   3 57497.6 1519.60   2
  -5   7   3 54628.0 1390.42   2
   5   2   3 54700.6 1423.68   1
  -5   7   3 54049.1 1193.93   1
   7  -2   3 56543.0 1472.93   1
  -2  -5   3 56228.8 1594.42   2
  -7   5   3 56597.4 1455.39   3
  -2  -5   3 55968.8 1179.17   3
   5   2   3 58994.1 1715.54   3
  -7   5   3 55309.2 1164.15   4
  -7   5   6 10648.8 742.032   2
   5   2   6 10566.1 843.532   1
  -7   5   6 10412.6 521.192   4
   7  -2   6 9570.93 836.349   1
  -2  -5   6 10119.9 743.720   1
  -5   7   6 10686.3 747.356   1
   2  -7   6 10224.8 751.730   2
  -2  -5   6 10349.3 824.553   2
  -5   7   6 11688.9 746.574   2
  -2  -5   6 9319.78 301.661   4
  -7   5   6 9636.04 794.598   3
   2  -7   6 10555.1 841.609   1
  -5   7   6 11064.4 604.606   4
  -7   5   6 11249.1 690.518   1
  -2  -5   6 10889.2 764.405   3
   2  -7   6 10465.4 341.242   4
   7  -2   9 2252.28 561.322   1
  -2  -5   9 3292.91 581.490   2
   2  -7   9 3159.41 507.579   2
   2  -7   9 3211.62 638.756   1
  -7   5   9 3302.21 686.941   3
  -2  -5   9 3066.60 598.597   1
  -2  -5   9 3946.83 675.942   3
  -7   5   9 3405.80 570.837   1
  -5   7   9 3259.72 597.227   1
   5   2   9 3247.93 729.084   1
  -2  -5  12 1871.11 667.232   3
  -5   7  12 2324.00 773.169   3
  -7   5  12 1180.21 654.154   3
  -7   5  12 2438.13 664.948   1
   7  -2  12 2173.59 739.067   1
  -2  -5  12 2494.43 735.721   1
  -5   7  12 2777.47 736.535   1
   2  -7  12 2737.15 791.491   1
   5   2  12 2646.81 782.433   1
  -7   6  -7 4867.96 316.442   4
  -1  -6  -7 5411.57 453.204   4
   1  -7  -7 4603.04 425.377   4
  -6   7  -7 4967.59 298.861   4
  -6   7  -4 8850.49 459.211   4
  -1  -6  -4 9834.52 588.651   4
  -6   7  -4 9599.45 602.595   2
   1  -7  -4 9466.86 529.118   2
  -7   6  -4 10061.8 548.137   2
  -7   6  -4 9786.15 496.624   4
  -1  -6  -4 10239.4 709.526   1
   1  -7  -4 9111.33 661.017   1
   1  -7  -4 9559.38 565.512   4
  -1  -6  -4 9580.46 472.829   2
  -7   6  -1 1031.08 243.716   3
   1  -7  -1 1333.74 285.909   2
   6   1  -1 1360.08 286.281   3
  -6   7  -1 955.165 203.310   4
  -6   7  -1 1162.62 229.151   3
   1  -7  -1 1030.32 248.189   4
  -1  -6  -1 467.160 233.512   2
  -6   7  -1 616.001 268.824   2
  -7   6  -1 789.133 225.655   2
  -1  -6  -1 1048.88 241.484   3
   1  -7  -1 1059.54 250.001   1
  -1  -6  -1 1134.24 263.699   4
  -7   6  -1 1094.72 219.534   4
   7  -1  -1 865.510 229.106   3
  -1  -6  -1 842.331 237.346   1
   6   1  -1 1057.87 122.911   1
   6   1   2 6032.15 565.073   3
   1  -7   2 5232.90 375.336   4
  -7   6   2 4962.02 461.775   2
  -6   7   2 4004.85 367.984   4
  -7   6   2 4957.05 429.415   3
  -6   7   2 4799.91 469.128   2
  -6   7   2 4826.96 414.521   3
  -1  -6   2 5146.38 311.458   3
  -6   7   2 4995.76 343.593   1
  -7   6   2 4714.95 288.918   1
   6   1   2 5481.29 441.962   1
   1  -7   2 4978.79 257.326   3
  -7   6   2 4800.09 389.102   4
   7  -1   2 4946.16 578.157   3
   1  -7   2 5274.78 540.251   2
  -1  -6   2 5228.40 537.140   2
  -1  -6   2 5009.21 380.247   4
   7  -1   2 4838.64 414.921   1
  -7   6   5 6951.91 512.991   1
  -7   6   5 7833.10 691.807   3
  -1  -6   5 6346.30 622.471   2
   6   1   5 6438.48 652.245   1
  -7   6   5 6954.13 604.924   2
   1  -7   5 6013.81 333.404   4
  -6   7   5 6287.75 568.418   2
  -6   7   5 6952.42 559.004   1
  -6   7   5 7252.73 488.320   4
  -7   6   5 6607.78 446.873   4
   1  -7   5 7243.80 652.666   1
   1  -7   5 7333.38 640.573   2
  -1  -6   5 7442.88 624.811   1
  -1  -6   5 6199.16 325.911   4
   7  -1   5 6156.34 672.034   1
  -6   7   8 3101.97 348.980   4
  -6   7   8 3935.21 584.729   1
  -7   6   8 3138.58 314.816   4
   6   1   8 2859.16 594.559   1
  -7   6   8 4049.18 674.294   3
  -7   6   8 3523.94 522.316   1
  -1  -6   8 2767.25 524.303   1
   1  -7   8 3534.27 609.502   1
   7  -1   8 2595.84 575.827   1
  -1  -6   8 2878.91 537.145   2
   1  -7   8 2614.64 503.535   2
  -7   6   8 2824.21 514.310   2
  -6   7   8 2366.40 440.390   2
  -7   6  11 4182.25 851.109   3
   1  -7  11 4625.32 880.570   1
   7  -1  11 4229.30 870.319   1
   6   1  11 5907.15 972.930   1
  -6   7  11 4971.50 777.633   1
  -6   7  11 6561.60 992.470   3
  -7   6  11 4414.08 742.694   1
  -1  -6  11 5579.48 913.976   3
  -1  -6  11 3044.31 720.401   1
   0  -7  -8 34354.2 1091.22   4
  -7   7  -8 29173.7 623.550   4
   0  -7  -5-89.4032 217.319   4
   0  -7  -5-234.521 160.292   2
  -7   7  -5 28.9727 133.841   4
  -7   7  -5 55.2198 183.453   2
  -7   7  -2 44339.7 1230.90   2
   0  -7  -2 41908.0 1132.70   1
   7   0  -2 43964.3 1171.52   3
  -7   7  -2 43517.8 1071.69   4
   0  -7  -2 42239.8 1176.61   2
  -7   7  -2 43720.4 1153.56   3
   0  -7  -2 42806.8 1162.57   4
   7   0   1 142.041 264.443   3
   7   0   1-122.958 180.988   1
  -7   7   1 89.7854 224.980   2
   0  -7   1-2.88866 149.429   1
   0  -7   1-261.820 181.959   4
   0  -7   1 82.9598 83.1244   3
  -7   7   1 78.4193 187.449   4
   0  -7   1 45.4645 258.854   2
  -7   7   1 267.265 201.535   3
   0  -7   4 7274.47 408.444   4
  -7   7   4 6269.44 567.345   3
  -7   7   4 7245.20 610.152   2
   0  -7   4 7054.00 626.598   2
  -7   7   4 7015.54 474.703   1
   7   0   4 6615.67 742.238   3
   7   0   4 5877.17 578.998   1
  -7   7   4 7727.78 506.400   4
   7   0   7-81.8875 332.163   1
  -7   7   7-29.5533 338.367   3
   0  -7   7-58.7359 295.508   2
  -7   7   7 164.089 298.108   2
  -7   7   7 131.169 180.327   4
   0  -7   7-347.540 357.864   1
  -7   7   7-185.322 311.213   1
   0  -7  10 20183.7 1433.29   3
  -7   7  10 22487.0 1612.87   3
   0  -7  10 20353.6 1451.10   1
   7   0  10 21086.5 1558.29   1
   0  -7  10 21802.3 1280.57   2
  -7   7  10 25492.8 1482.37   1
  -8   0  -8 10333.4 622.988   4
  -8   0  -8 10541.6 664.992   4
   8  -8  -8 11241.8 598.529   4
   8  -8  -5 54.6780 250.666   1
   8  -8  -5 137.950 198.675   4
   8  -8  -5 428.163 263.515   2
   0   8  -2 81353.1 1556.29   4
  -8   0  -2 77752.5 1995.63   3
   8  -8  -2 80536.2 1576.41   4
   0   8  -2 84971.5 2023.46   2
   8  -8  -2 79349.2 1560.34   3
   8  -8  -2 83141.0 1319.02   1
  -8   0  -2 83212.7 1652.59   1
   8  -8  -2 79471.6 1795.15   2
   0   8   1-10.0232 250.224   2
   8  -8   1 106.237 189.651   4
  -8   0   1 174.509 241.440   3
   0   8   1 145.808 184.566   1
   8  -8   1-7.89159 243.898   2
  -8   0   1 33.2796 88.1463   1
   0   8   1-33.9296 204.637   4
   8  -8   1-100.678 181.205   3
   0   8   1 302.411 192.966   3
  -8   0   4 19131.8 619.117   1
   8  -8   4 18062.3 724.065   4
   8  -8   4 17303.8 991.201   1
   0   8   4 17737.8 911.173   1
   0   8   4 19775.5 901.013   4
  -8   0   4 18626.5 719.402   4
   8  -8   4 18414.0 1026.21   3
  -8   0   4 18750.9 944.106   3
   0   8   4 19448.9 856.068   2
   8  -8   4 17380.7 787.794   2
   0   8   7-60.6135 309.223   1
  -8   0   7 141.142 241.585   1
  -8   0   7 64.7806 130.494   4
  -8   0   7-68.7201 304.382   3
   8  -8   7-167.036 212.066   2
   8  -8   7 756.514 465.404   1
   0   8   7-26.2316 177.211   2
   0   8  10 7833.22 943.980   1
  -8   0  10 10861.1 1133.85   3
   8  -8  10 8802.81 1063.54   1
  -8   0  10 9470.19 896.895   1
   7  -8  -9 5038.10 383.661   4
  -8   1  -9 5713.83 443.345   4
  -7  -1  -9 5028.95 442.020   4
   7  -8  -6 1484.33 265.598   4
   8  -7  -6 1092.32 250.825   4
  -8   1  -6 1099.76 255.520   4
   8  -7  -6 510.846 286.366   1
  -7  -1  -6 969.719 274.445   4
   7  -8  -6 794.200 321.340   1
   7  -8  -6 958.559 304.828   2
   7  -8  -3 4190.05 395.431   4
  -8   1  -3 4900.09 509.873   1
   1   7  -3 5436.71 414.633   4
  -1   8  -3 4930.86 388.007   4
  -1   8  -3 4222.20 506.615   2
   7  -8  -3 3943.04 440.309   2
  -8   1  -3 3711.46 556.015   3
   8  -7  -3 4621.59 414.837   4
  -7  -1  -3 3264.03 538.703   3
   8  -7  -3 5308.73 530.915   2
   7  -8  -3 4922.47 405.305   1
   8  -7  -3 5117.06 365.595   1
  -8   1  -3 4643.96 311.609   2
  -7  -1  -3 5496.80 521.684   1
   8  -7   0 637.898 260.272   2
  -7  -1   0 1370.16 331.474   3
  -1   8   0 711.350 310.682   2
   7  -8   0 1121.09 297.404   2
   8  -7   0 1011.72 273.953   3
  -1   8   0 1053.83 147.017   3
   7  -8   0 1024.68 257.777   4
   1   7   0 1257.93 333.499   2
  -1   8   0 752.027 225.347   4
  -8   1   0 951.067 332.339   3
   7  -8   0 558.469 156.026   3
   1   7   0 906.818 269.989   4
   1   7   0 643.932 213.541   1
  -8   1   0 863.122 166.495   1
   1   7   0 796.481 168.588   3
   8  -7   0 424.530 204.852   4
  -7  -1   0 883.796 167.531   1
  -1   8   0 577.800 200.149   1
   7  -8   3 37473.5 1008.55   4
   8  -7   3 39486.3 1367.90   3
   1   7   3 37318.8 1091.05   2
  -7  -1   3 39872.7 1233.46   3
  -8   1   3 39166.6 1018.69   4
   8  -7   3 39683.9 1319.86   1
   1   7   3 38568.3 1217.43   1
  -1   8   3 38817.9 1189.29   1
   7  -8   3 37615.6 1176.32   2
   1   7   3 38842.9 1202.60   4
  -8   1   3 40714.8 1297.48   3
   1   7   3 39050.7 1350.21   3
   7  -8   3 37591.4 1286.16   3
  -1   8   3 38393.9 1179.13   2
  -1   8   3 40060.6 1195.35   4
   8  -7   3 37549.2 1012.53   4
   8  -7   3 37077.0 1068.91   2
  -7  -1   3 38257.9 769.161   1
  -8   1   3 36908.4 621.972   1
   7  -8   6 3004.79 544.995   1
   1   7   6 2822.50 295.411   2
   8  -7   6 3478.06 351.663   2
  -1   8   6 3272.05 380.307   2
  -8   1   6 3335.78 565.472   3
  -1   8   6 3192.02 400.301   4
  -7  -1   6 3061.18 390.310   1
  -8   1   6 2790.04 272.309   4
  -7  -1   6 2978.11 491.175   3
  -1   8   6 3534.93 513.421   1
  -8   1   6 3134.21 382.195   1
   8  -7   6 3627.64 567.045   1
   7  -8   6 2686.69 352.615   2
   1   7   6 1578.42 378.000   1
  -7  -1   6 2979.18 273.896   4
  -1   8   9 24134.4 1471.94   1
   7  -8   9 23723.0 1576.54   1
   7  -8   9 22991.4 865.635   2
  -8   1   9 25154.9 1299.33   1
   8  -7   9 24749.8 1637.52   1
  -7  -1   9 26289.2 1586.39   3
  -8   1   9 23877.9 1480.85   3
   1   7   9 23012.1 1464.53   1
  -7  -1   9 25334.2 1330.41   1
  -1   8  12 2642.53 755.252   1
  -8   1  12 2436.75 797.401   3
  -7  -1  12 1766.67 683.245   1
   8  -7  12 3534.46 917.013   1
  -7  -1  12 2244.83 731.669   3
   7  -8  12 874.145 658.364   1
   1   7  12 2329.69 764.622   1
  -8   1  12 2246.32 666.022   1
   6  -8  -7 28566.9 935.307   4
  -8   2  -7 27733.6 908.342   4
   8  -6  -7 31562.4 911.012   4
  -6  -2  -7 29832.1 1047.98   4
  -2   8  -4 11656.0 794.132   2
   8  -6  -4 11471.6 754.047   2
   6  -8  -4 10350.2 672.228   2
  -8   2  -4 11830.8 605.544   4
   6  -8  -4 12228.3 620.193   4
  -8   2  -4 11844.9 798.588   1
  -8   2  -4 11399.4 413.637   2
  -6  -2  -4 12642.1 819.619   1
  -8   2  -4 12392.0 938.983   3
  -6  -2  -4 10809.2 401.745   2
   8  -6  -4 11195.9 571.876   4
  -2   8  -4 12373.7 555.800   4
   8  -6  -4 11743.2 571.302   1
   6  -8  -4 12209.2 675.750   1
  -8   2  -1 11569.4 585.600   2
   6  -8  -1 11866.6 685.589   2
  -2   8  -1 12750.0 609.284   4
  -6  -2  -1 12439.5 739.705   3
   8  -6  -1 10391.5 615.626   2
   6  -8  -1 11767.6 498.148   3
   8  -6  -1 11775.3 582.202   3
   8  -6  -1 11980.8 598.072   4
   6  -8  -1 11659.2 591.261   4
  -8   2  -1 11954.8 592.727   4
  -8   2  -1 11736.0 537.695   1
   8  -6  -1 11897.3 403.142   1
   6  -8  -1 12096.2 523.818   1
  -8   2  -1 11638.7 741.543   3
  -2   8  -1 11940.0 718.348   2
  -6  -2  -1 11505.0 540.168   1
   2   6  -1 13183.8 442.628   3
  -8   2   2 18871.9 830.461   3
  -8   2   2 19651.2 717.500   4
   8  -6   2 17257.2 716.521   2
   8  -6   2 18173.1 806.216   1
   8  -6   2 18092.0 721.253   4
   6  -8   2 20117.9 886.492   2
   2   6   2 19536.1 864.028   3
   2   6   2 19079.3 797.753   2
  -6  -2   2 19367.8 768.408   3
  -2   8   2 17780.6 734.533   1
   6  -8   2 18471.6 697.134   3
   2   6   2 19044.4 787.937   1
  -6  -2   2 18863.7 470.577   1
  -8   2   2 19323.7 904.206   2
   6  -8   2 18534.3 712.447   4
   8  -6   2 18133.1 873.138   3
  -2   8   2 19460.6 800.727   4
  -2   8   2 17874.3 817.696   2
   2   6   5 6398.78 400.439   2
  -8   2   5 6417.23 439.989   1
  -8   2   5 7056.85 673.225   3
  -2   8   5 6395.47 509.519   2
  -6  -2   5 6882.47 628.644   3
  -6  -2   5 6929.80 398.029   4
   6  -8   5 7318.78 415.068   4
   6  -8   5 6260.34 535.272   2
   6  -8   5 5910.74 658.133   1
  -8   2   5 6588.69 639.377   2
   6  -8   5 5738.95 607.237   3
   8  -6   5 7331.25 438.294   2
  -8   2   5 7749.25 462.475   4
  -6  -2   5 5716.66 473.247   1
  -2   8   5 6764.12 529.270   4
   2   6   5 6105.63 627.496   1
   8  -6   5 6464.05 675.621   1
   8  -6   5 6807.10 750.513   3
  -2   8   5 6781.64 612.643   1
   6  -8   8 8626.67 641.022   2
  -6  -2   8 7040.96 809.927   3
   2   6   8 7704.66 833.040   1
   6  -8   8 7352.42 840.379   1
  -2   8   8 6732.38 765.180   1
  -8   2   8 7979.58 871.177   3
  -8   2   8 6805.01 675.202   1
   8  -6   8 5521.53 787.989   1
  -6  -2   8 7436.99 705.286   1
  -2   8   8 6727.67 523.802   2
  -8   2  11 7781.37 921.845   1
   2   6  11 6216.55 946.849   1
  -8   2  11 7312.34 1050.13   3
  -6  -2  11 7439.84 1015.89   3
   6  -8  11 7668.51 1080.11   1
  -6  -2  11 7110.20 906.225   2
   8  -6  11 7676.66 1080.33   1
  -6  -2  11 7910.50 938.136   1
  -2   8  11 6885.62 957.959   1
  -8   3  -8 8757.94 485.214   4
  -5  -3  -8 8068.69 551.774   4
  -8   3  -8 10209.6 548.130   4
   5  -8  -8 9077.97 533.564   4
   5  -8  -5 11268.7 674.568   2
   8  -5  -5 12135.0 635.245   1
  -3   8  -5 12911.4 525.773   4
  -8   3  -5 12037.0 588.687   4
   8  -5  -5 11793.6 570.141   4
   5  -8  -5 11513.5 605.942   4
  -5  -3  -5 12269.4 676.886   4
   5  -8  -5 13398.7 799.214   1
   8  -5  -2 9675.71 517.165   4
  -8   3  -2 10372.5 594.851   1
   5  -8  -2 9809.56 511.998   1
   3   5  -2 9859.56 459.888   3
  -8   3  -2 10571.3 552.771   4
   5  -8  -2 10534.7 630.904   2
   8  -5  -2 9068.19 622.083   2
  -8   3  -2 8831.77 466.004   2
  -5  -3  -2 10460.0 593.762   1
   5  -8  -2 9927.87 555.005   4
   8  -5  -2 10681.6 597.457   3
  -5  -3  -2 9211.88 682.253   3
   8  -5  -2 10779.8 341.613   1
  -8   3  -2 9212.82 706.491   3
  -3   8  -2 10475.1 682.594   2
  -3   8  -2 10526.4 530.103   4
  -5  -3  -2 10032.3 536.262   2
   8  -5   1 37775.3 1051.90   2
   5  -8   1 42134.0 700.530   3
   5  -8   1 39838.5 1018.10   4
  -5  -3   1 39695.6 1045.72   3
  -3   8   1 39688.1 986.223   1
   3   5   1 40971.5 995.168   1
  -5  -3   1 41164.4 756.963   1
  -3   8   1 43474.0 1246.86   2
   8  -5   1 40820.2 996.822   1
   3   5   1 40727.6 1132.43   3
   5  -8   1 42622.5 1269.59   2
  -8   3   1 40300.2 1177.72   2
   8  -5   1 39291.8 1131.95   3
  -8   3   1 40103.1 1142.96   3
  -3   8   1 40715.7 1094.29   4
   8  -5   1 39451.3 1032.21   4
  -8   3   1 42846.4 1044.96   4
   5  -8   4 42348.1 985.993   4
   3   5   4 42860.7 1404.79   1
  -3   8   4 47267.6 1337.68   2
   8  -5   4 46300.8 1531.84   1
   5  -8   4 42765.2 1313.74   2
  -5  -3   4 42690.7 1100.44   1
  -5  -3   4 43152.3 1309.13   3
  -3   8   4 44470.3 1232.39   4
   5  -8   4 43101.1 1336.64   3
   8  -5   4 44531.3 974.637   2
  -8   3   4 42387.7 1405.63   2
  -8   3   4 42693.8 1413.85   3
   3   5   4 43383.5 1610.91   3
  -8   3   4 44557.6 1067.25   4
   5  -8   4 42474.9 1467.96   1
  -3   8   4 44471.3 1328.70   1
  -8   3   4 43833.6 913.470   1
   8  -5   4 39340.5 1561.70   3
  -8   3   7 3891.07 466.221   1
  -8   3   7 5441.28 691.769   3
  -5  -3   7 4379.55 582.392   3
  -3   8   7 5590.41 501.188   4
  -3   8   7 5029.41 508.141   2
   3   5   7 5058.39 655.790   1
  -5  -3   7 6062.71 601.907   1
   8  -5   7 5472.72 720.669   1
   5  -8   7 5738.13 743.639   1
   5  -8   7 5850.53 570.007   2
  -8   3   7 4915.53 338.478   4
  -5  -3   7 4150.95 181.427   4
  -3   8   7 5104.55 636.685   1
  -8   3  10 2771.85 662.305   3
   8  -5  10 2271.66 650.872   1
  -3   8  10 1656.34 542.060   1
  -8   3  10 1188.45 425.831   1
   5  -8  10 2779.66 714.291   1
  -5  -3  10 2106.29 586.005   2
  -5  -3  10 2516.65 616.371   3
  -5  -3  10 2930.25 629.211   1
   3   5  10 3296.35 677.589   1
   5  -8  10 2169.90 401.025   2
  -4  -4  -9 6108.74 471.664   4
   4  -8  -9 6463.17 434.991   4
  -8   4  -9 4414.43 312.955   4
   4  -8  -6 2415.31 348.589   2
   8  -4  -6 1597.49 309.525   1
  -8   4  -6 2654.78 314.261   4
   4  -8  -6 2085.21 302.455   4
  -4  -4  -6 1587.35 290.092   4
  -4   8  -6 2320.09 230.832   4
   8  -4  -3 35923.6 973.566   4
   8  -4  -3 39364.0 734.681   1
   4  -8  -3 37474.1 1113.00   1
  -4  -4  -3 36908.0 898.769   2
  -8   4  -3 34811.6 957.886   4
   4   4  -3 36897.6 1029.79   3
  -4   8  -3 34359.9 920.496   4
   4  -8  -3 35577.1 1031.12   4
  -4  -4  -3 38041.2 1228.78   1
   8  -4  -3 37363.8 1181.01   3
  -8   4  -3 35611.3 1304.77   3
   4  -8  -3 36701.8 1118.23   2
  -4  -4  -3 35932.8 1109.34   4
  -4   8  -3 36545.6 1225.64   2
  -8   4  -3 36356.4 1206.54   1
  -8   4  -3 36497.8 897.080   2
   8  -4   0 2217.32 334.002   3
   8  -4   0 2270.50 331.412   2
  -4   8   0 2669.82 329.695   4
   4   4   0 2209.53 233.740   1
   4  -8   0 2427.23 312.164   4
   8  -4   0 2879.12 234.455   1
  -4  -4   0 2379.73 317.034   3
   4  -8   0 2815.72 285.410   1
  -8   4   0 1855.19 278.994   2
  -8   4   0 2893.76 400.275   3
  -4   8   0 2622.62 167.349   3
   8  -4   0 2432.58 294.994   4
  -4  -4   0 2755.89 270.720   1
   4  -8   0 2343.58 367.750   2
  -8   4   0 2225.37 283.179   4
   4   4   0 3089.95 335.199   3
  -4   8   0 2324.65 347.374   2
   4  -8   3 37069.8 1007.58   3
  -8   4   3 34263.2 1193.55   2
   4  -8   3 34719.8 1199.85   2
   4   4   3 34481.1 1355.98   3
  -4  -4   3 35710.4 1033.58   3
  -8   4   3 35762.8 659.212   1
   8  -4   3 34622.3 847.670   2
  -4   8   3 35753.0 1059.63   4
  -8   4   3 36097.9 977.633   4
  -4  -4   3 33990.6 933.122   4
  -4   8   3 35632.5 1057.20   1
   8  -4   3 37700.8 1235.75   1
   4   4   3 35375.1 1171.08   1
  -4   8   3 37001.7 1174.93   2
   8  -4   3 34601.7 1394.25   3
   4  -8   3 35745.6 915.247   4
  -4   8   6 1519.10 331.375   2
   4  -8   6 1706.99 185.997   4
  -8   4   6 1575.43 372.981   2
   4   4   6 1282.51 394.647   1
  -8   4   6 1892.18 429.121   3
  -4  -4   6 1462.64 169.595   4
  -8   4   6 1591.42 239.532   4
  -4  -4   6 1906.42 181.066   4
  -4  -4   6 1435.56 342.621   3
  -4  -4   6 1690.38 360.793   1
   4  -8   6 1763.19 371.807   2
   8  -4   6 1314.98 410.251   1
  -4   8   6 902.719 339.175   1
   4  -8   6 2524.64 497.947   1
  -8   4   6 1791.50 322.720   1
  -4   8   6 2049.31 318.403   4
   8  -4   9 5152.32 826.270   1
   4   4   9 6105.37 828.921   1
  -4  -4   9 6206.94 755.823   1
  -4  -4   9 6026.63 736.350   2
  -4   8   9 6974.47 819.633   1
  -8   4   9 6084.66 695.891   1
  -4  -4   9 7060.48 842.709   3
  -8   4   9 5042.40 824.665   3
   4  -8   9 6889.68 922.035   1
   4  -8   9 6080.72 621.019   2
  -4  -4  12 2182.92 725.387   3
  -8   4  12 2144.83 693.289   1
  -4  -4  12 2029.98 723.262   1
  -4   8  12 2526.27 744.297   1
   8  -4  12 2039.84 721.036   1
   4   4  12 1914.43 752.630   1
  -8   4  12 3046.13 817.236   3
   4  -8  12 2044.97 764.076   1
  -3  -5 -10 1867.68 269.624   4
  -3  -5  -7 5501.34 480.766   4
   8  -3  -7 5525.90 556.146   1
  -8   5  -7 5227.98 377.783   4
   3  -8  -7 5682.69 462.493   4
  -5   8  -7 4754.59 275.555   4
  -3  -5  -4 44635.2 1458.41   1
  -8   5  -4 43650.2 1462.91   1
  -3  -5  -4 41852.7 1217.16   4
  -8   5  -4 42035.9 1054.42   4
  -3  -5  -4 44620.9 940.261   2
  -5   8  -4 41145.0 977.348   4
  -5   8  -4 42932.9 1336.12   2
   8  -3  -4 43271.2 945.678   1
  -8   5  -4 42587.7 996.393   2
   3  -8  -4 41696.0 1176.10   2
   3  -8  -4 42680.9 1338.54   1
   3  -8  -4 41473.2 1158.03   4
  -8   5  -1 41509.0 1250.86   3
   5   3  -1 42265.8 752.434   1
  -5   8  -1 42542.3 753.461   3
  -3  -5  -1 40321.3 1003.84   1
  -5   8  -1 42021.3 1037.09   4
   3  -8  -1 42959.6 1281.02   2
  -3  -5  -1 38791.5 1095.61   3
   5   3  -1 40242.7 990.416   3
  -3  -5  -1 39584.8 1137.86   2
   8  -3  -1 40956.8 1107.47   3
  -8   5  -1 42033.0 1044.34   4
  -3  -5  -1 41856.4 1167.79   4
   3  -8  -1 41598.0 1017.41   1
   3  -8  -1 38822.0 1080.79   4
  -8   5  -1 40351.7 1074.19   2
  -5   8  -1 42541.8 1248.51   2
  -8   5   2 9393.23 597.544   3
   3  -8   2 9756.44 391.557   3
   8  -3   2 9193.54 565.616   1
  -5   8   2 9640.51 518.592   3
   8  -3   2 8964.50 666.528   3
  -5   8   2 9177.47 616.633   2
  -8   5   2 9102.68 518.935   4
  -5   8   2 9118.64 551.432   4
   8  -3   2 10171.3 515.272   2
   5   3   2 9448.84 678.894   3
  -3  -5   2 9668.31 534.912   4
   5   3   2 8412.09 529.446   1
   3  -8   2 9570.20 661.597   2
  -5   8   2 9599.09 511.963   1
  -3  -5   2 9626.29 476.380   3
  -8   5   2 10075.2 326.826   1
   3  -8   2 9516.57 506.362   4
  -8   5   2 9345.09 641.694   2
  -3  -5   2 9446.85 704.257   2
  -5   8   5 10001.3 679.023   1
   3  -8   5 13432.4 884.872   1
  -8   5   5 12161.9 624.747   1
   3  -8   5 11431.4 761.554   2
   3  -8   5 11862.5 480.125   4
  -3  -5   5 11358.8 709.661   3
  -3  -5   5 10822.5 823.895   2
  -8   5   5 12391.4 589.794   4
  -5   8   5 12251.1 653.008   4
  -8   5   5 13171.9 840.941   2
   8  -3   5 9857.96 805.425   1
  -8   5   5 11935.0 826.962   3
  -5   8   5 11302.8 706.591   2
  -3  -5   5 12804.0 503.112   4
   5   3   5 12487.7 864.061   1
  -3  -5   5 11186.8 710.264   1
   8  -3   8 8957.02 974.720   1
  -8   5   8 11609.3 835.084   1
  -3  -5   8 12319.1 983.413   2
   3  -8   8 10082.7 786.929   2
   3  -8   8 9769.77 946.412   1
  -8   5   8 12312.8 1076.36   3
  -3  -5   8 11733.8 959.296   1
  -5   8   8 10099.4 748.041   2
  -5   8   8 11392.9 915.204   1
   5   3   8 12206.0 1060.33   1
  -5   8   8 10830.6 656.180   4
  -3  -5   8 11928.0 915.512   3
  -8   5   8 9778.19 482.054   4
  -3  -5  11 3818.38 772.066   3
  -3  -5  11 1796.71 540.748   2
   5   3  11 2981.55 746.212   1
  -8   5  11 3849.80 847.812   3
  -5   8  11 2615.33 717.747   1
   8  -3  11 3228.32 772.704   1
  -8   5  11 3720.07 698.012   1
   3  -8  11 1771.96 699.082   1
  -3  -5  11 2598.78 687.714   1
  -2  -6  -8 8770.79 591.801   4
   2  -8  -8 8623.82 567.233   4
  -2  -6  -5 6387.94 363.944   2
   2  -8  -5 6317.35 493.444   4
  -6   8  -5 6514.45 540.577   2
  -8   6  -5 5943.13 428.126   4
   2  -8  -5 6034.75 462.716   2
   8  -2  -5 6266.09 449.893   1
  -2  -6  -5 6413.99 505.804   4
  -6   8  -5 5740.46 386.843   4
  -8   6  -5 6155.70 426.864   2
  -2  -6  -2 19072.2 797.095   1
   2  -8  -2 18855.0 836.368   2
   6   2  -2 19527.1 753.675   3
  -8   6  -2 19133.0 737.290   4
  -6   8  -2 19646.1 724.619   4
   8  -2  -2 18536.5 816.655   3
  -8   6  -2 19266.5 770.456   2
  -6   8  -2 19906.3 691.063   3
  -2  -6  -2 19649.8 819.926   4
   2  -8  -2 17875.5 770.113   4
   2  -8  -2 18850.3 754.396   1
  -6   8  -2 18975.6 853.551   2
  -2  -6  -2 18560.4 769.616   2
  -8   6  -2 18664.9 873.316   3
  -2  -6   1 15044.8 570.871   1
   6   2   1 14706.5 769.912   3
  -2  -6   1 14762.1 527.140   3
  -6   8   1 14964.9 583.284   1
   6   2   1 15047.7 602.020   1
  -2  -6   1 15353.7 846.262   2
  -6   8   1 14433.0 664.201   4
   2  -8   1 14063.4 801.778   2
   2  -8   1 13844.6 640.514   4
   8  -2   1 14315.1 786.838   3
  -8   6   1 15231.8 677.604   4
   8  -2   1 15112.2 595.926   1
  -2  -6   1 15388.0 704.515   4
  -6   8   1 13693.7 736.804   2
  -6   8   1 14952.8 562.338   3
  -8   6   1 15722.7 772.267   2
  -8   6   1 15265.4 663.489   3
   2  -8   4 11853.2 791.531   2
  -8   6   4 12446.7 804.925   3
  -8   6   4 11711.8 598.820   4
   2  -8   4 12687.6 539.787   4
  -2  -6   4 11535.1 633.624   3
   6   2   4 13159.7 967.275   3
  -6   8   4 12639.9 654.840   4
  -6   8   4 13033.2 771.212   2
   6   2   4 12296.0 800.638   1
  -8   6   4 13512.0 819.418   2
   8  -2   4 11559.5 780.737   1
  -2  -6   4 12567.8 856.294   2
  -8   6   4 12273.6 550.741   1
  -2  -6   4 11803.1 526.269   4
   8  -2   4 12862.6 975.721   3
  -6   8   4 12849.2 672.421   1
  -6   8   7 30713.9 1317.69   1
  -8   6   7 28025.3 1300.74   2
  -6   8   7 28668.1 1249.26   2
  -2  -6   7 32604.0 1409.46   3
  -8   6   7 30829.4 1512.39   3
   6   2   7 29834.3 1516.82   1
  -2  -6   7 30505.4 1419.74   1
  -8   6   7 32175.7 1255.36   1
   2  -8   7 28880.3 1461.67   1
   2  -8   7 30984.6 1356.51   2
   8  -2   7 31841.4 1589.08   1
  -2  -6   7 31767.4 1479.34   2
  -8   6   7 30375.1 935.102   4
  -6   8   7 31211.5 1062.78   4
  -8   6  10 7434.84 852.015   1
   2  -8  10 6547.40 940.159   1
  -2  -6  10 7912.11 932.641   3
  -2  -6  10 6004.58 775.484   2
  -2  -6  10 7914.83 951.403   1
   2  -8  10 6911.43 732.499   2
  -6   8  10 6371.98 804.279   1
   6   2  10 7739.77 975.187   1
   8  -2  10 5894.66 918.355   1
  -8   6  10 5745.07 851.194   3
  -1  -7  -9 24801.0 939.063   4
   1  -8  -9 23646.5 896.038   4
  -1  -7  -6 3444.29 399.378   4
  -7   8  -6 4223.66 344.613   4
   1  -8  -6 3498.17 405.022   4
  -7   8  -6 3904.06 444.202   2
  -8   7  -6 3893.53 347.473   4
   1  -8  -6 4000.63 369.842   2
  -8   7  -6 3730.10 380.072   2
  -1  -7  -6 3919.46 317.038   2
   8  -1  -3 42044.2 1268.79   3
  -1  -7  -3 41927.3 1152.52   2
   1  -8  -3 38347.7 1215.47   1
  -7   8  -3 38798.3 1209.58   2
  -8   7  -3 41382.8 1181.80   2
   1  -8  -3 39792.6 1169.45   2
   7   1  -3 40656.2 1212.75   3
   1  -8  -3 36924.1 1125.01   4
  -8   7  -3 38843.5 1295.23   3
  -1  -7  -3 40240.7 1274.72   1
  -1  -7  -3 41312.4 1205.80   4
  -7   8  -3 41044.7 1054.39   4
  -8   7  -3 41347.1 1082.08   4
   7   1   0 451.102 135.099   1
   1  -8   0 791.713 295.803   2
  -1  -7   0 228.789 246.183   4
  -1  -7   0 267.108 255.877   2
  -7   8   0 320.708 204.585   2
  -8   7   0 338.692 217.402   4
  -1  -7   0 465.295 172.907   3
  -7   8   0 446.139 196.887   3
   8  -1   0 1111.03 273.440   3
   8  -1   0 209.985 129.011   1
  -8   7   0 411.204 209.112   3
  -7   8   0 691.596 245.113   4
   1  -8   0 571.455 234.176   4
  -1  -7   0 439.298 201.463   1
   1  -8   0 415.031 213.651   1
   7   1   0 438.628 222.284   3
  -8   7   0 379.551 246.763   2
  -7   8   3 4997.41 519.415   2
   1  -8   3 4230.56 542.291   2
   7   1   3 3899.41 607.082   3
  -7   8   3 4146.07 398.620   4
  -1  -7   3 4106.44 348.733   4
  -8   7   3 4695.86 485.743   3
  -1  -7   3 6109.30 635.528   2
  -8   7   3 3586.35 433.941   2
  -7   8   3 5169.91 474.416   3
   8  -1   3 4761.42 625.799   3
  -7   8   3 4860.35 375.608   1
   8  -1   3 4435.14 452.382   1
  -8   7   3 4897.59 343.482   1
  -1  -7   3 4958.62 360.462   3
  -8   7   3 4868.90 416.045   4
   1  -8   3 5033.65 332.684   3
   1  -8   3 4748.76 376.843   4
   7   1   3 4456.33 475.769   1
   8  -1   6 1199.16 365.584   1
  -1  -7   6 1585.21 385.460   1
  -1  -7   6 1358.87 170.510   4
  -8   7   6 1464.51 383.041   2
  -8   7   6 1850.39 302.935   4
   7   1   6 1974.66 474.588   1
  -7   8   6 1206.89 401.052   3
  -1  -7   6 1257.46 344.166   2
  -8   7   6 2038.65 355.361   1
  -1  -7   6 1282.58 337.532   3
  -8   7   6 1873.69 443.415   3
  -7   8   6 1543.35 345.539   1
   1  -8   6 1741.44 403.817   2
  -7   8   6 1284.84 293.371   4
   1  -8   6 1928.54 415.142   1
  -7   8   6 1985.73 402.457   2
   1  -8   6 1458.41 180.188   4
  -7   8   9 5432.63 691.500   1
  -8   7   9 5204.58 823.579   3
   1  -8   9 5271.54 790.590   1
  -1  -7   9 3999.12 620.390   2
  -1  -7   9 5753.24 752.557   1
  -1  -7   9 6355.48 761.607   3
  -7   8   9 5106.53 827.025   3
   1  -8   9 4774.76 642.687   2
   8  -1   9 5734.42 873.931   1
  -8   7   9 5369.07 662.293   1
   7   1   9 3687.09 702.726   1
   7   1  12 2051.88 770.779   1
  -7   8  12 2336.09 666.091   1
  -8   7  12 1073.28 735.454   3
  -1  -7  12 137.883 567.590   3
   1  -8  12 2514.14 793.056   3
   1  -8  12 2496.45 745.713   1
  -8   7  12 1622.12 633.427   1
  -7   8  12 1461.18 714.578   3
   8  -1  12 1413.12 671.173   1
  -1  -7  12 1732.24 681.486   1
   0  -8 -10 8426.57 540.178   4
   0  -8  -7-245.912 232.104   4
  -8   8  -7 98.0318 156.671   4
   0  -8  -7 63.8080 147.771   2
  -8   8  -4 17083.2 709.631   4
  -8   8  -4 15869.1 797.614   2
   0  -8  -4 16191.1 723.902   2
   8   0  -4 16030.6 866.022   3
   0  -8  -4 15916.5 782.193   4
   0  -8  -4 14475.5 865.311   1
   8   0  -1 205.090 209.327   3
   0  -8  -1 143.750 195.603   1
  -8   8  -1 11.5068 185.829   4
   8   0  -1 8.68335 76.8338   1
   0  -8  -1-135.827 240.258   4
  -8   8  -1-304.486 240.776   3
   0  -8  -1 127.812 237.449   2
  -8   8  -1-343.072 223.795   2
  -8   8   2 83697.0 1300.53   1
   8   0   2 84079.3 1631.84   1
  -8   8   2 85806.3 1901.82   2
  -8   8   2 86414.6 1652.94   4
   8   0   2 83268.1 2073.03   3
   0  -8   2 82349.3 1555.65   4
   0  -8   2 82732.6 2009.73   2
   0  -8   2 87068.9 1063.45   3
  -8   8   2 87602.4 1661.20   3
  -8   8   5-137.402 212.010   4
  -8   8   5 57.0643 262.031   2
   0  -8   5-91.4345 207.344   3
  -8   8   5-12.4025 279.985   3
   0  -8   5-76.9954 139.836   4
   8   0   5-48.9079 310.023   1
   0  -8   5-262.873 279.576   2
  -8   8   5 44.1269 229.001   1
   0  -8   5-96.6000 260.844   1
  -8   8   8 11195.9 1041.85   3
   0  -8   8 9472.77 917.077   1
   0  -8   8 10546.6 915.584   2
  -8   8   8 10419.3 832.476   1
  -8   8   8 9299.04 599.492   4
   8   0   8 10473.1 1020.94   1
   0  -8  11 1009.24 554.705   3
   0  -8  11-517.730 520.852   1
  -8   8  11 113.218 514.426   3
  -8   8  11 220.275 448.990   1
   8   0  11 200.195 527.460   1
  -9   0  -9-83.5024 249.529   4
   9  -9  -9 175.536 197.083   4
   9  -9  -6 4976.93 603.277   2
   9  -9  -6 4852.79 542.951   1
   9  -9  -6 4550.20 439.853   4
  -9   0  -3 245.023 340.993   3
   9  -9  -3 13.3576 245.545   2
   9  -9  -3 70.1884 201.850   4
   0   9  -3-116.774 206.752   4
  -9   0  -3 144.118 302.837   1
   9  -9  -3 116.436 166.324   1
  -9   0  -3 1.06139 154.743   2
   0   9   0 31969.1 996.174   1
   0   9   0 31992.0 1240.68   2
   9  -9   0 30186.0 886.163   3
  -9   0   0 31038.6 767.747   1
   0   9   0 30595.6 1080.04   4
  -9   0   0 29175.8 1194.35   3
   9  -9   0 30236.0 1031.02   4
   9  -9   0 31613.0 1167.49   2
   0   9   0 31205.9 722.629   3
   0   9   3-9.71435 237.459   4
   0   9   3 4.49450 281.893   3
   0   9   3 181.421 264.551   1
  -9   0   3 2.18982 62.0280   1
   0   9   3 468.677 273.997   2
   9  -9   3 44.5273 238.405   2
  -9   0   3 501.112 302.297   3
   9  -9   3-17.7381 195.690   4
   9  -9   3 411.608 263.563   3
  -9   0   3-189.582 208.467   4
  -9   0   3 15.3623 81.6582   1
   0   9   6 6307.29 688.285   1
  -9   0   6 4874.82 396.655   4
   9  -9   6 4858.46 461.588   2
  -9   0   6 5136.41 449.489   1
   9  -9   6 5090.35 690.009   1
  -9   0   6 3760.71 548.729   3
   0   9   6 4977.28 474.030   2
   0   9   9 221.261 418.539   1
   9  -9   9-111.753 182.234   2
  -9   0   9-504.554 430.832   3
   9  -9   9 674.209 478.965   1
  -9   0   9-175.802 332.110   1
  -9   0  12 4296.98 778.588   1
   9  -9  12 6116.78 1148.43   1
  -9   0  12 6267.69 1095.93   3
   0   9  12 5606.39 1056.54   1
  -8  -1 -10 5501.36 460.358   4
  -9   1  -7 23581.4 951.865   4
   9  -8  -7 25637.3 916.488   4
  -8  -1  -7 24216.1 1031.78   4
   8  -9  -7 25166.8 949.245   4
  -9   1  -4 7467.25 735.478   3
   8  -9  -4 7596.62 537.224   1
   8  -9  -4 6726.06 505.868   4
   9  -8  -4 6262.81 593.958   2
   9  -8  -4 6249.22 490.929   4
  -8  -1  -4 6694.98 346.384   2
  -8  -1  -4 5956.57 613.328   1
   8  -9  -4 7042.39 618.263   2
  -1   9  -4 7538.71 490.912   4
  -9   1  -4 6809.99 662.772   1
  -9   1  -4 7295.25 371.275   2
   9  -8  -4 6586.14 471.259   1
  -8  -1  -4 5411.47 712.731   3
   9  -8  -1 33727.3 805.090   1
  -8  -1  -1 35678.3 1336.31   3
  -1   9  -1 33182.7 1267.53   2
   8  -9  -1 34838.8 1085.99   4
   1   8  -1 35625.5 1112.97   4
   9  -8  -1 36371.5 1009.73   3
  -9   1  -1 36196.7 959.434   1
   9  -8  -1 34920.5 1203.13   2
  -9   1  -1 35317.3 1098.32   2
   8  -9  -1 35949.8 907.973   1
   8  -9  -1 35525.4 946.054   3
  -9   1  -1 34561.6 1334.10   3
  -1   9  -1 34653.1 1088.08   4
   1   8  -1 33837.3 1281.76   2
  -8  -1  -1 35244.0 970.306   1
   9  -8  -1 33768.9 1065.33   4
   1   8  -1 34863.5 655.891   3
   8  -9  -1 34708.2 1215.95   2
   1   8   2 13058.0 687.562   1
  -1   9   2 13598.6 740.426   4
  -9   1   2 11854.8 755.553   3
   8  -9   2 12790.2 740.267   2
   9  -8   2 11689.8 705.514   3
  -8  -1   2 12677.0 717.838   3
  -9   1   2 13349.4 657.128   4
   8  -9   2 13617.7 670.369   3
  -1   9   2 12485.6 677.282   1
   9  -8   2 12604.5 690.818   2
   1   8   2 12198.9 713.494   2
  -1   9   2 12856.1 760.922   2
   1   8   2 12246.2 715.433   4
   1   8   2 13147.1 723.037   3
   9  -8   2 12219.2 642.387   4
   8  -9   2 12462.3 647.085   4
  -8  -1   2 11949.0 336.143   1
   8  -9   5 16008.0 702.047   4
  -1   9   5 14981.7 915.024   1
   9  -8   5 15267.1 703.289   4
  -9   1   5 15542.1 674.944   4
  -8  -1   5 15161.6 926.234   3
   9  -8   5 14200.4 987.673   1
   8  -9   5 14200.6 995.348   1
  -8  -1   5 16648.3 702.527   1
  -1   9   5 15034.9 827.384   4
  -9   1   5 15568.4 631.113   1
  -9   1   5 14809.3 906.795   3
   9  -8   5 14891.6 713.085   2
   8  -9   5 14183.9 959.642   3
   1   8   5 13893.3 686.742   2
   8  -9   5 14295.4 798.778   2
   9  -8   5 13630.5 992.273   3
  -1   9   5 14812.3 789.481   2
  -8  -1   5 15234.7 650.233   4
   1   8   5 15670.7 946.570   1
  -8  -1   8 11284.1 1008.91   3
   8  -9   8 11093.0 1098.04   1
   1   8   8 11128.2 998.165   1
  -8  -1   8 8251.20 366.807   4
  -1   9   8 11285.1 978.795   1
  -1   9   8 8561.34 555.815   2
  -9   1   8 11574.5 1036.62   3
   9  -8   8 11044.2 1052.72   1
  -8  -1   8 8841.63 338.427   4
   8  -9   8 10092.3 656.075   2
  -9   1   8 10298.4 435.240   4
  -8  -1   8 12110.1 856.800   1
  -9   1   8 10959.0 790.885   1
   9  -8   8 11011.4 551.535   2
   1   8  11 9882.88 1168.44   1
  -8  -1  11 11320.7 1201.75   2
  -1   9  11 9713.04 1110.28   1
  -8  -1  11 10774.9 1077.12   1
  -9   1  11 12504.3 1096.22   1
  -8  -1  11 13536.1 1325.93   3
  -9   1  11 9652.81 1168.40   3
   8  -9  11 9781.83 1213.20   1
   9  -8  11 11064.3 1292.04   1
   7  -9  -8 3049.93 349.965   4
  -7  -2  -8 2820.45 388.374   4
  -9   2  -8 2505.77 332.729   4
   9  -7  -8 2613.22 304.311   4
  -9   2  -8 2447.23 374.511   4
   7  -9  -5 25285.1 1060.85   1
   9  -7  -5 23751.1 874.738   4
  -9   2  -5 24795.6 931.177   4
   9  -7  -5 27120.8 969.289   1
   7  -9  -5 26373.3 950.999   4
  -2   9  -5 26007.9 817.399   4
   7  -9  -5 26091.6 1111.13   2
  -7  -2  -2 30531.5 1260.34   3
   9  -7  -2 31116.9 718.595   1
  -2   9  -2 31408.2 1248.56   2
   7  -9  -2 34132.7 1184.00   2
  -9   2  -2 33513.5 1065.70   1
   9  -7  -2 31214.3 1158.89   2
   9  -7  -2 30486.6 1012.83   3
  -2   9  -2 32319.0 998.269   4
   2   7  -2 30818.0 758.415   3
  -9   2  -2 31004.8 1291.60   3
   9  -7  -2 31519.0 1000.46   4
  -7  -2  -2 31963.0 1044.75   1
  -9   2  -2 30388.6 900.170   2
   7  -9  -2 31089.7 904.255   1
   7  -9  -2 29362.2 989.174   4
   2   7   1 23330.3 840.453   3
  -7  -2   1 23052.4 924.480   3
   7  -9   1 22155.4 949.768   2
   2   7   1 22246.1 953.171   2
  -2   9   1 21652.3 988.219   2
  -2   9   1 21550.8 818.620   1
   2   7   1 21311.2 788.888   1
  -9   2   1 24016.8 865.680   4
   9  -7   1 21206.6 882.097   2
  -9   2   1 21881.8 986.846   2
  -9   2   1 21371.3 946.907   3
   9  -7   1 21171.6 824.015   4
   2   7   1 21721.2 913.078   4
   9  -7   1 21722.3 848.915   3
   7  -9   1 24208.3 677.612   3
  -7  -2   1 23134.9 557.295   1
  -2   9   1 20853.3 861.974   4
   7  -9   1 20691.5 806.583   4
   9  -7   4 999.465 227.890   4
  -9   2   4 458.125 314.656   2
   2   7   4 963.521 357.428   3
  -2   9   4 857.298 305.400   1
   9  -7   4 1634.85 438.192   1
   7  -9   4 1276.82 345.647   3
  -9   2   4 1206.55 180.233   1
  -7  -2   4 665.115 259.782   3
   9  -7   4 620.573 368.267   3
  -9   2   4 1220.07 245.720   4
  -2   9   4 842.701 306.345   2
   7  -9   4 1232.13 357.242   1
   9  -7   4 963.256 230.820   2
   2   7   4 1099.69 263.159   2
   7  -9   4 1028.48 297.587   2
  -2   9   4 1162.47 314.895   4
  -9   2   4 855.204 290.442   3
   2   7   4 1024.77 333.559   1
   7  -9   4 746.507 220.786   4
  -7  -2   4 958.322 220.790   1
  -7  -2   7 3416.74 559.517   3
  -9   2   7 3599.89 462.834   1
  -7  -2   7 3089.66 440.060   1
  -2   9   7 3439.37 433.899   2
  -9   2   7 2824.10 293.948   4
   9  -7   7 2391.20 552.442   1
   7  -9   7 3060.14 443.323   2
  -2   9   7 2633.99 515.736   1
   9  -7   7 3637.76 324.216   2
  -7  -2   7 3085.36 257.234   4
   2   7   7 3228.85 578.456   1
  -9   2   7 2115.36 500.820   3
   7  -9   7 3913.74 658.044   1
  -7  -2   7 3065.08 264.591   4
  -7  -2  10 2734.84 580.091   1
  -2   9  10 2805.47 657.963   1
  -9   2  10 3480.26 729.420   3
  -9   2  10 3837.87 633.103   1
   2   7  10 3088.14 694.971   1
   9  -7  10 3660.89 754.198   1
  -7  -2  10 3231.77 677.918   3
  -7  -2  10 2701.96 640.857   2
   7  -9  10 2959.42 745.196   1
  -6  -3  -9 157.743 218.513   4
   6  -9  -9 91.0774 180.865   4
  -9   3  -9 274.677 177.754   4
  -9   3  -6 20120.8 809.392   4
   6  -9  -6 19451.4 836.479   4
   6  -9  -6 20303.8 990.316   2
  -6  -3  -6 20717.9 927.071   4
   9  -6  -6 19406.8 909.084   1
  -3   9  -6 19920.3 656.364   4
   9  -6  -6 20634.5 786.299   4
   9  -6  -3 7631.05 498.869   4
   9  -6  -3 7632.77 630.491   2
  -9   3  -3 7421.98 707.890   3
   9  -6  -3 7499.48 378.085   1
  -9   3  -3 7909.95 440.761   2
  -3   9  -3 8398.07 678.908   2
  -6  -3  -3 7283.49 448.499   2
  -3   9  -3 7645.89 481.055   4
   6  -9  -3 7544.94 532.255   4
   9  -6  -3 6965.00 557.178   3
  -6  -3  -3 7898.61 611.627   1
   6  -9  -3 6563.42 547.685   2
   6  -9  -3 7710.31 525.601   1
  -9   3  -3 7521.11 612.729   1
  -6  -3  -3 7922.13 689.458   3
  -9   3  -3 8379.22 535.256   4
   9  -6   0 28019.4 1031.05   2
   6  -9   0 29078.3 957.359   4
  -3   9   0 29610.8 1135.73   2
  -6  -3   0 29106.4 757.413   1
   3   6   0 28331.4 821.774   1
  -3   9   0 29758.1 976.913   4
  -9   3   0 28777.6 934.344   4
   6  -9   0 28431.7 1067.27   2
  -9   3   0 27603.6 967.131   2
  -9   3   0 27183.1 1072.59   3
  -3   9   0 25448.6 415.996   3
   9  -6   0 27046.1 945.401   3
   3   6   0 27929.3 844.157   3
  -6  -3   0 26251.7 1003.31   3
   6  -9   0 28084.2 623.707   3
   6  -9   0 28735.4 849.112   1
   9  -6   0 26592.3 914.621   4
   9  -6   3 726.395 311.923   1
   9  -6   3 691.832 227.750   2
   6  -9   3 470.578 224.202   3
   3   6   3 436.017 320.051   3
  -9   3   3 567.073 327.902   3
   9  -6   3 451.230 207.176   4
  -9   3   3 556.822 183.802   4
  -9   3   3 428.732 85.4362   1
   6  -9   3 893.328 308.150   2
   6  -9   3 232.715 174.722   4
   9  -6   3 883.105 334.527   3
  -3   9   3 637.026 267.809   2
  -9   3   3 324.268 269.077   2
   3   6   3 697.207 278.656   1
  -3   9   3 542.789 285.120   1
  -3   9   3 441.131 204.256   4
   3   6   3 304.354 195.685   2
  -6  -3   3 469.678 229.576   3
  -6  -3   6 13425.2 552.981   4
   3   6   6 12827.3 930.491   1
  -3   9   6 12871.3 753.360   4
  -9   3   6 12635.0 595.494   4
   6  -9   6 15564.9 874.248   2
  -9   3   6 12362.8 669.833   1
  -9   3   6 13310.7 939.610   3
  -6  -3   6 14658.8 941.084   3
   6  -9   6 13266.2 558.864   4
   9  -6   6 11270.2 930.031   1
   9  -6   6 12774.5 523.536   2
  -3   9   6 12264.5 759.759   2
  -6  -3   6 12088.4 513.845   4
  -6  -3   6 13158.4 777.933   1
  -3   9   6 11484.1 823.099   1
   6  -9   6 13514.0 1001.77   1
  -9   3   9-333.970 329.597   1
  -3   9   9-188.194 398.908   1
   6  -9   9 54.2098 462.981   1
   3   6   9 684.200 449.729   1
  -6  -3   9 459.860 368.918   1
   6  -9   9 130.957 253.256   2
   9  -6   9-234.879 421.733   1
  -6  -3   9 34.4236 364.253   2
  -6  -3   9 699.983 375.807   3
  -9   3   9 753.186 505.965   3
   3   6  12 6319.85 1053.34   1
  -3   9  12 7539.58 1041.77   1
  -6  -3  12 7766.24 1028.57   1
   6  -9  12 6964.05 1102.87   1
  -9   3  12 5591.78 852.559   1
   9  -6  12 7982.20 1187.24   1
  -6  -3  12 5843.09 971.051   3
  -9   3  12 8245.44 1219.18   3
  -5  -4 -10 1919.15 303.818   4
   5  -9  -7 26033.7 963.900   4
   5  -9  -7 27111.8 1125.86   2
  -4   9  -7 23278.8 617.301   4
  -9   4  -7 25951.0 890.776   4
  -5  -4  -7 26374.4 1034.68   4
   9  -5  -7 25177.6 1130.20   1
  -5  -4  -4-127.998 293.665   1
  -4   9  -4 608.469 331.417   2
  -9   4  -4-25.6559 166.952   4
   5  -9  -4-38.3452 214.160   2
   5  -9  -4 25.7307 184.128   4
   9  -5  -4 417.958 169.502   1
  -4   9  -4 500.251 176.751   4
   5  -9  -4 273.565 288.751   1
  -9   4  -4-59.8710 315.077   3
  -5  -4  -4 69.2290 246.495   4
   9  -5  -4 467.810 185.114   4
  -9   4  -4 566.166 315.776   1
  -9   4  -4 347.162 191.126   2
  -5  -4  -4-35.4094 127.254   2
  -5  -4  -1 35812.1 1186.61   3
   4   5  -1 34698.0 820.212   1
  -4   9  -1 35571.7 1036.16   4
   9  -5  -1 33968.1 1153.16   2
  -4   9  -1 34693.8 1229.99   2
   5  -9  -1 36890.7 979.093   1
   5  -9  -1 35565.5 1185.64   2
  -9   4  -1 35181.2 1038.88   2
   9  -5  -1 34815.4 1058.07   3
   9  -5  -1 35337.7 1035.07   4
  -5  -4  -1 35584.8 967.602   1
   4   5  -1 38597.5 915.711   3
  -9   4  -1 34690.0 1246.75   3
  -9   4  -1 35241.0 1024.73   4
   5  -9  -1 34533.7 1054.84   4
  -9   4   2 1875.18 361.918   3
   9  -5   2 1774.71 284.510   4
  -4   9   2 2136.94 325.880   4
  -4   9   2 1874.71 294.969   1
   9  -5   2 1530.40 372.829   3
  -5  -4   2 1676.71 192.339   1
  -9   4   2 1693.97 257.565   4
   5  -9   2 1723.55 265.725   4
   4   5   2 1865.16 299.983   1
   9  -5   2 1841.14 284.549   2
   4   5   2 1804.52 397.687   3
   9  -5   2 2052.82 330.065   1
  -5  -4   2 1908.69 259.353   3
  -9   4   2 2211.57 362.826   2
   5  -9   2 1745.19 222.155   3
  -4   9   2 1286.60 324.187   2
   5  -9   2 1955.04 374.068   2
  -9   4   5 22293.8 768.071   1
  -4   9   5 19749.1 886.935   4
   5  -9   5 20536.2 1125.16   1
  -4   9   5 21959.2 1011.17   2
   5  -9   5 21735.0 1038.78   2
   9  -5   5 20471.4 638.144   2
  -5  -4   5 21656.0 904.953   1
   4   5   5 19540.9 1047.33   1
   5  -9   5 21440.3 717.038   4
  -9   4   5 19378.9 1046.54   2
  -5  -4   5 22550.1 1031.07   3
  -4   9   5 20688.9 987.594   1
  -9   4   5 19909.2 767.652   4
  -5  -4   5 20972.0 711.278   4
   5  -9   5 20410.9 1027.89   3
  -9   4   5 20124.7 1092.04   3
   9  -5   5 20038.9 1120.64   1
   9  -5   8 2455.07 632.677   1
   5  -9   8 2508.08 439.309   2
  -9   4   8 2035.44 421.014   1
  -4   9   8 1555.18 411.522   1
  -5  -4   8 1936.04 452.588   1
  -9   4   8 1987.63 246.897   4
   5  -9   8 3797.92 667.303   1
  -4   9   8 2291.05 437.940   2
  -5  -4   8 2189.74 541.449   3
  -4   9   8 2213.34 401.124   4
  -9   4   8 3068.14 612.434   3
   4   5   8 2341.07 546.821   1
  -5  -4   8 3093.16 588.615   2
   4   5  11 11371.3 1227.30   1
  -5  -4  11 11458.2 1110.57   1
  -9   4  11 11009.8 1043.57   1
   9  -5  11 9176.79 1141.21   1
  -5  -4  11 10458.8 1142.48   3
  -5  -4  11 10031.6 1062.14   2
   5  -9  11 10434.0 1198.85   1
  -9   4  11 9493.92 1150.76   3
  -4   9  11 11525.0 1208.05   1
  -9   5  -8 2705.72 299.614   4
  -4  -5  -8 2387.54 348.074   4
   4  -9  -8 2835.84 361.421   4
  -9   5  -5 18265.9 751.974   4
   9  -4  -5 19647.8 744.717   1
  -9   5  -5 20373.2 678.026   2
  -5   9  -5 20073.0 715.253   4
  -4  -5  -5 19774.4 893.385   4
   4  -9  -5 19805.2 851.694   4
   4  -9  -5 18802.9 876.161   2
  -5   9  -5 18336.9 972.369   2
  -4  -5  -5 19670.9 554.215   2
  -9   5  -2 2940.53 426.440   3
  -9   5  -2 2726.92 330.019   4
  -4  -5  -2 2948.47 357.434   2
  -4  -5  -2 2691.63 349.498   4
  -5   9  -2 2552.78 305.103   4
   9  -4  -2 2643.00 324.726   4
  -9   5  -2 2470.03 314.056   2
   4  -9  -2 2568.91 330.530   4
   5   4  -2 2792.46 296.724   3
  -5   9  -2 2630.99 394.703   2
   4  -9  -2 2764.73 339.643   1
  -4  -5  -2 2842.52 382.313   1
  -4  -5  -2 2494.45 394.213   3
   4  -9  -2 2827.51 394.494   2
   9  -4  -2 2147.76 324.846   3
  -5   9   1 37054.3 1098.83   4
   5   4   1 37384.4 960.747   1
  -5   9   1 35870.9 964.581   1
  -5   9   1 37165.1 814.314   3
  -4  -5   1 35732.3 852.474   1
   9  -4   1 36954.6 1090.56   2
   9  -4   1 37197.4 959.456   1
  -9   5   1 37943.3 1202.27   2
  -5   9   1 37738.5 1272.43   2
  -4  -5   1 34027.9 972.855   3
   4  -9   1 36185.9 1034.97   4
  -4  -5   1 35996.5 1092.40   4
  -9   5   1 37726.1 1153.80   3
   4  -9   1 35906.3 1269.45   2
  -9   5   1 36798.5 1038.95   4
   5   4   1 37362.0 1192.95   3
   9  -4   1 35146.7 1188.09   3
   9  -4   4-121.929 330.345   1
   9  -4   4 25.7486 353.673   3
  -5   9   4 368.017 256.370   2
   4  -9   4 139.472 262.969   2
  -5   9   4 359.004 270.278   1
  -4  -5   4-41.1080 198.439   3
  -9   5   4 76.5559 179.369   4
   4  -9   4 6.86965 148.688   4
  -4  -5   4 377.884 196.371   4
  -9   5   4 237.756 144.768   1
  -9   5   4 193.440 247.476   2
  -5   9   4 300.053 236.226   4
   5   4   4 159.139 358.385   3
   5   4   4 189.684 304.171   1
  -9   5   4 70.2836 283.353   3
   9  -4   4 295.790 152.978   2
  -4  -5   7 26869.7 1416.93   2
  -4  -5   7 26614.8 1258.42   1
   5   4   7 28141.4 1457.70   1
  -9   5   7 28579.6 1459.09   3
  -5   9   7 27505.3 1075.08   4
   4  -9   7 29634.3 1530.33   1
   9  -4   7 28620.5 1528.69   1
  -9   5   7 27317.2 872.875   4
  -4  -5   7 25401.4 531.198   4
   4  -9   7 24721.2 609.345   4
  -5   9   7 27920.3 1306.65   1
  -4  -5   7 24441.0 534.695   4
  -4  -5   7 28830.9 1344.91   3
  -5   9   7 26699.9 1194.30   2
  -9   5   7 27532.1 1114.79   1
   4  -9   7 29867.4 1305.54   2
  -5   9  10 2298.91 600.496   1
   9  -4  10 2785.32 703.611   1
  -9   5  10 3067.45 620.835   1
   5   4  10 2491.33 646.489   1
   4  -9  10 1650.40 417.214   2
  -4  -5  10 3008.70 654.282   1
  -9   5  10 3293.30 755.462   3
  -4  -5  10 2378.56 598.231   2
  -4  -5  10 2912.51 690.495   3
   4  -9  10 1848.42 606.802   1
  -3  -6  -9 81.5459 210.377   4
   3  -9  -9 306.194 214.745   4
  -9   6  -9 228.840 136.113   4
  -9   6  -6 13806.8 649.336   4
   9  -3  -6 13826.8 717.165   1
   3  -9  -6 14575.0 757.678   2
  -6   9  -6 14083.0 585.343   4
  -3  -6  -6 13330.7 439.298   2
  -9   6  -6 13470.7 579.398   2
   3  -9  -6 13942.6 736.580   4
  -3  -6  -6 14358.0 768.348   4
  -9   6  -3 526.992 201.015   2
  -3  -6  -3 298.197 188.601   2
  -3  -6  -3 232.793 283.182   1
  -9   6  -3 352.601 307.555   3
   3  -9  -3 412.322 230.985   2
  -6   9  -3 613.817 270.394   2
   9  -3  -3 572.757 279.226   3
  -9   6  -3 413.591 212.313   4
  -6   9  -3 597.453 192.796   4
   3  -9  -3 581.278 253.719   1
   3  -9  -3 781.631 253.059   4
   6   3  -3 455.549 206.512   3
  -3  -6  -3 595.296 246.458   4
   9  -3  -3 569.512 106.979   1
   3  -9   0 37104.1 1000.21   1
  -6   9   0 35318.5 740.677   3
  -3  -6   0 37501.8 1004.16   3
  -9   6   0 35261.4 1122.52   3
   9  -3   0 35893.5 1170.50   3
   3  -9   0 36155.1 1274.24   2
  -9   6   0 29973.3 954.923   4
   3  -9   0 34370.6 1066.80   4
   6   3   0 36377.8 820.426   1
  -3  -6   0 34817.4 1094.56   4
   9  -3   0 36258.2 742.638   1
  -6   9   0 39556.1 1284.11   2
  -3  -6   0 36176.0 931.876   1
  -9   6   0 38975.7 1184.73   2
  -6   9   0 34974.3 1059.97   4
  -3  -6   0 34560.5 1213.74   2
   6   3   0 36828.3 1121.26   3
   3  -9   3 7337.62 464.839   4
  -6   9   3 6841.55 486.887   1
   9  -3   3 7505.73 609.999   1
  -6   9   3 6824.80 506.459   4
  -9   6   3 7358.84 595.914   3
  -3  -6   3 6498.68 447.513   3
   6   3   3 8845.94 753.641   3
  -6   9   3 7567.69 548.933   3
  -9   6   3 6110.99 564.808   2
  -3  -6   3 7466.05 500.497   4
  -6   9   3 7436.67 612.048   2
   9  -3   3 4961.80 640.252   3
  -9   6   3 5985.84 456.999   4
   3  -9   3 7287.49 628.034   2
  -9   6   3 7106.59 339.995   1
  -3  -6   3 6652.43 668.552   2
   6   3   3 7431.27 596.056   1
  -9   6   6 20354.9 877.257   1
  -9   6   6 17298.5 1086.28   3
  -3  -6   6 20644.3 1212.35   2
   3  -9   6 20953.9 1210.88   1
   9  -3   6 21251.3 1241.44   1
  -6   9   6 20860.7 905.020   4
  -6   9   6 20368.2 1032.58   2
  -6   9   6 21711.9 1053.95   1
  -3  -6   6 21428.9 642.526   4
  -3  -6   6 18992.4 1008.36   1
  -3  -6   6 21102.2 1049.85   3
  -9   6   6 20911.1 815.636   4
   6   3   6 19145.8 1156.52   1
  -9   6   6 18076.7 1049.80   2
   3  -9   6 20336.0 638.977   4
   3  -9   6 21255.0 1111.55   2
  -9   6   9 620.049 390.435   1
   3  -9   9 59.8335 293.002   2
  -9   6   9 47.0691 418.912   3
  -6   9   9-74.6720 320.069   1
   6   3   9 208.753 436.750   1
   3  -9   9-204.542 444.615   1
  -3  -6   9 856.724 447.500   2
  -3  -6   9 304.788 421.258   1
   9  -3   9 678.810 646.333   1
  -3  -6   9-249.435 458.804   3
  -9   6  12 6137.64 943.376   1
  -3  -6  12 7194.70 1115.91   3
   3  -9  12 5836.95 995.342   1
   6   3  12 5517.61 999.149   1
  -9   6  12 5494.66 959.998   3
  -6   9  12 4629.42 871.775   1
  -6   9  12 4311.17 947.092   3
   9  -3  12 4874.61 959.426   1
  -3  -6  12 4974.13 904.727   1
   2  -9 -10 2147.84 309.933   4
  -2  -7 -10 2250.73 327.776   4
   2  -9  -7 2751.81 345.197   2
  -7   9  -7 2982.35 297.699   4
  -2  -7  -7 2725.94 384.018   4
  -9   7  -7 2741.73 320.642   4
   2  -9  -7 2670.00 361.754   4
  -9   7  -4 929.227 264.722   2
   2  -9  -4 771.141 249.586   2
   2  -9  -4 909.540 278.757   1
  -7   9  -4 739.506 290.815   2
  -7   9  -4 1237.72 237.253   4
  -9   7  -4 709.378 221.780   4
   2  -9  -4 1097.46 261.271   4
   9  -2  -4 512.816 269.209   3
  -2  -7  -4 845.019 215.198   2
  -2  -7  -4 919.278 273.570   4
  -7   9  -1 21111.3 696.152   3
   7   2  -1 22102.2 849.956   3
  -7   9  -1 20859.7 818.825   4
   2  -9  -1 21454.9 808.052   1
  -9   7  -1 20427.7 819.365   4
  -9   7  -1 19374.4 900.059   3
   7   2  -1 21200.7 515.997   1
  -9   7  -1 20250.8 884.264   2
  -7   9  -1 22203.3 1000.32   2
   2  -9  -1 21771.8 986.462   2
   9  -2  -1 21677.3 895.649   3
  -2  -7  -1 20831.1 896.066   4
  -2  -7  -1 20550.2 913.573   2
  -2  -7  -1 21598.5 804.915   1
   2  -9  -1 22333.5 890.714   4
  -2  -7  -1 21738.9 804.038   3
   9  -2   2 31229.3 1017.62   1
   7   2   2 30231.4 1268.59   3
  -2  -7   2 29763.5 978.744   4
  -7   9   2 30672.4 1030.44   4
  -2  -7   2 29730.5 768.706   3
  -7   9   2 31257.8 969.417   3
  -7   9   2 29982.1 875.488   1
   7   2   2 30231.8 997.222   1
  -2  -7   2 29874.8 1277.52   2
   2  -9   2 28364.3 520.463   3
   9  -2   2 29491.9 1244.27   3
  -7   9   2 31213.2 1159.99   2
  -9   7   2 29917.5 994.621   4
   2  -9   2 28542.8 1198.11   2
  -9   7   2 31164.7 1176.02   2
  -9   7   2 28806.3 1044.25   3
  -9   7   2 31576.7 709.740   1
   2  -9   2 29454.1 939.255   4
  -2  -7   2 30405.4 894.071   1
  -2  -7   5 25587.4 1306.33   2
  -7   9   5 24764.2 1000.04   1
  -7   9   5 27685.4 1034.75   4
  -7   9   5 24268.2 1207.57   3
   2  -9   5 24361.6 1214.08   2
  -9   7   5 27679.4 1266.47   3
  -9   7   5 26700.0 919.520   1
  -9   7   5 24928.3 1169.94   2
   7   2   5 25723.0 1241.44   1
  -2  -7   5 22087.5 1058.80   1
  -7   9   5 26085.9 1165.17   2
   2  -9   5 26314.2 795.105   4
  -2  -7   5 25342.0 785.529   4
  -2  -7   5 25522.4 1031.66   3
   9  -2   5 24759.5 1228.33   1
  -9   7   5 25222.8 922.241   4
  -7   9   8 2636.83 486.313   1
  -7   9   8 3035.01 423.655   4
   7   2   8 2391.82 554.363   1
  -2  -7   8 2998.49 526.762   3
  -2  -7   8 3105.39 591.894   2
   2  -9   8 3090.33 619.471   1
  -2  -7   8 2352.70 495.649   1
  -9   7   8 1679.27 568.470   3
  -7   9   8 2094.10 507.536   2
   2  -9   8 2594.24 490.674   2
  -9   7   8 2332.57 461.407   1
  -9   7   8 2088.78 314.829   4
   9  -2   8 2237.86 588.607   1
  -9   7  11 6940.61 875.548   1
   2  -9  11 8801.64 1130.90   1
   7   2  11 9022.25 1123.03   1
  -9   7  11 7932.44 1088.02   3
   9  -2  11 9120.12 1178.70   1
  -7   9  11 6788.04 913.386   1
  -7   9  11 8139.66 1112.54   3
  -2  -7  11 7533.09 998.849   3
  -2  -7  11 6378.53 861.058   2
  -2  -7  11 8152.13 1043.86   1
  -9   8  -8 9684.17 498.940   4
  -1  -8  -8 11122.6 717.773   4
  -8   9  -8 9492.06 459.186   4
   1  -9  -8 11826.5 722.504   4
  -9   8  -5 14888.7 694.726   4
   1  -9  -5 15079.1 722.772   2
  -9   8  -5 15721.5 791.504   2
   1  -9  -5 14354.7 787.376   4
  -1  -8  -5 15991.0 688.604   2
  -8   9  -5 14628.0 817.856   2
  -1  -8  -5 15684.8 831.002   4
  -8   9  -5 15216.1 682.265   4
  -9   8  -2 11118.0 708.932   3
  -8   9  -2 11680.9 722.323   2
  -9   8  -2 10928.9 619.076   4
   9  -1  -2 12897.1 714.277   3
   1  -9  -2 12099.6 731.161   2
   8   1  -2 11634.6 665.555   3
   1  -9  -2 12696.6 701.609   4
   1  -9  -2 10894.9 642.850   1
  -8   9  -2 11427.3 610.980   3
  -1  -8  -2 12593.1 725.034   4
  -8   9  -2 11904.8 627.890   4
  -1  -8  -2 11402.3 709.678   2
  -1  -8  -2 11521.4 687.090   1
  -9   8  -2 11041.2 672.569   2
  -8   9   1 35507.0 1099.48   4
  -9   8   1 36414.0 1102.92   4
   1  -9   1 34552.7 1079.26   4
  -9   8   1 37336.9 1273.94   2
  -1  -8   1 36259.2 992.415   1
   8   1   1 35853.7 944.026   1
  -8   9   1 36304.9 986.345   3
   1  -9   1 34286.8 991.497   1
  -8   9   1 37572.1 1274.82   2
   1  -9   1 37848.4 1345.46   2
   8   1   1 36270.5 1267.93   3
  -1  -8   1 36113.9 773.471   3
  -1  -8   1 36118.1 1349.42   2
   9  -1   1 37848.2 1316.63   3
   9  -1   1 35902.4 935.426   1
  -1  -8   1 37248.4 1139.73   4
  -9   8   1 37902.4 1084.44   3
  -1  -8   4 7574.87 732.065   2
   8   1   4 5899.22 622.865   1
  -9   8   4 6901.23 453.879   1
  -9   8   4 5925.65 477.488   4
  -9   8   4 6842.58 642.691   2
  -1  -8   4 7635.13 509.907   3
  -8   9   4 7824.94 559.123   4
   9  -1   4 7296.97 656.538   1
  -8   9   4 6403.84 586.530   3
  -9   8   4 7755.02 654.641   3
   1  -9   4 6178.22 429.571   3
  -8   9   4 6835.70 632.870   2
  -8   9   4 6295.18 487.877   1
   1  -9   4 7277.13 468.863   4
   1  -9   4 6853.09 702.177   2
  -1  -8   4 6782.48 464.028   4
   1  -9   7 24451.1 1356.53   1
  -9   8   7 25784.3 1133.58   1
   8   1   7 27495.5 1495.37   1
  -9   8   7 25327.9 981.328   4
  -9   8   7 25830.4 1442.61   3
  -8   9   7 25231.9 1413.62   3
  -1  -8   7 23402.7 1276.94   1
  -1  -8   7 24235.1 1342.83   2
  -8   9   7 23495.8 985.200   4
   9  -1   7 21794.5 1360.38   1
  -1  -8   7 23608.0 1169.75   3
  -8   9   7 22677.7 1209.07   2
  -8   9   7 24422.5 1163.58   1
   1  -9   7 25181.2 1341.17   2
   1  -9   7 24284.7 606.494   4
  -1  -8   7 24414.6 582.133   4
   1  -9  10 5676.64 772.536   3
  -1  -8  10 6241.00 855.501   1
  -9   8  10 7218.90 828.056   1
  -8   9  10 6664.71 928.130   3
   9  -1  10 5767.55 947.314   1
   1  -9  10 5381.04 829.297   1
   8   1  10 5090.32 903.683   1
  -9   8  10 4996.57 917.999   3
  -1  -8  10 5475.74 787.623   3
  -1  -8  10 5574.78 778.364   2
  -8   9  10 5647.80 785.958   1
   1  -9  10 5584.99 739.830   2
   0  -9  -9-120.418 241.267   4
  -9   9  -6 5825.70 556.638   2
   0  -9  -6 6071.14 546.698   4
  -9   9  -6 6376.97 466.047   4
   0  -9  -6 6615.78 474.471   2
  -9   9  -3 211.375 253.468   2
  -9   9  -3 183.531 222.554   3
   9   0  -3 228.052 253.862   3
   0  -9  -3 38.2244 245.764   1
   0  -9  -3-28.3282 225.397   2
   0  -9  -3 43.0187 216.821   4
  -9   9  -3 123.152 190.203   4
   9   0   0 33341.5 742.665   1
  -9   9   0 34679.9 1237.50   2
   9   0   0 34631.4 1200.94   3
   0  -9   0 34228.3 1022.28   1
   0  -9   0 35471.4 756.962   3
  -9   9   0 33528.8 1021.74   3
   0  -9   0 34837.0 1282.51   2
  -9   9   0 34941.2 1117.89   4
   0  -9   0 32942.6 1129.19   4
   0  -9   3-18.6051 133.683   3
   0  -9   3 381.451 206.117   4
   9   0   3-33.9710 245.084   1
   0  -9   3 226.110 362.737   2
  -9   9   3 291.757 191.012   1
  -9   9   3-224.111 225.570   4
   9   0   3 349.482 397.332   3
  -9   9   3 109.318 244.891   3
  -9   9   3 288.652 274.231   2
   0  -9   6 5178.35 527.516   3
  -9   9   6 3886.13 441.682   1
  -9   9   6 3163.82 552.695   3
   0  -9   6 3736.69 572.178   2
   0  -9   6 4599.94 345.851   4
  -9   9   6 3344.86 515.443   2
   0  -9   6 5370.05 672.542   1
  -9   9   6 4414.39 458.715   4
   9   0   6 4000.01 619.117   1
   0  -9   9 37.4446 311.851   3
   0  -9   9 335.307 382.506   2
   9   0   9 430.898 461.241   1
  -9   9   9 251.037 522.001   3
  -9   9   9 377.617 400.013   1
   0  -9   9 330.073 458.586   1
   0  -9  12 3537.97 887.875   1
  -9   9  12 3555.65 880.591   3
   9   0  12 5699.17 1079.08   1
   0  -9  12 3503.27 785.126   3
  -9   9  12 3952.87 781.385   1
 -10   0 -10 18571.1 909.652   4
  10 -10  -7-219.788 223.841   4
 -10   0  -7 93.3084 266.412   4
 -10   0  -4 75075.5 2342.47   3
 -10   0  -4 80191.7 1345.50   2
  10 -10  -4 78081.0 1778.56   4
  10 -10  -4 78011.3 1621.55   1
  10 -10  -4 78695.8 2069.93   2
   0  10  -4 80438.8 1688.94   4
  10 -10  -1 125.347 283.939   2
   0  10  -1 27.2306 76.9421   3
  10 -10  -1-111.961 174.427   1
  10 -10  -1 278.357 270.151   4
  10 -10  -1 219.562 216.834   3
 -10   0  -1-322.301 216.538   1
 -10   0  -1 5.90990 301.839   3
   0  10  -1 397.068 241.976   4
   0  10  -1 598.073 336.446   2
   0  10   2 57417.1 1497.55   3
  10 -10   2 53458.5 1416.44   4
  10 -10   2 57543.6 1609.65   2
   0  10   2 56450.0 1652.79   2
 -10   0   2 53407.1 1581.11   3
   0  10   2 57465.6 1617.57   4
   0  10   2 52114.7 1423.61   1
  10 -10   2 56427.1 1463.95   3
  10 -10   5-51.5355 222.870   2
   0  10   5 172.856 243.953   4
 -10   0   5 16.3406 200.452   4
 -10   0   5-95.9814 162.843   1
   0  10   5 131.725 261.560   2
  10 -10   5 601.141 346.664   3
   0  10   5 476.684 302.718   1
  10 -10   5 134.897 213.069   4
 -10   0   5-115.723 296.523   3
  10 -10   5-34.2762 342.030   1
   0  10   8 17923.6 773.797   2
   0  10   8 18057.1 1238.13   1
 -10   0   8 18488.3 670.266   4
 -10   0   8 20858.2 1345.91   3
  10 -10   8 18867.1 874.967   2
  10 -10   8 22049.1 1539.39   1
 -10   0   8 23517.1 1101.48   1
 -10   0  11 120.669 519.898   3
   0  10  11-66.0154 500.522   1
  10 -10  11 283.828 521.958   1
 -10   0  11-57.9081 415.250   1
  10  -9  -8 710.446 276.477   4
  -9  -1  -8 756.326 298.170   4
  -9  -1  -8 730.130 277.236   4
 -10   1  -8 100.725 238.291   4
   9 -10  -8 418.195 211.893   4
 -10   1  -8 470.492 272.284   4
   9 -10  -5 5855.89 546.266   1
  -9  -1  -5 4879.61 290.933   2
  -1  10  -5 6163.93 467.292   4
   9 -10  -5 5097.99 480.325   4
   9 -10  -5 5271.55 573.367   2
  10  -9  -5 4685.33 456.702   4
 -10   1  -5 5548.45 307.282   2
  10  -9  -5 5008.04 471.522   1
  -9  -1  -5 4642.01 259.353   2
  -9  -1  -2 2537.61 516.198   3
   9 -10  -2 2438.38 298.729   1
   1   9  -2 2808.53 226.590   3
  10  -9  -2 3229.90 473.016   2
  -1  10  -2 1987.74 400.089   2
   1   9  -2 2091.47 429.663   2
   9 -10  -2 2434.47 413.885   2
 -10   1  -2 2959.91 365.982   2
 -10   1  -2 3580.28 530.729   3
  10  -9  -2 3010.09 398.421   4
  -1  10  -2 2646.45 363.638   4
   9 -10  -2 2127.37 308.647   3
  10  -9  -2 2391.25 347.815   3
  -9  -1  -2 1818.30 321.958   1
   9 -10  -2 2511.07 373.056   4
 -10   1  -2 2701.27 384.556   1
  10  -9  -2 3110.94 303.629   1
   1   9  -2 2708.19 357.810   4
   1   9   1 53.0982 208.345   3
   1   9   1 694.165 258.349   2
  10  -9   1 240.924 259.146   4
   1   9   1 470.830 300.033   4
   9 -10   1 243.315 189.340   3
  -1  10   1 3.45761 189.136   1
   1   9   1 177.751 229.733   1
  -9  -1   1 128.498 136.835   1
  10  -9   1 31.7801 199.651   3
  -1  10   1 109.595 170.907   3
 -10   1   1-87.3857 84.7065   1
  -9  -1   1-233.540 265.530   3
  -1  10   1-244.141 289.903   2
 -10   1   1 6.58638 274.406   3
  10  -9   1 56.0745 225.472   2
   9 -10   1 265.545 228.234   4
  -1  10   1 22.5016 216.536   4
   9 -10   1-129.874 224.507   2
  -1  10   4 7972.39 630.482   2
  10  -9   4 8219.72 566.637   4
   9 -10   4 8840.36 710.815   3
   1   9   4 7922.39 593.159   2
  10  -9   4 8270.46 604.849   2
   1   9   4 9456.10 793.819   3
   1   9   4 9065.84 722.987   1
   9 -10   4 9402.38 585.070   4
  -9  -1   4 8576.33 552.601   4
  -1  10   4 10243.9 752.479   1
 -10   1   4 8459.46 354.137   1
   1   9   4 7608.25 631.928   4
   9 -10   4 8987.15 652.510   2
  10  -9   4 7736.07 727.391   3
 -10   1   4 9072.27 737.459   3
  -9  -1   4 8421.60 416.860   1
  10  -9   4 9454.51 784.699   1
 -10   1   4 8645.38 558.767   4
  -9  -1   4 7154.03 662.707   3
  -1  10   4 8781.04 669.897   4
   9 -10   4 8675.84 770.433   1
  10  -9   7 6824.41 865.176   1
   9 -10   7 4373.85 664.147   1
  -9  -1   7 6108.73 426.338   4
  -1  10   7 6935.71 767.030   1
  -1  10   7 5625.25 540.727   2
   9 -10   7 5514.34 525.461   2
 -10   1   7 5629.79 428.528   4
  -9  -1   7 5189.56 533.521   1
 -10   1   7 6127.57 535.338   1
  10  -9   7 5377.92 449.053   2
 -10   1   7 5824.63 719.096   3
  -9  -1   7 5493.95 658.115   3
   1   9   7 5148.93 434.639   2
   1   9   7 4032.03 637.349   1
  10  -9  10 3426.09 730.574   1
  -9  -1  10 2412.39 534.420   1
   1   9  10 2416.52 663.104   1
  -1  10  10 3521.96 752.115   1
 -10   1  10 2139.78 633.907   3
  -9  -1  10 3420.80 717.806   3
 -10   1  10 2343.84 497.847   1
   9 -10  10 1513.74 636.387   1
  -8  -2  -9 4871.09 518.399   4
   8 -10  -9 4832.04 446.337   4
 -10   2  -9 5451.51 503.840   4
   8 -10  -6 9828.42 773.214   2
  -8  -2  -6 8722.53 671.872   4
   8 -10  -6 8554.00 589.439   4
  10  -8  -6 8542.09 567.322   4
 -10   2  -6 8544.28 604.075   4
  10  -8  -6 9571.10 676.299   1
  -2  10  -6 9800.11 524.959   4
  -8  -2  -3 14415.5 951.893   3
  10  -8  -3 15712.1 895.990   2
   8 -10  -3 16537.8 797.452   4
  -2  10  -3 15807.6 744.740   4
   8 -10  -3 15422.5 723.690   1
 -10   2  -3 15897.0 870.472   1
  10  -8  -3 14887.9 736.625   4
  -8  -2  -3 15812.1 882.990   1
  10  -8  -3 15689.1 829.457   3
  10  -8  -3 15820.1 595.609   1
  -2  10  -3 16434.2 1000.37   2
 -10   2  -3 15453.2 649.026   2
 -10   2  -3 13812.1 967.658   3
   8 -10  -3 15504.6 861.646   2
  -2  10   0 9258.51 566.408   1
   2   8   0 9474.90 717.450   2
 -10   2   0 9531.60 732.001   3
   8 -10   0 7729.02 626.133   2
  -2  10   0 8435.01 676.017   2
   2   8   0 9465.65 631.763   4
  10  -8   0 8867.34 555.727   3
  -2  10   0 8361.10 604.953   4
 -10   2   0 9867.37 605.050   4
  -8  -2   0 8681.59 681.906   3
 -10   2   0 8994.53 414.000   1
  -2  10   0 8296.93 313.644   3
 -10   2   0 8915.62 644.203   2
   8 -10   0 8885.66 589.508   4
   8 -10   0 9926.09 460.260   3
   2   8   0 8631.83 477.971   3
  10  -8   0 9486.98 660.654   2
  -8  -2   0 9126.88 462.427   1
  10  -8   0 8805.40 589.187   4
   2   8   0 9445.81 544.130   1
 -10   2   3 17838.1 946.580   3
   8 -10   3 20653.2 842.775   4
   2   8   3 19849.1 906.786   2
   8 -10   3 19351.8 967.219   2
  10  -8   3 20927.9 1009.45   1
 -10   2   3 21908.6 1105.17   2
  10  -8   3 21238.9 1065.26   3
  -2  10   3 20757.9 948.223   4
  10  -8   3 19937.2 861.151   2
  -8  -2   3 20008.7 529.759   1
  10  -8   3 19832.6 832.010   4
  -8  -2   3 18655.5 930.640   3
  -2  10   3 17863.7 866.768   1
   2   8   3 21420.6 973.578   1
   2   8   3 21646.3 1070.71   3
  -2  10   3 22198.2 1027.41   2
   8 -10   3 21920.6 933.252   3
 -10   2   3 19743.2 811.926   4
  -8  -2   6 1038.64 331.687   3
  -8  -2   6 1223.80 233.371   4
   2   8   6 1216.05 393.978   1
  10  -8   6 1180.43 260.039   2
   8 -10   6 1122.28 455.174   1
  10  -8   6 1326.39 443.843   1
  -2  10   6 1212.12 309.007   2
   2   8   6 946.012 240.098   2
  -2  10   6 1170.06 370.990   1
   8 -10   6 948.925 229.767   4
 -10   2   6 1331.52 259.963   1
 -10   2   6 566.917 328.244   3
 -10   2   6 939.039 220.059   4
  -2  10   6 1147.11 338.769   4
   8 -10   6 936.708 301.263   2
  -8  -2   6 1376.80 299.881   1
   2   8   9 6574.18 881.351   1
   8 -10   9 8029.63 633.911   2
 -10   2   9 9717.83 1022.50   3
 -10   2   9 8467.30 760.132   1
  -2  10   9 8429.74 911.221   1
  -8  -2   9 8351.13 800.037   1
   8 -10   9 8178.47 1056.29   1
  -8  -2   9 6966.49 869.628   3
  10  -8   9 8458.34 1056.14   1
 -10   2  12 1180.73 695.616   3
  10  -8  12 2183.46 782.181   1
  -8  -2  12 2367.23 853.467   3
  -8  -2  12 3212.06 750.293   1
 -10   2  12 2386.88 705.728   1
   2   8  12 860.043 684.465   1
   8 -10  12 567.912 630.475   1
  -2  10  12 1966.60 697.528   1
  -7  -3 -10 9024.17 614.362   4
   7 -10  -7 11.3750 200.077   4
   7 -10  -7-66.1438 280.862   2
  10  -7  -7 192.597 175.323   4
  -7  -3  -7 24.6749 229.406   4
  10  -7  -7-39.3902 282.196   1
 -10   3  -7-115.667 196.753   4
  -7  -3  -4 65922.8 1219.95   2
  10  -7  -4 60211.8 1798.86   2
 -10   3  -4 71021.9 2136.23   3
  10  -7  -4 67166.6 1497.03   4
   7 -10  -4 62059.9 1694.69   2
  -3  10  -4 65522.7 1417.42   4
  -3  10  -4 66131.0 1963.12   2
  10  -7  -4 66410.8 1260.30   1
 -10   3  -4 66648.3 1548.68   4
   7 -10  -4 67060.4 1621.91   1
 -10   3  -4 66971.4 1248.23   2
   7 -10  -4 66077.8 1569.20   4
  -3  10  -1 12683.0 820.465   2
  10  -7  -1 11219.0 720.250   2
   7 -10  -1 11511.2 654.751   4
 -10   3  -1 11702.4 571.764   1
 -10   3  -1 12031.3 658.540   4
  -7  -3  -1 12098.7 798.474   3
 -10   3  -1 11634.7 656.502   2
   7 -10  -1 11341.7 726.282   2
  10  -7  -1 11424.3 652.416   4
   7 -10  -1 11364.0 582.277   1
  -3  10  -1 13369.7 695.880   4
   3   7  -1 11802.3 511.337   3
  10  -7  -1 12536.1 452.150   1
  -7  -3  -1 12074.9 607.758   1
  10  -7  -1 11448.6 645.557   3
 -10   3  -1 11327.3 816.144   3
   7 -10   2 27443.3 1138.67   2
  -3  10   2 27845.0 1046.07   4
  10  -7   2 25240.2 978.182   1
  -3  10   2 25891.2 951.482   1
   7 -10   2 26071.8 790.259   3
   3   7   2 26218.4 970.339   1
 -10   3   2 25423.2 920.458   4
  -7  -3   2 25211.4 624.111   1
  10  -7   2 23952.9 925.709   4
 -10   3   2 26334.5 1133.48   2
  -3  10   2 26718.6 1113.94   2
  10  -7   2 25178.5 1085.69   3
   7 -10   2 23361.6 888.727   4
  10  -7   2 24532.8 938.671   2
   3   7   2 26814.3 1111.58   3
   3   7   2 25530.3 1026.85   2
 -10   3   2 26219.9 1064.75   3
  -7  -3   2 25010.9 968.014   3
  -3  10   5 1920.35 383.194   1
   7 -10   5 1873.06 278.161   4
 -10   3   5 1708.32 286.787   4
   7 -10   5 2912.88 474.335   3
  10  -7   5 1381.90 408.792   1
   3   7   5 2322.36 446.224   1
  -3  10   5 2061.17 392.189   4
   7 -10   5 2718.53 458.838   2
  -3  10   5 2203.32 389.290   2
  10  -7   5 2102.22 276.645   2
 -10   3   5 2276.97 259.358   1
  -7  -3   5 1904.41 397.057   3
  -7  -3   5 2166.87 314.025   1
   7 -10   5 1374.68 368.781   1
 -10   3   5 1525.75 397.053   3
  -7  -3   8 26627.1 1280.88   1
  -3  10   8 20439.3 1003.58   2
 -10   3   8 24098.3 1485.50   3
   7 -10   8 26287.2 1630.16   1
  -7  -3   8 25073.7 1440.56   3
   7 -10   8 24043.9 1138.33   2
  10  -7   8 22621.2 1492.89   1
 -10   3   8 25488.4 1158.79   1
 -10   3   8 22088.0 732.622   4
   3   7   8 24859.6 1465.94   1
  -3  10   8 26794.3 1450.08   1
 -10   3  11 1424.49 513.464   1
  -7  -3  11 1426.10 591.034   2
  -3  10  11 1559.55 546.956   1
   3   7  11 1197.11 696.506   1
 -10   3  11-87.7483 487.001   3
  10  -7  11 1114.99 575.977   1
   7 -10  11 1438.30 708.563   1
  -7  -3  11 667.959 595.695   3
  -7  -3  11 1095.00 572.617   1
  -6  -4  -8 7703.90 612.522   4
 -10   4  -8 6298.22 500.160   4
   6 -10  -8 6713.21 533.646   4
  -6  -4  -5 15573.1 508.329   2
  -4  10  -5 14979.2 969.011   2
  -4  10  -5 15275.1 672.606   4
 -10   4  -5 14912.0 732.378   4
  10  -6  -5 14671.4 671.424   1
   6 -10  -5 14133.2 860.665   1
 -10   4  -5 15038.7 559.203   2
  10  -6  -5 14727.8 711.150   4
   6 -10  -5 15736.0 787.684   4
  -6  -4  -5 15287.3 830.232   4
   6 -10  -5 15385.7 860.702   2
  -6  -4  -2 24617.5 1105.82   3
  -6  -4  -2 21754.3 888.083   2
  -4  10  -2 24186.3 1115.68   2
  10  -6  -2 24065.2 524.326   1
   6 -10  -2 23096.4 921.584   4
 -10   4  -2 23652.1 905.868   4
  -6  -4  -2 23438.2 932.111   1
  10  -6  -2 23389.4 936.032   3
  -4  10  -2 23962.8 888.325   4
 -10   4  -2 23159.5 853.364   2
 -10   4  -2 23237.1 898.410   1
  10  -6  -2 22724.7 884.314   4
   6 -10  -2 24388.7 876.514   1
 -10   4  -2 22608.9 1124.19   3
  10  -6  -2 23755.6 1075.19   2
   4   6  -2 22798.5 747.773   3
   6 -10  -2 23600.1 1024.16   2
  10  -6   1 549.219 217.080   1
  -4  10   1 220.308 225.128   4
   6 -10   1 487.508 289.057   2
   4   6   1 184.039 242.574   3
  -4  10   1 419.873 237.878   1
  -6  -4   1 281.837 142.091   1
  10  -6   1 308.609 207.891   4
  -6  -4   1 286.866 251.553   3
   6 -10   1 376.330 121.714   3
 -10   4   1 362.890 259.381   2
  10  -6   1 242.078 222.979   3
  -4  10   1 523.681 276.896   2
 -10   4   1 514.563 272.822   3
 -10   4   1 292.036 201.458   4
   4   6   1 200.820 191.773   1
  10  -6   1 584.131 265.070   2
   6 -10   1 366.412 247.907   4
  -6  -4   4 16513.6 852.197   3
   6 -10   4 16403.3 819.360   3
  -4  10   4 15741.8 815.433   4
   4   6   4 13014.5 846.312   1
 -10   4   4 14881.1 468.715   1
   4   6   4 13425.5 982.044   3
   6 -10   4 13708.2 653.281   4
  10  -6   4 15722.3 673.472   2
   6 -10   4 14215.1 892.323   2
  10  -6   4 11387.0 989.257   3
  -4  10   4 15035.6 825.796   1
  -4  10   4 15021.2 860.233   2
 -10   4   4 14522.0 699.199   4
  10  -6   4 14792.6 900.177   1
 -10   4   4 15505.8 923.139   3
 -10   4   4 14869.0 917.766   2
   4   6   7 1391.16 455.973   1
 -10   4   7 617.638 283.741   1
  -6  -4   7 1342.57 362.084   1
 -10   4   7 1116.48 426.417   3
  -6  -4   7 1560.54 211.607   4
  -4  10   7 1812.09 379.188   4
   6 -10   7 1447.44 347.271   2
  -6  -4   7 1263.24 191.396   4
  10  -6   7 1233.26 509.607   1
  -6  -4   7 1852.30 435.317   3
   6 -10   7 1130.72 445.658   1
  10  -6   7 1076.28 147.810   2
   6 -10   7 1386.46 219.638   4
 -10   4   7 983.408 245.528   4
  -4  10   7 1254.55 368.776   2
  -4  10   7 137.878 282.801   1
  -4  10  10 10357.6 1044.55   1
 -10   4  10 10891.6 1189.60   3
   6 -10  10 9589.70 755.644   2
   6 -10  10 9736.12 1185.51   1
  -6  -4  10 11184.3 1103.39   2
   4   6  10 11306.4 1189.53   1
  -6  -4  10 11221.1 1045.28   1
  10  -6  10 11597.9 1228.11   1
  -6  -4  10 12463.0 1161.37   3
 -10   4  10 10560.6 935.350   1
 -10   5  -9 8565.68 534.353   4
  -5  -5  -9 9430.81 652.366   4
   5 -10  -9 7641.86 558.877   4
 -10   5  -6 7231.89 526.786   4
  -5  10  -6 8671.93 489.853   4
  -5  -5  -6 7953.50 626.288   4
 -10   5  -6 7353.38 370.148   2
  10  -5  -6 8200.59 576.728   1
   5 -10  -6 8002.82 624.219   2
   5 -10  -6 7860.86 576.618   4
  10  -5  -3 23172.9 524.256   1
  -5  -5  -3 22429.9 837.396   2
 -10   5  -3 25680.2 933.349   4
 -10   5  -3 24442.2 1052.49   1
   5 -10  -3 23455.7 946.005   1
   5 -10  -3 24151.9 1029.96   2
 -10   5  -3 22471.5 834.416   2
   5 -10  -3 24549.3 955.947   4
  -5  10  -3 23643.8 1102.85   2
 -10   5  -3 22254.2 1136.08   3
   5   5  -3 24179.9 881.684   3
  -5  10  -3 24965.4 886.613   4
  -5  -5  -3 23716.1 1008.61   4
  10  -5  -3 23769.6 904.568   4
  10  -5  -3 21192.6 969.937   3
  -5  -5  -3 24336.5 1046.43   1
  -5  -5  -3 25670.5 1168.87   3
  10  -5   0 42552.6 1285.96   2
  -5  10   0 40478.3 1176.69   4
  10  -5   0 41201.0 1234.13   3
  -5  10   0 41458.2 1395.18   2
 -10   5   0 42049.8 1176.36   4
 -10   5   0 42606.4 1355.41   3
  10  -5   0 42541.3 875.488   1
   5 -10   0 40316.1 1175.28   4
 -10   5   0 40678.7 1252.31   2
   5 -10   0 40720.8 1075.31   1
  -5  10   0 40696.6 654.947   3
  -5  -5   0 41147.6 989.061   1
   5   5   0 39379.0 1142.22   3
   5   5   0 42239.2 986.245   1
  -5  -5   0 40046.7 1206.57   3
  -5  10   3 24843.3 938.993   1
  -5  -5   3 25157.0 913.243   3
   5   5   3 24431.5 1022.40   1
   5 -10   3 24021.1 809.747   3
 -10   5   3 25000.1 915.962   4
  10  -5   3 24643.1 1058.50   1
  10  -5   3 23721.8 1238.40   3
  -5  -5   3 24488.2 907.988   4
 -10   5   3 23598.9 487.940   1
   5 -10   3 21996.9 826.285   4
  -5  10   3 24619.2 975.798   4
  -5  10   3 27092.3 1143.56   2
  10  -5   3 24086.0 832.926   2
 -10   5   3 25776.1 1108.07   3
   5 -10   3 22992.0 1081.83   2
   5   5   3 23639.7 1187.77   3
 -10   5   3 22966.3 1078.24   2
  -5  10   6 8490.85 636.335   4
 -10   5   6 9296.90 811.798   3
 -10   5   6 8478.01 552.569   1
   5   5   6 8694.39 796.311   1
  -5  -5   6 8616.82 474.553   4
   5 -10   6 8619.22 770.024   3
  10  -5   6 8097.42 844.919   1
  -5  -5   6 8869.05 664.347   1
   5 -10   6 7924.39 452.104   4
  -5  10   6 9302.95 740.762   2
  -5  -5   6 8280.80 718.088   3
  10  -5   6 7094.74 351.896   2
   5 -10   6 8542.79 842.482   1
  -5  10   6 7589.82 672.716   1
 -10   5   6 8359.09 541.314   4
   5 -10   6 8573.80 727.308   2
  -5  10   9 10387.5 971.589   1
  -5  -5   9 10798.3 999.482   3
   5   5   9 8855.40 970.346   1
 -10   5   9 10500.8 849.858   1
  -5  -5   9 9554.71 989.318   2
  -5  -5   9 10351.2 960.876   1
   5 -10   9 11955.3 1192.87   1
  10  -5   9 10802.3 1106.18   1
 -10   5   9 9432.54 1044.06   3
   5 -10   9 9601.77 807.295   2
  -5  -5  12 853.417 626.676   3
  -5  -5  12 1989.56 672.900   1
  10  -5  12 805.846 725.995   1
 -10   5  12 1671.89 649.955   1
  -5  10  12 860.034 599.679   1
 -10   5  12 2006.00 744.218   3
   5 -10  12 1097.13 719.986   1
   5   5  12 1104.87 617.478   1
   4 -10 -10 8187.90 553.287   4
  -4  -6 -10 8692.88 616.367   4
  -6  10  -7 1083.08 213.809   4
   4 -10  -7 1127.41 240.931   4
 -10   6  -7 868.412 242.435   4
   4 -10  -7 801.126 287.306   2
  10  -4  -7 1015.35 331.926   1
  -4  -6  -7 1090.32 327.634   4
  10  -4  -4 13957.9 487.568   1
   4 -10  -4 13450.4 762.536   2
 -10   6  -4 13453.6 686.229   4
  -4  -6  -4 12426.2 754.288   4
   4 -10  -4 13108.7 791.895   1
 -10   6  -4 12686.9 675.606   2
 -10   6  -4 11971.3 926.939   3
   4 -10  -4 13182.2 727.149   4
  -6  10  -4 14034.5 668.344   4
  -6  10  -4 13269.6 850.178   2
  -4  -6  -4 12564.1 603.491   2
  -6  10  -1 553.287 148.598   3
   6   4  -1 629.020 175.596   1
 -10   6  -1 683.248 235.152   4
  -4  -6  -1 351.426 241.856   3
  -4  -6  -1 630.123 222.275   1
  -6  10  -1 380.335 191.137   4
  10  -4  -1 420.006 94.3182   1
   4 -10  -1 916.434 272.254   4
  10  -4  -1 531.280 230.983   3
  -4  -6  -1 1305.15 302.128   2
   4 -10  -1 626.414 287.241   2
 -10   6  -1 376.895 229.275   2
 -10   6  -1 635.119 328.913   3
  -6  10  -1 292.072 273.214   2
   4 -10  -1 592.560 248.741   1
   6   4  -1 622.112 208.293   3
  -4  -6  -1 943.602 267.382   4
  10  -4   2 21978.1 876.166   1
  -6  10   2 22622.6 1044.24   2
  -6  10   2 22251.4 824.902   1
  -4  -6   2 21757.2 709.938   1
  -4  -6   2 22271.8 895.117   4
   4 -10   2 22260.9 1078.32   2
   4 -10   2 22951.6 864.830   4
   6   4   2 23459.5 906.147   1
  -6  10   2 22705.4 925.318   4
 -10   6   2 23707.6 901.641   4
  -4  -6   2 23754.7 1160.40   2
 -10   6   2 23254.6 1036.16   2
   6   4   2 23703.0 1111.66   3
  -6  10   2 23994.8 823.252   3
  10  -4   2 20204.5 1046.29   3
  10  -4   2 22540.7 861.431   2
  -4  -6   2 22603.4 795.862   3
 -10   6   2 23996.8 991.818   3
   4 -10   2 22713.0 540.872   3
   6   4   5 15787.0 989.283   1
  -4  -6   5 15759.0 838.033   1
  -6  10   5 15169.7 803.922   4
   4 -10   5 15844.8 974.686   2
  -4  -6   5 14571.1 1023.03   2
   4 -10   5 14778.0 993.622   1
 -10   6   5 15653.4 989.235   3
  -6  10   5 14432.3 831.189   1
 -10   6   5 15547.4 738.092   4
  -4  -6   5 16130.7 678.130   4
  -6  10   5 17023.0 956.023   2
   4 -10   5 15711.5 655.794   4
  -4  -6   5 13602.2 781.641   3
  10  -4   5 14310.3 958.242   1
 -10   6   5 16094.9 659.730   1
 -10   6   5 13376.2 916.834   2
   4 -10   8 7011.82 725.038   2
   4 -10   8 7394.62 900.774   1
   6   4   8 7598.63 863.413   1
  -4  -6   8 6746.27 811.908   2
 -10   6   8 6335.98 467.737   4
  -4  -6   8 6292.36 737.270   3
 -10   6   8 8243.69 726.122   1
  -6  10   8 8209.75 807.675   1
  -6  10   8 6947.92 712.797   2
  -4  -6   8 7929.65 791.242   1
  10  -4   8 6963.51 874.492   1
 -10   6   8 7371.61 877.460   3
  -6  10   8 6795.60 598.222   4
  -6  10  11-280.527 513.942   1
  -4  -6  11 10.5820 529.231   3
  10  -4  11 1230.40 571.654   1
  -4  -6  11 64.6305 452.307   1
  -4  -6  11 372.467 487.819   2
   6   4  11 361.036 558.457   1
   4 -10  11 244.644 551.927   1
  -6  10  11 1523.69 663.447   3
 -10   6  11 1837.27 745.271   3
 -10   6  11 18.9072 425.425   1
  -7  10  -8 18783.6 612.162   4
  -3  -7  -8 20297.5 976.242   4
 -10   7  -8 19916.6 779.556   4
  -7  10  -5 1809.36 405.694   2
  -3  -7  -5 1998.18 257.058   2
 -10   7  -5 1530.30 270.392   4
  -3  -7  -5 1922.92 348.793   4
  -7  10  -5 1470.81 251.817   4
 -10   7  -5 2573.91 342.658   2
   3 -10  -5 1475.86 303.745   2
   3 -10  -5 2282.36 348.119   4
  -7  10  -2 25400.0 766.220   3
  -3  -7  -2 23424.5 1015.06   3
  -3  -7  -2 26288.3 1022.52   2
   7   3  -2 25978.6 936.044   3
  -3  -7  -2 23604.5 946.150   1
  -7  10  -2 25615.8 1111.48   2
   3 -10  -2 25487.9 954.282   1
   3 -10  -2 25123.3 1068.53   2
 -10   7  -2 26760.9 1001.58   2
  -3  -7  -2 24685.5 1027.06   4
 -10   7  -2 27328.6 1136.84   3
 -10   7  -2 25814.4 954.038   4
   3 -10  -2 25096.4 980.758   4
  -7  10  -2 24242.0 895.773   4
  10  -3  -2 26442.5 1025.78   3
   7   3   1 11875.2 576.024   1
  10  -3   1 11529.4 769.770   3
  -7  10   1 13163.4 559.018   3
  -7  10   1 12878.3 704.841   4
  -3  -7   1 12310.0 583.968   3
   3 -10   1 12064.5 666.105   4
 -10   7   1 12937.5 701.226   4
  -3  -7   1 12303.2 581.473   1
   3 -10   1 13141.0 653.135   1
  -3  -7   1 13980.1 748.784   4
  -7  10   1 13481.0 841.170   2
  10  -3   1 12251.5 584.056   1
   3 -10   1 11956.8 808.923   2
 -10   7   1 11211.8 735.819   2
  -3  -7   1 13503.5 866.819   2
 -10   7   1 11200.8 666.294   3
   7   3   1 13165.3 797.347   3
  -3  -7   4 71110.3 2146.83   2
  -3  -7   4 64688.4 1399.64   4
   7   3   4 66639.0 1833.00   1
  -7  10   4 66431.1 1543.80   1
 -10   7   4 70355.3 1216.82   1
 -10   7   4 69383.6 1882.17   3
   3 -10   4 70071.0 2000.81   2
 -10   7   4 68264.8 1902.97   2
 -10   7   4 70660.8 1580.33   4
  10  -3   4 64558.2 1828.23   1
  -7  10   4 68444.3 1766.04   3
  -7  10   4 67362.2 1642.01   4
  -7  10   4 69107.0 1858.39   2
  -3  -7   4 70773.2 1539.44   3
   3 -10   4 66353.4 1395.75   4
  10  -3   7-179.417 379.265   1
  -7  10   7 249.870 265.030   4
  -7  10   7 124.814 322.244   2
  -7  10   7-49.4176 291.488   1
   7   3   7 139.546 336.574   1
   3 -10   7 452.564 375.598   1
 -10   7   7 253.663 212.389   4
  -3  -7   7-462.946 308.645   2
 -10   7   7 139.111 348.289   3
   3 -10   7 96.4503 313.628   2
  -3  -7   7 132.113 310.097   1
 -10   7   7 55.8446 237.898   1
  -3  -7   7 182.063 298.429   3
   3 -10   7-31.5763 120.660   4
  -3  -7   7 93.2019 100.162   4
   7   3  10 11883.6 1193.39   1
 -10   7  10 10135.8 926.615   1
   3 -10  10 8872.07 873.612   2
  -3  -7  10 8102.64 921.985   1
  -3  -7  10 9789.78 1017.96   3
  10  -3  10 9876.37 1145.97   1
 -10   7  10 8747.24 1066.26   3
  -7  10  10 10215.2 1017.64   1
  -3  -7  10 9348.00 1010.90   2
   3 -10  10 6929.03 987.459   1
  -7  10  10 9145.41 1081.15   3
  -2  -8  -9 7978.98 640.570   4
   2 -10  -9 8538.42 641.753   4
 -10   8  -6 1681.43 299.418   2
   2 -10  -6 756.536 272.333   4
  -8  10  -6 1108.32 255.073   4
  -2  -8  -6 1073.08 203.473   2
 -10   8  -6 842.423 237.565   4
  -8  10  -6 1164.75 324.830   2
   2 -10  -6 829.140 261.745   2
  -2  -8  -6 1088.75 295.295   4
   2 -10  -3 22363.9 989.088   1
  10  -2  -3 21784.0 980.720   3
  -8  10  -3 23018.9 1062.44   2
  -2  -8  -3 20952.8 990.008   1
  -8  10  -3 22442.2 872.350   4
  -2  -8  -3 21250.0 930.189   2
  -2  -8  -3 20728.5 956.354   4
   8   2  -3 24208.1 978.675   3
   2 -10  -3 20495.8 931.011   4
 -10   8  -3 22547.1 902.660   4
 -10   8  -3 22263.1 972.545   2
 -10   8  -3 24703.5 1106.75   3
   2 -10  -3 21751.5 979.260   2
   2 -10   0 10618.5 777.201   2
  -2  -8   0 11230.0 769.315   2
  -8  10   0 10858.6 659.895   4
  -8  10   0 10616.5 761.074   2
  -8  10   0 10907.1 521.188   3
  -2  -8   0 10528.7 688.640   4
   8   2   0 10908.4 702.582   3
 -10   8   0 10914.5 711.144   2
  10  -2   0 10362.2 422.388   1
  -2  -8   0 10992.7 555.636   3
   2 -10   0 9708.30 636.721   4
 -10   8   0 10177.1 622.908   4
   8   2   0 11375.9 476.544   1
 -10   8   0 10187.7 647.702   3
  10  -2   0 10729.6 717.015   3
  -2  -8   0 10551.2 578.482   1
   2 -10   0 10784.7 609.237   1
   8   2   3 16948.2 874.600   1
  10  -2   3 16853.9 1105.74   3
   2 -10   3 17384.1 766.735   4
 -10   8   3 18904.9 953.104   3
  -2  -8   3 18580.2 702.142   3
  -2  -8   3 19239.2 1125.84   2
   2 -10   3 18481.2 567.851   3
  -8  10   3 18816.0 762.939   1
   8   2   3 18547.3 1147.11   3
 -10   8   3 17699.8 828.726   4
 -10   8   3 19489.6 631.052   1
   2 -10   3 18297.1 1041.69   2
  -8  10   3 18275.6 977.942   2
  -8  10   3 17460.0 845.793   4
  -2  -8   3 17471.5 777.584   4
  -8  10   3 18586.3 858.954   3
 -10   8   3 17347.3 966.782   2
  10  -2   3 18287.0 910.563   1
  -2  -8   6 8663.17 761.413   1
 -10   8   6 10708.9 908.093   3
  -2  -8   6 9692.99 875.316   2
  -8  10   6 10279.0 831.274   2
 -10   8   6 10407.7 659.570   1
  -8  10   6 10083.4 728.866   1
  -2  -8   6 9838.81 500.974   4
  -8  10   6 9567.70 671.441   4
 -10   8   6 9806.13 643.477   4
   8   2   6 10294.6 898.093   1
   2 -10   6 10102.3 501.662   4
   2 -10   6 9999.29 850.978   2
  -8  10   6 9959.62 859.282   3
  -2  -8   6 9954.62 728.361   3
  10  -2   6 10208.0 888.133   1
   2 -10   6 11563.9 932.507   1
   8   2   9 4463.42 775.439   1
  -2  -8   9 4459.59 688.353   2
  -8  10   9 4638.58 751.795   3
  -2  -8   9 4443.66 647.460   3
 -10   8   9 5347.36 645.292   1
  10  -2   9 5347.73 834.441   1
   2 -10   9 4226.28 745.769   1
 -10   8   9 3988.32 736.479   3
  -8  10   9 4104.80 622.693   1
   2 -10   9 5285.49 697.946   2
  -2  -8   9 3631.91 647.956   1
   2 -10  12 1403.30 615.923   3
  10  -2  12 1541.38 715.749   1
 -10   8  12 1286.77 572.407   1
  -8  10  12 1101.89 612.272   1
   2 -10  12 524.838 581.650   1
   8   2  12 2460.80 780.700   1
 -10   8  12 1013.96 694.011   3
  -8  10  12 792.560 668.632   3
  -2  -8  12 20.4753 561.831   1
  -2  -8  12 1347.72 672.085   3
  -1  -9 -10 2267.07 393.647   4
   1 -10 -10 1765.05 342.868   4
  -9  10  -7 5964.09 460.767   4
   1 -10  -7 6509.96 505.507   2
  -1  -9  -7 6999.75 631.121   4
  -1  -9  -7 6761.41 442.303   2
 -10   9  -7 6008.11 522.531   2
   1 -10  -7 6830.41 618.536   4
 -10   9  -7 5774.28 469.945   4
  -9  10  -7 6481.50 615.646   2
  -9  10  -4 9550.55 713.479   2
  -1  -9  -4 9664.28 672.237   4
  -1  -9  -4 10312.5 645.214   2
 -10   9  -4 9424.51 745.710   3
   9   1  -4 9619.93 711.359   3
   1 -10  -4 9503.48 644.539   2
   1 -10  -4 9927.42 681.404   4
  -9  10  -4 9306.65 585.515   4
 -10   9  -4 8612.81 650.974   2
 -10   9  -4 8695.04 587.770   4
 -10   9  -1 27.5627 193.650   4
   9   1  -1-114.488 259.988   3
   1 -10  -1-58.2398 278.930   2
   1 -10  -1 274.424 264.596   4
  -1  -9  -1 202.544 206.115   1
  -9  10  -1 380.064 236.387   3
  10  -1  -1 237.419 84.8912   1
   9   1  -1 406.420 124.790   1
 -10   9  -1-140.219 262.378   3
  -1  -9  -1 74.9517 251.807   4
  -9  10  -1 12.3851 215.672   4
 -10   9  -1 564.594 306.597   2
  -9  10  -1 565.418 281.047   2
  10  -1  -1 246.799 212.689   3
  -1  -9  -1-387.152 271.953   2
   1 -10  -1-92.1392 191.393   1
   9   1   2 2913.00 370.488   1
  -9  10   2 3163.38 329.193   1
  -9  10   2 2466.53 348.381   3
  10  -1   2 1859.25 438.398   3
  10  -1   2 2204.10 351.076   1
  -1  -9   2 2826.77 517.978   2
  -1  -9   2 2623.56 364.232   4
   1 -10   2 2417.78 346.717   4
   1 -10   2 2309.33 185.708   3
   1 -10   2 2859.92 488.863   2
  -1  -9   2 2435.69 329.462   1
 -10   9   2 2329.23 379.393   3
  -9  10   2 2830.85 456.693   2
 -10   9   2 2738.93 436.700   2
  -9  10   2 2441.88 357.784   4
 -10   9   2 2837.20 387.305   4
  -1  -9   2 2834.58 252.683   3
   9   1   2 2412.83 447.035   3
  -1  -9   5 4630.73 392.579   4
  -9  10   5 3503.15 517.512   3
 -10   9   5 3930.95 546.913   3
  -9  10   5 4200.79 565.504   2
   1 -10   5 4288.27 586.071   2
  -1  -9   5 3849.41 423.467   3
 -10   9   5 4987.92 437.341   1
 -10   9   5 4597.65 476.687   4
  -1  -9   5 4638.07 640.659   2
  10  -1   5 4147.00 591.194   1
   1 -10   5 3928.33 421.294   3
  -9  10   5 4680.37 494.171   4
   9   1   5 5661.17 671.396   1
   1 -10   5 4403.70 390.472   4
  -9  10   5 4434.03 444.032   1
 -10   9   8 786.762 489.532   3
 -10   9   8 576.723 318.933   1
  -1  -9   8 855.658 364.853   3
  -1  -9   8 286.763 392.934   1
   9   1   8-300.972 442.827   1
  10  -1   8 15.6770 365.435   1
  -9  10   8-339.335 396.417   3
  -1  -9   8 1046.26 512.319   2
  -9  10   8 373.533 286.427   4
   1 -10   8 221.923 385.243   1
  -9  10   8 793.101 384.397   1
   1 -10   8 274.931 73.0402   4
 -10   9   8 607.233 289.470   4
   1 -10   8 848.617 431.426   2
   1 -10   8 215.142 304.370   3
  -1  -9  11 4309.11 745.600   2
   1 -10  11 3199.80 740.784   1
 -10   9  11 4380.40 742.680   1
  -9  10  11 4305.29 916.790   3
  -1  -9  11 4304.00 784.391   3
  -9  10  11 5653.11 811.846   1
 -10   9  11 3900.11 814.007   3
   1 -10  11 5098.16 820.668   3
  -1  -9  11 5792.71 910.503   1
   9   1  11 3751.29 864.716   1
  10  -1  11 4820.50 937.708   1
 -10  10  -8 18951.0 767.396   4
   0 -10  -8 18922.1 990.054   4
   0 -10  -8 16757.7 706.011   2
 -10  10  -5 124.352 196.884   4
   0 -10  -5 528.613 272.772   4
 -10  10  -5-100.506 228.953   2
   0 -10  -5 179.703 197.012   2
 -10  10  -2 58930.9 1499.27   4
 -10  10  -2 54792.5 1504.06   3
   0 -10  -2 54867.0 1487.15   1
   0 -10  -2 57144.2 1663.65   2
  10   0  -2 57356.6 1547.54   3
 -10  10  -2 59591.2 1730.58   2
   0 -10  -2 55799.2 1580.93   4
  10   0   1 233.180 308.077   3
  10   0   1-52.0713 175.877   1
 -10  10   1-72.0343 211.235   4
   0 -10   1-60.7915 105.000   3
 -10  10   1 521.201 238.044   3
   0 -10   1-187.925 272.681   4
   0 -10   1 49.7586 200.945   1
   0 -10   1-84.9107 324.702   2
 -10  10   1 480.838 259.470   2
  10   0   4 79107.8 2039.17   1
 -10  10   4 80099.8 1547.26   1
 -10  10   4 79086.7 2005.92   3
   0 -10   4 78939.6 1643.80   4
 -10  10   4 76938.7 1794.07   4
   0 -10   4 81162.9 2354.32   2
 -10  10   4 80323.1 2180.66   2
   0 -10   4 81303.8 1500.46   3
  10   0   7 382.064 404.346   1
 -10  10   7-557.856 274.026   1
   0 -10   7 696.568 384.286   1
 -10  10   7-62.0331 250.662   4
   0 -10   7-57.3260 322.710   2
   0 -10   7-199.917 278.704   3
 -10  10   7-250.924 343.569   3
   0 -10   7-40.3766 146.798   4
   0 -10  10 23530.3 1480.10   3
 -10  10  10 22024.0 1333.67   1
   0 -10  10 21860.9 1535.69   1
  10   0  10 19932.4 1564.51   1
 -10  10  10 20692.5 1644.32   3
   0 -10  10 18653.4 1332.52   2
 -11   0  -8 2896.21 465.695   4
  11 -11  -8 2677.93 387.269   4
 -11   0  -5-286.306 450.960   3
 -11   0  -5-71.9916 131.064   2
  11 -11  -5 127.729 238.653   1
  11 -11  -5 166.734 225.527   4
  11 -11  -5 229.515 290.008   2
  11 -11  -2 3742.01 354.737   1
   0  11  -2 3563.76 580.258   2
   0  11  -2 3183.16 409.571   4
 -11   0  -2 3533.49 603.592   3
  11 -11  -2 3215.73 490.845   2
  11 -11  -2 3240.83 423.352   4
 -11   0  -2 3702.60 455.908   1
  11 -11  -2 4140.23 456.594   3
   0  11   1-301.148 207.851   3
 -11   0   1-196.716 289.320   3
 -11   0   1 115.682 115.040   1
   0  11   1 240.337 276.009   4
   0  11   1 153.727 284.252   2
  11 -11   1 103.489 198.379   3
  11 -11   1-137.876 221.482   4
  11 -11   1 104.438 235.222   2
   0  11   1-239.476 232.086   1
  11 -11   4 11707.5 707.100   4
  11 -11   4 13320.8 917.980   3
  11 -11   4 13246.4 949.944   1
   0  11   4 13342.7 844.534   2
   0  11   4 13721.7 888.393   1
 -11   0   4 11761.5 350.597   1
 -11   0   4 13653.0 767.244   4
 -11   0   4 12225.7 403.706   1
  11 -11   4 12252.3 796.973   2
 -11   0   4 12186.2 879.295   3
   0  11   4 13611.7 1009.13   3
   0  11   7-4.49490 347.931   1
 -11   0   7 67.8187 239.782   1
 -11   0   7 140.486 226.438   4
   0  11   7-23.2797 261.148   2
  11 -11   7 221.212 237.595   2
 -11   0   7-89.5859 330.225   3
  11 -11   7-183.142 418.269   1
  11 -11  10 2560.44 788.844   1
 -11   0  10 2750.78 727.641   3
 -11   0  10 3974.25 621.626   1
   0  11  10 3349.48 705.371   1
 -11   1  -9 5647.98 588.452   4
 -10  -1  -9 5501.64 586.136   4
  11 -10  -9 6504.55 538.139   4
  10 -11  -9 6931.57 589.901   4
 -11   1  -6 347.692 229.885   4
  11 -10  -6 1052.69 332.857   1
  10 -11  -6 1016.79 283.240   4
  11 -10  -6 894.976 265.066   4
  11 -10  -6 343.790 329.055   2
  10 -11  -6 821.425 338.157   2
 -11   1  -3 4944.18 680.783   3
 -11   1  -3 5773.92 578.870   1
 -10  -1  -3 5169.25 685.185   3
  11 -10  -3 4650.41 485.840   4
  -1  11  -3 4020.71 603.934   2
  11 -10  -3 5281.03 605.730   2
 -10  -1  -3 4382.69 528.746   1
  10 -11  -3 5235.46 528.098   4
  10 -11  -3 5623.60 459.812   1
 -11   1  -3 5712.72 454.541   2
  11 -10  -3 5242.93 544.661   3
   1  10  -3 6131.45 534.007   4
  11 -10  -3 5249.99 408.934   1
  10 -11  -3 4941.28 563.276   2
  -1  11  -3 5545.42 499.883   4
 -11   1   0 113.067 303.634   3
 -10  -1   0 485.899 325.071   3
 -10  -1   0 804.329 204.583   1
  -1  11   0 450.879 220.968   1
   1  10   0 870.503 256.213   1
  -1  11   0 20.1341 312.427   2
  10 -11   0 246.322 240.009   4
   1  10   0 147.975 239.425   4
  11 -10   0 878.752 279.071   4
   1  10   0 558.439 183.575   3
 -11   1   0 389.471 153.713   1
  11 -10   0 509.686 293.347   2
  10 -11   0 488.383 294.723   2
  10 -11   0 730.947 233.519   3
  -1  11   0 391.728 269.077   4
  11 -10   0 45.4284 227.692   3
  -1  11   0 490.440 142.761   3
   1  10   0 1061.08 378.889   2
   1  10   3 8012.54 669.294   2
   1  10   3 6543.64 580.603   1
  11 -10   3 7308.66 654.983   1
   1  10   3 8742.82 704.543   3
  -1  11   3 8031.55 683.520   3
 -11   1   3 8939.41 609.645   4
   1  10   3 7964.26 669.651   4
  10 -11   3 8857.67 630.626   4
  10 -11   3 7575.30 626.895   3
  11 -10   3 8293.28 639.714   2
 -11   1   3 9241.25 722.487   3
 -10  -1   3 8075.17 292.464   1
 -10  -1   3 6893.66 309.723   1
 -10  -1   3 7284.45 654.737   3
  10 -11   3 7645.52 647.583   2
  -1  11   3 8071.39 668.839   4
  11 -10   3 8787.00 615.251   4
  11 -10   3 8199.23 683.956   3
  -1  11   3 9135.29 725.051   2
  -1  11   3 8255.40 646.041   1
  10 -11   6 3052.04 594.053   1
 -11   1   6 2190.79 346.964   4
 -10  -1   6 2651.94 345.281   4
  11 -10   6 2903.23 395.513   2
 -11   1   6 1968.99 494.165   3
 -10  -1   6 2862.76 360.093   1
   1  10   6 2444.81 502.761   1
  10 -11   6 2687.37 420.514   2
  -1  11   6 2609.26 543.894   1
 -11   1   6 2535.32 310.238   1
   1  10   6 1729.29 319.154   2
 -10  -1   6 2531.74 543.177   3
  -1  11   6 2643.42 440.302   2
  10 -11   6 2252.02 323.868   4
  11 -10   6 2994.59 614.415   1
  -1  11   9 4163.30 730.282   1
  11 -10   9 2870.63 332.349   2
  10 -11   9 3522.55 752.980   1
 -11   1   9 2941.08 664.750   3
  10 -11   9 4053.84 486.287   2
 -10  -1   9 4031.70 576.218   1
   1  10   9 2921.88 628.367   1
 -10  -1   9 3471.66 714.137   3
  11 -10   9 3420.92 761.254   1
 -11   1   9 3963.59 570.658   1
  11 -10  12-177.041 611.636   1
   1  10  12 668.834 592.381   1
  10 -11  12 995.703 733.401   1
 -11   1  12 481.096 608.879   3
 -10  -1  12 611.756 628.338   3
  -1  11  12 206.403 636.107   1
  -9  -2 -10 2580.75 424.914   4
   9 -11  -7 20119.3 1171.72   2
   9 -11  -7 20143.2 944.305   4
  -9  -2  -7 19670.4 1030.85   4
 -11   2  -7 18723.4 936.064   4
  11  -9  -7 19168.0 880.882   4
  -2  11  -4 18620.4 1137.71   2
  11  -9  -4 16304.3 818.942   4
   9 -11  -4 16163.4 831.369   4
 -11   2  -4 17829.4 692.228   2
  -9  -2  -4 16751.4 716.544   2
   9 -11  -4 17267.6 989.782   2
  11  -9  -4 17357.9 1024.95   2
 -11   2  -4 16891.3 852.585   4
  -9  -2  -4 17128.0 1191.41   3
   9 -11  -4 17626.7 844.666   1
 -11   2  -4 15177.7 1176.42   3
  -2  11  -4 18214.7 831.765   4
  11  -9  -4 17893.1 725.991   1
 -11   2  -1 33073.9 1447.28   3
 -11   2  -1 34643.2 1185.47   2
   9 -11  -1 31532.7 1264.44   2
  -2  11  -1 36535.0 1228.41   4
  -9  -2  -1 34635.3 1038.31   1
  -2  11  -1 36958.6 1456.39   2
   2   9  -1 35190.6 1425.11   2
   9 -11  -1 34274.0 971.281   3
   9 -11  -1 36374.6 1031.25   1
  11  -9  -1 34380.7 862.019   1
  -9  -2  -1 35069.3 1426.00   3
  11  -9  -1 33468.6 1310.32   2
  11  -9  -1 33934.8 1118.24   3
   2   9  -1 36485.0 805.322   3
   2   9  -1 34881.4 1221.18   4
   9 -11  -1 37606.2 1236.08   4
 -11   2  -1 37429.7 1040.93   1
  11  -9  -1 36358.9 1207.96   4
   2   9   2 12249.6 797.231   4
  -2  11   2 11186.4 687.849   1
  -9  -2   2 11532.1 750.367   3
   9 -11   2 11809.3 682.501   4
  -2  11   2 12132.9 757.185   4
  -2  11   2 11429.7 795.294   2
   2   9   2 11983.7 711.947   1
 -11   2   2 12278.7 842.409   2
  11  -9   2 10650.0 729.271   3
 -11   2   2 12399.3 708.715   4
   2   9   2 12442.1 811.028   2
   9 -11   2 10815.7 601.764   3
   9 -11   2 11354.5 776.382   2
  11  -9   2 11517.6 729.794   2
  -9  -2   2 11565.8 400.953   1
 -11   2   2 12430.6 818.805   3
   2   9   2 11868.4 753.567   3
  11  -9   2 11254.6 679.742   4
 -11   2   5 14749.0 983.009   3
  -9  -2   5 14779.9 959.028   3
 -11   2   5 15422.1 747.485   4
   9 -11   5 16835.8 1129.69   1
   9 -11   5 15228.6 1013.37   3
  -9  -2   5 16037.7 689.793   1
  -2  11   5 16017.8 918.212   2
   9 -11   5 16795.8 783.177   4
   2   9   5 13577.5 935.195   1
  -9  -2   5 14139.1 694.973   4
  -2  11   5 14486.8 911.864   1
  11  -9   5 15046.6 773.423   4
  11  -9   5 14989.5 1047.15   1
  11  -9   5 14709.1 772.381   2
 -11   2   5 16679.2 572.446   1
  -2  11   5 15282.1 907.076   4
   2   9   5 15043.9 788.463   2
   9 -11   5 15906.6 925.959   2
  -9  -2   8 11101.1 809.625   1
   9 -11   8 8866.52 706.979   2
  11  -9   8 9699.78 1051.22   1
  -9  -2   8 9389.44 468.099   4
  -9  -2   8 8705.25 484.020   4
  -2  11   8 7586.05 646.601   2
   2   9   8 9307.11 956.949   1
  -9  -2   8 10334.5 967.382   3
   9 -11   8 9200.56 1032.91   1
 -11   2   8 10790.5 1014.56   3
 -11   2   8 8994.36 530.925   4
  -2  11   8 9281.22 879.290   1
 -11   2   8 10426.5 742.144   1
  11  -9   8 8954.73 522.329   2
  -9  -2  11 10944.8 1195.59   3
   9 -11  11 9535.21 1270.88   1
  -2  11  11 9298.35 1086.54   1
 -11   2  11 10182.3 982.325   1
   2   9  11 7714.76 1062.32   1
  -9  -2  11 9756.12 991.876   1
  -9  -2  11 8705.80 1129.69   2
  11  -9  11 11087.5 1304.03   1
 -11   2  11 9430.37 1153.95   3
  -8  -3  -8 1985.09 385.174   4
   8 -11  -8 2561.93 374.813   4
 -11   3  -8 1451.41 326.030   4
  11  -8  -8 2065.17 329.633   4
   8 -11  -5 13437.4 754.620   4
  11  -8  -5 12378.1 712.061   4
  -3  11  -5 12425.6 662.352   4
  -8  -3  -5 11990.6 453.694   2
   8 -11  -5 12193.4 793.462   1
 -11   3  -5 12834.7 749.608   4
  -8  -3  -5 12439.2 501.377   2
 -11   3  -5 12391.3 1039.03   3
 -11   3  -5 13624.3 554.278   2
  11  -8  -5 12446.8 651.073   1
   8 -11  -5 12001.4 827.229   2
  -3  11  -2 24242.2 965.449   4
  -3  11  -2 24410.3 1213.88   2
   8 -11  -2 21887.7 943.957   4
 -11   3  -2 22591.2 1217.78   3
  11  -8  -2 22809.5 1094.98   2
  11  -8  -2 24290.5 980.676   3
  -8  -3  -2 22151.8 942.688   1
  11  -8  -2 23430.4 643.868   1
   3   8  -2 23482.0 727.401   3
  -8  -3  -2 23960.5 1199.51   3
 -11   3  -2 23882.9 947.175   1
 -11   3  -2 22534.9 941.199   4
   8 -11  -2 22923.5 1086.69   2
 -11   3  -2 23199.1 897.456   2
   8 -11  -2 25052.4 898.303   1
  11  -8  -2 22727.8 931.417   4
  11  -8   1 2398.70 369.718   3
  -8  -3   1 2966.45 452.570   3
  -8  -3   1 2269.67 245.477   1
   3   8   1 2659.35 432.120   2
   8 -11   1 2222.21 344.286   4
   3   8   1 2278.27 338.146   1
  -3  11   1 2599.07 390.403   4
 -11   3   1 1934.52 385.904   2
  -3  11   1 2860.77 391.189   1
 -11   3   1 3116.47 421.372   4
  -3  11   1 2198.39 445.201   2
   8 -11   1 2785.00 440.002   2
   3   8   1 2065.77 357.928   3
 -11   3   1 2875.07 453.703   3
  11  -8   1 2089.23 327.477   4
   8 -11   1 2073.55 240.629   3
  11  -8   1 2420.85 378.223   2
 -11   3   4 7078.97 528.787   4
  11  -8   4 6052.11 621.695   1
   3   8   4 6886.83 555.140   2
  11  -8   4 6321.10 721.702   3
  -3  11   4 6217.06 585.809   4
 -11   3   4 5603.51 244.301   1
   3   8   4 5131.42 568.506   1
  -3  11   4 7359.83 655.071   2
   3   8   4 6753.89 760.362   3
   8 -11   4 6292.98 502.332   4
   8 -11   4 5320.51 613.600   3
  -8  -3   4 6649.14 436.262   1
   8 -11   4 6439.17 624.612   2
  -3  11   4 6277.11 572.666   1
 -11   3   4 5480.76 640.967   3
  -8  -3   4 5841.66 595.934   3
  11  -8   4 5948.59 501.896   2
  11  -8   4 6439.67 525.311   4
  -8  -3   7 3767.45 355.613   4
   8 -11   7 3795.25 372.585   4
 -11   3   7 2896.85 389.557   1
  -8  -3   7 3840.07 343.369   4
 -11   3   7 3381.05 386.033   4
   8 -11   7 3444.56 670.519   1
   8 -11   7 3489.32 532.622   2
  11  -8   7 3789.63 351.973   2
  -8  -3   7 4221.76 612.921   3
  -3  11   7 3614.83 584.641   1
  -8  -3   7 3309.93 470.252   1
  -3  11   7 2735.43 478.029   4
 -11   3   7 3912.03 671.291   3
  11  -8   7 2638.49 615.869   1
  -3  11   7 4039.80 525.581   2
   3   8   7 3405.17 580.017   1
  -3  11  10 6644.84 926.759   1
 -11   3  10 6409.37 720.799   1
  -8  -3  10 7350.10 818.867   1
  -8  -3  10 6506.17 949.625   2
   3   8  10 5408.92 860.574   1
  -8  -3  10 5725.96 853.877   3
  11  -8  10 7009.40 1061.07   1
 -11   3  10 7472.96 1018.65   3
   8 -11  10 5140.44 906.386   1
 -11   4  -9 3030.01 406.535   4
   7 -11  -9 2387.84 350.005   4
   7 -11  -6 88.3143 201.999   4
   7 -11  -6 409.361 312.254   2
 -11   4  -6 159.516 104.868   2
  -4  11  -6 72.0945 166.941   4
  11  -7  -6 30.0947 198.397   4
  11  -7  -6-96.6633 223.288   1
 -11   4  -6 193.510 220.155   4
  -7  -4  -6-40.6995 235.302   4
 -11   4  -3 19311.4 951.714   1
  11  -7  -3 18491.0 1012.13   2
 -11   4  -3 17608.5 757.835   2
  -7  -4  -3 15174.3 1032.27   3
  11  -7  -3 17916.5 921.855   3
  -4  11  -3 17187.8 1007.84   2
   7 -11  -3 19273.3 859.514   1
 -11   4  -3 19433.8 1111.53   3
  11  -7  -3 19697.8 867.337   4
   7 -11  -3 19126.9 881.247   4
 -11   4  -3 17765.2 840.826   4
   7 -11  -3 17275.4 924.598   2
  -7  -4  -3 18356.1 813.158   2
  -7  -4  -3 19534.1 965.185   1
  11  -7  -3 19350.4 571.448   1
  -4  11  -3 19821.4 844.411   4
   4   7  -3 17886.9 736.916   3
   4   7   0 1730.72 275.083   3
 -11   4   0 2215.14 373.905   2
   7 -11   0 1617.10 286.317   1
 -11   4   0 1571.12 333.578   4
   7 -11   0 1517.62 299.948   4
   7 -11   0 1530.62 195.858   3
  -4  11   0 1543.18 130.263   3
  -4  11   0 1857.93 309.228   4
  -7  -4   0 1377.57 317.794   3
  -7  -4   0 1867.77 277.927   1
   7 -11   0 1841.37 419.254   2
 -11   4   0 2406.18 444.942   3
   4   7   0 1369.07 261.920   1
  11  -7   0 1467.21 318.543   4
  11  -7   0 1209.92 299.167   2
  -4  11   0 1309.23 364.822   2
  11  -7   0 1733.35 342.806   3
 -11   4   3 11171.9 814.002   2
   7 -11   3 10502.0 616.021   3
   4   7   3 10254.5 816.343   3
   4   7   3 11099.6 718.487   1
 -11   4   3 11501.3 790.946   3
 -11   4   3 10943.0 640.794   4
  -4  11   3 9118.96 632.983   1
  11  -7   3 10963.3 750.048   1
   7 -11   3 11268.3 640.013   4
  -7  -4   3 11835.1 490.900   1
  -4  11   3 10132.4 692.768   4
  11  -7   3 10775.3 638.308   2
  -7  -4   3 12047.5 721.397   3
  11  -7   3 9929.74 816.319   3
  11  -7   3 11095.3 662.464   4
   7 -11   3 10977.5 800.966   2
  -4  11   3 12249.9 808.280   2
  -4  11   6 1195.80 372.045   1
   7 -11   6 915.974 398.232   1
   4   7   6 1152.37 423.342   1
 -11   4   6 929.456 245.954   1
  11  -7   6 1245.70 487.205   1
  -7  -4   6 1525.60 243.253   4
 -11   4   6 1265.47 425.244   3
   7 -11   6 1613.29 452.905   3
  -4  11   6 596.471 281.910   4
   7 -11   6 1653.59 409.173   2
 -11   4   6 1389.25 283.144   4
   7 -11   6 982.381 241.129   4
  -7  -4   6 896.442 224.853   4
  -7  -4   6 1121.35 295.870   1
  -7  -4   6 1261.15 372.236   3
  11  -7   6 1193.34 242.756   2
  -4  11   6 1290.01 338.773   2
 -11   4   9 13371.6 915.726   1
  -7  -4   9 8633.93 988.159   2
   4   7   9 12626.4 1159.59   1
  11  -7   9 10935.5 1166.22   1
   7 -11   9 13494.4 1243.65   1
   7 -11   9 10798.0 846.156   2
  -4  11   9 11550.5 1047.81   1
  -7  -4   9 13313.7 1012.18   1
  -7  -4   9 12396.3 1115.55   3
 -11   4   9 10397.3 1104.17   3
 -11   4  12 1218.14 733.410   3
   7 -11  12 856.864 656.002   1
  -4  11  12-182.187 557.905   1
   4   7  12 53.7272 560.452   1
  -7  -4  12-169.421 503.540   1
  -7  -4  12-494.428 565.744   3
  11  -7  12-10.0039 636.001   1
   6 -11 -10 5544.77 496.836   4
  -6  -5 -10 5169.25 527.111   4
  -6  -5  -7 13730.0 852.465   4
  11  -6  -7 14595.5 841.025   1
   6 -11  -7 13837.6 783.092   4
 -11   5  -7 12462.8 706.085   4
  -5  11  -7 14091.3 616.089   4
   6 -11  -7 13906.0 889.988   2
 -11   5  -4 7051.29 752.825   3
  -5  11  -4 7678.13 720.779   2
 -11   5  -4 6997.08 530.915   4
  -5  11  -4 7274.28 520.260   4
  11  -6  -4 7941.05 400.822   1
  11  -6  -4 8591.55 585.505   4
 -11   5  -4 8031.24 514.112   2
  -6  -5  -4 7741.60 636.777   4
   6 -11  -4 5997.26 553.849   1
   6 -11  -4 7390.64 634.115   2
  -6  -5  -4 7445.84 486.428   2
   6 -11  -4 7325.96 580.634   4
  -6  -5  -1 45864.3 1463.78   3
 -11   5  -1 49351.5 1664.44   3
 -11   5  -1 46603.4 1295.43   4
   6 -11  -1 45641.0 1208.38   1
  -6  -5  -1 45646.5 1426.28   2
   6 -11  -1 46007.6 1343.96   4
 -11   5  -1 47392.4 1350.09   2
  -5  11  -1 48389.7 1614.58   2
  11  -6  -1 46609.1 1342.36   3
  -5  11  -1 46327.0 1309.70   4
  11  -6  -1 49404.9 1533.56   2
  -6  -5  -1 47787.7 1223.77   1
   5   6  -1 48829.6 1161.53   3
   6 -11  -1 47173.7 1501.26   2
   5   6  -1 48164.7 1065.58   1
  11  -6  -1 48596.5 1353.73   4
   5   6   2 24077.6 1108.03   3
  -6  -5   2 25321.8 740.073   1
   6 -11   2 23029.6 924.024   4
 -11   5   2 22504.1 907.421   4
   5   6   2 24545.3 953.591   1
  -5  11   2 23843.5 1111.31   2
  -6  -5   2 24443.1 934.889   3
 -11   5   2 23661.5 1051.09   3
  11  -6   2 22881.9 941.548   1
  11  -6   2 22569.4 1111.60   3
  11  -6   2 25781.7 980.412   4
  -5  11   2 24090.8 998.017   4
  11  -6   2 24976.4 951.801   2
   6 -11   2 25075.7 1187.56   2
  -5  11   2 23518.8 916.825   1
 -11   5   2 25228.2 1124.20   2
   6 -11   2 24662.6 643.972   3
  11  -6   5 15348.7 1044.41   1
  -5  11   5 15463.6 869.412   4
  11  -6   5 17183.4 677.822   2
   6 -11   5 17493.0 1019.98   2
   6 -11   5 15118.0 894.641   3
  -6  -5   5 14711.8 794.591   1
  -6  -5   5 15518.9 717.211   4
 -11   5   5 14510.8 741.682   4
  -6  -5   5 16268.7 902.046   3
  -5  11   5 15817.0 970.340   2
 -11   5   5 13753.0 981.318   3
 -11   5   5 15352.3 580.638   1
   6 -11   5 16968.9 1113.36   1
   6 -11   5 14899.6 695.106   4
  -5  11   5 15257.1 895.350   1
   5   6   5 15948.7 1011.35   1
  -6  -5   8 17612.4 1177.62   3
   5   6   8 16519.0 1228.03   1
  -5  11   8 14310.3 976.721   2
   6 -11   8 18022.8 1379.85   1
  -6  -5   8 14094.1 419.578   4
  -6  -5   8 18096.5 1307.18   2
 -11   5   8 18345.5 1312.04   3
  -5  11   8 13794.7 910.474   4
   6 -11   8 17082.2 1058.25   2
  11  -6   8 17038.8 1321.86   1
 -11   5   8 16692.8 915.703   1
  -5  11   8 18500.4 1175.11   1
  -6  -5   8 18370.2 1107.66   1
  -6  -5   8 13762.3 412.786   4
 -11   5   8 14568.6 693.110   4
  -6  -5  11 10275.4 1170.39   3
  -5  11  11 11191.5 1168.19   1
   6 -11  11 11192.5 1288.55   1
   5   6  11 10451.2 1219.71   1
 -11   5  11 11289.5 1308.33   3
  -6  -5  11 9680.93 1124.38   2
 -11   5  11 10532.9 1010.86   1
  -6  -5  11 9781.41 1061.33   1
  11  -6  11 10322.8 1266.27   1
  -5  -6  -8 16631.2 916.537   4
 -11   6  -8 14412.6 730.481   4
  -6  11  -8 13714.7 531.878   4
   5 -11  -8 17073.0 877.602   4
 -11   6  -5 16436.5 703.413   2
  -6  11  -5 16859.4 1018.62   2
 -11   6  -5 15325.9 779.299   4
  -5  -6  -5 15936.3 640.746   2
   5 -11  -5 16635.6 862.652   4
  -6  11  -5 15618.6 729.068   4
   5 -11  -5 15055.7 861.516   2
  -5  -6  -5 14446.3 859.859   4
  11  -5  -5 16478.8 649.001   1
 -11   6  -2 23064.0 936.026   2
  -6  11  -2 23006.4 1127.67   2
  -5  -6  -2 24478.8 1052.42   4
  -5  -6  -2 23048.2 977.165   2
  11  -5  -2 23449.8 927.436   4
  -5  -6  -2 23406.0 1084.83   3
   6   5  -2 24086.4 867.547   3
  -6  11  -2 22116.4 897.591   4
   5 -11  -2 24680.2 949.433   1
 -11   6  -2 23577.4 931.303   4
  11  -5  -2 21860.7 961.711   3
   5 -11  -2 22046.2 1025.96   2
   5 -11  -2 23034.9 963.559   4
  -5  -6  -2 22374.7 946.873   1
 -11   6  -2 24991.9 1232.62   3
  -6  11   1 49309.0 1257.08   1
  -6  11   1 53640.4 1664.03   2
  11  -5   1 52258.9 1434.01   2
  11  -5   1 50493.4 1192.35   1
  -6  11   1 51274.2 1419.58   4
  -5  -6   1 53775.9 1702.91   2
  11  -5   1 52162.3 1544.74   3
  -5  -6   1 51725.0 1448.27   4
   5 -11   1 50143.5 1343.91   4
 -11   6   1 52207.2 1477.76   3
  -5  -6   1 50646.4 1117.99   1
 -11   6   1 52017.6 1355.81   4
   6   5   1 49925.4 1224.00   1
  -6  11   1 52829.4 1009.83   3
 -11   6   1 53569.1 1556.54   2
   5 -11   1 53060.0 1677.71   2
  -5  -6   1 53362.2 1348.05   3
   6   5   1 52916.0 1522.97   3
  11  -5   4 9366.47 535.369   2
  11  -5   4 8851.84 739.473   1
  -6  11   4 8546.55 653.061   4
   5 -11   4 9366.52 599.934   3
 -11   6   4 9528.18 615.319   4
   5 -11   4 9297.29 766.897   2
  -6  11   4 8310.31 719.442   2
  -5  -6   4 9498.28 594.803   4
 -11   6   4 10190.1 413.949   1
   6   5   4 8899.81 730.720   1
   5 -11   4 7939.85 529.282   4
 -11   6   4 7437.19 704.576   3
  -5  -6   4 8368.07 594.457   3
  -6  11   4 8661.47 625.268   1
 -11   6   4 7633.78 724.500   2
  -6  11   7 12476.6 815.885   4
  -5  -6   7 14370.5 912.438   1
  -6  11   7 14104.5 954.192   2
  11  -5   7 15613.6 1199.69   1
   5 -11   7 15367.5 1036.85   2
 -11   6   7 14420.3 777.873   1
  -5  -6   7 12669.7 1108.22   2
 -11   6   7 12686.0 697.116   4
 -11   6   7 15449.6 1108.39   3
  -5  -6   7 13605.9 545.748   4
   5 -11   7 13560.7 574.229   4
  -5  -6   7 14172.8 570.117   4
  -5  -6   7 15087.1 999.273   3
   5 -11   7 15200.5 1135.91   1
   6   5   7 14639.9 1109.30   1
  -6  11   7 13940.6 956.335   1
  -5  -6  10 4587.90 766.436   2
   6   5  10 5387.26 856.232   1
  11  -5  10 5632.86 919.871   1
   5 -11  10 5532.18 683.258   2
  -6  11  10 5442.16 801.968   1
  -5  -6  10 4669.65 751.721   1
  -5  -6  10 5083.58 804.093   3
 -11   6  10 5095.85 899.248   3
 -11   6  10 5050.73 665.477   1
   5 -11  10 7120.20 988.639   1
   4 -11  -9 11217.9 726.607   4
  -4  -7  -9 11163.3 767.365   4
   4 -11  -6 2018.73 364.234   2
  -4  -7  -6 1501.55 323.287   4
  -7  11  -6 1272.98 256.339   4
 -11   7  -6 1291.19 256.704   2
  -7  11  -6 509.392 329.657   2
   4 -11  -6 946.692 281.291   4
  11  -4  -6 1482.81 287.305   1
  -4  -7  -6 1066.82 184.376   2
 -11   7  -6 1089.38 262.527   4
  -4  -7  -3 11879.5 759.651   4
 -11   7  -3 12957.8 724.385   4
  11  -4  -3 12346.6 774.610   3
  -7  11  -3 12668.9 857.936   2
 -11   7  -3 11443.7 680.945   2
   4 -11  -3 13130.7 764.307   1
  -7  11  -3 11955.5 674.033   4
   4 -11  -3 11715.4 715.105   4
 -11   7  -3 11025.0 821.763   3
   7   4  -3 12221.8 680.335   3
   4 -11  -3 12425.3 777.937   2
  -4  -7  -3 11789.0 701.111   2
  -4  -7  -3 11417.2 763.553   1
  -4  -7   0 1483.76 309.932   4
  -4  -7   0 1620.71 318.382   3
   4 -11   0 1750.62 394.389   2
  -7  11   0 1362.10 197.877   3
  -4  -7   0 1358.59 353.939   2
   7   4   0 1665.80 353.191   3
   4 -11   0 1660.80 305.842   1
   4 -11   0 1830.21 334.755   4
  11  -4   0 1217.41 309.657   3
 -11   7   0 1433.42 302.336   4
  11  -4   0 1925.64 233.729   1
   7   4   0 1959.28 263.509   1
 -11   7   0 1855.06 365.896   2
  -4  -7   0 1792.87 286.806   1
 -11   7   0 1926.69 390.162   3
  -7  11   0 2100.79 344.789   4
  -7  11   0 1512.46 376.186   2
  11  -4   3 18980.2 1170.03   3
 -11   7   3 21342.8 1023.00   3
  -7  11   3 20594.2 855.579   1
  -4  -7   3 19538.7 851.938   4
   4 -11   3 19733.8 674.048   3
   7   4   3 17511.0 889.388   1
   4 -11   3 21250.2 1131.72   2
  -7  11   3 22329.9 985.089   4
   4 -11   3 19482.7 825.002   4
  -4  -7   3 19223.3 1124.45   2
 -11   7   3 21427.6 1092.47   2
  -7  11   3 20141.2 1068.92   2
  -7  11   3 19864.5 877.917   3
  11  -4   3 20190.3 986.233   1
 -11   7   3 21187.0 904.460   4
  -4  -7   3 19585.8 806.691   3
   7   4   3 18503.6 1131.49   3
 -11   7   3 20826.7 555.509   1
   7   4   6 773.430 420.878   1
 -11   7   6 554.014 274.217   4
  -7  11   6 460.790 354.245   2
   4 -11   6 171.606 267.357   2
 -11   7   6 859.862 421.438   3
   4 -11   6 541.674 187.194   4
   4 -11   6 397.950 368.587   1
  11  -4   6 786.743 432.886   1
  -4  -7   6 232.628 165.923   4
  -4  -7   6 415.456 262.704   3
  -7  11   6 871.825 324.944   4
  -4  -7   6 32.2848 304.381   2
 -11   7   6 426.578 228.186   1
  -7  11   6 401.128 297.471   1
  -4  -7   6 381.480 289.949   1
  -7  11   9 3036.78 587.918   1
  -4  -7   9 2994.25 590.123   3
 -11   7   9 2861.85 665.563   3
  -4  -7   9 4662.55 706.569   1
  11  -4   9 5467.73 889.184   1
 -11   7   9 3614.10 557.785   1
   4 -11   9 3253.27 736.150   1
   7   4   9 3775.30 747.441   1
   4 -11   9 2985.53 583.892   2
  -4  -7   9 4191.73 741.580   2
 -11   7  12-199.335 522.782   1
  -7  11  12-117.864 538.034   1
   4 -11  12 356.514 589.425   1
   7   4  12 15.3202 656.420   1
  11  -4  12 884.906 678.416   1
  -4  -7  12 1469.26 675.306   3
 -11   7  12 882.373 669.244   3
  -4  -7  12 130.932 540.516   1
  -7  11  12 156.519 634.272   3
   3 -11 -10 5056.67 503.030   4
  -3  -8 -10 5223.53 541.372   4
   3 -11  -7 3891.89 459.785   2
 -11   8  -7 2820.76 346.946   2
  -3  -8  -7 3117.95 450.786   4
 -11   8  -7 3503.96 412.218   4
  -3  -8  -7 2907.81 249.277   2
  -8  11  -7 3183.94 355.280   4
   3 -11  -7 3637.22 473.907   4
  -3  -8  -4 5995.21 569.152   4
   8   3  -4 6668.97 597.114   3
  -8  11  -4 7010.93 525.018   4
  -8  11  -4 7005.21 652.481   2
 -11   8  -4 5962.29 527.172   2
 -11   8  -4 6091.81 521.383   4
   3 -11  -4 5803.48 549.677   2
 -11   8  -4 6305.12 689.929   3
   3 -11  -4 7151.55 588.438   4
  -3  -8  -4 7073.53 558.641   2
 -11   8  -1 2349.14 395.528   4
 -11   8  -1 1793.72 407.916   3
  -3  -8  -1 2110.12 378.871   2
  -3  -8  -1 2179.36 339.712   1
  11  -3  -1 1825.84 358.961   3
  -3  -8  -1 2866.16 425.146   4
   3 -11  -1 2822.64 451.820   2
   8   3  -1 2192.68 213.829   1
  -8  11  -1 2943.89 324.111   3
 -11   8  -1 2558.23 417.042   2
  11  -3  -1 1840.06 138.553   1
  -8  11  -1 2015.40 406.959   2
   3 -11  -1 2470.48 358.085   1
   8   3  -1 2191.68 341.798   3
  -3  -8  -1 2298.11 347.837   3
   3 -11  -1 1740.35 362.418   4
  -8  11  -1 2577.28 360.220   4
   8   3   2 22369.7 1136.73   3
  11  -3   2 20475.0 882.036   1
   3 -11   2 22677.6 921.824   4
  -3  -8   2 25317.2 1255.30   2
  -8  11   2 23672.4 860.246   1
   8   3   2 21787.5 887.262   1
  -3  -8   2 24190.0 851.360   1
  -8  11   2 21151.7 1107.14   2
  -8  11   2 25187.8 905.707   3
   3 -11   2 22079.2 1132.43   2
 -11   8   2 22997.1 950.716   4
  -3  -8   2 22096.8 945.814   4
 -11   8   2 20996.4 1072.77   2
  11  -3   2 20724.1 1135.53   3
  -8  11   2 20828.8 934.156   4
 -11   8   2 21657.0 969.654   3
  -3  -8   2 22549.1 778.367   3
  -3  -8   5 13224.4 769.245   3
   8   3   5 12154.6 908.721   1
  -3  -8   5 13821.1 1049.66   2
 -11   8   5 14104.3 966.815   3
  -8  11   5 13140.1 778.245   1
  11  -3   5 11878.7 905.387   1
  -8  11   5 12866.9 778.933   4
  -3  -8   5 13343.1 665.492   4
  -8  11   5 16062.1 998.304   2
 -11   8   5 13365.9 626.380   1
   3 -11   5 15489.2 1046.28   2
   3 -11   5 12910.5 646.336   4
  -8  11   5 13907.8 926.459   3
 -11   8   5 13492.0 755.476   4
  -8  11   8 2732.89 515.913   1
  -3  -8   8 1432.39 486.134   2
   8   3   8 2821.29 611.309   1
  11  -3   8 1641.77 568.563   1
  -3  -8   8 2446.93 498.820   3
 -11   8   8 2427.96 384.275   4
   3 -11   8 2933.94 666.418   1
  -8  11   8 1764.25 397.327   4
  -3  -8   8 1413.18 138.841   4
   3 -11   8 2645.97 580.281   2
 -11   8   8 2175.20 547.546   3
  -3  -8   8 1503.79 150.604   4
  -3  -8   8 964.455 414.124   1
   3 -11   8 1392.70 163.430   4
 -11   8   8 1909.04 429.479   1
  -8  11   8 1814.12 597.690   3
   3 -11  11 2463.66 697.758   3
  -8  11  11 3338.98 725.051   1
  -3  -8  11 1497.49 563.223   3
  11  -3  11 4534.64 954.236   1
   8   3  11 2425.91 725.630   1
  -3  -8  11 1907.04 648.173   1
  -8  11  11 2603.50 784.459   3
   3 -11  11 2248.54 774.361   1
 -11   8  11 1838.49 716.311   3
 -11   8  11 2536.50 576.517   1
  -3  -8  11 2380.31 713.028   2
  -9  11  -8 7030.78 474.296   4
   2 -11  -8 9270.51 711.645   4
   2 -11  -8 8510.30 615.205   2
  -2  -9  -8 9583.69 734.491   4
 -11   9  -8 7427.91 536.716   4
 -11   9  -5 15629.9 792.703   4
  -2  -9  -5 14692.9 727.972   2
   2 -11  -5 14209.2 834.815   4
  -9  11  -5 14690.3 908.083   2
 -11   9  -5 13147.1 775.596   2
  -2  -9  -5 14592.2 867.701   4
  -9  11  -5 15078.5 746.046   4
   2 -11  -5 16283.8 848.865   2
 -11   9  -2 12391.6 825.754   3
  -2  -9  -2 12440.9 751.551   1
  11  -2  -2 12072.0 751.637   3
  -9  11  -2 12264.9 650.334   3
   2 -11  -2 12807.9 844.145   2
 -11   9  -2 11952.4 708.128   4
  -9  11  -2 14094.1 916.232   2
  -2  -9  -2 11394.1 757.329   2
  -9  11  -2 12094.6 691.611   4
  -2  -9  -2 11864.7 791.046   4
   2 -11  -2 10817.5 692.028   1
 -11   9  -2 13362.5 831.354   2
   2 -11  -2 12621.4 772.313   4
   9   2  -2 11934.5 733.020   3
   2 -11   1 36902.5 1228.49   4
   9   2   1 39320.4 1046.15   1
  -2  -9   1 36484.1 1245.01   4
 -11   9   1 36802.1 1378.69   2
  -2  -9   1 40433.7 1530.32   2
  -2  -9   1 37327.6 1089.64   1
 -11   9   1 39003.5 1241.92   4
  -9  11   1 39078.9 1446.57   2
  -9  11   1 37096.0 1231.49   4
   9   2   1 34516.1 1329.13   3
  -9  11   1 38588.0 1061.98   3
  11  -2   1 37084.4 1003.06   1
  -2  -9   1 37487.2 944.063   3
   2 -11   1 39567.8 1177.22   1
 -11   9   1 37222.9 1205.29   3
   2 -11   1 37555.8 1463.53   2
  11  -2   4 18110.0 1029.07   1
   9   2   4 19786.7 1037.36   1
  -9  11   4 19656.1 853.712   1
  -2  -9   4 19554.1 799.989   3
  -9  11   4 21546.2 1062.25   3
 -11   9   4 19363.9 907.847   4
  -2  -9   4 18885.8 833.267   4
 -11   9   4 16419.7 1022.04   2
 -11   9   4 18912.1 1052.82   3
  -9  11   4 18243.2 1074.23   2
  -2  -9   4 17624.0 1182.38   2
   2 -11   4 19159.3 1178.36   2
   2 -11   4 19533.7 697.081   3
   2 -11   4 19139.0 822.596   4
 -11   9   4 19467.9 707.582   1
  -9  11   4 19834.4 953.717   4
  -9  11   7 19109.9 1054.85   1
  -9  11   7 19174.5 1273.52   3
 -11   9   7 17346.0 900.868   4
  11  -2   7 21108.1 1364.56   1
   2 -11   7 22438.3 1368.60   1
 -11   9   7 20878.4 989.184   1
  -2  -9   7 18792.7 1186.74   1
  -2  -9   7 18392.0 1270.59   2
  -9  11   7 17450.0 940.621   4
   2 -11   7 20777.8 1277.63   2
  -2  -9   7 20606.2 703.147   4
 -11   9   7 19454.3 1290.34   3
   9   2   7 17833.0 1226.20   1
  -2  -9   7 19124.7 1080.24   3
   2 -11   7 19858.1 688.463   4
  -2  -9  10 2648.51 700.428   2
 -11   9  10 3036.20 588.783   1
  -9  11  10 1672.57 541.426   1
   2 -11  10 2522.61 666.792   1
   9   2  10 2772.62 744.588   1
   2 -11  10 2856.74 610.088   2
  -2  -9  10 3400.85 652.084   3
   2 -11  10 3511.04 665.326   3
  -9  11  10 1338.32 598.748   3
  11  -2  10 1773.96 739.497   1
  -2  -9  10 2272.99 674.698   1
 -11   9  10 2639.09 694.050   3
   1 -11  -9 3881.35 493.213   4
  -1 -10  -9 4243.61 544.707   4
 -10  11  -6 2463.04 429.009   2
 -10  11  -6 2235.26 343.622   4
   1 -11  -6 2478.47 412.460   4
   1 -11  -6 2429.88 371.063   2
 -11  10  -6 1842.50 352.665   2
 -11  10  -6 1854.55 321.446   4
  -1 -10  -6 1926.27 332.777   2
  -1 -10  -6 2648.51 414.908   4
  -1 -10  -3 7988.76 650.271   2
 -10  11  -3 7482.21 658.146   2
 -11  10  -3 7882.65 583.167   4
  11  -1  -3 7572.48 636.649   3
 -11  10  -3 7505.58 651.706   2
 -10  11  -3 8207.28 607.027   4
  -1 -10  -3 7580.04 656.484   4
   1 -11  -3 7749.03 647.956   2
   1 -11  -3 7955.73 644.855   4
 -10  11  -3 8839.36 648.404   3
  10   1  -3 7090.29 607.213   3
 -11  10  -3 8336.30 684.500   3
 -10  11   0 548.353 213.020   4
 -10  11   0 607.654 299.084   2
  10   1   0 403.291 167.421   1
  -1 -10   0 203.919 165.886   3
   1 -11   0 383.860 230.036   1
 -11  10   0 186.749 279.183   2
  11  -1   0 223.919 147.941   1
  -1 -10   0 472.424 283.115   4
  -1 -10   0 79.6454 306.842   2
   1 -11   0 459.245 306.181   2
  -1 -10   0 377.557 228.196   1
   1 -11   0 145.904 250.578   4
  10   1   0 236.225 293.856   3
 -10  11   0 323.542 227.604   3
 -11  10   0 306.264 240.672   4
  11  -1   0 164.169 277.961   3
 -11  10   0-30.3371 243.567   3
   1 -11   3 6332.42 529.252   4
 -11  10   3 5711.51 637.128   2
  -1 -10   3 5284.50 659.768   2
  11  -1   3 5610.90 535.944   1
   1 -11   3 5464.32 652.293   2
 -11  10   3 5367.71 512.272   4
   1 -11   3 6151.06 350.042   3
  -1 -10   3 5885.42 383.836   3
 -10  11   3 5393.73 534.563   4
 -10  11   3 4992.85 597.370   2
 -11  10   3 5335.49 548.882   3
 -10  11   3 5728.90 541.631   3
 -11  10   3 5446.05 397.435   1
 -10  11   3 5788.98 446.224   1
  10   1   3 6845.36 600.824   1
  -1 -10   3 6209.61 532.449   4
  -1 -10   6 754.702 216.828   4
  -1 -10   6 766.492 404.836   1
   1 -11   6 1204.95 487.751   1
  11  -1   6 780.544 407.779   1
 -11  10   6 281.024 274.430   4
 -10  11   6 368.324 262.555   4
   1 -11   6 592.317 205.983   4
  -1 -10   6 730.917 366.678   2
 -11  10   6 589.279 279.311   1
  10   1   6 1494.01 452.664   1
   1 -11   6 362.898 313.407   2
 -11  10   6 466.969 431.050   3
 -10  11   6 871.999 441.286   3
  -1 -10   6 745.589 278.451   3
   1 -11   6 858.741 288.618   3
 -10  11   6 475.624 262.315   1
  -1 -10   9 8493.31 871.779   3
   1 -11   9 7256.40 793.475   3
  -1 -10   9 5293.77 824.332   1
   1 -11   9 7615.60 896.931   2
 -11  10   9 6981.03 948.991   3
 -10  11   9 5903.46 886.007   3
 -11  10   9 6118.88 709.151   1
  11  -1   9 6130.22 872.268   1
   1 -11   9 6590.74 897.342   1
  10   1   9 6780.47 938.864   1
  -1 -10   9 6492.75 851.278   2
 -10  11   9 6139.23 723.529   1
  -1 -10  12 612.651 639.314   1
 -10  11  12-91.0333 498.390   1
   1 -11  12 691.939 645.952   1
  11  -1  12 340.297 587.064   1
  10   1  12 17.2310 602.387   1
   1 -11  12 1582.10 669.912   3
  -1 -10  12 372.381 540.388   3
 -11  10  12 766.123 699.131   3
 -10  11  12 27.0750 637.448   3
 -11  10  12 659.787 596.969   1
   0 -11 -10 2456.36 446.361   4
 -11  11  -7 121.671 225.982   4
   0 -11  -7-11.9383 254.645   4
 -11  11  -7-79.2792 297.125   2
   0 -11  -7 387.608 250.799   2
   0 -11  -4 15201.4 896.981   4
   0 -11  -4 14922.1 848.793   2
 -11  11  -4 13111.7 858.906   2
 -11  11  -4 13700.4 879.490   3
 -11  11  -4 13759.0 783.013   4
 -11  11  -1-46.4236 248.524   3
  11   0  -1 116.527 250.508   3
   0 -11  -1-248.993 310.204   2
   0 -11  -1 178.960 272.947   4
   0 -11  -1-208.240 220.695   1
 -11  11  -1-289.145 250.272   4
  11   0  -1-26.7688 94.2611   1
 -11  11  -1-184.691 274.763   2
   0 -11   2 3410.48 407.015   1
   0 -11   2 4094.23 631.438   2
 -11  11   2 3126.00 446.432   3
 -11  11   2 3441.54 496.931   2
  11   0   2 3029.37 535.560   3
  11   0   2 4217.32 428.395   1
   0 -11   2 3618.25 270.267   3
 -11  11   2 3672.57 451.332   4
   0 -11   2 3219.93 418.547   4
   0 -11   5-134.675 197.300   4
   0 -11   5 214.555 384.779   2
  11   0   5 148.450 302.336   1
 -11  11   5 213.879 324.120   3
 -11  11   5-394.581 273.590   4
   0 -11   5 271.842 218.512   3
 -11  11   5-251.769 209.758   1
   0 -11   8 2709.94 253.928   4
  11   0   8 1954.51 565.142   1
 -11  11   8 3307.21 505.581   1
   0 -11   8 3226.72 648.551   2
   0 -11   8 3702.33 576.680   3
   0 -11   8 3801.44 694.838   1
 -11  11   8 2837.80 628.532   3
   0 -11  11-219.895 475.277   2
 -11  11  11 153.885 436.256   1
   0 -11  11 311.845 529.408   1
   0 -11  11-159.098 448.441   3
 -11  11  11 612.583 610.891   3
  11   0  11-510.196 571.522   1
 -12   0  -9 294.770 289.792   4
  12 -12  -9 51.9915 245.915   4
  12 -12  -6 10554.5 734.979   4
 -12   0  -6 8935.55 390.150   2
 -12   0  -6 7994.41 383.648   2
  12 -12  -6 10117.2 919.510   2
  12 -12  -3-208.487 281.756   2
  12 -12  -3 225.464 272.438   4
  12 -12  -3-78.8705 191.768   1
   0  12  -3 84.5164 247.590   4
 -12   0  -3 184.993 257.089   1
 -12   0  -3 222.240 397.125   3
 -12   0  -3-226.625 202.339   2
  12 -12   0 1621.66 433.632   2
 -12   0   0 1721.62 470.224   3
   0  12   0 1359.25 427.066   2
 -12   0   0 1368.08 245.261   1
  12 -12   0 1845.90 350.217   4
  12 -12   0 1426.83 289.726   3
   0  12   0 1543.79 351.115   4
   0  12   0 1188.27 219.083   3
   0  12   0 1485.25 334.506   1
   0  12   3 172.173 323.148   2
  12 -12   3-82.0042 266.792   3
   0  12   3 211.539 299.962   3
  12 -12   3-62.0508 226.364   4
 -12   0   3 103.356 213.046   4
  12 -12   3-152.367 270.474   2
   0  12   3 54.7039 229.950   1
 -12   0   3-29.6808 278.191   3
  12 -12   6 11609.1 738.817   4
   0  12   6 9551.17 846.175   1
  12 -12   6 12016.8 1068.64   1
 -12   0   6 10808.9 541.691   1
   0  12   6 11144.8 802.956   2
 -12   0   6 11393.7 986.130   3
 -12   0   6 10387.7 697.965   4
  12 -12   6 10592.3 772.751   2
  12 -12   9-867.107 598.819   1
  12 -12   9-71.9215 252.054   2
 -12   0   9-261.141 422.253   3
 -12   0   9 475.496 333.671   1
   0  12  12 2229.36 772.649   1
  12 -12  12 1430.41 823.634   1
 -12   0  12 2454.14 803.900   3
 -11  -1 -10 7968.04 692.563   4
 -12   1 -10 9465.36 753.231   4
  11 -12  -7 20261.8 1250.55   2
  11 -12  -7 21614.9 1016.10   4
  12 -11  -7 19948.0 980.841   4
  12 -11  -4 20810.6 985.323   4
 -11  -1  -4 20718.0 804.141   2
 -11  -1  -4 24619.9 1415.26   3
 -12   1  -4 22959.8 848.320   2
  11 -12  -4 22084.3 932.618   1
  11 -12  -4 22551.9 1191.01   2
 -12   1  -4 20970.8 1366.94   3
  12 -11  -4 20243.0 1149.42   2
  -1  12  -4 20696.4 957.641   4
  12 -11  -4 22788.8 884.662   1
  11 -12  -4 19457.4 963.912   4
 -12   1  -1 43003.4 1736.71   3
 -11  -1  -1 45365.9 1748.56   3
   1  11  -1 46256.3 1486.56   4
  11 -12  -1 45972.0 1198.43   1
 -11  -1  -1 46229.9 1250.77   1
  12 -11  -1 45056.8 1107.92   1
 -12   1  -1 46472.8 1476.29   2
  12 -11  -1 43147.7 1420.96   4
  12 -11  -1 45064.7 1576.47   2
   1  11  -1 44280.9 1716.20   2
  -1  12  -1 47243.8 1496.68   4
  -1  12  -1 41994.0 1665.34   2
  11 -12  -1 47614.6 1244.00   3
  11 -12  -1 43883.2 1410.35   4
   1  11  -1 44475.7 818.131   3
 -12   1  -1 45991.5 1214.46   1
  11 -12  -1 42014.7 1544.50   2
  12 -11  -1 46730.5 1306.72   3
 -11  -1   2 27605.0 576.878   1
   1  11   2 31122.8 1179.47   3
  -1  12   2 30751.3 1363.96   2
  -1  12   2 32544.5 1141.25   3
   1  11   2 30814.7 1161.72   1
   1  11   2 30407.2 1289.53   4
  -1  12   2 28906.4 1241.12   4
 -11  -1   2 31047.6 1306.38   3
 -12   1   2 30137.2 1294.53   3
   1  11   2 30015.5 1320.20   2
  11 -12   2 30116.8 1063.66   3
  11 -12   2 26795.7 1100.47   4
 -12   1   2 31135.8 1170.95   4
  11 -12   2 30195.3 1289.10   2
  12 -11   2 29798.9 1147.05   4
  -1  12   2 31126.8 1180.23   1
  12 -11   2 27788.7 1179.26   2
  12 -11   2 29965.9 1158.20   3
 -11  -1   5 12435.0 938.180   3
   1  11   5 11681.2 795.493   2
  11 -12   5 12940.7 1047.26   1
  -1  12   5 11144.2 801.895   2
 -11  -1   5 13081.7 559.216   1
  12 -11   5 13591.4 820.505   2
  12 -11   5 12103.5 985.707   1
 -12   1   5 11397.3 696.492   4
  11 -12   5 12374.3 733.881   4
  12 -11   5 10574.2 702.442   4
 -12   1   5 11310.4 949.076   3
  11 -12   5 12681.9 833.909   2
 -11  -1   5 11981.9 714.588   4
   1  11   5 12112.3 887.602   1
  -1  12   5 12912.1 895.468   1
 -12   1   5 11251.1 434.647   1
  11 -12   5 11802.0 932.273   3
  -1  12   8 2829.49 584.531   1
 -11  -1   8 2190.33 564.286   3
  12 -11   8 3693.49 441.950   2
 -11  -1   8 1914.76 359.614   1
  11 -12   8 2510.48 713.326   1
  12 -11   8 1818.40 610.691   1
 -12   1   8 3722.09 468.929   1
  11 -12   8 2694.56 443.327   2
 -12   1   8 3036.34 679.340   3
   1  11   8 2428.82 561.489   1
  12 -11  11 12933.4 1476.27   1
 -12   1  11 15563.5 1520.28   3
  11 -12  11 14266.5 1543.88   1
  -1  12  11 15073.0 1376.14   1
   1  11  11 13411.8 1345.66   1
 -11  -1  11 12709.0 1331.76   3
  10 -12  -8 2231.32 385.889   4
  12 -10  -8 1671.09 331.766   4
 -10  -2  -8 1298.21 388.675   4
  12 -10  -5 6883.22 717.154   2
  -2  12  -5 7925.04 591.826   4
 -12   2  -5 6827.39 900.144   3
  10 -12  -5 7566.91 614.463   4
 -12   2  -5 8010.51 469.141   2
 -10  -2  -5 7239.62 450.740   2
 -10  -2  -5 6679.76 389.587   2
  12 -10  -5 8100.72 575.230   1
  10 -12  -5 6885.14 613.773   1
  10 -12  -5 8341.75 753.569   2
  12 -10  -5 7928.37 617.190   4
 -12   2  -5 7524.28 629.861   4
  10 -12  -2 5181.74 532.064   4
 -12   2  -2 5830.00 703.014   3
 -12   2  -2 7071.79 563.294   2
  10 -12  -2 6966.74 505.794   1
 -10  -2  -2 7067.47 765.052   3
  10 -12  -2 5895.47 620.905   2
 -10  -2  -2 6704.16 568.592   1
  -2  12  -2 6430.96 562.680   4
  -2  12  -2 6478.87 723.392   2
   2  10  -2 6925.42 592.075   4
 -12   2  -2 6305.08 557.369   1
  12 -10  -2 5684.46 530.372   4
  12 -10  -2 6091.87 411.279   1
  12 -10  -2 6969.79 679.007   2
   2  10  -2 6204.35 365.614   3
  12 -10  -2 7109.56 580.124   3
   2  10   1 7011.80 553.421   1
  -2  12   1 7227.03 709.867   2
   2  10   1 8574.76 704.392   4
  -2  12   1 8021.54 478.882   3
 -12   2   1 7825.96 680.236   2
  12 -10   1 7368.02 583.521   4
   2  10   1 6715.95 646.745   2
  10 -12   1 7979.90 633.632   4
 -10  -2   1 8530.83 415.302   1
 -12   2   1 7308.50 292.361   1
  10 -12   1 8381.65 709.635   2
  10 -12   1 6942.14 453.834   3
 -12   2   1 7717.83 699.748   3
  12 -10   1 7995.95 670.224   2
 -12   2   1 7690.30 604.059   4
  -2  12   1 5756.45 498.744   1
   2  10   1 8117.80 573.995   3
  12 -10   1 8746.96 617.697   3
 -10  -2   1 7966.11 717.785   3
  -2  12   1 7586.77 630.538   4
 -10  -2   4 2410.75 448.948   3
  12 -10   4 2797.66 477.451   1
  12 -10   4 1948.64 353.203   4
 -10  -2   4 2113.15 213.463   1
  10 -12   4 2370.49 419.756   3
 -10  -2   4 1687.79 227.013   1
   2  10   4 1932.09 385.592   1
 -12   2   4 1996.32 328.798   4
   2  10   4 1927.72 370.792   2
  10 -12   4 1990.73 353.914   4
  -2  12   4 2028.82 374.601   1
 -12   2   4 2254.37 430.276   3
  12 -10   4 2210.35 390.721   2
  -2  12   4 2365.47 445.668   2
  12 -10   4 1927.92 459.894   3
  10 -12   4 1887.39 375.097   2
 -12   2   7 1666.78 316.823   1
  12 -10   7 1143.91 292.618   2
 -10  -2   7 1739.21 474.927   3
 -12   2   7 969.003 286.078   4
 -10  -2   7 1203.04 286.298   4
 -10  -2   7 1546.78 345.570   1
  12 -10   7 1313.05 472.432   1
  -2  12   7 1341.59 378.510   2
  10 -12   7 1819.88 519.657   1
   2  10   7 1086.73 298.459   2
  10 -12   7 1786.21 320.868   4
  10 -12   7 1297.32 361.116   2
 -12   2   7 2196.13 533.723   3
  -2  12   7 1225.04 446.532   1
   2  10   7 1182.18 505.384   1
 -12   2  10 2998.28 557.044   1
  12 -10  10 1800.14 763.585   1
  -2  12  10 1301.49 546.025   1
   2  10  10 3241.46 736.459   1
  10 -12  10 2466.67 796.500   1
 -12   2  10 2677.09 757.679   3
 -10  -2  10 3812.55 644.243   1
 -10  -2  10 2863.14 667.941   3
  -9  -3  -9 425.374 317.912   4
 -12   3  -9 739.245 316.612   4
   9 -12  -9 196.161 245.124   4
 -12   3  -6 6297.29 323.185   2
  -3  12  -6 7799.32 552.791   4
  -9  -3  -6 7731.66 701.674   4
 -12   3  -6 6208.24 581.850   4
   9 -12  -6 7994.92 636.657   4
  12  -9  -6 7059.23 588.551   1
  12  -9  -6 8484.73 620.797   4
   9 -12  -6 8076.59 745.078   2
 -12   3  -3 1030.77 304.690   4
 -12   3  -3 702.642 228.429   2
   9 -12  -3 826.607 234.567   1
 -12   3  -3 820.872 454.866   3
   9 -12  -3 748.749 284.784   4
  -3  12  -3 86.5102 314.013   2
  12  -9  -3 590.329 253.274   4
  12  -9  -3 675.723 179.158   1
   9 -12  -3 545.711 299.507   2
  12  -9  -3 634.877 266.597   3
  -9  -3  -3-77.5603 317.605   3
  -3  12  -3 782.668 246.295   4
  12  -9  -3 542.743 304.191   2
 -12   3  -3 1061.92 332.623   1
  -9  -3  -3 969.869 335.394   1
   9 -12   0 7023.02 515.843   1
  -3  12   0 7058.68 589.673   4
 -12   3   0 6973.36 398.530   1
   9 -12   0 6415.97 401.823   3
   9 -12   0 6246.69 652.552   2
   9 -12   0 6028.80 526.563   4
 -12   3   0 6651.26 577.891   4
  12  -9   0 5800.61 545.116   4
  12  -9   0 6395.63 546.201   3
  -9  -3   0 6670.25 450.080   1
  -3  12   0 5848.72 635.654   2
 -12   3   0 7023.43 608.636   2
  12  -9   0 5665.76 577.836   2
   3   9   0 6895.68 523.037   1
   3   9   0 6850.81 498.564   3
  -3  12   0 5661.72 262.558   3
 -12   3   0 5889.61 655.810   3
  -9  -3   0 7933.10 723.972   3
  -3  12   3 862.810 333.659   2
   9 -12   3 1007.74 274.652   3
  -3  12   3 1877.04 359.841   1
  -9  -3   3 1310.55 180.391   1
  12  -9   3 1168.86 309.893   4
   3   9   3 1099.29 407.785   3
   9 -12   3 1394.90 360.769   2
  -9  -3   3 1701.80 373.629   3
  12  -9   3 1247.51 368.653   1
   9 -12   3 1378.90 327.189   4
  12  -9   3 958.045 367.052   3
   3   9   3 1606.81 343.091   2
 -12   3   3 1369.19 279.821   4
   3   9   3 1388.72 355.854   1
  12  -9   3 2131.57 382.628   2
  -3  12   3 1878.68 391.396   4
 -12   3   3 700.847 298.599   3
   3   9   6 10235.3 886.441   1
   9 -12   6 9410.62 593.238   4
 -12   3   6 10913.8 533.737   1
   9 -12   6 9541.58 768.576   2
  -9  -3   6 9897.24 638.896   1
 -12   3   6 9128.29 625.273   4
  -9  -3   6 10856.2 644.837   4
 -12   3   6 11207.0 946.270   3
  -9  -3   6 13175.2 959.001   3
  12  -9   6 11961.0 1012.34   1
   9 -12   6 11668.5 1015.04   1
  -3  12   6 9855.54 775.661   2
  -3  12   6 8993.42 797.838   1
  12  -9   6 11021.9 646.250   2
   9 -12   9 1056.15 378.737   2
  -9  -3   9 1861.61 568.274   3
 -12   3   9 1836.02 416.983   1
  -9  -3   9 680.135 364.533   1
  12  -9   9 1141.07 555.634   1
   9 -12   9 1139.65 572.090   1
 -12   3   9 237.841 433.412   3
  -3  12   9 1799.44 557.231   1
   3   9   9 1602.02 551.841   1
  -3  12  12 2782.93 740.090   1
   3   9  12 2997.70 809.137   1
   9 -12  12 1557.09 766.892   1
  -9  -3  12 2794.38 786.625   3
 -12   3  12 3387.22 922.794   3
  12  -9  12 1479.74 779.547   1
   8 -12 -10 1434.42 350.365   4
  -8  -4 -10 1561.16 390.464   4
  12  -8  -7 16406.9 901.167   1
 -12   4  -7 16799.3 889.354   4
  -4  12  -7 18210.0 758.198   4
   8 -12  -7 20124.4 1134.55   2
  12  -8  -7 19756.1 914.405   4
   8 -12  -7 17743.5 923.719   4
  -8  -4  -7 20317.4 1072.40   4
  -4  12  -4 17379.1 837.707   4
 -12   4  -4 15994.8 1147.16   3
  -8  -4  -4 15204.2 1090.94   3
  -4  12  -4 15615.2 1052.08   2
  12  -8  -4 18184.3 1120.91   2
  12  -8  -4 16760.9 844.098   4
 -12   4  -4 16451.7 856.709   4
 -12   4  -4 17132.0 760.311   2
   8 -12  -4 16949.6 967.817   2
  12  -8  -4 16970.4 628.524   1
   8 -12  -4 16579.7 882.594   4
  -8  -4  -4 16503.5 740.153   2
   8 -12  -4 16068.9 859.440   1
  -4  12  -1 62827.3 1932.72   2
 -12   4  -1 60238.3 1584.13   2
  12  -8  -1 59572.4 1553.67   4
   8 -12  -1 60008.3 1600.35   4
  -4  12  -1 60620.4 1588.76   4
   8 -12  -1 60334.9 1429.42   1
  12  -8  -1 60237.1 1550.74   3
  12  -8  -1 61709.1 1764.82   2
   8 -12  -1 61253.9 1803.34   2
 -12   4  -1 62786.7 1596.41   4
  12  -8  -1 60576.9 1048.73   1
   4   8  -1 56200.1 1225.23   3
 -12   4  -1 62248.6 1343.36   1
  -8  -4  -1 61872.8 1832.73   3
   4   8  -1 59086.9 1352.02   1
  -8  -4  -1 62848.3 1454.63   1
 -12   4  -1 57359.0 1906.53   3
 -12   4   2 2760.49 383.064   4
  -4  12   2 2518.40 411.998   4
 -12   4   2 2643.11 483.903   2
  -8  -4   2 2972.81 277.870   1
   8 -12   2 3090.65 393.861   4
  -4  12   2 2726.99 372.650   1
   8 -12   2 2636.42 296.822   3
  12  -8   2 3056.29 391.591   4
 -12   4   2 3194.16 525.184   3
  12  -8   2 3082.93 418.392   1
  -8  -4   2 3051.56 444.314   3
   8 -12   2 2571.03 478.995   2
   4   8   2 2927.12 472.972   3
  -4  12   2 2360.18 473.186   2
   4   8   2 3007.81 405.407   1
  12  -8   2 2950.71 462.897   3
  12  -8   2 2951.99 399.599   2
  -8  -4   5 32384.1 1057.97   1
 -12   4   5 34265.4 1169.10   4
   8 -12   5 31844.3 1078.72   4
  12  -8   5 33380.9 1529.46   1
   4   8   5 31200.6 1394.05   1
   8 -12   5 32954.5 1410.88   2
   8 -12   5 34309.0 1577.39   1
   8 -12   5 27364.9 1343.41   3
 -12   4   5 33615.8 730.677   1
  -4  12   5 30730.6 1298.24   1
  -4  12   5 30146.1 1269.37   4
  -8  -4   5 32972.0 1365.63   3
  -4  12   5 31532.2 1338.53   2
 -12   4   5 34178.5 1514.18   3
  12  -8   5 30956.3 1045.86   2
 -12   4   8 1543.93 379.662   1
 -12   4   8 701.569 259.636   4
 -12   4   8 1425.66 515.679   3
  -4  12   8 202.913 345.043   1
  -8  -4   8 786.881 368.381   1
  -8  -4   8 613.548 184.117   4
   4   8   8 192.740 366.063   1
  12  -8   8 859.398 546.897   1
  -8  -4   8 275.196 162.349   4
  -4  12   8 1447.54 441.786   2
  12  -8   8 761.264 154.185   2
   8 -12   8 1661.33 482.673   1
   8 -12   8 351.082 341.986   2
  -8  -4   8 1170.88 442.467   3
  -8  -4  11 10815.8 1236.54   2
 -12   4  11 10901.6 968.439   1
   4   8  11 9478.41 1160.77   1
  -8  -4  11 10315.1 1021.15   1
  -4  12  11 9696.29 1098.68   1
  -8  -4  11 8938.51 1117.92   3
  12  -8  11 8881.23 1236.33   1
 -12   4  11 11629.9 1328.60   3
   8 -12  11 6691.47 1116.62   1
   7 -12  -8 2228.46 391.435   4
   7 -12  -8 2428.30 480.817   2
 -12   5  -8 911.864 300.374   4
  -7  -5  -8 1015.86 365.981   4
 -12   5  -5 42358.8 1898.64   3
  -5  12  -5 42717.3 1720.57   2
 -12   5  -5 45724.9 1177.52   2
  -5  12  -5 46917.6 1300.91   4
  12  -7  -5 45827.8 1360.21   4
  -7  -5  -5 47895.7 1567.73   4
   7 -12  -5 45528.7 1436.37   4
  -7  -5  -5 44736.3 1062.94   2
 -12   5  -5 40886.8 1316.93   4
  12  -7  -5 47639.3 1113.83   1
   7 -12  -5 46585.8 1597.18   2
  -7  -5  -2 5616.47 608.869   3
  12  -7  -2 5462.53 587.000   2
  12  -7  -2 4716.19 517.927   3
  -7  -5  -2 5691.31 542.148   2
  -5  12  -2 5531.48 511.649   4
 -12   5  -2 6342.66 538.426   4
   7 -12  -2 6045.87 514.728   1
 -12   5  -2 5220.10 604.755   3
   5   7  -2 5281.38 409.827   3
   7 -12  -2 6363.17 547.745   4
  -5  12  -2 5200.35 633.470   2
  12  -7  -2 6094.15 534.505   4
 -12   5  -2 6163.67 524.872   1
  12  -7  -2 6889.73 299.497   1
   7 -12  -2 4955.20 550.643   2
 -12   5  -2 5151.44 476.428   2
  -7  -5  -2 5587.46 529.431   1
  -5  12   1 22324.5 1137.30   2
  -5  12   1 21480.4 971.834   4
   7 -12   1 22203.2 1154.81   2
  -5  12   1 21973.9 896.018   1
 -12   5   1 22156.0 928.781   4
  12  -7   1 21921.4 845.232   1
 -12   5   1 23972.9 1086.28   2
  12  -7   1 21993.6 958.432   4
  12  -7   1 21410.6 1015.06   3
  -7  -5   1 21880.0 737.884   1
   7 -12   1 20906.8 506.874   3
  12  -7   1 23827.7 1039.15   2
 -12   5   1 23400.1 1099.99   3
   5   7   1 22403.0 876.303   1
   5   7   1 19438.0 933.212   3
  -5  12   1 23555.8 655.299   3
  -7  -5   1 21698.1 986.569   3
   7 -12   1 22745.8 963.710   4
  12  -7   4 8875.98 584.380   2
  -5  12   4 8747.80 670.157   1
   7 -12   4 8478.04 612.458   3
 -12   5   4 7255.29 729.771   3
 -12   5   4 8310.75 290.162   1
  12  -7   4 9340.39 793.751   1
  -5  12   4 8020.54 716.370   2
  -7  -5   4 8359.24 640.017   3
   7 -12   4 8461.19 576.620   4
  -7  -5   4 8839.84 615.442   4
 -12   5   4 8256.90 602.727   4
  -5  12   4 9457.99 726.751   4
   7 -12   4 8822.13 758.775   2
   5   7   4 8343.57 702.103   1
  -5  12   7 12624.0 947.479   1
  -7  -5   7 11508.8 820.090   1
 -12   5   7 13120.6 715.444   1
  12  -7   7 10822.9 487.126   2
  -7  -5   7 11770.6 579.699   4
   5   7   7 12722.8 1065.04   1
 -12   5   7 11541.9 690.540   4
   7 -12   7 12690.7 624.041   4
  -7  -5   7 11047.2 913.705   3
  -5  12   7 10867.9 854.200   2
   7 -12   7 11040.9 882.434   2
  12  -7   7 12574.8 1109.25   1
  -7  -5   7 12001.7 606.856   4
 -12   5   7 13602.7 1094.19   3
   7 -12   7 13774.3 1165.58   1
  12  -7  10 2367.27 752.613   1
   7 -12  10 1560.55 647.145   1
  -5  12  10 1793.89 601.819   1
 -12   5  10 2084.69 685.664   3
  -7  -5  10 2030.23 630.056   3
  -7  -5  10 1850.10 628.802   2
   7 -12  10 1355.21 438.637   2
  -7  -5  10 2666.86 612.137   1
 -12   5  10 1963.13 510.371   1
   5   7  10 1625.39 653.543   1
  -6  -6  -9 721.510 364.806   4
   6 -12  -9-182.610 238.863   4
  -6  12  -6 9300.78 861.169   2
  12  -6  -6 8474.66 550.237   1
  -6  -6  -6 9476.16 417.086   2
   6 -12  -6 8824.57 672.855   4
  -6  12  -6 9185.82 586.655   4
 -12   6  -6 8571.94 501.208   2
 -12   6  -6 8296.71 605.567   4
   6 -12  -6 7595.86 687.758   2
  -6  -6  -6 9865.83 752.038   4
   6 -12  -3 767.320 263.339   1
 -12   6  -3 1273.17 440.992   3
  -6  -6  -3 994.803 309.494   1
  -6  -6  -3 938.678 451.267   3
  -6  -6  -3 1083.12 324.510   4
  12  -6  -3 1724.25 349.965   4
  -6  -6  -3 1212.91 297.969   2
   6 -12  -3 2176.94 389.179   2
   6   6  -3 1025.73 274.901   3
   6 -12  -3 1201.71 307.254   4
  12  -6  -3 1240.36 131.186   1
  -6  12  -3 1230.10 282.194   4
  -6  12  -3 943.107 354.613   2
 -12   6  -3 849.122 257.433   2
 -12   6  -3 1019.63 266.860   4
  -6  -6   0 74441.6 1782.74   3
  12  -6   0 72969.3 1843.04   2
  -6  12   0 77465.0 1791.13   4
  -6  -6   0 77826.3 1497.00   1
 -12   6   0 76680.0 1980.29   3
  -6  -6   0 70417.2 1788.45   4
  -6  -6   0 75061.7 2009.23   2
  12  -6   0 74136.9 1265.53   1
   6   6   0 72882.1 1419.35   1
   6 -12   0 75726.6 1763.75   4
  -6  12   0 75694.9 2044.28   2
   6 -12   0 76487.6 1615.91   1
  12  -6   0 72860.8 1790.25   3
 -12   6   0 74146.1 1687.49   4
 -12   6   0 77277.9 1873.27   2
   6   6   0 73539.6 1677.59   3
  -6  12   0 76494.6 981.913   3
  -6  12   3 636.923 299.551   1
 -12   6   3 544.869 306.990   2
  12  -6   3 625.164 249.346   2
  -6  12   3 1279.30 333.708   4
  -6  -6   3 753.012 245.072   3
   6 -12   3 935.816 357.607   2
   6 -12   3 798.666 239.491   4
  12  -6   3 589.952 408.651   3
  -6  -6   3 735.112 184.283   1
 -12   6   3 841.707 247.255   4
  -6  -6   3 655.326 294.106   4
  -6  12   3 1373.54 372.225   2
  12  -6   3 496.150 266.112   1
   6 -12   3 1090.22 228.900   3
 -12   6   3 623.659 343.882   3
   6   6   3 704.690 360.666   3
   6   6   3 1234.84 347.957   1
 -12   6   6 7376.61 851.972   3
   6 -12   6 7485.97 709.646   3
   6   6   6 7223.11 803.501   1
  -6  -6   6 9374.91 931.268   2
  -6  12   6 8613.58 710.505   4
   6 -12   6 9571.62 924.781   1
   6 -12   6 10375.8 864.049   2
  -6  12   6 9589.05 842.601   2
  12  -6   6 9047.42 881.550   1
 -12   6   6 9014.97 634.284   4
  -6  -6   6 9242.07 759.612   3
  -6  -6   6 8835.19 696.541   1
  -6  -6   6 8748.74 551.729   4
   6 -12   6 8732.87 549.214   4
  -6  12   6 9018.03 750.593   1
 -12   6   6 9321.25 530.358   1
  12  -6   9 910.603 511.564   1
  -6  12   9-422.159 501.914   1
  -6  -6   9-739.973 532.487   2
 -12   6   9 382.630 338.583   1
   6 -12   9 119.442 351.249   2
   6   6   9 109.067 476.254   1
 -12   6   9 39.5440 439.762   3
  -6  -6   9 524.002 382.711   3
  -6  -6   9-184.749 387.193   1
   6 -12   9-162.996 458.987   1
  -6  -6  12 2787.47 768.645   1
  -6  12  12 1964.02 726.782   1
  -6  -6  12 2844.36 782.784   3
 -12   6  12 522.396 724.554   3
   6 -12  12 3844.86 891.978   1
   6   6  12 4367.31 1008.96   1
  12  -6  12 1084.04 661.146   1
  -6  12  12 2069.17 785.432   3
  -5  -7 -10 1956.17 392.551   4
   5 -12 -10 2545.41 394.161   4
 -12   7  -7 9744.79 498.275   2
  -7  12  -7 9770.68 574.534   4
  -5  -7  -7 11826.0 826.589   4
  12  -5  -7 10924.4 694.368   1
   5 -12  -7 11364.4 767.153   4
   5 -12  -7 12033.5 821.973   2
 -12   7  -7 10617.6 693.183   4
   5 -12  -4 8438.80 658.011   4
  -7  12  -4 7885.39 561.482   4
 -12   7  -4 8403.89 811.589   3
 -12   7  -4 8397.95 609.842   4
  -7  12  -4 9266.95 794.534   2
   7   5  -4 6794.71 581.380   3
  12  -5  -4 8066.52 325.413   1
   5 -12  -4 8371.51 672.867   2
  -5  -7  -4 9245.75 603.535   2
 -12   7  -4 9844.17 646.189   2
  -5  -7  -4 8026.72 665.378   4
  -7  12  -1 20016.6 571.308   3
  -7  12  -1 19791.8 907.623   4
   7   5  -1 17624.4 647.741   1
   5 -12  -1 20257.9 964.315   4
 -12   7  -1 18829.7 876.338   4
 -12   7  -1 20342.4 962.594   2
   5 -12  -1 20622.4 1115.14   2
  12  -5  -1 19242.1 484.360   1
  -5  -7  -1 18639.9 998.868   2
  -7  12  -1 19388.2 1067.46   2
  -5  -7  -1 19973.5 863.029   1
   5 -12  -1 20729.7 876.713   1
  12  -5  -1 19807.2 955.669   3
  -5  -7  -1 17467.1 904.910   3
  -5  -7  -1 20022.4 998.822   4
   7   5  -1 18871.6 841.776   3
 -12   7  -1 19713.4 1076.88   3
   7   5   2 7485.40 689.963   3
  -7  12   2 5556.78 473.767   1
  -5  -7   2 5561.11 525.350   4
  12  -5   2 4877.09 478.650   2
  -5  -7   2 6273.12 478.308   3
  -5  -7   2 5861.99 417.957   1
  12  -5   2 6394.94 645.010   3
   5 -12   2 5866.59 517.038   4
 -12   7   2 6152.99 521.826   4
  -7  12   2 4894.39 508.488   4
  -7  12   2 5314.26 433.058   3
  12  -5   2 6466.68 535.445   1
   5 -12   2 5997.90 677.888   2
  -7  12   2 6033.92 642.464   2
  -5  -7   2 6169.98 686.246   2
 -12   7   2 6379.60 627.133   2
 -12   7   2 6038.62 579.497   3
   7   5   2 5738.44 503.518   1
 -12   7   5 45364.7 1372.30   4
  -5  -7   5 43436.4 1240.61   4
   5 -12   5 44022.9 1222.69   4
   7   5   5 41101.4 1597.64   1
   5 -12   5 45687.0 1447.85   3
  -5  -7   5 44437.4 1869.50   2
 -12   7   5 45885.2 1711.39   3
  -7  12   5 43441.6 1442.36   1
  -7  12   5 43916.3 1492.52   4
  12  -5   5 42326.9 1680.39   1
 -12   7   5 44570.0 995.012   1
  -7  12   5 43410.2 1646.04   2
   5 -12   5 44725.4 1710.82   2
  -5  -7   5 45645.6 1451.37   3
  -5  -7   8 2942.61 539.027   3
   5 -12   8 1819.46 229.083   4
  -5  -7   8 2441.89 582.371   2
  -7  12   8 1744.98 461.910   1
  12  -5   8 2411.41 611.254   1
 -12   7   8 3296.90 667.290   3
   7   5   8 1970.58 533.028   1
 -12   7   8 1874.06 367.218   4
  -5  -7   8 1555.83 195.825   4
  -5  -7   8 1712.58 202.455   4
  -5  -7   8 2634.07 520.674   1
   5 -12   8 1499.89 513.175   1
   5 -12   8 2080.76 487.969   2
 -12   7   8 2124.25 386.502   1
  -5  -7  11 9279.83 1056.33   1
 -12   7  11 9338.01 1220.59   3
 -12   7  11 8882.22 903.849   1
  -7  12  11 11225.4 1311.40   3
  -5  -7  11 9420.23 1108.84   3
  -5  -7  11 8679.25 1066.85   2
  12  -5  11 9116.29 1237.99   1
   7   5  11 11186.1 1231.47   1
   5 -12  11 7680.56 1142.95   1
  -7  12  11 7857.87 985.165   1
   4 -12  -8 279.276 271.126   2
   4 -12  -8-50.8154 282.341   4
  -4  -8  -8 404.458 297.220   4
  -8  12  -8-109.042 196.307   4
 -12   8  -8 121.923 253.872   4
  -4  -8  -5 30959.9 1026.87   2
   4 -12  -5 27291.6 1161.67   4
  -4  -8  -5 31089.2 1270.09   4
  -8  12  -5 30355.8 1362.06   2
 -12   8  -5 32818.7 1177.28   4
  -8  12  -5 28412.5 1023.86   4
 -12   8  -5 30854.1 1107.57   2
   4 -12  -5 30917.1 1234.40   2
 -12   8  -2 2789.25 391.316   4
  -4  -8  -2 1854.95 393.835   2
   4 -12  -2 1789.12 367.583   4
  -4  -8  -2 2587.41 396.480   1
  12  -4  -2 1766.53 379.816   3
  -8  12  -2 2309.94 277.209   3
  -8  12  -2 2267.60 452.672   2
   4 -12  -2 2235.47 360.942   1
 -12   8  -2 2662.53 417.851   2
  -4  -8  -2 2311.38 403.868   4
   8   4  -2 2434.15 381.796   3
 -12   8  -2 2527.44 470.380   3
  -4  -8  -2 1922.34 433.182   3
  -8  12  -2 2505.50 363.143   4
   4 -12  -2 2129.52 418.429   2
 -12   8   1 63451.8 1689.69   3
   4 -12   1 61782.1 1591.64   4
  -4  -8   1 61591.6 1369.82   1
  -4  -8   1 66132.5 2007.44   2
  -8  12   1 63824.8 1671.55   4
   4 -12   1 67136.3 1982.55   2
  12  -4   1 62854.5 1802.11   3
  -8  12   1 67130.4 1976.15   2
   8   4   1 64007.5 1386.85   1
  -8  12   1 65859.6 1282.28   3
   4 -12   1 66752.1 1562.50   1
  12  -4   1 63853.2 1364.54   1
 -12   8   1 66640.8 1850.86   2
  -4  -8   1 61907.7 1658.58   4
 -12   8   1 62484.8 1599.34   4
   8   4   1 63451.0 1785.71   3
  -4  -8   1 67107.3 1477.48   3
  12  -4   4 14567.3 950.014   1
  -4  -8   4 15196.3 1084.63   2
   8   4   4 14561.9 926.839   1
  -4  -8   4 16557.8 814.149   4
  -8  12   4 15409.6 811.940   1
   4 -12   4 15551.0 715.974   3
 -12   8   4 15180.7 818.701   4
   4 -12   4 15726.7 771.737   4
 -12   8   4 15871.7 567.231   1
   4 -12   4 14179.7 996.379   2
  -8  12   4 14946.7 857.505   3
 -12   8   4 16520.8 997.431   3
  -4  -8   4 14484.4 748.629   3
  -8  12   4 14909.2 976.543   2
  -8  12   4 15007.2 864.358   4
   8   4   7 19722.8 1291.78   1
  -4  -8   7 20467.2 750.078   4
 -12   8   7 17828.2 1248.52   3
  -4  -8   7 21347.0 1188.25   1
   4 -12   7 20756.3 1259.49   2
  -4  -8   7 18861.3 1314.20   2
 -12   8   7 17968.1 898.337   4
  -8  12   7 18545.4 1311.51   3
   4 -12   7 19864.0 740.514   4
 -12   8   7 21854.8 954.407   1
  -4  -8   7 21379.4 1164.04   3
   4 -12   7 18975.4 1332.02   1
  12  -4   7 19555.4 1332.76   1
  -8  12   7 19169.7 1098.77   1
  -8  12  10 1210.45 674.530   3
  12  -4  10 1300.91 640.716   1
  -8  12  10 787.086 494.879   1
   8   4  10 1677.45 665.137   1
 -12   8  10 4036.31 875.763   3
  -4  -8  10 2093.68 650.761   2
  -4  -8  10 1566.06 578.195   1
   4 -12  10 1664.24 498.593   2
  -4  -8  10 2120.89 533.986   3
   4 -12  10 1493.91 558.603   1
 -12   8  10 1132.66 457.155   1
  -3  -9  -9 1668.06 365.352   4
   3 -12  -9 1399.00 381.340   4
   3 -12  -6 9532.89 714.776   2
   3 -12  -6 10075.7 747.959   4
  -3  -9  -6 9978.82 585.175   2
 -12   9  -6 8689.13 631.895   4
  -9  12  -6 8081.69 744.940   2
  -3  -9  -6 9112.69 718.815   4
 -12   9  -6 8572.66 631.560   2
  -9  12  -6 8567.33 594.403   4
  -3  -9  -3 1205.30 304.969   2
 -12   9  -3 1070.06 383.483   3
  -9  12  -3 1136.03 377.335   2
   3 -12  -3 1306.64 317.090   4
  -9  12  -3 1391.06 288.580   4
   9   3  -3 1381.95 317.266   3
  -3  -9  -3 1318.58 358.900   4
 -12   9  -3 1014.91 309.143   2
   3 -12  -3 1358.53 347.401   2
 -12   9  -3 1298.94 293.156   4
  -3  -9   0 5723.43 466.645   3
  -3  -9   0 4300.43 492.263   4
  -3  -9   0 5726.88 618.014   2
   3 -12   0 4090.50 442.086   1
  -9  12   0 6613.28 565.906   4
   9   3   0 5395.43 383.132   1
  12  -3   0 5970.20 354.091   1
 -12   9   0 6210.97 581.196   3
 -12   9   0 5215.01 520.619   4
 -12   9   0 6166.75 617.279   2
  -9  12   0 6271.26 681.831   2
   3 -12   0 4964.79 508.350   4
  -3  -9   0 5911.39 493.073   1
   3 -12   0 4867.33 611.886   2
  12  -3   0 5028.26 561.429   3
  -9  12   0 5495.03 407.535   3
   9   3   0 5547.78 557.123   3
  -3  -9   3 536.192 271.321   4
 -12   9   3 765.688 188.202   1
   3 -12   3 674.497 402.211   2
   3 -12   3 771.699 257.291   4
  -9  12   3 780.578 280.311   4
 -12   9   3 827.471 274.745   4
 -12   9   3 1133.26 336.696   3
  -3  -9   3 688.334 424.057   2
  -3  -9   3 998.698 253.615   1
  12  -3   3 288.445 278.641   1
   9   3   3 1165.86 330.930   1
   3 -12   3 718.958 136.908   3
  -9  12   3 869.303 283.389   3
  -9  12   3 277.410 349.241   2
  -3  -9   3 509.530 216.932   3
  -9  12   3 755.238 250.008   1
   9   3   6 9108.89 889.951   1
  -3  -9   6 8417.98 895.713   2
 -12   9   6 8649.39 671.767   4
   3 -12   6 9791.99 581.388   4
  -3  -9   6 10607.5 847.815   1
  -3  -9   6 8976.98 575.758   4
  -9  12   6 7582.45 671.012   4
   3 -12   6 9642.98 898.401   2
  12  -3   6 8600.06 874.163   1
 -12   9   6 10402.3 938.166   3
   3 -12   6 11157.9 944.666   1
  -9  12   6 10324.7 897.896   3
 -12   9   6 9948.45 610.874   1
  -3  -9   6 9661.93 721.018   3
  -9  12   6 9377.17 716.480   1
  12  -3   9-416.973 530.934   1
 -12   9   9 350.212 474.356   3
   9   3   9 522.812 458.964   1
 -12   9   9 230.494 343.595   1
  -3  -9   9-368.298 473.256   2
  -9  12   9-34.0254 334.375   1
  -3  -9   9 21.0784 301.461   3
   3 -12   9 126.452 340.220   2
  -9  12   9-522.716 484.877   3
  -3  -9   9 946.074 524.944   1
   3 -12   9-713.997 534.796   1
   9   3  12 862.370 622.600   1
  -9  12  12 644.624 570.753   1
  12  -3  12 2611.72 883.281   1
   3 -12  12 2335.48 864.116   1
  -9  12  12 1271.47 816.393   3
   3 -12  12 929.379 541.341   3
  -3  -9  12 888.329 658.943   3
 -12   9  12 3594.19 916.310   3
  -3  -9  12 1232.23 661.105   1
   2 -12 -10 2564.15 445.310   4
  -2 -10 -10 2642.97 459.085   4
  -2 -10  -7 1338.64 270.599   2
   2 -12  -7 1651.00 355.775   2
   2 -12  -7 1492.08 374.562   4
 -12  10  -7 1323.17 354.001   2
  -2 -10  -7 1926.60 403.508   4
 -10  12  -7 927.865 383.505   2
 -10  12  -7 1507.18 319.307   4
 -12  10  -7 1471.65 335.061   4
 -12  10  -4 2367.21 437.644   3
 -10  12  -4 2010.19 353.165   4
  -2 -10  -4 1974.62 397.601   4
  -2 -10  -4 2428.97 409.749   2
 -10  12  -4 1951.45 420.779   2
 -12  10  -4 874.440 260.812   4
 -12  10  -4 2095.07 411.422   2
   2 -12  -4 2087.19 366.747   4
   2 -12  -4 2117.44 376.650   2
   2 -12  -1 9876.79 815.925   2
 -10  12  -1 9634.37 675.307   4
  12  -2  -1 8955.00 300.409   1
  -2 -10  -1 9178.17 584.733   3
  -2 -10  -1 9729.09 750.294   4
 -10  12  -1 10546.8 841.622   2
  10   2  -1 9587.12 410.068   1
   2 -12  -1 9355.54 650.532   1
 -12  10  -1 9227.75 739.279   3
 -12  10  -1 9915.39 771.895   2
  -2 -10  -1 9903.07 777.587   2
  10   2  -1 9247.65 687.074   3
  -2 -10  -1 9331.42 648.846   1
   2 -12  -1 8783.96 662.440   4
 -12  10  -1 9016.55 648.415   4
 -10  12  -1 9783.95 610.095   3
  12  -2  -1 9449.33 716.340   3
 -10  12   2 6216.41 531.851   3
  10   2   2 5855.87 512.225   1
  -2 -10   2 5852.54 493.591   1
  -2 -10   2 5612.31 708.457   2
 -10  12   2 5946.01 570.846   4
 -10  12   2 6413.56 490.224   1
 -12  10   2 5497.16 534.526   4
 -10  12   2 7288.65 706.513   2
   2 -12   2 5450.87 674.430   2
  12  -2   2 5840.78 699.304   3
  -2 -10   2 5620.11 527.156   4
   2 -12   2 5756.53 522.617   1
 -12  10   2 6121.03 645.810   2
  12  -2   2 7519.31 578.066   1
   2 -12   2 5695.93 536.714   4
 -12  10   2 6156.84 596.976   3
  -2 -10   2 6415.34 427.630   3
  10   2   2 6113.72 707.576   3
  -2 -10   5 6707.97 537.322   4
   2 -12   5 5853.97 718.456   2
 -10  12   5 5542.82 623.653   3
 -10  12   5 7390.54 598.787   1
  -2 -10   5 7194.28 833.471   2
 -10  12   5 6218.72 607.654   4
  10   2   5 7829.56 768.447   1
 -12  10   5 5781.43 550.065   4
 -12  10   5 6865.57 493.026   1
   2 -12   5 6535.54 491.652   3
  -2 -10   5 7916.59 602.309   3
   2 -12   5 6784.02 539.414   4
  12  -2   5 6879.20 734.706   1
 -12  10   5 7368.78 714.240   3
   2 -12   8 1737.34 527.167   2
 -12  10   8 1946.36 409.660   1
  -2 -10   8 1354.30 192.365   4
 -12  10   8 1525.66 560.759   3
   2 -12   8 2472.02 511.066   3
 -10  12   8 1641.49 531.235   3
  -2 -10   8 3511.54 659.417   1
  -2 -10   8 2040.54 564.630   2
   2 -12   8 1657.91 219.773   4
   2 -12   8 2206.49 578.963   1
  10   2   8 1820.49 582.595   1
 -10  12   8 2659.46 527.318   1
  12  -2   8 1615.24 590.875   1
  -2 -10   8 2458.16 524.637   3
 -12  10  11 2083.74 606.061   1
   2 -12  11 2201.73 605.195   3
 -10  12  11 2613.44 686.288   1
  -2 -10  11 1986.11 670.423   2
 -10  12  11 1941.09 724.115   3
   2 -12  11 2183.64 751.637   1
 -12  10  11 2446.37 789.303   3
  10   2  11 2177.46 764.651   1
  -2 -10  11 1663.86 733.328   1
  -2 -10  11 2802.78 690.843   3
  12  -2  11 1784.20 614.404   1
  -1 -11  -8 3506.32 504.577   4
 -12  11  -8 2564.12 403.777   4
  -1 -11  -8 2592.96 331.863   2
   1 -12  -8 2960.97 430.257   2
 -11  12  -8 2553.64 385.940   4
  -1 -11  -5 12816.2 769.807   2
   1 -12  -5 12327.7 845.040   4
  -1 -11  -5 12404.1 853.149   4
 -11  12  -5 11261.1 839.467   2
 -11  12  -5 11439.3 723.521   4
   1 -12  -5 12451.7 792.819   2
 -12  11  -5 11758.1 818.540   2
 -12  11  -5 11445.5 734.629   4
 -12  11  -2 28374.2 1132.54   4
   1 -12  -2 31129.1 1367.56   2
 -11  12  -2 28212.6 1300.27   2
 -11  12  -2 27852.1 1138.54   4
 -12  11  -2 29814.5 1253.59   3
   1 -12  -2 30989.6 1264.41   4
  -1 -11  -2 29767.3 1290.55   2
  12  -1  -2 26396.4 1177.30   3
  -1 -11  -2 28132.9 1214.21   4
 -11  12  -2 31237.1 1167.51   3
  11   1  -2 29164.6 1176.62   3
 -12  11  -2 31409.5 1328.56   2
  -1 -11   1 43857.1 953.622   3
  11   1   1 42922.2 1131.78   1
  12  -1   1 42469.7 1570.39   3
  -1 -11   1 43292.4 1436.38   4
   1 -12   1 40743.0 1655.84   2
 -12  11   1 42778.0 1337.28   3
 -11  12   1 40668.5 1574.88   2
  -1 -11   1 41013.8 1677.94   2
  -1 -11   1 39759.6 1238.98   1
   1 -12   1 42402.7 1402.87   4
 -12  11   1 36999.3 1481.02   2
 -11  12   1 41643.8 1409.61   4
   1 -12   1 43645.9 1299.33   1
 -12  11   1 42821.1 1406.13   4
  11   1   1 41247.1 1545.15   3
 -11  12   1 42109.6 1232.12   3
  12  -1   1 39926.2 1094.45   1
   1 -12   4 22392.1 1342.96   2
 -11  12   4 21468.4 1091.23   3
  -1 -11   4 20515.2 1292.49   2
 -12  11   4 20100.7 1010.40   4
  12  -1   4 16922.7 1022.98   1
  -1 -11   4 20834.2 943.366   4
  11   1   4 22050.2 1144.35   1
 -12  11   4 21460.2 1134.39   3
 -11  12   4 20528.4 862.589   1
   1 -12   4 20353.6 924.487   4
   1 -12   4 23046.8 759.092   3
 -12  11   4 21107.7 799.343   1
  -1 -11   4 22575.3 828.436   3
   1 -12   7 21372.0 1081.51   3
   1 -12   7 21186.6 1401.99   2
  -1 -11   7 20551.8 808.023   4
   1 -12   7 18457.6 1292.05   1
  -1 -11   7 18955.9 1253.60   1
  -1 -11   7 20462.4 1389.07   2
   1 -12   7 20289.1 790.790   4
 -12  11   7 22024.5 1393.92   3
 -11  12   7 22755.4 1417.67   3
 -12  11   7 20734.3 1014.52   1
 -11  12   7 19486.7 1044.80   1
  12  -1   7 23262.6 1437.34   1
  11   1   7 19924.6 1362.36   1
  -1 -11   7 19616.1 1066.40   3
 -11  12  10 9186.29 964.980   1
  11   1  10 10939.6 1222.87   1
 -11  12  10 10503.9 1249.71   3
   1 -12  10 8839.12 1017.96   2
  -1 -11  10 10798.6 1128.13   2
 -12  11  10 11944.7 1299.62   3
  12  -1  10 9569.17 1192.81   1
 -12  11  10 10105.5 935.372   1
   1 -12  10 9073.63 948.849   3
  -1 -11  10 9878.21 1003.77   3
   1 -12  10 11038.2 1187.80   1
  -1 -11  10 10754.1 1144.04   1
   0 -12  -9 43.6875 285.525   4
 -12  12  -6 8125.65 630.734   4
 -12  12  -6 8714.89 763.652   2
   0 -12  -6 10358.9 796.906   4
   0 -12  -6 8557.58 653.511   2
   0 -12  -3 3.21058 274.270   4
 -12  12  -3 384.127 262.799   4
 -12  12  -3-113.932 248.416   3
 -12  12  -3-360.464 305.487   2
   0 -12  -3 111.232 259.978   2
 -12  12   0 1646.16 356.069   3
   0 -12   0 1560.70 360.784   4
  12   0   0 1277.63 203.191   1
 -12  12   0 1738.45 362.379   4
   0 -12   0 1735.23 443.956   2
   0 -12   0 870.429 271.724   1
 -12  12   0 1546.61 399.076   2
  12   0   0 2066.58 439.835   3
 -12  12   3 113.415 257.691   3
   0 -12   3-63.5899 329.293   2
  12   0   3-110.895 247.869   1
   0 -12   3-90.8361 220.628   4
 -12  12   3-274.969 204.924   1
   0 -12   3-13.9019 131.378   3
 -12  12   6 10385.8 701.171   1
   0 -12   6 11493.6 1071.50   2
   0 -12   6 11214.3 675.327   4
  12   0   6 9462.46 906.161   1
   0 -12   6 9941.16 692.663   3
 -12  12   6 11582.7 1003.16   3
   0 -12   9-356.562 383.012   2
  12   0   9 342.294 528.326   1
 -12  12   9 620.279 389.383   1
   0 -12   9 139.368 454.694   1
 -12  12   9 344.118 544.555   3
   0 -12   9 242.721 339.027   3
  12   0  12 244.515 645.269   1
   0 -12  12 1267.70 784.643   1
   0 -12  12 1257.65 619.364   3
 -12  12  12 1396.58 812.686   3
 -12  12  12 347.379 508.636   1
 -13   0 -10 24151.6 1259.12   4
  13 -13  -7 141.055 263.973   4
  13 -13  -7 3.62214 334.162   2
  13 -13  -4 84939.4 1805.12   1
  13 -13  -4 87708.5 2438.88   2
 -13   0  -4 83162.3 1743.94   2
  13 -13  -4 84596.7 2098.49   4
 -13   0  -4 81332.2 2651.15   3
 -13   0  -1 83.6624 206.552   1
  13 -13  -1 7.77937 263.309   4
 -13   0  -1 170.718 418.483   3
  13 -13  -1-22.9558 193.711   1
   0  13  -1 49.2180 78.1755   3
  13 -13  -1 109.537 325.321   2
  13 -13  -1 63.7413 218.380   3
   0  13   2 61230.2 2000.63   2
   0  13   2 65021.6 1708.59   3
   0  13   2 67887.3 1809.07   1
 -13   0   2 61480.1 1972.98   3
  13 -13   2 61905.1 1902.86   2
  13 -13   2 64949.9 1799.57   4
  13 -13   2 61139.5 1626.60   3
 -13   0   5 16.2193 92.3086   1
  13 -13   5-525.465 419.081   1
   0  13   5-123.847 311.475   2
 -13   0   5 37.3238 78.3664   1
  13 -13   5-151.247 265.862   4
 -13   0   5-390.783 259.769   4
   0  13   5-172.457 305.718   1
  13 -13   5-79.4465 282.611   2
 -13   0   5 30.5019 323.314   3
  13 -13   8 27628.2 1205.28   2
 -13   0   8 24751.5 1561.55   3
 -13   0   8 30084.5 1118.09   1
  13 -13   8 27028.4 1803.50   1
   0  13   8 27348.5 1580.15   1
   0  13  11 688.684 553.872   1
  13 -13  11-922.969 682.553   1
 -13   0  11 604.529 644.781   3
 -12  -1  -8 1371.79 418.895   4
  12 -13  -8 1207.11 334.765   4
  13 -12  -8 1028.54 335.143   4
 -13   1  -5 1086.10 444.570   3
 -12  -1  -5 1218.46 247.381   2
  12 -13  -5 1923.09 452.018   2
  -1  13  -5 655.126 264.446   4
 -12  -1  -5 1095.52 447.266   3
  12 -13  -5 759.084 324.935   1
  13 -12  -5 719.872 290.601   1
  13 -12  -5 1133.11 405.927   2
 -12  -1  -5 1003.23 256.022   2
  12 -13  -5 1178.87 334.583   4
  13 -12  -5 1140.60 349.230   4
 -13   1  -5 1001.87 247.434   2
   1  12  -2 5197.32 301.156   3
 -12  -1  -2 5725.95 760.867   3
 -13   1  -2 5504.07 536.316   2
  12 -13  -2 5412.43 472.772   1
  13 -12  -2 4877.02 424.786   1
  13 -12  -2 5461.50 574.747   4
  -1  13  -2 5507.96 568.152   4
   1  12  -2 5617.75 586.838   4
  13 -12  -2 5237.04 521.381   3
  13 -12  -2 5982.28 689.950   2
 -12  -1  -2 5864.95 550.147   1
  12 -13  -2 5237.64 545.511   4
  12 -13  -2 6475.40 692.320   2
 -13   1  -2 6003.71 765.272   3
 -13   1  -2 5350.97 519.945   1
  12 -13  -2 4810.14 486.359   3
   1  12   1 11320.1 647.190   3
  -1  13   1 13474.5 657.293   3
  12 -13   1 14602.4 728.651   3
  -1  13   1 12641.0 952.244   2
 -13   1   1 13168.2 455.201   1
   1  12   1 12337.5 945.264   2
  13 -12   1 11715.9 714.674   3
  13 -12   1 12847.5 895.158   2
 -12  -1   1 13473.9 521.265   1
  12 -13   1 12289.6 803.464   4
  13 -12   1 13627.8 830.777   4
  12 -13   1 12642.1 885.839   2
   1  12   1 13836.1 802.287   1
 -13   1   1 14014.7 965.223   3
 -12  -1   1 13156.8 939.927   3
  -1  13   1 12843.7 765.916   1
 -12  -1   4 1438.82 170.756   1
  13 -12   4 299.983 339.448   3
  12 -13   4 1021.76 389.881   3
  13 -12   4 1778.92 467.216   1
  12 -13   4 1214.41 322.731   4
  12 -13   4 1663.73 517.932   1
  13 -12   4 1704.39 357.087   4
  -1  13   4 2088.71 467.908   2
 -13   1   4 1465.89 347.312   4
   1  12   4 1963.56 451.117   2
  -1  13   4 1541.75 377.409   1
 -12  -1   4 1264.30 135.981   1
   1  12   4 2138.52 443.062   1
 -13   1   4 987.330 367.442   3
 -12  -1   4 1214.18 315.527   4
 -12  -1   4 2127.20 483.818   3
  12 -13   4 760.214 336.890   2
  13 -12   4 1599.95 370.651   2
 -12  -1   7 7080.13 574.530   4
  -1  13   7 7334.49 695.061   2
   1  12   7 7905.07 662.870   2
 -12  -1   7 10568.7 976.626   3
  13 -12   7 9387.46 1029.32   1
   1  12   7 8300.83 863.972   1
 -13   1   7 9518.30 974.319   3
  12 -13   7 10716.2 1078.73   1
  13 -12   7 10370.6 740.097   2
  12 -13   7 9292.51 664.905   4
  -1  13   7 9832.55 934.091   1
  12 -13   7 8751.44 742.439   2
 -12  -1   7 10715.1 662.542   1
 -13   1   7 8016.04 644.506   4
 -13   1   7 9567.83 560.761   1
   1  12  10 3303.47 735.272   1
 -12  -1  10 3147.72 542.209   1
  -1  13  10 3536.75 742.521   1
  13 -12  10 3114.61 815.137   1
 -12  -1  10 4504.85 888.241   3
  12 -13  10 2499.33 725.651   1
 -13   1  10 2620.09 744.812   3
 -13   2  -9 6764.08 696.918   4
 -11  -2  -9 5685.61 665.766   4
  13 -11  -9 6387.03 587.102   4
  11 -13  -9 5733.12 576.654   4
  11 -13  -6 1784.31 466.187   2
  13 -11  -6 2969.00 440.721   1
  13 -11  -6 3287.11 566.669   2
  -2  13  -6 2300.58 372.868   4
 -11  -2  -6 2323.11 207.709   2
 -11  -2  -6 2450.82 234.582   2
  11 -13  -6 2739.93 435.807   4
  13 -11  -6 2724.84 420.304   4
 -13   2  -6 2324.25 255.409   2
 -13   2  -3 4477.07 456.081   2
  13 -11  -3 4080.09 584.119   2
 -13   2  -3 4623.57 668.393   3
 -11  -2  -3 4501.00 664.813   3
  11 -13  -3 5099.56 636.386   2
  -2  13  -3 5991.24 570.229   4
  11 -13  -3 5403.96 484.810   1
  13 -11  -3 4818.32 399.625   1
  11 -13  -3 4278.83 504.243   4
 -13   2  -3 5262.16 572.686   1
  13 -11  -3 4733.30 535.269   4
  -2  13   0 1164.23 318.806   1
 -13   2   0 1428.85 439.084   3
  13 -11   0 1133.91 370.096   2
  13 -11   0 744.034 287.604   4
 -11  -2   0 958.115 361.580   3
   2  11   0 1213.63 288.866   1
 -13   2   0 1289.42 231.290   1
  11 -13   0 1150.20 283.286   4
  -2  13   0 1427.22 427.741   2
 -13   2   0 905.517 353.772   2
  11 -13   0 973.159 283.452   1
   2  11   0 1341.97 252.024   3
 -11  -2   0 928.382 227.333   1
   2  11   0 1112.94 356.565   4
 -13   2   0 1603.32 355.857   4
   2  11   0 1185.74 407.895   2
  11 -13   0 1437.28 276.632   3
  -2  13   0 513.717 263.310   4
  13 -11   0 1481.98 327.446   3
  11 -13   0 1648.77 443.512   2
  -2  13   0 1066.31 162.621   3
   2  11   3 9680.35 788.635   3
 -11  -2   3 9991.28 771.599   3
  -2  13   3 9100.69 704.751   1
  11 -13   3 9973.46 701.723   3
  -2  13   3 9495.78 801.188   2
  11 -13   3 9770.97 703.402   4
  13 -11   3 8133.16 757.765   3
   2  11   3 9190.59 762.546   2
  13 -11   3 9805.49 748.402   2
  13 -11   3 9268.71 805.985   1
  11 -13   3 8585.20 742.757   2
 -13   2   3 9197.41 679.332   4
  13 -11   3 10574.4 719.023   4
 -13   2   3 8549.59 798.902   3
  -2  13   3 8923.34 753.350   3
   2  11   3 8723.39 714.718   1
 -11  -2   3 9600.24 366.052   1
   2  11   6 3586.36 598.578   1
 -11  -2   6 3146.59 361.269   1
 -13   2   6 3367.68 287.279   1
 -11  -2   6 2257.41 540.861   3
   2  11   6 3514.41 483.579   2
  11 -13   6 2914.01 386.795   4
 -13   2   6 3234.24 609.384   3
  -2  13   6 4228.05 604.447   1
 -11  -2   6 3464.19 426.807   4
  -2  13   6 2969.24 507.930   2
  11 -13   6 3619.43 499.368   2
 -13   2   6 3405.71 445.732   4
  13 -11   6 3374.05 446.056   2
  11 -13   6 4106.11 713.784   1
  13 -11   6 3336.45 614.965   1
 -13   2   9 3456.02 507.172   1
  -2  13   9 4091.54 657.779   1
 -11  -2   9 3896.46 729.505   3
   2  11   9 4597.15 765.701   1
  13 -11   9 3598.97 788.645   1
  11 -13   9 3989.41 521.199   2
 -11  -2   9 3664.78 544.236   1
 -13   2   9 3722.93 716.342   3
  11 -13   9 4316.66 886.812   1
  -2  13  12 580.712 572.662   1
   2  11  12 1069.72 684.432   1
 -13   2  12 672.585 607.958   3
  13 -11  12 2008.10 850.923   1
 -11  -2  12 1201.92 740.260   3
  11 -13  12 1832.64 832.610   1
 -10  -3 -10 21429.8 1119.29   4
  10 -13 -10 19267.8 956.157   4
  10 -13  -7 50.8311 336.702   2
  13 -10  -7-140.931 256.759   4
 -10  -3  -7-290.320 306.618   4
  13 -10  -7 553.849 333.691   1
  10 -13  -7 51.8618 241.865   4
  10 -13  -4 44064.2 1402.77   1
  13 -10  -4 46544.4 1140.38   1
  13 -10  -4 48456.3 1829.63   2
 -13   3  -4 42912.1 1880.48   3
 -10  -3  -4 47415.2 1980.33   3
 -10  -3  -4 47025.6 1349.13   2
  -3  13  -4 46685.2 1436.72   4
  10 -13  -4 43063.9 1443.71   4
  13 -10  -4 44383.0 1429.52   4
  10 -13  -4 43493.2 1633.06   2
 -13   3  -4 46006.0 1258.11   2
 -13   3  -1 2944.72 433.464   2
 -13   3  -1 2682.24 578.107   3
  10 -13  -1 2955.09 337.578   3
 -10  -3  -1 2595.21 505.651   3
  13 -10  -1 2044.29 426.476   2
  -3  13  -1 2963.75 554.250   2
  13 -10  -1 2794.69 405.398   4
  -3  13  -1 2628.89 425.475   4
  13 -10  -1 2762.23 280.998   1
  10 -13  -1 3184.45 428.811   4
 -13   3  -1 3637.83 381.926   1
 -13   3  -1 2637.33 395.063   4
  13 -10  -1 2511.38 382.227   3
  10 -13  -1 2853.52 504.159   2
   3  10  -1 3321.33 300.771   3
  10 -13  -1 2604.98 345.189   1
 -10  -3  -1 2878.41 368.931   1
   3  10   2 88733.5 2105.11   3
   3  10   2 96547.3 2330.55   2
  10 -13   2 87527.8 2254.27   2
  13 -10   2 91236.2 2148.58   3
  -3  13   2 97011.9 2435.96   2
 -10  -3   2 89648.2 1245.46   1
  13 -10   2 92940.7 2071.54   1
  10 -13   2 92798.8 1629.08   3
  13 -10   2 90409.4 2017.73   4
 -13   3   2 88818.8 1981.93   4
   3  10   2 89711.3 1970.98   1
 -13   3   2 92031.1 2299.69   3
 -10  -3   2 89026.4 2131.97   3
  13 -10   2 92252.4 2122.77   2
  10 -13   2 90685.1 2000.00   4
  -3  13   2 93731.1 2021.62   1
   3  10   5 2748.57 452.514   2
  10 -13   5 1998.41 460.965   3
  10 -13   5 2094.50 353.929   4
 -10  -3   5 1835.43 295.065   1
  13 -10   5 2762.72 569.734   1
  10 -13   5 2081.58 524.886   1
  -3  13   5 1756.26 429.403   2
  13 -10   5 2614.81 394.569   2
 -13   3   5 2294.83 371.647   4
   3  10   5 1605.85 384.026   1
  10 -13   5 1883.95 432.801   2
 -13   3   5 2029.92 520.051   3
  -3  13   5 2628.11 484.802   1
 -10  -3   5 1829.88 416.010   3
 -13   3   5 1516.09 138.569   1
  -3  13   8 28106.4 1527.15   1
 -10  -3   8 25797.2 1194.17   1
 -10  -3   8 24790.0 930.040   4
 -13   3   8 27428.3 1058.46   1
  13 -10   8 23976.6 1594.15   1
  10 -13   8 27242.9 1739.52   1
   3  10   8 23857.1 1481.35   1
 -10  -3   8 28203.8 1571.78   3
  10 -13   8 26902.6 1278.62   2
  13 -10   8 23812.6 881.436   2
 -13   3   8 25459.1 1562.14   3
  -3  13  11 1266.98 634.760   1
 -10  -3  11 232.914 415.266   1
 -10  -3  11 314.856 555.904   3
 -10  -3  11 795.212 636.702   2
 -13   3  11 37.5066 535.419   3
  10 -13  11 1788.47 705.261   1
   3  10  11 1070.87 623.678   1
  13 -10  11 471.786 704.774   1
   9 -13  -8 2883.10 452.001   4
   9 -13  -8 3350.67 600.545   2
  -9  -4  -8 2393.35 446.772   4
  13  -9  -8 2891.61 411.662   4
  -9  -4  -5 2712.91 468.025   4
 -13   4  -5 1606.67 505.215   3
   9 -13  -5 2744.36 482.190   2
   9 -13  -5 2144.48 402.529   4
  13  -9  -5 1787.04 359.047   4
  -9  -4  -5 1986.03 294.570   2
 -13   4  -5 1665.78 306.439   2
  13  -9  -5 2210.84 321.741   1
  -4  13  -5 1770.93 351.606   4
  13  -9  -2 16080.1 1006.58   2
  13  -9  -2 16004.6 553.816   1
  -4  13  -2 16301.6 1079.08   2
 -13   4  -2 16501.1 847.445   1
  -9  -4  -2 16200.9 861.188   1
  -4  13  -2 16984.3 892.793   4
  -9  -4  -2 15993.8 1057.47   3
   9 -13  -2 14747.5 859.714   4
   9 -13  -2 14945.1 775.394   1
 -13   4  -2 14860.6 849.911   4
  13  -9  -2 15869.1 853.262   4
   4   9  -2 17196.9 681.981   3
  13  -9  -2 14269.6 850.720   3
   9 -13  -2 16287.0 997.389   2
 -13   4  -2 15265.1 1106.83   3
 -13   4  -2 15382.9 821.344   2
   9 -13   1 16919.1 575.289   3
   4   9   1 15678.4 839.258   3
   9 -13   1 15242.8 979.347   2
 -13   4   1 11572.0 857.931   3
  -4  13   1 14822.5 868.779   4
  -4  13   1 14125.9 787.381   1
  13  -9   1 15527.5 852.464   4
  -9  -4   1 15973.7 620.043   1
   4   9   1 14648.4 757.699   1
  -4  13   1 15319.4 1032.06   2
 -13   4   1 14753.8 919.922   2
   9 -13   1 14306.7 808.088   4
  13  -9   1 15403.1 872.893   3
  -9  -4   1 15236.0 909.923   3
 -13   4   1 15931.0 853.758   4
  13  -9   1 15704.6 918.889   2
   9 -13   4 18270.6 932.739   3
  -4  13   4 17788.9 971.381   1
  13  -9   4 16359.1 849.762   2
  13  -9   4 17414.3 1053.44   1
  -9  -4   4 17964.8 646.340   1
   9 -13   4 18157.4 890.671   4
  -4  13   4 17777.7 1060.99   2
   4   9   4 17125.8 1001.77   1
 -13   4   4 18778.7 912.140   4
   9 -13   4 17979.0 1066.61   2
  13  -9   4 19029.2 932.788   4
 -13   4   4 18793.6 1112.93   3
  -9  -4   4 17047.9 981.228   3
  -4  13   7 592.121 361.645   2
  13  -9   7 1138.33 270.248   2
  -9  -4   7 606.264 271.034   1
 -13   4   7 985.996 434.023   3
 -13   4   7 617.899 301.761   4
  -4  13   7 977.981 390.330   1
  -9  -4   7 739.025 248.564   4
  -9  -4   7 604.274 243.098   4
   9 -13   7 1206.87 384.405   2
  -9  -4   7 634.975 424.355   3
   9 -13   7 514.188 404.937   1
  13  -9   7 1576.19 496.950   1
   9 -13   7 387.521 222.042   4
 -13   4   7 824.505 247.848   1
   4   9   7 1458.95 512.500   1
  -9  -4  10 3961.28 833.163   2
  13  -9  10 3641.38 873.429   1
 -13   4  10 3024.79 536.225   1
   9 -13  10 1900.87 730.359   1
 -13   4  10 3439.09 785.512   3
  -9  -4  10 4161.65 644.069   1
  -9  -4  10 2905.32 709.830   3
  -4  13  10 3967.73 747.939   1
   8 -13  -9 2804.64 447.170   4
  -8  -5  -9 2824.68 475.883   4
  13  -8  -6 8150.30 565.896   1
  -8  -5  -6 8923.62 767.584   4
 -13   5  -6 8209.31 477.076   2
 -13   5  -6 7659.45 636.975   4
  -8  -5  -6 8028.85 399.871   2
   8 -13  -6 9756.54 805.962   2
  13  -8  -6 8898.79 648.025   4
   8 -13  -6 9542.96 722.602   4
  -5  13  -6 8634.02 612.055   4
  -5  13  -3 26106.5 1350.61   2
 -13   5  -3 22608.4 1349.19   3
  13  -8  -3 25320.7 1276.30   2
  -8  -5  -3 23701.4 1281.59   3
   8 -13  -3 24609.6 1039.09   1
 -13   5  -3 24430.7 1118.29   1
  -5  13  -3 25026.8 1034.46   4
 -13   5  -3 24632.6 1063.78   4
   8 -13  -3 28440.2 1180.16   4
  -8  -5  -3 24703.8 1053.67   2
   5   8  -3 25168.3 909.525   3
  13  -8  -3 28143.5 1123.56   4
   8 -13  -3 25465.3 1209.26   2
 -13   5  -3 25926.3 1019.11   2
  13  -8  -3 25292.5 642.491   1
  13  -8   0 18491.3 995.115   2
 -13   5   0 14910.4 973.594   3
  -8  -5   0 18129.8 1003.10   3
  -8  -5   0 17327.3 742.055   1
  13  -8   0 15560.3 875.231   4
   8 -13   0 17136.1 816.905   1
  -5  13   0 17323.9 902.843   4
  -5  13   0 16613.2 1027.73   2
   8 -13   0 15551.5 834.336   4
 -13   5   0 16538.7 892.435   4
   8 -13   0 17384.3 1035.11   2
   8 -13   0 16993.0 549.243   3
   5   8   0 19214.2 815.946   1
  13  -8   0 17154.6 907.873   3
  -5  13   0 15678.6 384.179   3
 -13   5   0 17762.6 956.378   2
   5   8   0 18601.8 838.392   3
   5   8   3 11126.4 949.029   3
  13  -8   3 11004.4 780.797   1
 -13   5   3 11586.9 849.540   3
  -5  13   3 11188.2 740.147   1
  -5  13   3 11147.1 865.913   2
   8 -13   3 13244.2 932.858   2
  -8  -5   3 12436.0 547.149   1
 -13   5   3 11508.3 713.871   4
   5   8   3 11336.7 760.721   1
  -8  -5   3 11262.0 736.634   3
   8 -13   3 10719.5 685.536   4
  13  -8   3 12513.9 775.893   4
  -5  13   3 12555.6 834.548   4
   8 -13   3 13559.3 646.483   3
  13  -8   3 11259.7 915.596   3
  13  -8   3 11997.4 733.544   2
   8 -13   6 4874.74 759.213   1
 -13   5   6 4230.54 482.371   4
 -13   5   6 4142.37 337.546   1
  13  -8   6 3979.22 661.412   1
  -5  13   6 4583.27 595.240   1
  -8  -5   6 4587.92 465.824   4
   8 -13   6 2751.63 539.541   3
   5   8   6 4792.51 650.876   1
   8 -13   6 4521.66 642.940   2
  13  -8   6 3904.45 388.774   2
  -8  -5   6 4608.37 493.968   1
  -5  13   6 3908.44 581.421   2
 -13   5   6 4606.11 679.517   3
  -8  -5   6 4850.84 607.614   3
   8 -13   6 4341.57 427.954   4
  -5  13   9 5274.10 744.604   1
   8 -13   9 5241.17 679.646   2
   8 -13   9 5978.76 946.997   1
  -8  -5   9 5095.28 885.077   2
   5   8   9 5526.80 814.909   1
  -8  -5   9 5382.45 661.788   1
  13  -8   9 5714.87 902.965   1
 -13   5   9 6056.70 618.885   1
 -13   5   9 5252.24 839.187   3
  -8  -5   9 5851.12 815.539   3
   8 -13  12 940.489 798.844   1
  13  -8  12 1382.68 751.051   1
  -5  13  12 2159.27 725.571   1
   5   8  12 2795.87 831.340   1
 -13   5  12 948.318 660.017   3
  -8  -5  12 1743.45 722.111   3
   7 -13 -10 4842.06 514.635   4
  -7  -6 -10 6160.25 635.037   4
 -13   6  -7 187.815 259.882   4
   7 -13  -7 150.913 275.353   2
  -7  -6  -7 121.043 262.814   4
   7 -13  -7-57.7988 246.650   4
  -6  13  -7 417.356 239.884   4
  13  -7  -7 168.549 255.390   1
 -13   6  -7 315.090 127.210   2
   7 -13  -4 23039.5 1068.19   4
  13  -7  -4 24044.6 1028.58   4
 -13   6  -4 22795.6 1377.17   3
  -6  13  -4 24270.0 1010.49   4
  -7  -6  -4 23633.2 1143.69   4
  -7  -6  -4 23555.1 975.260   2
 -13   6  -4 23367.8 1037.30   4
   7 -13  -4 23033.2 1139.79   2
 -13   6  -4 23868.0 977.184   2
  13  -7  -4 23524.7 618.809   1
 -13   6  -1 8820.20 680.475   2
   6   7  -1 8905.74 521.140   1
  13  -7  -1 8497.63 735.014   2
  -7  -6  -1 8491.93 588.710   1
   7 -13  -1 7992.91 582.836   1
  -6  13  -1 8533.49 766.057   2
   7 -13  -1 8470.17 651.269   4
 -13   6  -1 8308.79 624.792   4
  13  -7  -1 7065.49 598.787   4
  -7  -6  -1 7683.12 673.257   2
  -7  -6  -1 8932.70 729.151   3
  -6  13  -1 9438.15 680.810   4
   6   7  -1 8630.30 564.425   3
  13  -7  -1 8238.35 647.671   3
   7 -13  -1 7368.72 705.377   2
 -13   6  -1 8473.23 800.502   3
  13  -7   2 18896.1 933.127   2
  13  -7   2 18241.8 900.819   1
  -7  -6   2 18681.8 716.961   1
   7 -13   2 17820.9 888.305   4
  -6  13   2 17719.0 1055.41   2
   6   7   2 15497.2 817.965   1
 -13   6   2 17590.0 1029.71   2
   7 -13   2 17577.9 504.703   3
 -13   6   2 18085.8 896.542   4
   7 -13   2 17605.3 1085.98   2
  -6  13   2 17627.7 951.996   4
  -6  13   2 17923.2 727.337   3
   6   7   2 18236.5 1056.37   3
  -7  -6   2 19208.8 926.982   3
  13  -7   2 17736.6 1076.53   3
 -13   6   2 17104.4 986.129   3
  -6  13   2 18610.9 888.043   1
 -13   6   5 7420.62 359.563   1
  13  -7   5 6643.77 504.138   2
  -6  13   5 5632.20 666.181   2
  -7  -6   5 5727.78 519.746   4
  -6  13   5 7243.17 649.267   1
   7 -13   5 6433.88 529.897   4
  13  -7   5 7218.57 792.819   1
   7 -13   5 7264.99 749.367   2
   7 -13   5 6360.39 595.653   3
 -13   6   5 7342.38 757.726   3
  -7  -6   5 7645.59 685.109   3
   6   7   5 6154.51 701.341   1
 -13   6   5 6493.44 571.319   4
  -7  -6   8 8488.49 479.166   4
  -7  -6   8 7790.93 771.782   1
   6   7   8 8552.93 941.906   1
  -7  -6   8 8267.78 1013.88   2
 -13   6   8 8452.62 643.900   1
 -13   6   8 5970.33 536.131   4
   7 -13   8 9943.61 1071.40   1
   7 -13   8 7765.22 489.683   4
  13  -7   8 8407.70 999.704   1
 -13   6   8 7819.53 902.794   3
  -7  -6   8 8433.16 837.868   3
   7 -13   8 9283.91 871.753   2
  -6  13   8 8661.07 875.095   1
  -7  -6  11 1292.60 535.643   1
  13  -7  11 1802.09 710.471   1
  -7  -6  11 1007.54 628.178   2
  -6  13  11 526.730 501.397   1
  -7  -6  11 1171.23 592.125   3
   6   7  11 384.486 523.377   1
   7 -13  11-43.8761 617.016   1
 -13   6  11 840.365 612.821   3
   6 -13  -8 7605.89 715.458   2
  -7  13  -8 5935.60 456.707   4
   6 -13  -8 7751.37 670.032   4
  -6  -7  -8 6200.47 648.966   4
  13  -6  -5 7352.35 400.098   1
  -7  13  -5 8432.95 600.435   4
  -6  -7  -5 7899.54 531.120   2
   6 -13  -5 7976.70 663.142   4
 -13   7  -5 7251.24 562.836   2
   6 -13  -5 8009.63 700.078   2
 -13   7  -5 7551.76 613.237   4
 -13   7  -5 6671.96 831.993   3
  -6  -7  -5 7183.93 676.621   4
  -6  -7  -2 20345.3 1061.58   4
  -6  -7  -2 21479.2 1033.56   2
  -7  13  -2 18776.3 915.341   4
  -6  -7  -2 19133.0 939.031   1
  -6  -7  -2 19578.7 1044.44   3
  -7  13  -2 18219.3 1120.01   2
 -13   7  -2 18895.3 928.342   4
   6 -13  -2 19968.9 979.388   4
  13  -6  -2 17037.8 874.703   4
   6 -13  -2 18848.0 904.046   1
   6 -13  -2 19141.8 1059.41   2
  13  -6  -2 19610.6 988.719   3
   7   6  -2 21042.5 877.797   3
 -13   7  -2 18572.8 925.871   2
 -13   7  -2 20151.2 1190.87   3
   6 -13   1 8851.35 645.001   4
  -7  13   1 7466.51 422.399   3
  13  -6   1 9127.55 703.549   2
  -6  -7   1 6978.67 626.226   4
  -7  13   1 7578.07 632.973   4
  -6  -7   1 8621.71 529.424   1
 -13   7   1 8299.31 636.016   4
  13  -6   1 8567.68 550.929   1
   7   6   1 7158.82 541.527   1
  -6  -7   1 8065.08 779.348   2
   6 -13   1 8750.35 835.198   2
 -13   7   1 8033.44 704.196   3
  -6  -7   1 7225.86 602.489   3
  13  -6   1 7611.28 677.424   3
   6 -13   1 9036.11 624.670   1
 -13   7   1 7264.58 686.631   2
  -7  13   1 8104.12 758.357   2
   7   6   1 8733.02 690.593   3
  13  -6   4 24639.6 961.380   2
 -13   7   4 23155.7 562.753   1
   6 -13   4 25382.1 935.930   3
  -7  13   4 23694.8 1054.58   1
  -6  -7   4 24534.2 1409.50   2
  -6  -7   4 22435.4 984.895   4
   6 -13   4 23948.6 982.210   4
   6 -13   4 21813.6 1221.63   2
  13  -6   4 21682.9 1157.87   1
 -13   7   4 22787.0 1013.55   4
  -7  13   4 24463.2 1311.51   2
 -13   7   4 25822.6 1265.98   3
  -6  -7   4 24236.7 1026.69   3
   7   6   4 21861.4 1107.52   1
  -6  -7   7 1066.82 362.196   3
 -13   7   7 662.978 265.308   1
   6 -13   7 1161.84 255.419   4
  13  -6   7 1443.72 497.394   1
   7   6   7 649.287 409.587   1
  -6  -7   7 1903.00 413.270   1
 -13   7   7 424.940 275.724   4
   6 -13   7 742.679 462.924   1
  -7  13   7 701.119 306.355   1
 -13   7   7 185.262 412.493   3
   6 -13   7 441.682 392.382   2
  -6  -7   7 892.679 249.259   4
  -6  -7   7 1467.53 521.494   2
  -6  -7  10 6438.09 927.006   2
  -6  -7  10 5244.09 827.272   3
 -13   7  10 7627.22 776.771   1
   6 -13  10 4950.11 687.430   2
  13  -6  10 7421.39 1042.99   1
  -6  -7  10 6004.66 804.313   1
   7   6  10 5295.29 925.679   1
  -7  13  10 7620.35 936.029   1
  -7  13  10 7879.92 1088.54   3
 -13   7  10 8124.15 1082.17   3
   6 -13  10 6214.20 930.828   1
   5 -13  -9 4093.90 516.817   4
  -5  -8  -9 4854.47 593.183   4
  -5  -8  -6 4385.31 384.028   2
 -13   8  -6 4202.26 439.460   2
  -8  13  -6 3669.64 438.345   4
  -5  -8  -6 4457.80 536.067   4
 -13   8  -6 3927.20 478.224   4
   5 -13  -6 3948.89 520.908   2
   5 -13  -6 3662.03 501.704   4
 -13   8  -3 11345.7 733.625   4
 -13   8  -3 12310.8 949.377   3
  -8  13  -3 10912.5 868.818   2
  -8  13  -3 10745.9 695.147   4
  -5  -8  -3 10688.3 797.482   4
  -5  -8  -3 10176.3 716.467   2
   5 -13  -3 11384.1 769.157   4
   5 -13  -3 9631.79 743.066   2
 -13   8  -3 10776.6 722.073   2
   8   5  -3 11873.5 714.861   3
  -5  -8   0 14845.1 880.068   4
   8   5   0 17431.1 709.829   1
  -8  13   0 17165.0 1048.40   2
  13  -5   0 18090.3 636.972   1
  -8  13   0 19129.9 624.367   3
   5 -13   0 16951.7 831.324   1
  -5  -8   0 18959.1 1087.37   2
   5 -13   0 14283.9 822.763   4
  -5  -8   0 18739.6 910.416   3
   5 -13   0 17478.4 1074.29   2
 -13   8   0 14828.4 824.609   4
  -8  13   0 17897.2 918.295   4
  -5  -8   0 18502.3 816.119   1
 -13   8   0 19010.9 1024.04   2
  13  -5   0 17278.2 963.921   3
   8   5   0 17695.5 918.203   3
 -13   8   0 18504.3 1024.58   3
  -8  13   3 27925.2 1353.42   2
  -5  -8   3 25356.3 1375.70   2
  -5  -8   3 27299.2 1115.32   4
   8   5   3 25186.2 1110.10   1
  -8  13   3 26087.3 1173.53   4
   5 -13   3 26048.2 1335.04   2
  -5  -8   3 27297.4 942.078   1
 -13   8   3 26346.7 1095.60   4
  13  -5   3 25570.1 1142.74   1
  -5  -8   3 26043.0 983.804   3
   5 -13   3 25226.4 724.565   3
   5 -13   3 25183.8 1033.68   4
  -8  13   3 25560.7 1025.32   1
 -13   8   3 26622.8 1232.32   3
  -8  13   3 28311.0 1078.56   3
   8   5   6 7877.87 839.215   1
   5 -13   6 8470.67 858.840   1
   5 -13   6 7681.96 716.962   3
  -5  -8   6 8553.65 931.932   2
   5 -13   6 9550.54 604.012   4
 -13   8   6 8505.72 664.530   4
   5 -13   6 9616.17 879.806   2
  -5  -8   6 8558.27 578.646   4
  13  -5   6 8730.92 876.007   1
  -8  13   6 8739.89 853.732   3
 -13   8   6 8950.53 883.345   3
  -5  -8   6 8027.17 706.343   3
  -5  -8   6 9666.09 784.924   1
 -13   8   6 9737.76 554.998   1
  -8  13   6 10069.3 790.929   1
  13  -5   9 1389.03 581.478   1
 -13   8   9 2284.88 437.322   1
   5 -13   9 2603.12 554.840   2
   8   5   9 3330.86 720.745   1
  -5  -8   9 1831.04 570.749   2
  -8  13   9 1138.58 565.244   3
  -5  -8   9 3049.61 590.015   3
  -5  -8   9 2997.50 570.092   1
 -13   8   9 1406.25 576.904   3
   5 -13   9 2197.69 683.585   1
  -8  13   9 3252.29 611.614   1
  -8  13  12 1947.00 638.683   1
 -13   8  12 1854.57 778.156   3
  13  -5  12 2280.67 906.917   1
   5 -13  12 3012.44 788.723   3
  -8  13  12 513.908 675.184   3
   5 -13  12 1501.59 739.566   1
  -5  -8  12 2158.37 720.195   3
   8   5  12 2262.70 802.627   1
  -5  -8  12 2281.64 704.958   1
  -4  -9 -10 3589.70 541.888   4
   4 -13 -10 3132.21 494.973   4
  -4  -9  -7 898.896 202.707   2
   4 -13  -7 1001.86 377.860   2
  -9  13  -7 641.330 260.303   4
   4 -13  -7 1221.78 353.702   4
 -13   9  -7 666.633 258.200   2
  -4  -9  -7 831.301 350.860   4
 -13   9  -7 826.461 310.649   4
  -4  -9  -4 17026.8 997.438   4
  -9  13  -4 15442.4 833.931   4
 -13   9  -4 16872.1 894.139   4
  -4  -9  -4 17290.4 904.592   2
  -9  13  -4 16140.5 1051.76   2
 -13   9  -4 18084.5 977.453   2
   4 -13  -4 20272.8 1033.41   4
   4 -13  -4 15656.1 935.676   2
 -13   9  -4 17081.3 1123.70   3
   9   4  -1 16951.4 887.090   3
   4 -13  -1 16114.8 835.122   1
 -13   9  -1 16327.5 875.697   4
  -4  -9  -1 17467.2 993.936   4
   4 -13  -1 15861.3 1057.74   2
   4 -13  -1 17553.3 947.017   4
  -9  13  -1 17852.8 917.114   4
  -4  -9  -1 17577.1 877.334   3
  -4  -9  -1 15919.6 986.039   2
  -4  -9  -1 15429.0 812.648   1
  13  -4  -1 15454.4 414.071   1
  -9  13  -1 16323.8 1026.37   2
 -13   9  -1 15703.3 936.091   2
  13  -4  -1 16948.9 961.735   3
   9   4  -1 16620.1 617.033   1
 -13   9  -1 15929.5 1006.59   3
  -9  13  -1 17216.6 685.548   3
  -4  -9   2 14605.6 719.256   1
  -4  -9   2 14193.0 850.091   4
 -13   9   2 13482.6 860.857   3
  -9  13   2 14083.5 742.307   1
  13  -4   2 12041.0 938.030   3
  -9  13   2 14189.8 706.712   3
  -4  -9   2 13778.1 1019.90   2
   4 -13   2 14389.0 813.697   4
 -13   9   2 13565.2 822.545   4
   9   4   2 14232.5 767.192   1
  13  -4   2 13719.8 769.361   1
   4 -13   2 14684.9 1020.35   2
  -9  13   2 13136.7 823.038   4
  -9  13   2 15092.9 1011.40   2
  -4  -9   2 14669.3 716.190   3
   9   4   2 14945.1 1027.37   3
  -9  13   5 3055.66 436.005   1
 -13   9   5 2361.03 287.075   1
   4 -13   5 2187.62 382.272   3
  -4  -9   5 2821.59 592.054   2
 -13   9   5 1911.65 498.314   3
   9   4   5 1584.41 406.016   1
   4 -13   5 2104.53 569.150   2
  -4  -9   5 2353.62 357.106   4
  -9  13   5 3087.61 499.753   3
  -4  -9   5 1792.49 363.117   3
   4 -13   5 2096.80 326.113   4
 -13   9   5 1771.73 374.271   4
  13  -4   5 2619.93 491.468   1
   4 -13   8 2553.32 281.085   4
  13  -4   8 2158.38 615.401   1
   9   4   8 2996.27 636.212   1
   4 -13   8 3040.67 604.968   2
 -13   9   8 2618.22 610.282   3
   4 -13   8 3255.58 687.621   1
  -4  -9   8 3032.90 628.456   2
  -4  -9   8 2284.26 260.072   4
 -13   9   8 3912.13 518.344   1
  -9  13   8 3056.81 699.171   3
  -9  13   8 1923.67 464.698   1
  -4  -9   8 2336.41 477.239   3
  -4  -9   8 2474.18 521.419   1
   9   4  11 1415.03 713.061   1
  -4  -9  11 1097.68 633.393   2
 -13   9  11 258.460 387.331   1
  13  -4  11 1157.77 674.500   1
  -9  13  11 194.407 631.223   3
   4 -13  11 536.021 526.293   3
  -9  13  11 592.708 564.773   1
   4 -13  11 246.052 585.991   1
  -4  -9  11 341.877 448.558   3
 -13   9  11 685.980 601.090   3
  -4  -9  11 278.016 484.422   1
   3 -13  -8 26653.9 1247.66   4
  -3 -10  -8 27509.4 1279.49   4
   3 -13  -8 23754.1 1098.23   2
   3 -13  -5 1868.42 415.149   4
 -13  10  -5 2206.38 390.752   2
  -3 -10  -5 2134.91 431.961   4
 -13  10  -5 2035.57 396.557   4
 -10  13  -5 2256.89 373.851   4
 -10  13  -5 1705.26 431.632   2
  -3 -10  -5 2479.43 380.772   2
   3 -13  -5 2695.28 430.220   2
 -10  13  -2 92176.0 1729.66   3
   3 -13  -2 91433.0 2147.03   4
  10   3  -2 85875.0 2017.07   3
 -13  10  -2 86152.6 2107.02   2
  -3 -10  -2 87568.4 2177.54   2
   3 -13  -2 86962.4 2334.00   2
  -3 -10  -2 92582.8 2231.31   4
 -10  13  -2 91230.7 2032.90   4
 -13  10  -2 91149.8 2042.00   4
 -10  13  -2 90648.2 2342.23   2
 -13  10  -2 88282.6 2298.39   3
  -3 -10   1 2831.49 358.467   3
  -3 -10   1 3375.95 483.113   4
 -13  10   1 1831.08 414.904   2
   3 -13   1 2407.80 374.872   1
 -10  13   1 2550.57 536.977   2
  -3 -10   1 3125.97 408.348   1
 -13  10   1 3265.19 451.312   4
 -10  13   1 2668.04 353.379   3
  10   3   1 2378.00 335.039   1
   3 -13   1 2616.18 513.919   2
  10   3   1 2677.15 477.033   3
   3 -13   1 3221.06 416.662   4
  13  -3   1 2965.34 339.984   1
 -10  13   1 3181.09 441.551   4
 -13  10   1 2963.00 467.725   3
  -3 -10   1 2377.86 486.991   2
  13  -3   1 2752.20 514.849   3
 -13  10   4 46867.9 1068.54   1
 -13  10   4 47486.7 1696.30   3
   3 -13   4 46927.7 1895.87   2
 -13  10   4 42651.9 1447.54   4
  -3 -10   4 46435.1 1411.70   4
   3 -13   4 44424.5 1368.60   4
 -10  13   4 47724.2 1391.33   1
 -10  13   4 45229.8 1548.15   3
  -3 -10   4 46858.2 1272.71   3
  13  -3   4 48034.9 1668.28   1
  10   3   4 44428.2 1602.38   1
   3 -13   4 47148.2 1013.80   3
  -3 -10   4 42381.6 1869.85   2
  13  -3   7-260.570 409.748   1
  10   3   7 336.116 461.178   1
  -3 -10   7 790.981 366.265   1
  -3 -10   7 477.325 233.802   4
   3 -13   7 1243.45 467.113   2
 -10  13   7-387.297 374.065   3
  -3 -10   7-385.961 364.364   2
   3 -13   7 877.076 449.325   1
  -3 -10   7 405.800 302.540   3
 -13  10   7 737.182 284.469   1
 -10  13   7 512.565 339.631   1
   3 -13   7 710.078 246.872   4
   3 -13   7 141.488 247.706   3
 -13  10   7 373.347 374.890   3
  10   3  10 24168.3 1728.35   1
   3 -13  10 21005.9 1702.43   1
   3 -13  10 24249.8 1539.60   2
  13  -3  10 21737.2 1666.54   1
 -13  10  10 22224.8 1285.50   1
  -3 -10  10 20422.7 1486.49   1
 -13  10  10 22519.4 1723.61   3
   3 -13  10 26135.9 1529.81   3
  -3 -10  10 21204.9 1575.15   2
 -10  13  10 19651.7 1600.62   3
  -3 -10  10 22395.6 1479.34   3
 -10  13  10 22994.0 1446.11   1
   2 -13  -9 2827.28 413.793   2
   2 -13  -9 3205.14 527.059   4
  -2 -11  -9 4080.86 581.504   4
   2 -13  -6 3723.82 524.340   4
 -11  13  -6 2226.60 392.054   4
 -11  13  -6 2296.94 475.082   2
 -13  11  -6 2742.79 423.887   4
  -2 -11  -6 3295.85 406.466   2
 -13  11  -6 3066.59 470.780   2
   2 -13  -6 2934.83 436.643   2
  -2 -11  -6 2056.01 431.707   4
 -13  11  -3 7647.37 737.762   3
 -11  13  -3 8165.90 625.297   3
   2 -13  -3 8768.00 717.271   4
 -13  11  -3 9198.27 691.794   4
 -11  13  -3 7550.41 622.623   4
  -2 -11  -3 8187.81 694.202   2
 -13  11  -3 9292.49 793.729   2
   2 -13  -3 6639.97 676.014   2
  -2 -11  -3 8878.86 741.270   4
 -11  13  -3 8320.58 763.008   2
  -2 -11   0 1682.10 292.597   3
   2 -13   0 1318.85 309.911   1
  13  -2   0 1748.43 230.505   1
 -11  13   0 1704.08 390.136   4
 -13  11   0 770.883 319.162   2
  -2 -11   0 1185.16 292.972   1
 -13  11   0 1203.65 330.687   4
  -2 -11   0 1324.12 331.391   4
   2 -13   0 1481.21 470.427   2
  11   2   0 1420.47 395.651   3
 -11  13   0 1262.75 276.557   3
  13  -2   0 1461.62 409.725   3
 -11  13   0 1223.31 428.884   2
 -13  11   0 1292.90 364.126   3
  -2 -11   0 432.070 321.363   2
   2 -13   0 951.960 335.753   4
  11   2   0 1622.89 268.262   1
   2 -13   3 5141.25 516.630   4
  -2 -11   3 4781.48 672.082   2
  11   2   3 4668.80 539.478   1
  -2 -11   3 3805.62 460.484   4
   2 -13   3 5014.39 276.428   3
   2 -13   3 4782.68 671.054   2
 -11  13   3 3920.89 481.714   3
 -11  13   3 5099.38 463.784   1
  -2 -11   3 5602.62 512.675   1
  13  -2   3 5097.67 553.736   1
  -2 -11   3 5051.56 400.085   3
 -13  11   3 5043.79 585.737   3
 -11  13   6 3335.69 473.362   1
 -13  11   6 3217.26 411.491   1
   2 -13   6 3211.81 604.198   2
  11   2   6 3517.02 594.094   1
   2 -13   6 3412.51 432.922   4
  -2 -11   6 2685.16 611.439   2
 -11  13   6 2801.96 554.355   3
   2 -13   6 3780.15 449.812   3
 -13  11   6 3319.34 598.314   3
  -2 -11   6 3038.41 431.952   3
  13  -2   6 3546.51 647.781   1
  -2 -11   6 2884.83 381.868   4
  11   2   9 6140.33 902.684   1
  13  -2   9 6997.54 986.075   1
  -2 -11   9 6977.41 819.564   3
  -2 -11   9 6301.50 880.367   1
   2 -13   9 5843.78 809.564   2
  -2 -11   9 7148.53 920.810   2
   2 -13   9 7225.28 989.819   1
 -11  13   9 7441.51 1015.70   3
   2 -13   9 6322.15 761.626   3
 -13  11   9 6920.11 1055.85   3
 -11  13   9 8330.37 861.217   1
 -13  11   9 7218.68 729.203   1
 -11  13  12 621.482 545.683   1
  13  -2  12-186.341 630.842   1
   2 -13  12 1439.64 619.397   3
  11   2  12 2193.53 883.948   1
   2 -13  12 1660.48 803.061   1
  -2 -11  12 1253.08 658.648   1
 -11  13  12-353.300 694.383   3
  -2 -11  12 645.406 609.328   3
 -13  11  12 1227.37 761.004   3
   1 -13 -10 3164.37 534.946   4
  -1 -12 -10 3519.84 547.603   4
 -12  13  -7 7929.14 771.687   2
   1 -13  -7 10909.5 870.324   4
 -12  13  -7 8159.59 644.977   4
 -13  12  -7 8395.13 665.114   4
  -1 -12  -7 10526.0 702.191   2
   1 -13  -7 12247.2 793.128   2
 -13  12  -7 9442.36 774.439   2
  -1 -12  -7 11328.9 879.749   4
   1 -13  -4 1883.27 417.106   2
 -12  13  -4 1808.61 391.668   4
 -13  12  -4 1647.38 416.645   3
 -12  13  -4 1329.15 349.975   3
  -1 -12  -4 2446.67 497.939   4
 -13  12  -4 1519.12 418.433   2
 -12  13  -4 1769.01 454.372   2
  -1 -12  -4 1902.72 439.147   2
   1 -13  -4 1783.04 422.480   4
  12   1  -1 13254.5 867.740   3
   1 -13  -1 14494.0 1026.43   2
 -13  12  -1 12831.2 921.873   2
  12   1  -1 14727.0 505.929   1
  -1 -12  -1 13350.7 914.544   4
  -1 -12  -1 14630.9 999.691   2
   1 -13  -1 15029.5 936.977   4
 -12  13  -1 14981.7 842.103   3
  13  -1  -1 13670.7 433.471   1
 -12  13  -1 15135.7 1032.31   2
 -13  12  -1 12456.1 835.547   3
   1 -13   2 4132.71 228.537   3
  -1 -12   2 5178.54 510.082   1
  12   1   2 5262.19 507.959   1
  -1 -12   2 5573.89 576.781   4
   1 -13   2 5910.74 724.001   2
 -13  12   2 4880.65 523.739   3
   1 -13   2 4451.84 518.180   4
  -1 -12   2 5503.59 686.448   2
  13  -1   2 5471.89 509.995   1
 -12  13   2 4686.55 484.270   3
  -1 -12   2 4928.24 353.294   3
   1 -13   5 1162.88 475.281   2
  12   1   5 964.597 387.215   1
 -13  12   5 1389.61 293.933   1
 -12  13   5 1371.27 395.547   3
  13  -1   5 863.628 354.510   1
  -1 -12   5 1368.37 294.713   4
   1 -13   5 2001.48 356.987   4
  -1 -12   5 1825.22 539.404   2
   1 -13   5 1463.19 273.295   3
  -1 -12   5 1387.77 295.537   3
 -12  13   5 1570.54 342.023   1
 -13  12   5 1712.85 451.139   3
 -12  13   8 878.234 358.271   1
  -1 -12   8 1563.75 594.036   2
 -13  12   8 1543.29 576.302   3
   1 -13   8 881.697 568.427   1
  13  -1   8 934.478 480.291   1
  -1 -12   8 674.326 454.265   1
 -13  12   8 1317.68 416.071   1
   1 -13   8 1042.24 496.877   2
  -1 -12   8 910.481 226.713   4
   1 -13   8 1346.50 240.305   4
  12   1   8 592.165 439.308   1
   1 -13   8 1222.51 405.644   3
 -12  13   8 1317.26 491.188   3
  -1 -12   8 961.841 382.069   3
  13  -1  11 1468.77 721.963   1
  -1 -12  11 1695.72 627.635   2
   1 -13  11 1272.65 601.385   2
 -12  13  11 1703.81 595.430   1
 -12  13  11 1885.62 763.228   3
  12   1  11 2578.89 790.152   1
  -1 -12  11 1495.15 650.442   1
   1 -13  11 2037.41 618.511   3
  -1 -12  11 2150.28 605.712   3
 -13  12  11 2013.89 792.536   3
 -13  12  11 2236.17 601.754   1
   1 -13  11 1233.09 777.764   1
   0 -13  -8 28692.7 1124.76   2
   0 -13  -8 26826.3 1337.66   4
 -13  13  -5-240.214 335.485   2
   0 -13  -5-71.0948 304.771   4
   0 -13  -5 342.613 282.950   2
   0 -13  -2 66327.8 2064.80   2
 -13  13  -2 66130.7 1875.70   3
 -13  13  -2 67493.6 2143.08   2
   0 -13  -2 64323.7 1928.44   4
   0 -13   1 46.0656 107.744   3
   0 -13   1 37.2306 374.050   2
  13   0   1 64.5114 180.683   1
   0 -13   1 178.065 275.453   4
 -13  13   1-98.9421 237.959   3
   0 -13   4 87351.8 2043.05   4
 -13  13   4 91363.1 1794.03   1
   0 -13   4 92720.9 1545.45   3
   0 -13   4 90814.2 2817.10   2
 -13  13   4 87362.8 2281.39   3
  13   0   4 89030.0 2297.11   1
 -13  13   7 541.186 303.906   1
   0 -13   7 295.332 430.909   2
  13   0   7 13.7916 364.784   1
   0 -13   7 415.480 509.592   1
   0 -13   7 418.232 246.013   4
 -13  13   7-854.610 449.550   3
   0 -13   7-134.586 272.684   3
   0 -13  10 27595.5 1891.60   1
   0 -13  10 26028.0 1723.71   2
 -13  13  10 27982.6 1937.94   3
 -13  13  10 27419.2 1481.12   1
   0 -13  10 26780.0 1563.20   3
  13   0  10 23562.0 1779.27   1
  14 -14  -8 1302.56 379.829   4
 -14   0  -5 95.8987 205.135   2
  14 -14  -5 145.639 380.073   2
 -14   0  -5-223.373 404.927   3
  14 -14  -5 147.006 279.595   1
  14 -14  -5 371.504 303.012   4
 -14   0  -2 6415.75 824.263   3
  14 -14  -2 6352.24 520.181   1
 -14   0  -2 7251.76 633.363   1
  14 -14  -2 5977.24 618.060   4
  14 -14  -2 5508.53 586.743   3
 -14   0  -2 7240.95 665.424   2
  14 -14  -2 7472.76 767.975   2
 -14   0   1-332.637 329.169   3
   0  14   1 49.0766 261.811   1
   0  14   1 149.988 209.708   3
  14 -14   1 204.715 304.068   4
  14 -14   1-141.654 284.440   2
  14 -14   1 134.229 244.713   3
 -14   0   1 44.3926 133.988   1
   0  14   4 937.386 398.065   1
  14 -14   4 579.203 363.147   3
  14 -14   4 1080.81 364.002   2
  14 -14   4 1426.11 434.072   1
  14 -14   4 667.294 281.048   4
 -14   0   4 650.941 350.638   3
 -14   0   7 139.848 196.656   1
  14 -14   7-78.3457 443.794   1
   0  14   7-390.608 385.995   2
   0  14   7 373.288 363.030   1
 -14   0   7 175.826 385.433   3
  14 -14   7-18.3517 349.859   2
   0  14  10 4738.65 810.452   1
 -14   0  10 5388.53 913.196   3
  14 -14  10 3227.49 894.958   1
 -14   1  -9 4851.33 652.144   4
  13 -14  -9 4933.88 576.281   4
  14 -13  -9 5395.14 591.509   4
 -13  -1  -9 5579.41 666.947   4
 -13  -1  -6 720.986 221.069   2
  14 -13  -6 963.523 369.817   1
  13 -14  -6 715.140 392.159   2
  14 -13  -6 1029.07 426.439   2
 -14   1  -6 596.057 192.916   2
  13 -14  -6 901.879 331.307   4
  14 -13  -6 700.228 346.740   4
 -13  -1  -6 688.667 182.782   2
 -14   1  -3 11751.7 757.173   2
  14 -13  -3 11420.0 810.164   4
 -14   1  -3 11985.2 1090.71   3
 -13  -1  -3 11086.2 1061.10   3
 -13  -1  -3 11767.8 773.217   2
  13 -14  -3 11831.8 854.946   4
  14 -13  -3 11187.3 638.677   1
  13 -14  -3 10306.6 669.395   1
  13 -14  -3 8782.06 844.860   2
  14 -13  -3 9927.33 878.924   2
 -14   1   0 2840.17 543.899   3
 -13  -1   0 2546.19 578.714   3
 -14   1   0 2943.91 310.910   1
  13 -14   0 3455.64 599.741   2
  13 -14   0 3023.68 463.411   4
  14 -13   0 2902.53 444.670   4
 -13  -1   0 2571.68 329.768   1
  13 -14   0 2528.37 363.822   1
  13 -14   0 3020.74 390.609   3
   1  13   0 2319.33 375.519   1
  14 -13   0 3012.57 390.672   3
   1  13   0 3061.83 313.416   3
  14 -13   0 2619.44 514.716   2
  -1  14   0 2741.45 258.697   3
  -1  14   0 2661.36 429.039   1
   1  13   3 2935.41 494.571   3
   1  13   3 3321.05 507.466   1
  -1  14   3 3075.87 500.547   3
  -1  14   3 2355.61 418.640   1
  14 -13   3 2170.56 441.615   3
 -14   1   3 3110.50 542.665   3
  14 -13   3 2795.81 483.703   2
   1  13   3 2146.29 483.868   2
  13 -14   3 2738.05 417.623   4
  14 -13   3 2758.79 419.416   4
 -13  -1   3 2125.00 151.442   1
  13 -14   3 3600.08 557.898   2
 -13  -1   3 3919.46 598.702   3
  13 -14   3 2976.32 467.509   3
 -13  -1   6 957.766 228.407   1
   1  13   6 1199.87 400.606   2
 -14   1   6 1038.20 161.683   1
 -13  -1   6 1039.60 461.966   3
   1  13   6 1519.85 510.093   1
  -1  14   6 990.441 411.662   2
 -14   1   6 692.734 438.146   3
  13 -14   6 1080.49 313.762   4
  -1  14   6 1036.13 425.749   1
  13 -14   6 968.879 499.359   1
  14 -13   6 1131.13 340.794   4
  13 -14   6 954.316 354.924   2
  14 -13   6 1400.18 501.992   1
  14 -13   6 758.739 354.036   2
 -14   1   9 2772.45 418.521   1
   1  13   9 776.732 493.735   1
 -14   1   9 2050.70 671.016   3
  -1  14   9 2605.79 582.987   1
 -13  -1   9 3367.73 493.621   1
 -13  -1   9 2891.74 679.633   3
  13 -14   9 4727.21 881.557   1
  14 -13   9 2673.61 748.471   1
  13 -14   9 2860.96 500.140   2
  12 -14 -10 6408.26 625.283   4
 -12  -2 -10 6462.11 713.262   4
 -14   2 -10 6246.02 673.493   4
  12 -14  -7 12694.3 1056.40   2
 -12  -2  -7 11481.4 934.113   4
  12 -14  -7 12856.1 862.584   4
  14 -12  -7 12812.6 833.674   4
  14 -12  -4 7071.08 753.939   2
  14 -12  -4 7542.98 545.498   1
 -12  -2  -4 7266.84 565.816   2
  12 -14  -4 7331.52 613.299   1
 -14   2  -4 7212.32 559.575   2
 -14   2  -4 7584.11 908.786   3
 -12  -2  -4 8115.80 868.608   3
  14 -12  -4 6693.53 619.469   4
  -2  14  -4 6448.14 617.340   4
  12 -14  -4 8254.27 791.430   2
  12 -14  -4 7613.98 678.862   4
 -14   2  -1 30294.9 1565.76   3
 -14   2  -1 27473.5 989.093   1
  14 -12  -1 27353.1 1323.35   2
  14 -12  -1 27172.7 910.082   1
  14 -12  -1 29850.4 1250.70   4
  14 -12  -1 28298.0 1130.31   3
  12 -14  -1 28822.8 1238.26   4
 -12  -2  -1 26074.6 1420.84   3
 -12  -2  -1 27686.7 1038.92   1
  12 -14  -1 27355.2 986.532   3
   2  12  -1 28216.6 753.291   3
  12 -14  -1 26996.5 1020.74   1
  12 -14  -1 27547.1 1334.90   2
 -14   2  -1 24617.3 1165.77   2
  -2  14   2 17896.1 945.326   1
 -12  -2   2 16292.0 532.073   1
   2  12   2 17114.1 950.879   3
  14 -12   2 16456.0 1001.13   2
   2  12   2 16654.5 1085.57   2
   2  12   2 17101.4 939.096   1
  -2  14   2 16402.1 842.190   3
  12 -14   2 18154.2 985.715   4
  14 -12   2 16983.5 939.953   4
 -14   2   2 17683.6 1086.61   3
  12 -14   2 17163.7 1069.53   2
  14 -12   2 16993.4 951.798   3
  12 -14   2 16848.5 799.837   3
 -12  -2   2 17965.7 1070.81   3
  12 -14   5 31686.6 1474.80   3
  14 -12   5 32433.6 1600.40   1
 -12  -2   5 31838.9 1520.40   3
   2  12   5 32617.7 1496.90   1
  12 -14   5 34712.0 1669.78   1
 -12  -2   5 32318.0 865.896   1
  -2  14   5 30074.0 1426.16   2
  12 -14   5 33499.0 1267.58   4
 -12  -2   5 31571.4 1239.16   4
  14 -12   5 33765.9 1319.55   4
  12 -14   5 34684.0 1485.04   2
  14 -12   5 30252.7 1260.17   2
 -14   2   5 35107.6 1618.30   3
  -2  14   5 32969.1 1461.48   1
   2  12   5 33690.4 1396.58   2
 -12  -2   5 31749.4 752.292   1
 -14   2   8 17867.7 810.105   1
  12 -14   8 20407.2 1556.40   1
 -14   2   8 19277.2 1425.80   3
 -12  -2   8 17925.7 1335.48   3
 -12  -2   8 17637.5 903.806   4
  -2  14   8 18239.8 1297.48   1
  14 -12   8 17082.6 895.534   2
  12 -14   8 17455.2 1055.41   2
  14 -12   8 18750.5 1528.57   1
 -12  -2   8 18385.0 943.914   1
   2  12   8 18668.4 1346.34   1
  14 -12  11 8163.36 1236.03   1
 -12  -2  11 8599.23 1217.75   2
   2  12  11 7959.75 1080.12   1
  -2  14  11 6763.50 1010.56   1
 -14   2  11 7253.74 1140.94   3
 -12  -2  11 8414.38 1169.15   3
  12 -14  11 10679.7 1380.55   1
  11 -14  -8 1154.53 377.626   4
  11 -14  -8 1662.04 530.701   2
  14 -11  -8 1022.61 319.189   4
 -11  -3  -8 1965.56 454.901   4
 -11  -3  -5 4474.84 428.578   2
 -11  -3  -5 4990.61 428.757   2
  14 -11  -5 4430.86 668.778   2
  -3  14  -5 5146.95 552.130   4
 -14   3  -5 4251.51 808.717   3
 -11  -3  -5 4585.76 683.892   3
  14 -11  -5 4101.55 513.703   4
  11 -14  -5 4728.46 540.629   4
 -14   3  -5 4975.30 435.498   2
  14 -11  -5 5313.80 473.562   1
  11 -14  -5 4271.41 606.819   2
 -14   3  -2 12427.3 790.709   2
  11 -14  -2 13005.7 927.334   2
 -14   3  -2 12599.2 1078.83   3
 -11  -3  -2 14833.2 1109.79   3
  11 -14  -2 14145.3 774.219   1
 -11  -3  -2 14095.0 838.149   1
  14 -11  -2 13532.1 595.951   1
  -3  14  -2 13383.8 850.823   4
  11 -14  -2 13268.9 867.840   4
  14 -11  -2 14286.6 989.430   2
  14 -11  -2 12789.2 824.483   4
  14 -11  -2 12174.0 821.774   3
   3  11  -2 14590.2 584.054   3
 -14   3  -2 14551.4 813.071   1
  -3  14   1 5947.43 418.407   3
 -11  -3   1 5821.88 398.190   1
   3  11   1 5596.13 650.415   2
  -3  14   1 5723.65 575.672   1
  14 -11   1 5770.96 569.893   3
  11 -14   1 5734.94 572.986   4
  14 -11   1 4992.74 519.348   4
  11 -14   1 6321.31 671.612   2
  11 -14   1 5275.69 405.826   3
 -11  -3   1 5424.31 617.928   3
   3  11   1 5307.41 509.428   1
   3  11   1 5846.93 532.267   3
 -14   3   1 6407.37 687.939   3
  14 -11   1 5107.94 572.955   2
  -3  14   4 11502.8 826.509   1
  -3  14   4 9351.40 831.847   2
 -11  -3   4 9395.23 843.049   3
 -11  -3   4 10149.3 442.147   1
   3  11   4 10530.9 815.602   2
  11 -14   4 10256.1 833.057   2
 -14   3   4 9570.08 856.591   3
  11 -14   4 11407.8 762.780   4
  14 -11   4 10138.0 743.437   4
  14 -11   4 9745.47 847.794   1
  14 -11   4 11238.7 780.995   2
   3  11   4 9927.17 805.256   1
  11 -14   4 9150.02 717.735   3
  11 -14   7 3447.77 531.718   2
 -14   3   7 2900.51 619.857   3
 -11  -3   7 4043.84 481.296   1
  -3  14   7 2994.86 627.768   1
 -14   3   7 3221.92 318.249   1
  11 -14   7 3281.35 672.653   1
 -14   3   7 2499.06 433.357   4
  14 -11   7 4410.42 784.072   1
  -3  14   7 2520.05 511.432   2
   3  11   7 3514.84 633.968   1
  11 -14   7 2393.94 355.657   4
 -11  -3   7 3046.51 413.652   4
 -11  -3   7 3341.50 595.480   3
  14 -11   7 3269.75 440.967   2
  -3  14  10 3648.85 687.622   1
  11 -14  10 3298.85 865.693   1
 -11  -3  10 4609.58 842.740   3
 -14   3  10 4234.85 814.046   3
  14 -11  10 2822.68 803.897   1
 -11  -3  10 3309.80 598.938   1
   3  11  10 3300.13 758.398   1
 -10  -4  -9 3264.46 530.890   4
  10 -14  -9 2641.63 432.379   4
  10 -14  -6 705.451 334.314   2
 -10  -4  -6 24.8680 110.811   2
  -4  14  -6 155.335 266.607   4
 -10  -4  -6 174.674 289.339   4
  10 -14  -6 49.8853 251.458   4
  14 -10  -6 538.365 299.940   4
  14 -10  -6-58.0772 237.217   1
 -14   4  -6 257.067 200.053   2
 -10  -4  -6 309.196 151.558   2
  14 -10  -3 6133.43 394.164   1
  10 -14  -3 5854.95 594.484   4
  14 -10  -3 5115.49 634.166   2
  10 -14  -3 6488.52 571.796   1
 -14   4  -3 6228.86 837.346   3
 -10  -4  -3 5422.47 554.670   2
  10 -14  -3 5980.03 663.196   2
  -4  14  -3 6213.62 588.032   4
  14 -10  -3 6013.29 577.099   4
 -14   4  -3 5836.52 536.125   2
 -14   4  -3 5837.55 608.652   1
   4  10  -3 4668.01 413.282   3
 -10  -4  -3 5285.75 709.394   3
   4  10   0 1770.58 312.465   3
 -10  -4   0 1702.08 288.458   1
  10 -14   0 1158.28 381.934   2
  14 -10   0 998.045 322.683   2
 -14   4   0 919.156 297.227   2
  10 -14   0 1387.47 367.440   4
   4  10   0 1031.12 287.054   1
  14 -10   0 979.258 302.183   4
 -10  -4   0 824.329 365.103   3
  -4  14   0 1081.83 128.766   3
  10 -14   0 1399.85 224.193   3
  10 -14   0 1686.25 318.206   1
  -4  14   0 1181.94 107.775   3
  14 -10   0 1663.96 365.531   3
 -14   4   0 1359.32 442.979   3
  14 -10   3 4502.68 517.203   4
 -10  -4   3 5752.71 359.821   1
  14 -10   3 5184.93 651.282   3
   4  10   3 5391.27 700.314   3
  14 -10   3 6998.09 675.484   1
  14 -10   3 6329.49 616.525   2
  -4  14   3 4853.65 541.328   1
  10 -14   3 6214.43 583.461   4
 -14   4   3 4911.53 530.071   4
 -14   4   3 6821.38 690.300   3
  -4  14   3 4303.93 612.603   2
   4  10   3 5652.50 586.248   1
  10 -14   3 5837.78 666.594   2
  10 -14   3 5752.88 475.190   3
 -10  -4   3 5910.07 613.243   3
 -10  -4   6 1116.42 294.114   1
  14 -10   6 1313.04 295.405   2
  14 -10   6 1586.12 476.901   1
 -14   4   6 1099.54 349.798   4
   4  10   6 1936.05 554.875   1
 -10  -4   6 1919.80 500.349   3
  10 -14   6 2040.60 516.385   1
  -4  14   6 1388.96 459.053   1
  10 -14   6 1616.22 337.842   4
 -14   4   6 1382.63 182.749   1
 -10  -4   6 1578.51 332.831   4
  -4  14   6 1593.13 487.538   2
  10 -14   6 1483.16 442.063   2
 -14   4   6 2288.69 564.118   3
  10 -14   9 7014.92 1036.50   1
 -10  -4   9 8697.09 1001.87   3
 -10  -4   9 7902.26 771.204   1
 -14   4   9 7194.29 616.462   1
   4  10   9 7010.26 942.332   1
  10 -14   9 6813.21 723.100   2
  14 -10   9 6532.97 980.428   1
 -14   4   9 6311.96 920.472   3
  -4  14   9 7350.46 868.932   1
  -4  14  12-226.744 563.306   1
  14 -10  12 546.418 693.062   1
  10 -14  12 1248.01 751.777   1
   4  10  12 272.875 642.698   1
  -9  -5 -10 1401.06 425.756   4
   9 -14 -10 1087.40 353.755   4
   9 -14  -7 16159.5 1099.83   2
  14  -9  -7 15452.0 845.353   1
  -9  -5  -7 16051.1 1021.26   4
   9 -14  -7 15951.4 956.404   4
  14  -9  -7 16119.0 888.055   4
  -5  14  -7 14843.8 794.171   4
 -14   5  -4 3950.88 687.468   3
  -9  -5  -4 4001.26 565.298   4
  -9  -5  -4 3899.96 656.902   3
  14  -9  -4 3346.90 573.109   2
  -5  14  -4 3160.27 438.631   4
   9 -14  -4 4408.62 535.302   4
  14  -9  -4 4179.15 495.911   4
  14  -9  -4 3715.92 310.791   1
 -14   5  -4 3264.94 412.973   2
   9 -14  -4 3711.90 550.530   2
  -9  -5  -4 3920.75 448.551   2
  -9  -5  -1 18147.1 856.757   1
  -9  -5  -1 18746.9 1115.73   3
   5   9  -1 18573.5 785.377   3
 -14   5  -1 18361.9 1176.49   3
  -5  14  -1 19546.2 1014.60   4
  14  -9  -1 17688.2 957.453   4
   9 -14  -1 17049.8 845.969   1
   5   9  -1 17466.2 795.981   1
   9 -14  -1 18493.2 977.612   4
   9 -14  -1 18439.7 1100.45   2
  14  -9  -1 18023.8 1066.48   2
  14  -9  -1 17431.4 954.540   3
 -14   5  -1 17669.2 961.389   2
  14  -9   2 17573.6 948.920   2
   5   9   2 15696.8 963.609   3
   9 -14   2 16817.1 1090.71   2
 -14   5   2 16051.1 881.361   4
  -5  14   2 15547.6 1034.23   2
   9 -14   2 16570.8 911.072   4
  14  -9   2 16291.6 879.256   1
 -14   5   2 15369.2 1015.86   3
  14  -9   2 16844.1 925.450   4
  -9  -5   2 16997.6 652.744   1
   9 -14   2 17153.3 610.085   3
  -5  14   2 15183.2 853.485   1
  -9  -5   2 17506.3 960.959   3
   5   9   2 16769.4 882.186   1
  14  -9   2 18217.1 1064.14   3
  -5  14   5 23703.7 1181.72   1
   9 -14   5 24358.1 1158.65   3
 -14   5   5 18891.8 1285.00   3
  -9  -5   5 22867.8 1053.49   4
  -5  14   5 20915.2 1204.29   2
  -9  -5   5 25037.9 979.062   1
   9 -14   5 24547.1 1313.91   2
 -14   5   5 23222.4 1066.13   4
  -9  -5   5 24677.4 1208.70   3
  14  -9   5 24169.6 1371.13   1
   5   9   5 24059.8 1273.87   1
   9 -14   5 22666.1 996.815   4
  14  -9   5 25615.7 1038.25   2
  14  -9   8 8825.78 1053.98   1
   9 -14   8 9378.45 1093.12   1
  -9  -5   8 9775.20 954.920   3
  -9  -5   8 8477.89 559.168   4
  14  -9   8 5887.33 407.629   2
   9 -14   8 7516.16 778.824   2
   9 -14   8 8256.60 565.785   4
  -9  -5   8 8528.68 764.038   1
   5   9   8 7107.62 903.192   1
 -14   5   8 9330.74 613.780   1
  -5  14   8 6793.64 785.390   1
 -14   5   8 8393.61 979.348   3
   9 -14  11 9241.53 1287.98   1
  -9  -5  11 9408.34 1285.39   2
  -5  14  11 10455.1 1169.39   1
  14  -9  11 6691.38 1127.35   1
   5   9  11 10718.8 1287.92   1
  -9  -5  11 9734.20 1175.23   3
  -9  -5  11 10292.0 1010.26   1
 -14   5  11 8459.36 1159.50   3
   8 -14  -8 2478.79 442.755   4
   8 -14  -8 2660.33 540.742   2
  -8  -6  -8 3167.18 535.725   4
   8 -14  -5 15098.4 933.825   4
 -14   6  -5 13973.2 1128.08   3
  14  -8  -5 14312.2 580.074   1
  14  -8  -5 14726.4 855.937   4
  -6  14  -5 14468.2 814.071   4
  -8  -6  -5 14345.6 967.174   4
   8 -14  -5 17048.8 1051.06   2
  -8  -6  -5 16429.8 778.216   2
 -14   6  -5 14275.0 770.091   2
 -14   6  -2-298.145 381.527   3
  -8  -6  -2 362.655 266.774   2
  -6  14  -2-161.688 240.978   4
  -8  -6  -2 492.732 344.998   3
  14  -8  -2 147.657 266.184   2
   6   8  -2 216.340 182.960   3
   8 -14  -2 180.683 241.215   4
   8 -14  -2 434.631 287.378   2
  -8  -6  -2 158.354 272.520   1
  14  -8  -2 430.420 279.242   4
   8 -14  -2 683.191 289.832   1
 -14   6  -2 134.318 256.929   2
  14  -8  -2 29.3673 100.007   1
  14  -8   1 52995.4 1671.03   2
   6   8   1 54074.8 1423.16   1
  14  -8   1 53239.6 1696.97   3
  14  -8   1 54518.0 1609.39   4
  14  -8   1 52358.1 1371.56   1
  -6  14   1 53344.4 1881.15   2
   8 -14   1 56769.0 1926.74   2
  -8  -6   1 51423.9 1221.65   1
   8 -14   1 54207.4 1528.47   1
   8 -14   1 48515.2 768.130   3
  -6  14   1 55535.4 1042.60   3
   8 -14   1 52313.4 1570.33   4
 -14   6   1 51695.1 1533.72   4
 -14   6   1 51037.1 1737.36   3
  -6  14   1 53372.1 1511.08   1
  -8  -6   1 53458.3 1663.22   3
   6   8   1 51702.3 1577.36   3
 -14   6   1 51721.4 1742.23   2
  14  -8   4 8919.79 646.559   2
 -14   6   4 8006.48 784.689   3
  14  -8   4 9660.13 830.511   1
  -6  14   4 8409.54 690.341   1
  -8  -6   4 9652.29 547.234   1
  -8  -6   4 9481.78 702.763   4
   6   8   4 8358.25 703.799   1
   8 -14   4 8367.92 631.139   4
 -14   6   4 9200.91 695.106   4
   8 -14   4 9330.23 864.146   2
   8 -14   4 8663.26 620.728   3
  -8  -6   4 8710.70 713.529   3
  14  -8   7 3330.14 637.144   1
 -14   6   7 2306.46 414.158   4
  -8  -6   7 3418.25 388.379   4
   8 -14   7 2936.04 629.587   1
  14  -8   7 2550.46 303.550   2
 -14   6   7 3452.46 359.463   1
  -8  -6   7 4042.98 780.173   2
  -8  -6   7 3577.51 417.650   4
  -8  -6   7 3472.67 494.951   1
 -14   6   7 2604.86 586.521   3
  -8  -6   7 2301.50 472.534   3
   8 -14   7 4264.66 676.137   2
   8 -14   7 3201.07 386.810   4
   6   8   7 2813.02 606.211   1
  -6  14   7 3713.08 607.780   1
  14  -8  10 1635.43 654.933   1
  -6  14  10 2229.69 604.106   1
  -8  -6  10 1842.26 667.262   2
   6   8  10 986.530 515.593   1
   8 -14  10 548.520 573.180   1
   8 -14  10 1202.56 487.284   2
 -14   6  10 1834.55 653.262   3
  -8  -6  10 762.741 475.197   3
 -14   6  10 984.087 376.153   1
  -8  -6  10 1404.12 480.593   1
   7 -14  -9 2099.24 441.873   4
  -7  -7  -9 2453.27 463.055   4
  14  -7  -6 2195.58 301.861   1
  -7  14  -6 1822.81 363.352   4
   7 -14  -6 1598.36 426.332   2
  -7  -7  -6 2426.23 489.658   4
 -14   7  -6 2381.99 344.498   2
   7 -14  -6 1846.10 395.926   4
  -7  -7  -6 2120.75 285.545   2
  -7  -7  -3 19030.1 978.701   2
 -14   7  -3 20032.1 1274.57   3
 -14   7  -3 21555.9 1016.46   2
  14  -7  -3 21232.8 1021.09   4
  -7  -7  -3 20032.9 1209.25   3
  -7  -7  -3 18911.2 1053.33   4
  -7  14  -3 19185.6 951.878   4
   7 -14  -3 19990.4 1036.27   4
   7   7  -3 18840.7 875.043   3
   7 -14  -3 18924.7 1088.52   2
 -14   7   0 2132.67 434.604   3
   7 -14   0 2380.12 534.674   2
 -14   7   0 2164.55 405.704   2
  -7  -7   0 2626.04 444.708   3
 -14   7   0 1857.35 370.322   4
   7 -14   0 3027.13 471.227   4
  14  -7   0 2252.68 441.120   2
  14  -7   0 1629.88 361.968   4
  -7  -7   0 2535.72 460.355   4
  14  -7   0 2356.51 427.322   3
  -7  -7   0 1897.04 450.009   2
  -7  14   0 1979.35 363.256   4
   7   7   0 2406.87 340.629   1
  -7  14   0 1750.27 446.238   2
   7 -14   0 2017.24 349.414   1
  14  -7   0 2520.99 280.039   1
  -7  14   0 2579.63 217.655   3
  -7  -7   0 2651.27 368.364   1
   7   7   0 2561.66 418.093   3
  14  -7   3 20779.3 1072.79   1
  14  -7   3 21006.3 977.846   2
  -7  14   3 21340.6 995.597   1
  -7  -7   3 17621.4 942.718   4
  -7  14   3 21637.5 929.211   3
   7 -14   3 22196.8 1272.81   2
   7 -14   3 20037.8 674.325   3
 -14   7   3 19169.3 960.578   4
  -7  -7   3 22124.7 1008.54   3
   7   7   3 20519.3 1012.03   1
  -7  -7   3 20896.7 807.555   1
 -14   7   3 20553.9 1159.03   3
   7 -14   3 20840.7 977.284   4
   7 -14   6 2651.47 595.032   1
   7 -14   6 1385.15 446.488   3
  -7  -7   6 1773.70 344.490   4
  14  -7   6 1336.54 478.381   1
  -7  -7   6 1861.63 520.125   2
   7   7   6 1513.94 450.231   1
  -7  -7   6 1607.64 371.717   1
  -7  14   6 2255.96 452.668   1
  -7  -7   6 2237.93 436.778   3
 -14   7   6 1341.83 343.172   4
   7 -14   6 1682.64 313.898   4
   7 -14   6 2075.87 491.990   2
 -14   7   6 2391.41 536.635   3
 -14   7   6 2098.24 272.759   1
  14  -7   9 4104.89 796.861   1
 -14   7   9 3120.24 470.825   1
   7 -14   9 3972.03 672.128   2
   7 -14   9 3750.30 798.710   1
  -7  14   9 4355.30 704.141   1
  -7  -7   9 2903.01 573.352   1
 -14   7   9 1825.88 664.162   3
  -7  -7   9 3064.77 627.557   3
   7   7   9 2487.97 696.784   1
  -7  -7   9 3375.57 736.753   2
  -7  -7  12 893.434 698.568   3
  14  -7  12-620.288 805.949   1
  -7  14  12-280.572 526.799   1
   7 -14  12 4.04011 679.906   1
  -7  -7  12-210.872 518.946   1
  -7  14  12 1126.86 778.897   3
   7   7  12 471.148 586.892   1
 -14   7  12-573.207 652.267   3
  -6  -8 -10 1538.07 433.503   4
   6 -14 -10 1112.15 367.221   4
  -6  -8  -7 3996.63 565.619   4
  -8  14  -7 3576.92 437.304   4
   6 -14  -7 3871.30 516.002   4
  -6  -8  -7 3550.92 278.294   2
 -14   8  -7 2760.68 357.470   2
   6 -14  -7 3965.82 558.983   2
 -14   8  -4 8429.58 875.354   3
  -6  -8  -4 9098.18 784.644   4
  -6  -8  -4 10167.2 705.320   2
   6 -14  -4 9590.99 750.940   4
   6 -14  -4 10274.5 821.209   2
  -8  14  -4 9848.02 693.745   4
   8   6  -4 8885.53 681.453   3
 -14   8  -4 10081.9 723.613   2
  -6  -8  -1 52069.5 1690.03   4
  -6  -8  -1 53062.1 1651.36   3
  -8  14  -1 49975.7 1813.10   2
  -6  -8  -1 51300.0 1748.29   2
   8   6  -1 49650.4 1164.53   1
  -8  14  -1 51195.8 1554.94   4
 -14   8  -1 53950.8 1675.24   2
   6 -14  -1 50302.8 1475.05   1
   8   6  -1 49008.3 1452.48   3
   6 -14  -1 53411.0 1633.06   4
  -8  14  -1 51568.8 932.255   3
 -14   8  -1 52476.4 1563.84   4
   6 -14  -1 55034.0 1877.66   2
  14  -6  -1 52456.6 890.443   1
  -6  -8  -1 53377.5 1476.27   1
  14  -6  -1 51001.0 1635.65   3
 -14   8  -1 50556.8 1820.85   3
  -6  -8   2 233.567 245.947   3
   8   6   2 153.847 319.979   3
  -6  -8   2 381.193 272.643   4
   8   6   2-91.7758 229.720   1
 -14   8   2 93.7156 315.628   3
  14  -6   2-58.4725 278.884   2
  -6  -8   2 503.142 375.176   2
  -8  14   2 181.058 210.559   1
 -14   8   2-174.091 229.096   4
  -6  -8   2 203.220 180.766   1
  14  -6   2-17.3758 226.296   1
  -8  14   2-27.4132 194.815   3
   6 -14   2 268.109 367.432   2
   6 -14   2 104.896 241.696   4
   6 -14   5 13551.4 832.240   3
 -14   8   5 14566.0 532.342   1
  -8  14   5 13247.1 858.115   1
  14  -6   5 14104.4 1051.39   1
   8   6   5 13482.3 965.669   1
  -6  -8   5 13748.6 1158.47   2
  -6  -8   5 14069.4 856.888   3
  -6  -8   5 14888.8 826.277   4
   6 -14   5 13933.5 775.348   4
   6 -14   5 13387.5 1027.53   2
  -8  14   5 14945.4 974.747   3
 -14   8   5 13682.2 1041.68   3
  14  -6   8 2696.64 654.349   1
  -6  -8   8 3109.54 343.379   4
  -6  -8   8 3221.94 569.024   1
  -8  14   8 2466.23 498.185   1
   6 -14   8 4185.08 656.724   2
 -14   8   8 1799.84 587.083   3
   6 -14   8 2920.06 341.015   4
   6 -14   8 3245.00 699.038   1
   8   6   8 3550.59 691.814   1
  -8  14   8 3592.70 745.257   3
 -14   8   8 3076.49 405.269   1
  -6  -8   8 4785.11 664.546   3
  -6  -8   8 2724.51 679.404   2
  14  -6  11 4428.45 967.431   1
   8   6  11 6133.10 1027.30   1
  -6  -8  11 5786.94 972.258   2
  -6  -8  11 7476.91 1021.60   3
   6 -14  11 6123.37 1048.09   1
  -6  -8  11 6578.99 928.808   1
  -8  14  11 6002.04 1056.41   3
  -8  14  11 6203.78 912.855   1
 -14   8  11 8446.65 1166.17   3
  -5  -9  -8 7307.04 730.211   4
   5 -14  -8 7628.60 712.449   4
   5 -14  -5 25839.7 1215.08   4
 -14   9  -5 23200.6 1395.63   3
  -5  -9  -5 25646.6 1256.07   4
  -9  14  -5 23586.7 1045.55   4
   5 -14  -5 24174.8 1202.99   2
 -14   9  -5 27279.5 1169.64   2
  -5  -9  -5 25740.2 1054.43   2
 -14   9  -2 19243.9 1173.01   3
   9   5  -2 19813.3 937.044   3
  -9  14  -2 18645.6 660.285   3
  -5  -9  -2 18076.2 1018.84   3
  -5  -9  -2 18374.3 1045.70   4
 -14   9  -2 18247.1 1002.49   2
  -9  14  -2 16805.1 918.775   4
   5 -14  -2 19103.0 1111.45   2
  -5  -9  -2 18449.4 1038.01   2
   5 -14  -2 17316.1 970.563   4
  -5  -9   1 20144.2 856.907   1
   9   5   1 18941.2 1057.58   3
 -14   9   1 19687.8 995.633   4
  -5  -9   1 19696.7 1048.35   4
  -5  -9   1 18708.8 1153.45   2
   5 -14   1 19731.2 997.883   4
   5 -14   1 18590.7 1198.57   2
  14  -5   1 20493.8 823.236   1
  -9  14   1 20522.3 758.648   3
   9   5   1 19569.4 835.872   1
 -14   9   1 20224.5 1078.64   3
  -5  -9   1 20641.3 938.674   3
   5 -14   4 4220.77 389.120   3
 -14   9   4 5081.06 621.196   3
  -5  -9   4 3097.32 664.524   2
   9   5   4 3865.00 541.740   1
  14  -5   4 4179.57 596.951   1
   5 -14   4 3996.33 612.159   2
  -5  -9   4 3992.43 485.111   4
   5 -14   4 4351.48 483.579   4
  -9  14   4 4215.67 489.934   1
  -9  14   4 5247.93 599.875   3
  -5  -9   4 4016.33 449.965   3
  -5  -9   4 4475.65 457.750   1
  -5  -9   7 17359.2 1086.55   1
  14  -5   7 17680.2 1306.11   1
   9   5   7 17941.4 1259.96   1
  -5  -9   7 17159.2 821.822   4
 -14   9   7 20032.4 1354.70   3
   5 -14   7 18900.5 1369.72   1
   5 -14   7 16527.7 783.681   4
  -5  -9   7 16752.8 1322.15   2
  -9  14   7 15865.9 1168.25   3
  -5  -9   7 15106.6 1010.83   3
   5 -14   7 17645.8 1241.12   2
  -9  14   7 17282.5 1077.98   1
 -14   9   7 18233.6 824.108   1
 -14   9  10 1496.25 661.357   3
  -9  14  10 1954.95 592.440   1
  -5  -9  10 1118.50 593.795   2
  -9  14  10 1009.17 611.370   3
 -14   9  10 1366.67 415.893   1
   9   5  10 2616.86 743.932   1
   5 -14  10 2737.57 905.314   1
  -5  -9  10 1998.03 592.763   1
  14  -5  10-25.6120 557.288   1
  -5  -9  10 832.289 478.430   3
   5 -14  10 1350.92 501.610   2
   4 -14  -9 5779.55 631.564   2
  -4 -10  -9 6700.72 715.002   4
   4 -14  -9 7335.35 709.932   4
   4 -14  -6 1840.72 407.986   2
 -14  10  -6 2017.57 414.676   2
   4 -14  -6 1633.28 406.190   4
 -10  14  -6 1746.76 360.148   4
  -4 -10  -6 1807.28 422.592   4
  -4 -10  -6 1428.03 309.461   2
 -10  14  -3 5211.25 532.302   4
   4 -14  -3 4001.24 501.744   4
  -4 -10  -3 5660.38 612.391   4
 -14  10  -3 4461.47 642.487   3
   4 -14  -3 5086.70 610.414   2
  -4 -10  -3 4987.68 593.720   2
  10   4  -3 4862.99 523.298   3
 -14  10  -3 4527.65 539.664   2
  10   4   0 1801.75 270.273   1
 -14  10   0 1687.79 418.365   3
  -4 -10   0 1512.52 372.310   4
  -4 -10   0 1099.09 351.006   2
  -4 -10   0 1700.87 342.198   1
   4 -14   0 1759.84 392.251   4
 -10  14   0 1632.29 277.319   3
  10   4   0 1684.38 410.529   3
 -14  10   0 1200.44 385.459   2
  -4 -10   0 1325.23 317.394   3
  14  -4   0 1965.40 252.541   1
   4 -14   0 2443.39 525.116   2
   4 -14   3 4610.16 270.671   3
 -10  14   3 6081.49 530.744   1
  10   4   3 5446.98 583.880   1
   4 -14   3 4080.77 624.738   2
  -4 -10   3 5561.45 503.089   1
   4 -14   3 6519.02 575.625   4
  14  -4   3 6089.51 605.245   1
  -4 -10   3 4170.52 680.486   2
 -10  14   3 5183.05 513.906   3
   4 -14   3 4246.97 208.847   3
  -4 -10   3 5118.28 543.793   4
 -14  10   3 4554.03 605.244   3
  -4 -10   3 5513.01 463.716   3
   4 -14   6-215.720 323.826   3
  14  -4   6 84.0037 355.527   1
   4 -14   6-5.09790 223.822   4
 -14  10   6 435.221 220.900   1
  -4 -10   6-8.80746 208.942   4
 -10  14   6-411.387 341.349   1
 -14  10   6 116.146 343.800   3
  10   4   6 18.3396 348.287   1
  -4 -10   6 74.9316 438.036   2
 -10  14   6 982.680 408.063   3
  -4 -10   6 64.5373 270.418   3
   4 -14   6 402.125 393.957   2
 -14  10   9 3940.18 789.008   3
  -4 -10   9 2775.24 647.043   2
  14  -4   9 2274.81 693.071   1
 -14  10   9 3989.03 537.327   1
  10   4   9 3152.81 703.037   1
 -10  14   9 3738.82 668.150   1
  -4 -10   9 4675.28 716.785   1
   4 -14   9 3219.78 697.803   2
   4 -14   9 3637.03 806.744   1
   4 -14   9 2697.52 525.809   3
 -10  14   9 3054.67 697.353   3
  -4 -10   9 3137.64 588.937   3
  10   4  12 694.257 624.294   1
  14  -4  12 1291.75 758.175   1
 -10  14  12 470.080 596.809   1
   4 -14  12-200.919 698.748   1
  -4 -10  12-486.124 577.477   1
  -3 -11 -10 3308.93 555.188   4
   3 -14 -10 3529.57 545.203   4
   3 -14  -7 3996.91 579.589   4
  -3 -11  -7 3389.21 528.633   4
 -11  14  -7 2260.21 381.392   4
 -14  11  -7 1963.77 418.459   2
  -3 -11  -7 2905.13 376.766   2
   3 -14  -7 2774.05 457.697   2
 -11  14  -4 8518.13 666.888   4
 -14  11  -4 10830.5 896.408   3
   3 -14  -4 9894.95 781.197   4
   3 -14  -4 10932.4 831.986   2
  -3 -11  -4 11407.9 819.035   2
 -14  11  -4 9952.86 826.019   2
  -3 -11  -4 11039.7 858.491   4
  -3 -11  -1 6300.57 551.417   3
   3 -14  -1 6491.30 636.137   4
  11   3  -1 6181.23 602.776   3
  14  -3  -1 5579.41 260.797   1
   3 -14  -1 5388.01 682.289   2
  -3 -11  -1 4548.23 505.644   1
  11   3  -1 5362.40 356.081   1
 -14  11  -1 6268.82 666.575   2
  -3 -11  -1 6084.80 678.122   2
  -3 -11  -1 4795.66 557.667   4
 -14  11  -1 6193.66 660.461   3
 -11  14  -1 5637.35 506.634   3
  14  -3   2 13065.1 762.189   1
   3 -14   2 15829.3 1113.96   2
  11   3   2 14227.3 792.397   1
  -3 -11   2 15873.2 926.278   4
  -3 -11   2 15582.1 1113.49   2
   3 -14   2 14377.3 858.776   4
  -3 -11   2 14015.8 764.376   1
  -3 -11   2 13452.6 682.056   3
 -11  14   2 15191.1 804.950   3
 -14  11   2 14484.4 907.585   3
  11   3   5 6201.65 695.734   1
  -3 -11   5 5068.72 789.503   2
 -11  14   5 4777.89 527.711   1
  -3 -11   5 4350.54 486.885   4
  14  -3   5 5006.38 678.994   1
 -14  11   5 4974.89 417.137   1
   3 -14   5 5146.74 760.233   2
   3 -14   5 5544.16 520.499   4
 -11  14   5 5570.93 675.603   3
 -14  11   5 4721.50 676.901   3
  -3 -11   5 5785.36 536.719   3
   3 -14   5 6155.68 457.657   3
  11   3   8 1748.96 580.180   1
  14  -3   8 1483.66 566.257   1
   3 -14   8 1073.65 470.918   2
  -3 -11   8 1260.74 511.086   2
   3 -14   8 2653.70 686.443   1
   3 -14   8 1317.47 270.292   4
 -11  14   8 1752.87 450.087   1
 -14  11   8 1577.38 389.852   1
   3 -14   8 1851.27 448.888   3
 -11  14   8 668.116 534.264   3
 -14  11   8 1287.03 536.033   3
  -3 -11   8 1012.91 413.901   3
  -3 -11   8 1662.22 288.337   4
  -3 -11   8 1167.62 514.094   1
 -11  14  11 15.0746 459.017   1
  14  -3  11-637.759 700.385   1
 -14  11  11 1310.57 504.879   1
   3 -14  11 741.685 751.323   1
  11   3  11 2356.94 812.295   1
 -14  11  11 311.459 620.842   3
   3 -14  11 612.356 516.116   3
 -11  14  11-155.092 575.018   3
  -3 -11  11 905.794 607.971   1
  -3 -11  11 926.472 544.975   3
  -3 -11  11 643.077 626.406   2
   2 -14  -8 17931.2 1110.72   4
  -2 -12  -8 18370.1 811.720   2
   2 -14  -8 18807.7 1015.78   2
  -2 -12  -5 34076.9 1329.67   2
  -2 -12  -5 31108.0 1409.36   4
 -14  12  -5 29992.3 1369.83   2
   2 -14  -5 31526.5 1398.75   4
   2 -14  -5 31961.8 1347.74   2
 -14  12  -2 19486.3 1103.54   3
 -12  14  -2 17883.8 903.727   3
  -2 -12  -2 17117.3 1032.32   4
   2 -14  -2 17657.1 1136.13   2
   2 -14  -2 15908.2 981.532   4
  -2 -12  -2 18822.8 1104.88   2
 -14  12  -2 15803.6 1041.39   2
 -14  12   1 26812.3 1172.79   3
  -2 -12   1 26764.2 866.162   3
  -2 -12   1 28835.4 1519.42   2
   2 -14   1 25803.4 1394.66   2
  -2 -12   1 28808.1 1262.77   4
   2 -14   1 26699.7 1215.79   4
  12   2   1 26403.9 940.980   1
 -12  14   1 26127.5 1017.81   3
  14  -2   1 25627.9 912.061   1
  -2 -12   1 24039.5 1027.56   1
   2 -14   4 9927.11 713.243   4
  12   2   4 8854.31 768.891   1
  -2 -12   4 7993.43 894.138   2
  -2 -12   4 9737.10 723.908   4
   2 -14   4 7981.01 421.124   3
   2 -14   4 9206.67 938.063   2
 -14  12   4 8966.98 536.008   1
 -14  12   4 7012.17 725.429   3
  14  -2   4 7512.20 697.363   1
 -12  14   4 8886.37 778.555   3
  -2 -12   4 8405.04 541.401   3
 -12  14   4 7853.82 593.222   1
  12   2   7 13209.6 1140.30   1
 -12  14   7 13237.8 893.758   1
 -14  12   7 14266.3 838.075   1
   2 -14   7 12316.8 1131.20   1
  -2 -12   7 13301.1 1203.58   2
   2 -14   7 13698.7 1182.36   2
 -14  12   7 14410.4 1185.54   3
   2 -14   7 13599.3 747.080   4
  -2 -12   7 15756.5 1213.70   1
 -12  14   7 14545.7 1164.89   3
   2 -14   7 14470.8 901.870   3
  -2 -12   7 15828.6 944.878   3
  14  -2   7 13733.3 1151.27   1
  -2 -12   7 14458.5 792.569   4
  12   2  10 5481.03 970.926   1
  14  -2  10 4901.15 943.085   1
 -14  12  10 6905.23 775.713   1
  -2 -12  10 5743.02 929.218   2
   2 -14  10 6217.61 986.147   1
  -2 -12  10 5938.26 961.898   1
   2 -14  10 6651.94 945.540   2
   2 -14  10 6482.05 820.649   3
 -12  14  10 5508.86 958.438   3
 -14  12  10 6477.29 1051.81   3
  -2 -12  10 6572.62 880.097   3
 -12  14  10 4437.78 688.944   1
   1 -14  -9 2453.99 511.936   4
   1 -14  -9 1551.56 349.661   2
  -1 -13  -9 1386.07 449.101   4
   1 -14  -6 629.694 300.218   4
  -1 -13  -6 782.484 326.145   4
 -14  13  -6 480.810 343.304   2
  -1 -13  -6 849.236 300.673   2
   1 -14  -6 1010.15 304.259   2
 -13  14  -3 3092.34 473.225   3
  -1 -13  -3 2114.66 437.994   4
   1 -14  -3 1523.70 417.222   4
  -1 -13  -3 2366.38 471.658   2
   1 -14  -3 2914.10 519.425   2
 -14  13  -3 2031.77 445.838   3
   1 -14   0 2466.09 559.564   2
  13   1   0 2630.02 297.188   1
  -1 -13   0 3135.33 325.261   3
  -1 -13   0 3152.77 483.496   4
  14  -1   0 3413.39 310.296   1
   1 -14   0 3075.87 466.065   4
 -14  13   0 2664.39 434.754   3
 -13  14   0 2624.97 414.956   3
  -1 -13   0 2782.03 569.383   2
   1 -14   3 11241.1 453.383   3
  13   1   3 11474.5 790.315   1
  -1 -13   3 12334.8 1070.56   2
  -1 -13   3 10568.8 770.790   4
 -14  13   3 9809.79 804.668   3
 -13  14   3 9998.44 793.859   3
   1 -14   3 11000.5 801.479   4
   1 -14   3 12095.5 1064.72   2
  -1 -13   3 11802.1 565.621   3
  14  -1   3 11158.5 789.353   1
 -13  14   6 1233.21 420.709   3
  -1 -13   6 848.056 325.765   4
 -14  13   6 1475.10 326.126   1
  14  -1   6 393.999 354.887   1
   1 -14   6 1054.99 483.867   2
   1 -14   6 941.071 307.277   4
  -1 -13   6 1154.27 329.591   3
 -14  13   6 267.434 372.019   3
  13   1   6 1428.40 492.465   1
 -13  14   6 669.669 289.896   1
   1 -14   6 1252.75 329.515   3
  -1 -13   6 1348.39 573.744   2
  13   1   9 7037.33 981.256   1
   1 -14   9 6429.29 904.948   2
  -1 -13   9 4843.88 837.281   1
   1 -14   9 5223.10 889.700   1
 -14  13   9 6185.84 694.465   1
   1 -14   9 5805.90 726.181   3
 -13  14   9 5830.26 897.605   3
  -1 -13   9 4493.02 659.605   3
 -14  13   9 4566.02 838.174   3
  -1 -13   9 4500.85 840.624   2
  14  -1   9 6030.78 929.658   1
 -13  14   9 5475.78 711.681   1
   0 -14 -10 4316.31 611.116   4
   0 -14  -7-42.9269 294.375   4
   0 -14  -7 526.234 319.946   2
 -14  14  -4 1262.70 377.641   3
   0 -14  -4 1101.32 374.406   4
   0 -14  -4 721.898 326.837   2
   0 -14  -1 224.603 307.787   4
  14   0  -1 64.9409 128.744   1
   0 -14  -1-114.932 334.960   2
 -14  14  -1-1.40713 268.794   3
   0 -14   2 6356.36 343.690   3
  14   0   2 6092.66 554.115   1
   0 -14   2 6190.04 640.828   4
   0 -14   2 6514.49 798.084   2
 -14  14   2 6991.97 644.559   3
   0 -14   5 432.466 424.837   2
  14   0   5 42.7234 351.930   1
   0 -14   5 13.8857 236.703   4
 -14  14   5 352.961 351.382   3
   0 -14   5 105.567 202.246   3
 -14  14   5-306.758 236.546   1
 -14  14   8 2079.15 457.317   1
  14   0   8 965.398 560.322   1
   0 -14   8 2475.21 694.146   2
   0 -14   8 1060.45 275.074   4
   0 -14   8 909.049 464.961   1
 -14  14   8 850.281 490.007   3
   0 -14   8 1158.24 414.253   3
  14   0  11-15.6515 569.422   1
 -14  14  11-300.456 428.715   1
   0 -14  11 840.852 644.770   2
   0 -14  11 124.897 567.855   1
   0 -14  11 71.4172 449.127   3
 -14  14  11 475.791 656.501   3
 -15   0  -9-169.030 402.953   4
  15 -15  -9-287.622 342.307   4
  15 -15  -6 6013.66 788.776   2
 -15   0  -6 5348.32 850.652   3
 -15   0  -6 5059.05 481.431   2
  15 -15  -6 4154.28 566.017   4
 -15   0  -6 4430.43 413.292   2
 -15   0  -3 351.304 447.386   3
 -15   0  -3-35.3736 261.989   2
  15 -15  -3-323.466 296.162   4
  15 -15  -3 149.054 247.314   1
  15 -15  -3 542.077 440.022   2
  15 -15   0 17455.0 1112.01   2
  15 -15   0 17011.6 871.958   1
 -15   0   0 17629.8 762.654   1
  15 -15   0 17927.9 1064.86   4
   0  15   0 15895.8 928.286   1
  15 -15   0 17982.7 925.129   3
   0  15   0 19398.8 676.406   3
 -15   0   0 16095.8 1216.92   3
   0  15   3 499.124 326.975   1
   0  15   3-172.609 342.715   3
  15 -15   3 298.200 281.586   4
 -15   0   3 420.935 319.162   3
  15 -15   3-222.581 265.669   2
  15 -15   3 67.2835 300.620   3
  15 -15   6 12997.9 1192.29   1
  15 -15   6 13745.7 961.393   2
  15 -15   6 12933.2 891.469   4
 -15   0   6 12181.4 1089.01   3
   0  15   6 13470.0 1078.79   1
  15 -15   9-666.709 576.461   1
  15 -15   9 603.433 361.765   2
 -15   0   9-301.161 482.193   3
   0  15   9 317.566 517.625   1
 -15   1 -10 1860.84 508.988   4
 -14  -1 -10 2651.50 581.944   4
  15 -14  -7 13428.8 1165.89   2
  15 -14  -7 14134.5 936.113   4
  14 -15  -7 14095.0 947.482   4
  14 -15  -7 12910.2 1154.31   2
 -14  -1  -4 19061.3 935.694   2
 -15   1  -4 17777.6 1401.04   3
 -14  -1  -4 17748.5 1377.33   3
  15 -14  -4 20220.3 905.871   1
  14 -15  -4 17411.6 911.965   1
  14 -15  -4 18140.3 1064.71   4
  15 -14  -4 20006.3 1097.94   4
  15 -14  -4 17093.5 1216.21   2
  14 -15  -4 21263.5 1283.09   2
 -15   1  -4 17757.5 911.279   2
 -15   1  -1 30265.9 1643.97   3
  15 -14  -1 26748.5 986.247   1
  15 -14  -1 24158.6 1309.18   2
 -15   1  -1 28738.7 1072.90   1
  14 -15  -1 24810.6 1230.81   4
  15 -14  -1 27801.9 1286.79   4
 -14  -1  -1 29236.9 1104.16   1
  14 -15  -1 24210.2 1002.76   1
  14 -15  -1 23226.8 1014.66   3
  15 -14  -1 26930.9 1129.67   3
 -14  -1  -1 29240.4 1579.61   3
   1  14  -1 26251.2 670.249   3
  14 -15  -1 26836.3 1380.33   2
 -14  -1   2 11887.3 953.486   3
   1  14   2 13532.6 859.516   3
  -1  15   2 12746.6 789.573   3
  -1  15   2 11981.9 834.971   1
  15 -14   2 12390.0 959.182   2
   1  14   2 12596.5 847.808   1
  15 -14   2 12885.5 889.414   4
 -14  -1   2 11631.1 434.269   1
  15 -14   2 11711.6 802.027   3
  14 -15   2 12829.7 871.022   4
  14 -15   2 12291.9 968.445   2
  14 -15   2 12317.6 764.268   3
 -15   1   2 11707.7 948.463   3
   1  14   5 26547.0 1389.53   1
  15 -14   5 24827.3 1484.33   1
   1  14   5 23783.0 1301.09   2
  14 -15   5 27596.4 1217.67   4
  -1  15   5 26064.8 1363.66   1
  14 -15   5 27836.5 1568.61   1
  14 -15   5 25874.2 1333.39   2
  15 -14   5 27755.8 1250.17   4
  15 -14   5 28664.3 1336.34   2
 -15   1   5 26933.9 1514.89   3
 -14  -1   5 27687.8 1505.24   3
  14 -15   8 5908.94 955.977   1
 -15   1   8 4617.15 402.607   1
  15 -14   8 4724.92 582.760   2
  14 -15   8 5070.37 632.130   2
  -1  15   8 4154.91 691.626   1
   1  14   8 5236.48 799.891   1
 -15   1   8 4449.10 817.279   3
 -14  -1   8 6593.98 845.004   3
 -14  -1   8 5845.69 524.011   1
  15 -14   8 5724.25 952.627   1
   1  14  11 10324.2 1239.77   1
  14 -15  11 9229.88 1335.70   1
 -14  -1  11 10857.7 1315.81   3
 -15   1  11 9911.98 1310.66   3
  15 -14  11 10572.9 1406.12   1
  -1  15  11 8717.63 1144.33   1
  13 -15  -8 1601.39 540.646   2
 -13  -2  -8 2522.43 543.711   4
  13 -15  -8 1375.93 376.133   4
  15 -13  -8 2354.15 455.106   4
 -15   2  -5 1024.00 299.613   2
  13 -15  -5 866.073 388.216   2
 -13  -2  -5 840.202 259.707   2
  15 -13  -5 1466.93 501.010   2
  15 -13  -5 820.208 286.860   1
 -15   2  -5 656.167 515.252   3
 -13  -2  -5 1222.92 574.461   3
 -13  -2  -5 1200.85 307.575   2
  13 -15  -5 872.045 343.168   4
  15 -13  -5 1037.27 327.039   4
 -15   2  -2 4418.36 792.548   3
  15 -13  -2 5601.66 611.959   4
 -13  -2  -2 4349.89 688.399   3
 -15   2  -2 4248.02 525.234   2
  13 -15  -2 4766.14 488.128   1
  13 -15  -2 4931.72 558.336   4
  15 -13  -2 4397.74 406.765   1
  13 -15  -2 4267.96 585.089   2
  13 -15  -2 4304.62 475.135   3
 -15   2  -2 5629.93 569.962   1
 -13  -2  -2 5138.42 570.542   1
   2  13  -2 4760.88 324.314   3
  15 -13  -2 4037.94 633.935   2
 -15   2   1 9624.56 913.850   3
  -2  15   1 8969.70 535.954   3
   2  13   1 8720.67 677.252   1
 -15   2   1 8138.14 375.935   1
  -2  15   1 8477.42 695.591   1
  13 -15   1 9569.16 763.402   4
  15 -13   1 10108.8 790.837   4
  13 -15   1 8925.14 829.164   2
  13 -15   1 9142.90 594.076   3
 -13  -2   1 8832.18 487.915   1
  15 -13   1 7873.93 658.470   3
  15 -13   1 8099.40 768.065   2
 -13  -2   1 8435.85 825.712   3
   2  13   1 9426.32 665.261   3
  -2  15   4 3789.83 534.188   1
   2  13   4 3542.31 557.298   2
 -13  -2   4 2798.74 228.498   1
  13 -15   4 3940.78 491.324   4
 -13  -2   4 2811.04 202.139   1
   2  13   4 4524.90 632.344   1
  13 -15   4 4256.12 590.867   2
  15 -13   4 3336.37 512.179   2
 -13  -2   4 5047.76 685.074   3
 -15   2   4 3027.71 544.190   3
  13 -15   4 3534.83 533.402   3
  15 -13   4 4003.81 516.417   4
  15 -13   4 3431.07 562.727   1
  -2  15   7 11064.4 998.007   1
  15 -13   7 10381.0 1116.14   1
  15 -13   7 8858.69 728.640   2
 -15   2   7 7355.52 377.461   1
  13 -15   7 9670.18 739.555   4
   2  13   7 8365.23 885.682   1
  13 -15   7 9454.53 841.029   2
 -13  -2   7 9492.88 597.237   1
  13 -15   7 11136.0 1158.35   1
 -15   2   7 10803.2 1087.40   3
 -13  -2   7 8357.85 880.379   3
   2  13  10 7.86924 457.137   1
 -13  -2  10-109.245 486.137   3
  15 -13  10-634.401 563.957   1
  13 -15  10-294.332 635.828   1
 -15   2  10-262.845 534.937   3
  -2  15  10 13.3665 485.266   1
 -12  -3  -9 443.785 396.275   4
  15 -12  -9 495.971 305.325   4
  12 -15  -9 213.190 282.762   4
  12 -15  -6 5852.37 754.870   2
 -15   3  -6 5018.69 873.338   3
  -3  15  -6 4690.69 548.799   4
 -12  -3  -6 4571.55 413.874   2
  15 -12  -6 4251.11 546.951   4
  12 -15  -6 4587.47 578.638   4
  15 -12  -6 3883.53 467.031   1
 -15   3  -6 4328.94 402.679   2
 -12  -3  -6 3930.26 337.194   2
 -15   3  -3 1214.69 328.105   2
  15 -12  -3 797.689 221.770   1
 -15   3  -3 501.680 443.817   3
 -12  -3  -3 273.103 403.241   3
  12 -15  -3 1002.98 303.022   1
  15 -12  -3 942.625 346.481   2
  12 -15  -3 1385.33 381.462   2
  12 -15  -3 823.542 318.957   4
  15 -12  -3 764.932 295.833   4
  12 -15   0 13006.9 991.871   2
   3  12   0 13042.0 773.392   1
  15 -12   0 13004.2 811.493   3
 -15   3   0 13641.8 605.205   1
  15 -12   0 11605.2 830.379   4
  12 -15   0 12709.8 864.166   4
  15 -12   0 11968.5 917.061   2
  12 -15   0 12993.3 647.773   3
 -12  -3   0 13745.0 698.390   1
  12 -15   0 12681.5 762.438   1
   3  12   0 13149.6 688.315   3
  -3  15   0 11793.6 387.500   3
 -15   3   0 13563.1 1098.12   3
 -12  -3   0 14078.5 1048.43   3
   3  12   3 7837.91 711.431   1
  12 -15   3 7543.78 591.580   3
   3  12   3 7477.42 777.406   3
  -3  15   3 7117.78 674.871   3
   3  12   3 7496.03 769.713   2
  15 -12   3 8057.49 772.276   1
 -12  -3   3 7541.15 374.794   1
  15 -12   3 7500.77 686.461   2
  15 -12   3 7650.65 679.611   4
  -3  15   3 8159.38 709.158   1
  12 -15   3 7248.05 738.235   2
 -12  -3   3 7953.24 781.628   3
 -15   3   3 7939.41 798.483   3
  12 -15   3 7685.44 664.300   4
  15 -12   6 998.793 339.508   2
  12 -15   6 1495.14 545.756   1
   3  12   6 2764.45 587.195   1
 -15   3   6 2116.75 549.162   3
  15 -12   6 1973.99 563.222   1
  12 -15   6 1349.10 347.946   4
 -12  -3   6 1555.07 290.841   1
  -3  15   6 2048.60 499.403   1
 -12  -3   6 1618.17 479.396   3
  12 -15   6 1898.50 483.135   2
   3  12   9-297.595 464.719   1
  -3  15   9 365.935 430.992   1
 -15   3   9 209.004 487.378   3
 -12  -3   9 708.414 491.567   3
 -12  -3   9 83.4531 331.045   1
  12 -15   9 1143.12 635.588   1
  12 -15   9 424.136 401.367   2
  15 -12   9 498.499 561.313   1
  11 -15 -10 8090.66 714.894   4
 -11  -4 -10 7699.63 811.288   4
  11 -15  -7 14140.5 1080.12   2
  15 -11  -7 14884.8 917.147   4
 -11  -4  -7 13665.7 999.233   4
  15 -11  -7 13235.7 818.257   1
  -4  15  -7 12963.1 804.090   4
  11 -15  -7 14650.3 955.185   4
  15 -11  -4 19838.5 752.723   1
  11 -15  -4 19489.6 1181.38   2
 -15   4  -4 19773.4 1410.09   3
  15 -11  -4 21097.4 1279.55   2
 -11  -4  -4 16999.2 1275.35   3
  11 -15  -4 17364.7 1009.45   4
 -11  -4  -4 19364.3 986.686   2
 -15   4  -4 18821.2 922.803   2
  15 -11  -4 17161.4 981.802   4
  15 -11  -1 10409.5 858.750   2
 -11  -4  -1 11055.5 945.006   3
  11 -15  -1 11843.0 633.136   3
  15 -11  -1 11908.3 825.986   4
   4  11  -1 10340.2 575.476   3
  11 -15  -1 11911.8 827.591   4
 -15   4  -1 10571.0 807.330   2
  15 -11  -1 11709.6 577.960   1
  11 -15  -1 11015.8 707.067   1
  11 -15  -1 10332.8 882.158   2
  15 -11  -1 9893.47 751.978   3
 -11  -4  -1 11251.6 708.878   1
 -15   4  -1 11652.6 666.329   1
 -15   4  -1 10206.8 967.675   3
   4  11   2 15622.8 892.987   1
  15 -11   2 16008.7 944.056   4
  15 -11   2 16527.1 938.269   1
 -11  -4   2 14961.2 599.278   1
  11 -15   2 14933.5 911.119   4
  11 -15   2 15207.3 1038.91   2
  11 -15   2 15675.4 685.320   3
 -15   4   2 14677.9 1022.10   3
  -4  15   2 15182.2 889.145   1
  15 -11   2 15920.7 1004.31   3
 -11  -4   2 17000.6 1036.65   3
  15 -11   2 14883.8 949.262   2
   4  11   2 14400.4 924.735   3
  11 -15   5 36023.3 1483.26   3
  -4  15   5 36476.7 1535.35   1
  15 -11   5 38339.7 1762.75   1
 -11  -4   5 37963.0 1082.70   1
   4  11   5 38787.2 1623.63   1
  11 -15   5 38750.8 1371.33   4
  11 -15   5 38912.7 1658.65   2
 -15   4   5 39502.5 1773.09   3
 -11  -4   5 39071.7 1608.18   3
  15 -11   5 38110.1 1382.79   2
 -11  -4   5 35317.1 929.905   1
   4  11   8 6966.58 943.158   1
  11 -15   8 7238.94 979.643   1
 -11  -4   8 7384.23 590.962   4
 -11  -4   8 7652.88 688.879   1
  -4  15   8 4362.82 681.162   1
 -15   4   8 7874.98 519.104   1
  15 -11   8 7457.28 1050.33   1
  11 -15   8 6120.15 552.850   4
 -15   4   8 7408.60 972.280   3
  15 -11   8 7063.63 537.052   2
 -11  -4   8 8671.57 900.659   3
  11 -15   8 5964.08 684.805   2
 -11  -4  11 5490.09 1079.18   2
   4  11  11 5011.96 950.090   1
  15 -11  11 6507.57 1162.80   1
  -4  15  11 5778.09 893.201   1
  11 -15  11 4137.46 1027.84   1
 -15   4  11 4546.98 1019.25   3
 -11  -4  11 4030.25 908.054   3
  10 -15  -8 1592.70 502.811   2
  10 -15  -8 1415.79 382.640   4
 -10  -5  -8 1646.20 453.013   4
 -15   5  -5 11806.4 1150.67   3
 -15   5  -5 13383.0 762.813   2
 -10  -5  -5 13421.6 951.447   4
  -5  15  -5 12721.4 825.296   4
  10 -15  -5 13031.2 985.495   2
 -10  -5  -5 14185.4 761.703   2
  15 -10  -5 13346.1 860.589   4
  10 -15  -5 14082.6 915.277   4
  15 -10  -5 13688.9 631.090   1
 -15   5  -2 9102.03 1002.13   3
  10 -15  -2 10561.4 721.780   1
  15 -10  -2 11696.2 928.750   2
 -10  -5  -2 13178.6 1020.88   3
  10 -15  -2 12471.6 954.010   2
  15 -10  -2 11685.9 505.448   1
 -10  -5  -2 10844.4 774.208   1
 -15   5  -2 11067.4 724.337   1
  10 -15  -2 12465.9 842.727   4
  15 -10  -2 11462.1 808.322   4
   5  10  -2 13349.0 651.323   3
 -15   5  -2 11688.6 801.445   2
  15 -10   1 44341.1 1588.76   2
  10 -15   1 43372.1 914.833   3
 -10  -5   1 41304.3 1094.31   1
   5  10   1 38738.4 1296.78   1
   5  10   1 41099.9 1419.40   3
  10 -15   1 42358.4 1487.04   4
  15 -10   1 42420.4 1312.85   1
  15 -10   1 41561.3 1495.53   4
  10 -15   1 41144.6 1677.10   2
  -5  15   1 43045.0 896.331   3
  -5  15   1 43563.6 1433.31   1
  15 -10   1 41449.0 1500.17   3
 -15   5   1 42207.2 1684.10   3
 -10  -5   1 37753.5 1525.47   3
  10 -15   4 14692.4 1049.72   2
  15 -10   4 14268.2 1019.96   1
  -5  15   4 14727.5 935.426   1
  10 -15   4 15267.2 896.608   4
 -10  -5   4 15320.3 634.138   1
   5  10   4 15699.9 986.187   1
 -15   5   4 15318.7 1067.53   3
 -10  -5   4 15134.1 992.007   3
  15 -10   4 16223.5 918.533   2
  10 -15   4 14198.9 808.433   3
  15 -10   7 1075.23 285.667   2
 -10  -5   7 1215.84 331.015   4
  -5  15   7 910.170 407.770   1
 -15   5   7 1295.90 218.649   1
 -15   5   7 430.062 481.562   3
  10 -15   7 1131.39 308.821   4
 -10  -5   7 1661.53 350.224   4
  10 -15   7 1133.73 408.932   2
  15 -10   7 1115.66 524.039   1
 -10  -5   7 1692.11 411.351   1
 -10  -5   7 1491.63 494.453   3
  10 -15   7 1218.23 514.579   1
   5  10   7 1401.08 530.515   1
 -10  -5  10 2183.68 801.441   2
 -15   5  10 1852.75 574.696   3
 -10  -5  10 1708.62 502.831   1
  10 -15  10 1972.83 768.074   1
  -5  15  10 575.575 450.231   1
 -10  -5  10 1804.53 585.774   3
   5  10  10 2120.45 680.316   1
  15 -10  10 2288.76 745.805   1
  -9  -6  -9-542.143 380.532   4
   9 -15  -9 30.2371 319.020   4
  -9  -6  -6 8632.79 816.133   4
  15  -9  -6 8899.62 697.232   4
  -9  -6  -6 8851.07 526.705   2
  -6  15  -6 7581.07 634.127   4
  15  -9  -6 7788.45 514.427   1
   9 -15  -6 8815.52 738.052   4
 -15   6  -6 8498.24 589.144   2
   9 -15  -6 9237.74 843.692   2
 -15   6  -3 3901.56 721.949   3
  15  -9  -3 3784.89 485.984   4
  -9  -6  -3 3524.81 534.248   4
  15  -9  -3 3196.65 532.107   2
  -9  -6  -3 3511.66 641.135   3
  15  -9  -3 3834.85 267.084   1
  -9  -6  -3 2782.28 438.454   2
  -6  15  -3 2509.35 418.783   4
   9 -15  -3 3643.32 500.712   4
 -15   6  -3 3712.62 475.917   2
   6   9  -3 2848.63 370.126   3
   9 -15  -3 3323.40 538.208   2
  -9  -6   0 9130.21 809.613   3
  15  -9   0 8173.39 764.416   2
   9 -15   0 7317.36 769.081   2
  -9  -6   0 7449.50 553.816   1
   9 -15   0 8641.74 712.411   4
  15  -9   0 7904.83 691.467   3
  15  -9   0 8377.75 710.846   4
  15  -9   0 7863.29 525.683   1
   6   9   0 8694.72 588.326   1
  -6  15   0 7667.16 291.065   3
   6   9   0 8028.94 627.169   3
 -15   6   0 8094.95 803.890   3
  15  -9   3 5928.73 586.434   2
  -9  -6   3 6516.47 456.310   1
  15  -9   3 6283.23 658.534   1
   9 -15   3 6130.11 581.030   4
 -15   6   3 6245.65 712.307   3
   9 -15   3 5288.66 674.723   2
  -6  15   3 5671.35 584.600   1
   6   9   3 5936.43 576.749   1
  -9  -6   3 6805.36 642.928   3
   9 -15   3 6680.28 451.462   3
  15  -9   6 4283.25 450.288   2
  -9  -6   6 3934.67 457.796   1
 -15   6   6 4348.85 269.831   1
   9 -15   6 5582.54 778.702   1
  15  -9   6 5836.16 794.413   1
  -9  -6   6 4861.03 606.092   3
  -9  -6   6 4816.07 520.519   4
   9 -15   6 4683.73 485.722   4
   9 -15   6 5592.29 703.761   2
 -15   6   6 4101.20 726.213   3
   6   9   6 5678.31 718.936   1
   9 -15   6 3920.32 620.071   3
  -6  15   6 5868.26 704.580   1
  -9  -6   9 2050.04 665.949   2
 -15   6   9 2147.88 381.122   1
  -9  -6   9 1783.25 563.269   3
  -6  15   9 2988.09 627.741   1
   9 -15   9 1511.95 651.554   1
   9 -15   9 2485.56 556.489   2
 -15   6   9 2866.44 707.258   3
  -9  -6   9 1440.58 481.298   1
  15  -9   9 2130.92 653.094   1
   6   9   9 1318.40 560.836   1
   8 -15 -10 6156.15 640.130   4
  -8  -7 -10 6388.57 718.437   4
   8 -15  -7 9410.48 846.535   2
  -7  15  -7 7352.60 614.173   4
   8 -15  -7 9438.13 769.718   4
 -15   7  -7 7142.38 477.408   2
  15  -8  -7 7845.74 567.012   1
  -8  -7  -7 7026.69 712.576   4
 -15   7  -4 11260.8 1062.52   3
  -8  -7  -4 11486.3 892.793   4
  -7  15  -4 10808.1 763.075   4
  -8  -7  -4 12075.8 788.012   2
   8 -15  -4 12366.8 865.495   4
  15  -8  -4 10037.7 372.112   1
   7   8  -4 9824.99 690.823   3
 -15   7  -4 11321.9 761.016   2
   8 -15  -4 11237.5 897.158   2
  15  -8  -4 11109.6 775.871   4
  -8  -7  -1 39376.7 1578.49   3
  15  -8  -1 43459.8 1661.31   2
  -8  -7  -1 39890.5 1307.68   1
  15  -8  -1 40824.6 913.342   1
  -8  -7  -1 39222.2 1513.81   4
  -8  -7  -1 39556.5 1601.92   2
  15  -8  -1 39172.2 1426.81   4
   8 -15  -1 40584.9 1493.42   4
   7   8  -1 42742.3 1191.28   1
 -15   7  -1 40878.6 1743.90   3
   8 -15  -1 41453.6 1680.16   2
   7   8  -1 38782.6 1244.40   3
 -15   7  -1 37980.1 1447.11   2
   7   8   2 11561.2 754.664   1
  -8  -7   2 7530.69 674.649   4
  15  -8   2 9676.21 764.884   2
 -15   7   2 8962.58 802.621   3
  15  -8   2 8814.52 675.500   1
  -7  15   2 9508.74 676.726   1
   8 -15   2 9518.66 720.559   4
   8 -15   2 9412.30 882.016   2
  -7  15   2 9781.29 563.898   3
  -8  -7   2 9436.86 733.331   3
  -8  -7   2 9686.36 572.728   1
   7   8   2 10507.6 855.392   3
   8 -15   5 15018.5 924.001   3
  15  -8   5 14982.4 820.006   2
  -7  15   5 16085.1 984.662   1
  15  -8   5 14906.0 1098.51   1
  -8  -7   5 15942.8 892.099   4
 -15   7   5 13252.0 392.848   1
   8 -15   5 15439.8 1127.73   2
   7   8   5 15171.2 1050.88   1
   8 -15   5 15905.2 870.763   4
 -15   7   5 16134.7 1137.56   3
  -8  -7   5 15027.7 935.385   3
  -8  -7   8 1829.45 480.226   3
 -15   7   8 2105.14 352.943   1
  -8  -7   8 2210.94 615.227   2
   8 -15   8 1416.90 572.034   1
  -7  15   8 2574.19 590.198   1
   8 -15   8 2301.90 344.327   4
  -8  -7   8 2140.57 470.037   1
   8 -15   8 2850.13 636.568   2
   7   8   8 1762.47 573.482   1
 -15   7   8 2074.95 636.980   3
  15  -8   8 1917.30 571.943   1
  -8  -7   8 2472.74 367.029   4
  -8  -7  11 5600.00 862.808   1
  -8  -7  11 6522.20 1083.32   2
   8 -15  11 5486.90 1160.20   1
   7   8  11 7224.04 1093.13   1
  -7  15  11 8426.92 1171.73   3
 -15   7  11 6817.85 1053.33   3
  -8  -7  11 5165.33 904.092   3
  -7  15  11 7478.95 1037.41   1
  15  -8  11 8365.18 1196.71   1
   7 -15  -8 2036.35 433.197   4
  -7  -8  -8 3284.37 553.079   4
   7 -15  -8 2693.30 537.108   2
  15  -7  -5 14110.5 453.449   1
  -7  -8  -5 17804.6 892.411   2
 -15   8  -5 17406.0 1289.24   3
  -8  15  -5 16535.4 912.266   4
  -7  -8  -5 18592.1 1118.70   4
   7 -15  -5 17753.4 1033.73   4
 -15   8  -5 16898.4 936.738   2
   7 -15  -5 15898.3 1020.97   2
 -15   8  -2 7631.71 839.637   3
  15  -7  -2 8030.10 273.423   1
  -7  -8  -2 9006.51 779.432   3
  -7  -8  -2 8811.95 773.958   4
  -7  -8  -2 8814.14 780.170   2
  15  -7  -2 7376.72 267.558   1
 -15   8  -2 7311.51 663.987   2
   7 -15  -2 9702.20 756.121   4
   8   7  -2 7823.33 614.680   3
   7 -15  -2 9112.03 801.676   2
  -7  -8   1 39588.9 1474.03   4
   7 -15   1 44394.4 1834.55   2
  15  -7   1 38983.5 1503.01   2
  -7  -8   1 37988.5 1679.12   2
  15  -7   1 41007.1 1214.44   1
   7 -15   1 39994.3 1452.82   4
  -8  15   1 40808.0 979.244   3
  -7  -8   1 40198.5 1186.79   1
 -15   8   1 37699.9 1555.18   3
   8   7   1 37094.4 1454.46   3
   8   7   1 38133.4 1208.88   1
  -7  -8   1 40180.7 1434.56   3
   7 -15   4 11174.9 609.516   3
 -15   8   4 9901.21 892.236   3
  15  -7   4 11167.8 724.137   2
  -7  -8   4 10302.0 755.829   4
  -7  -8   4 9955.27 1009.35   2
   7 -15   4 12427.4 1014.92   2
   8   7   4 10229.9 798.607   1
  -8  15   4 10863.0 774.434   1
  -8  15   4 11416.6 783.792   3
  15  -7   4 9999.75 826.716   1
  -7  -8   4 11187.1 648.932   1
  -7  -8   4 10658.9 751.110   3
   7 -15   4 10565.1 727.130   4
 -15   8   7 10169.2 573.111   1
   8   7   7 9580.33 961.478   1
  -7  -8   7 10250.2 1095.12   2
  -8  15   7 9146.51 954.258   3
  -7  -8   7 10442.7 694.331   4
  -7  -8   7 9291.23 805.170   1
   7 -15   7 11494.1 1038.16   2
   7 -15   7 9295.91 631.210   4
  15  -7   7 11411.5 1107.98   1
  -7  -8   7 10588.7 865.860   3
 -15   8   7 9002.84 987.402   3
   7 -15   7 9783.88 1035.93   1
  -8  15   7 9855.08 868.212   1
   7 -15  10 8377.39 1169.37   1
  -7  -8  10 5826.36 810.487   1
   7 -15  10 7257.14 892.831   2
  -8  15  10 6771.56 1017.73   3
   8   7  10 7670.58 1100.54   1
 -15   8  10 5248.42 959.903   3
  -7  -8  10 6496.84 873.704   3
  15  -7  10 7919.78 1115.70   1
  -8  15  10 6167.49 867.203   1
  -7  -8  10 8546.08 1119.12   2
   6 -15  -9 1030.56 409.598   2
  -6  -9  -9 1443.87 431.459   4
   6 -15  -9 1640.02 404.831   4
  -6  -9  -6 3663.24 417.170   2
  -6  -9  -6 4968.09 629.172   4
 -15   9  -6 3957.52 483.434   2
   6 -15  -6 4775.34 619.728   2
  -9  15  -6 3562.68 479.426   4
   6 -15  -6 5061.48 595.312   4
  -6  -9  -3 8028.76 763.248   3
  -6  -9  -3 6455.26 646.362   2
  -6  -9  -3 6320.09 674.077   4
   6 -15  -3 7547.11 729.052   2
 -15   9  -3 6917.19 781.913   3
 -15   9  -3 5893.42 630.963   2
   9   6  -3 6055.96 596.795   3
   6 -15  -3 6233.22 658.985   4
  -6  -9   0 8629.43 697.146   3
   9   6   0 9329.28 578.938   1
  -6  -9   0 9068.77 762.202   4
  -6  -9   0 9376.21 868.668   2
  15  -6   0 9762.21 514.492   1
   9   6   0 8492.18 713.749   3
   6 -15   0 8725.26 929.906   2
  -6  -9   0 9601.71 651.745   1
  -9  15   0 9336.06 473.170   3
 -15   9   0 8328.38 789.836   3
   6 -15   0 8730.93 721.751   4
  -9  15   3 3221.99 449.144   1
   6 -15   3 4553.60 528.597   4
  -6  -9   3 3252.50 447.011   3
   9   6   3 3587.01 486.629   1
   6 -15   3 3122.66 210.712   3
  -6  -9   3 3597.65 622.192   2
  -6  -9   3 3773.41 498.944   4
  -6  -9   3 3018.17 379.834   1
   6 -15   3 2288.10 520.691   2
   6 -15   3 2657.13 170.345   3
  -9  15   3 4143.76 453.107   3
  15  -6   3 3208.31 471.333   1
 -15   9   3 3751.78 532.718   3
  -6  -9   6 9166.66 673.859   4
 -15   9   6 9482.29 902.533   3
  -9  15   6 10631.7 834.385   1
   6 -15   6 7296.12 696.215   3
 -15   9   6 10499.0 533.288   1
   9   6   6 8729.38 913.069   1
  -6  -9   6 9437.58 810.234   1
  -6  -9   6 9192.28 1027.18   2
   6 -15   6 9018.36 653.491   4
  15  -6   6 9511.78 930.778   1
  -9  15   6 9733.22 906.048   3
  -6  -9   6 9255.02 766.113   3
   6 -15   6 10756.8 999.991   2
  15  -6   9-388.851 598.464   1
  -6  -9   9-316.875 440.611   2
   9   6   9-184.872 446.774   1
  -6  -9   9 683.348 388.604   3
 -15   9   9 467.149 331.627   1
  -9  15   9 1338.13 518.672   1
   6 -15   9-48.3195 428.081   2
  -6  -9   9 865.863 404.932   1
  -9  15   9 537.010 511.074   3
 -15   9   9 471.702 515.357   3
   6 -15   9 302.249 609.274   1
   5 -15 -10 1347.62 384.012   4
  -5 -10 -10 1357.32 469.777   4
   5 -15  -7 1545.65 420.355   4
 -15  10  -7 1448.13 373.792   2
 -10  15  -7 1493.12 367.756   4
  -5 -10  -7 1912.10 434.529   4
  -5 -10  -7 2257.19 327.108   2
   5 -15  -7 2742.59 526.418   2
 -15  10  -4 14755.8 1098.50   3
   5 -15  -4 15157.5 956.165   4
  -5 -10  -4 14298.7 974.571   4
 -15  10  -4 14229.2 939.595   2
  -5 -10  -4 14336.4 901.068   2
   5 -15  -4 16238.7 1037.65   2
 -10  15  -1 46175.7 1131.44   3
  -5 -10  -1 34335.6 1443.80   4
  -5 -10  -1 43794.3 1465.12   3
  -5 -10  -1 43666.5 1699.93   2
   5 -15  -1 45903.8 1591.25   4
  -5 -10  -1 40571.0 1377.39   1
   5 -15  -1 49828.8 1908.29   2
 -15  10  -1 44345.8 1641.00   2
  15  -5  -1 42255.1 747.847   1
  10   5  -1 41925.2 1456.00   3
  10   5  -1 43541.4 1076.26   1
 -15  10  -1 42106.2 1711.35   3
  15  -5   2 10351.8 697.035   1
  -5 -10   2 10538.2 794.470   4
  -5 -10   2 10720.7 667.063   1
   5 -15   2 11324.7 768.176   4
   5 -15   2 12962.1 1047.27   2
  10   5   2 11146.8 721.987   1
 -10  15   2 11340.3 727.463   1
  -5 -10   2 11275.4 1013.71   2
 -10  15   2 11375.1 660.253   3
  -5 -10   2 10649.0 678.042   3
 -15  10   2 11370.6 856.610   3
 -15  10   5 13941.3 582.359   1
   5 -15   5 13610.0 788.794   3
  10   5   5 13403.6 1000.38   1
 -15  10   5 13788.3 1050.93   3
  -5 -10   5 13389.8 822.176   4
 -10  15   5 15848.6 940.730   1
   5 -15   5 13386.3 798.963   4
   5 -15   5 14047.4 1154.89   2
  -5 -10   5 15046.5 851.841   3
  15  -5   5 15277.2 1082.75   1
 -10  15   5 14371.2 984.249   3
  -5 -10   5 15182.7 1246.65   2
 -15  10   8 1096.89 319.547   1
  -5 -10   8 2207.78 485.861   3
  15  -5   8 1137.39 562.389   1
   5 -15   8 2507.05 584.986   2
  -5 -10   8 1393.03 286.024   4
  -5 -10   8 1340.75 421.617   1
  -5 -10   8 917.007 471.696   2
  10   5   8 1330.81 553.299   1
   5 -15   8 1689.35 693.210   1
 -15  10   8 1392.73 618.259   3
 -10  15   8 1729.29 572.832   3
 -10  15   8 2607.15 560.873   1
   5 -15   8 1286.89 285.968   4
 -15  10  11 2967.36 842.881   3
  15  -5  11 3849.49 968.968   1
  -5 -10  11 4244.75 906.529   2
 -10  15  11 2771.34 703.825   1
  10   5  11 2365.45 737.742   1
   5 -15  11 3337.10 899.008   1
   5 -15  11 2565.98 671.160   3
 -10  15  11 3019.35 867.286   3
  -5 -10  11 2569.24 644.755   3
  -5 -10  11 3761.08 777.981   1
  -4 -11  -8 6311.69 715.760   4
   4 -15  -8 7287.99 749.359   4
  -4 -11  -8 6356.89 426.987   2
   4 -15  -8 7176.47 720.227   2
   4 -15  -5 39763.0 1572.34   4
  -4 -11  -5 37640.1 1575.93   4
  -4 -11  -5 39303.0 1446.89   2
   4 -15  -5 39834.4 1572.03   2
 -15  11  -5 36128.0 1486.46   2
   4 -15  -2 14158.0 923.278   4
 -15  11  -2 13763.9 1023.73   3
  -4 -11  -2 14661.1 1004.40   2
 -11  15  -2 15024.6 713.781   3
   4 -15  -2 14983.7 1064.37   2
  -4 -11  -2 15100.5 990.957   4
 -15  11  -2 13563.2 938.019   2
   4 -15   1 12340.2 827.448   4
  -4 -11   1 11784.5 701.134   3
   4 -15   1 12522.9 1008.05   2
  -4 -11   1 9245.60 638.813   1
  -4 -11   1 11779.8 1021.41   2
  -4 -11   1 11597.1 853.659   4
  11   4   1 11870.0 678.892   1
 -15  11   1 11490.1 838.601   3
  15  -4   1 11473.6 638.948   1
 -11  15   1 11836.5 652.619   3
   4 -15   4 16414.3 678.462   3
  11   4   4 19200.2 1107.36   1
  -4 -11   4 18844.7 1384.06   2
 -11  15   4 16380.6 1007.38   3
   4 -15   4 17210.8 931.115   4
   4 -15   4 19924.8 1326.76   2
 -15  11   4 17432.5 1101.94   3
  -4 -11   4 15725.8 911.870   4
  15  -4   4 19481.2 1118.08   1
   4 -15   4 17286.3 559.240   3
  -4 -11   4 18741.7 875.327   3
 -11  15   4 19130.2 951.541   1
   4 -15   7 15717.0 1262.16   2
 -11  15   7 16822.1 1045.85   1
  11   4   7 17683.5 1306.90   1
  -4 -11   7 15208.7 1125.89   1
   4 -15   7 15937.1 916.657   3
 -15  11   7 15580.3 799.185   1
 -15  11   7 14716.3 1213.00   3
   4 -15   7 15900.3 807.657   4
  -4 -11   7 15310.5 1007.23   3
  15  -4   7 15394.0 1216.73   1
  -4 -11   7 13397.5 1224.92   2
   4 -15   7 16085.7 1301.20   1
  -4 -11   7 16683.8 868.034   4
 -11  15   7 16001.5 1210.16   3
  11   4  10 9344.02 1175.20   1
   4 -15  10 10532.7 1286.68   1
 -11  15  10 9262.89 988.888   1
  -4 -11  10 9049.02 1021.56   1
   4 -15  10 9425.69 971.081   3
 -11  15  10 9092.55 1176.65   3
 -15  11  10 6883.13 1086.85   3
  -4 -11  10 7736.63 930.152   3
  15  -4  10 9143.69 1153.31   1
 -15  11  10 8495.99 783.615   1
  -4 -11  10 7205.90 1028.86   2
   4 -15  10 8255.08 1005.10   2
   3 -15  -9-97.3276 312.406   2
   3 -15  -9 844.236 404.813   4
  -3 -12  -9 647.170 415.308   4
  -3 -12  -6 1546.63 441.857   4
   3 -15  -6 1558.93 464.330   4
 -15  12  -6 682.095 353.724   2
  -3 -12  -6 1182.32 312.212   2
   3 -15  -6 1035.28 365.443   2
  -3 -12  -3 8418.07 771.864   4
 -15  12  -3 7505.34 802.564   3
 -12  15  -3 7392.70 597.083   3
  -3 -12  -3 8293.08 762.851   2
   3 -15  -3 8839.72 843.711   2
   3 -15  -3 6776.46 701.055   4
 -15  12  -3 7240.47 732.335   2
  15  -3   0 14774.6 591.752   1
  -3 -12   0 13535.0 1024.15   2
  -3 -12   0 14766.6 747.847   3
   3 -15   0 14056.6 1089.55   2
  -3 -12   0 13586.1 954.767   4
 -15  12   0 13170.7 919.652   3
   3 -15   0 15993.2 984.329   4
 -12  15   0 13311.6 735.786   3
  12   3   0 15144.8 674.978   1
  15  -3   3 510.826 259.926   1
 -15  12   3 822.706 342.858   3
  -3 -12   3 733.377 310.874   4
  -3 -12   3 526.603 437.965   2
   3 -15   3 397.534 433.543   2
   3 -15   3 622.026 273.545   4
  12   3   3 481.641 299.574   1
 -12  15   3 497.818 282.779   1
 -12  15   3 200.563 235.030   3
  -3 -12   3 648.185 224.772   3
  12   3   6 5745.02 746.856   1
  -3 -12   6 4881.79 824.065   2
  -3 -12   6 4458.42 512.402   4
 -15  12   6 5801.04 478.979   1
   3 -15   6 5065.99 785.680   2
 -12  15   6 5293.46 582.954   1
   3 -15   6 5686.22 515.599   3
  15  -3   6 5695.78 790.831   1
 -12  15   6 5784.68 735.911   3
   3 -15   6 5416.94 525.563   4
  -3 -12   6 3919.12 477.415   3
 -15  12   6 5497.59 744.989   3
  15  -3   9 900.467 575.036   1
 -12  15   9 313.906 346.425   1
  -3 -12   9 550.600 486.534   2
  12   3   9 1121.02 596.890   1
   3 -15   9-656.390 522.902   1
  -3 -12   9 1403.64 521.133   1
 -12  15   9 298.987 574.722   3
 -15  12   9-680.839 617.727   3
  -3 -12   9 635.230 410.819   3
 -15  12   9 268.511 326.328   1
   3 -15   9 422.706 368.754   3
   3 -15   9 157.042 423.383   2
  -2 -13 -10 809.393 438.594   4
   2 -15 -10 629.615 347.277   4
  -2 -13  -7 9306.29 861.120   4
   2 -15  -7 9162.83 842.455   4
  -2 -13  -7 9717.01 722.485   2
   2 -15  -7 9188.51 772.067   2
 -15  13  -4 4850.52 680.064   3
   2 -15  -4 3488.11 547.110   4
  -2 -13  -4 4012.93 577.852   2
   2 -15  -4 3534.29 523.576   2
  -2 -13  -4 3159.22 562.783   4
   2 -15  -1 6669.77 688.522   4
 -15  13  -1 7704.18 747.569   3
  -2 -13  -1 9088.87 779.273   4
  15  -2  -1 8437.74 354.030   1
  -2 -13  -1 8157.11 835.292   2
   2 -15  -1 9347.08 910.517   2
  13   2  -1 9176.39 453.654   1
 -13  15  -1 7952.01 651.511   3
  15  -2   2 5649.16 532.546   1
  13   2   2 5246.92 523.200   1
   2 -15   2 5465.87 744.198   2
  -2 -13   2 4355.11 685.970   2
  -2 -13   2 4391.81 535.836   4
   2 -15   2 4745.49 565.621   4
 -13  15   2 4988.81 526.524   3
 -15  13   2 4917.86 571.523   3
  -2 -13   2 5066.70 411.968   3
  15  -2   5 2109.85 512.923   1
  -2 -13   5 804.018 281.316   3
   2 -15   5 705.732 304.303   4
  13   2   5 755.655 440.553   1
  -2 -13   5 1352.94 536.074   2
   2 -15   5 920.963 226.862   3
 -15  13   5 373.735 377.756   3
   2 -15   5 1122.17 458.587   2
 -13  15   5 789.164 276.561   1
 -13  15   5 852.934 448.895   3
  -2 -13   5 1423.59 353.731   4
 -15  13   5 1058.77 281.354   1
 -13  15   8 2118.08 459.598   1
  15  -2   8 2005.52 643.563   1
 -15  13   8 2225.52 438.549   1
  -2 -13   8 2257.38 363.694   4
  -2 -13   8 2323.68 609.169   1
  13   2   8 2631.59 696.265   1
   2 -15   8 2615.43 713.790   1
  -2 -13   8 2506.83 651.280   2
   2 -15   8 2389.76 645.088   2
  -2 -13   8 2469.52 529.855   3
   2 -15   8 2101.87 480.849   3
 -13  15   8 3168.64 700.529   3
 -15  13   8 2094.78 634.631   3
   2 -15   8 2251.19 347.987   4
  15  -2  11 1313.78 744.035   1
   2 -15  11 779.078 733.940   1
  -2 -13  11 607.454 562.832   2
   2 -15  11 1292.78 609.397   2
  13   2  11 828.040 654.909   1
  -2 -13  11 218.355 592.019   1
   2 -15  11 2772.05 701.311   3
 -13  15  11 1763.38 786.139   3
 -15  13  11 1830.11 825.532   3
  -2 -13  11 470.734 497.203   3
 -13  15  11 2222.66 618.951   1
   1 -15  -8 4900.69 662.993   4
  -1 -14  -8 3515.04 585.413   4
  -1 -14  -8 4573.40 529.156   2
   1 -15  -8 4391.44 570.404   2
  -1 -14  -5 23906.7 1309.06   4
   1 -15  -5 24857.4 1315.57   4
  -1 -14  -5 25539.3 1270.03   2
   1 -15  -5 25232.0 1260.54   2
 -15  14  -2 14304.9 995.134   3
 -14  15  -2 14216.7 927.319   3
  -1 -14  -2 13410.3 980.702   4
   1 -15  -2 14121.5 1003.48   4
  -1 -14  -2 13044.7 1025.25   2
   1 -15  -2 14345.7 1072.45   2
  15  -1   1 26045.8 949.587   1
  -1 -14   1 24305.9 745.412   3
   1 -15   1 26002.0 1266.76   4
  -1 -14   1 24288.1 1440.94   2
  14   1   1 24677.5 935.478   1
   1 -15   1 26670.5 1511.41   2
 -15  14   1 24187.8 1167.19   3
  -1 -14   1 25704.2 1277.78   4
 -14  15   1 28070.9 1153.84   3
  -1 -14   4 21441.5 1513.42   2
  14   1   4 18350.7 1086.68   1
 -15  14   4 22849.5 1260.54   3
 -14  15   4 20566.5 1151.06   3
 -14  15   4 20541.3 929.540   1
  -1 -14   4 21190.4 1088.65   4
   1 -15   4 19201.7 1055.95   4
   1 -15   4 17759.3 1333.09   2
   1 -15   4 19669.3 700.873   3
  -1 -14   4 19695.3 798.072   3
  15  -1   4 17745.3 1091.81   1
  14   1   7 14812.5 1208.10   1
  -1 -14   7 14294.1 1226.62   1
   1 -15   7 14571.4 1298.31   2
 -14  15   7 14043.7 916.199   1
  -1 -14   7 14078.2 830.735   4
   1 -15   7 14021.8 819.575   4
  15  -1   7 12915.7 1158.87   1
 -15  14   7 15479.8 892.765   1
 -14  15   7 11169.4 1083.60   3
   1 -15   7 15175.9 913.105   3
 -15  14   7 12315.6 1171.62   3
  -1 -14   7 14586.9 922.856   3
  -1 -14   7 14565.8 1322.85   2
   1 -15  10 3273.56 759.666   2
 -15  14  10 3717.59 651.642   1
  -1 -14  10 2892.53 842.245   1
  14   1  10 2123.94 709.944   1
  -1 -14  10 1533.13 640.013   2
   1 -15  10 2748.36 804.783   1
  -1 -14  10 4060.93 727.352   3
 -14  15  10 3066.61 814.856   3
 -15  14  10 640.831 597.887   3
  15  -1  10 4323.88 929.705   1
   1 -15  10 2048.17 598.034   3
 -14  15  10 2416.63 601.022   1
   0 -15  -9-215.754 345.263   4
   0 -15  -6 14827.3 1075.51   4
   0 -15  -6 12650.2 904.304   2
   0 -15  -3 26.0180 308.885   4
 -15  15  -3-289.695 328.314   3
   0 -15  -3-334.961 384.321   2
   0 -15   0 18325.8 1106.52   4
   0 -15   0 18597.5 1256.09   2
  15   0   0 19128.1 715.621   1
 -15  15   0 19354.5 1032.33   3
   0 -15   3-33.0049 116.831   3
  15   0   3-133.781 246.558   1
   0 -15   3-57.0469 268.820   4
   0 -15   3-797.698 482.513   2
 -15  15   3-71.0466 277.593   3
 -15  15   6 6108.95 587.159   1
   0 -15   6 6604.14 935.142   2
   0 -15   6 5870.23 588.720   4
 -15  15   6 5351.98 738.239   3
   0 -15   6 5817.45 557.931   3
  15   0   6 5594.18 745.037   1
  15   0   9-46.2201 487.730   1
   0 -15   9-59.7104 562.823   1
   0 -15   9-391.932 506.220   2
 -15  15   9-112.078 340.101   1
 -15  15   9 547.464 628.568   3
   0 -15   9 132.027 360.013   3
 -16   0 -10 11459.6 1025.80   4
  16 -16  -7 217.248 346.610   4
  16 -16  -7 186.142 432.766   2
 -16   0  -7-55.0371 144.698   2
 -16   0  -4 25719.4 1170.16   2
 -16   0  -4 28218.1 1751.15   3
  16 -16  -4 28379.2 1373.30   4
  16 -16  -4 25454.7 1129.55   1
  16 -16  -1-317.958 375.109   2
 -16   0  -1 84.8709 474.117   3
  16 -16  -1-5.13087 229.880   1
  16 -16  -1 49.3572 311.181   4
 -16   0  -1-80.5388 264.381   1
   0  16  -1-44.7141 71.4217   3
   0  16   2 51639.8 1629.21   3
 -16   0   2 48791.7 2018.83   3
  16 -16   2 46656.1 1557.28   3
  16 -16   2 49047.4 1758.79   4
   0  16   2 48644.9 1704.46   1
  16 -16   2 46117.1 1849.99   2
 -16   0   5 347.263 438.680   3
  16 -16   5-400.554 299.439   4
  16 -16   5 388.479 427.681   1
   0  16   5 485.625 340.083   1
  16 -16   5-103.470 300.813   2
  16 -16   8 25883.3 1336.06   2
   0  16   8 24496.4 1596.28   1
  16 -16   8 24122.9 1764.32   1
 -16   0   8 24016.9 1656.79   3
   0  16  11-188.456 551.880   1
  16 -16  11 545.812 714.632   1
 -16   0  11 628.239 697.324   3
 -15  -1  -8 2567.78 571.361   4
  16 -15  -8 1846.54 423.623   4
  15 -16  -8 1197.37 418.839   4
 -16   1  -5 588.201 282.425   2
  16 -15  -5 1171.32 398.265   4
 -15  -1  -5 1137.44 321.884   2
  16 -15  -5 813.296 340.170   1
  15 -16  -5 1132.84 435.363   2
  16 -15  -5 1125.00 497.705   2
 -16   1  -5 1335.06 599.238   3
 -15  -1  -5 1546.30 644.142   3
  15 -16  -5 1034.38 391.943   4
  15 -16  -2 1797.50 483.745   2
  15 -16  -2 1697.02 354.205   1
  16 -15  -2 1181.27 401.582   2
 -16   1  -2 992.469 453.575   3
 -15  -1  -2 907.237 509.676   3
  16 -15  -2 804.901 273.371   1
  15 -16  -2 488.650 346.701   4
 -16   1  -2 1411.76 384.483   1
  16 -15  -2 1687.29 442.281   4
 -15  -1  -2 1176.24 383.506   1
  16 -15   1 13417.9 1020.65   2
   1  15   1 15141.4 926.366   1
  -1  16   1 13647.3 890.274   1
 -16   1   1 14253.7 1141.12   3
  15 -16   1 14367.2 1058.63   2
  15 -16   1 14487.5 999.474   4
  16 -15   1 12838.5 901.369   4
 -15  -1   1 14818.8 631.856   1
  -1  16   1 14884.8 742.370   3
 -16   1   1 13723.6 537.467   1
  15 -16   1 14467.5 803.810   3
  16 -15   1 12953.5 828.594   3
 -15  -1   1 14782.7 1136.62   3
   1  15   1 13532.3 783.505   3
  16 -15   4 491.008 372.085   2
  15 -16   4 625.795 375.595   3
  16 -15   4 951.876 365.020   4
  16 -15   4 576.242 373.279   1
  -1  16   4 1106.95 415.296   1
   1  15   4 596.983 402.514   1
  15 -16   4 475.065 338.616   4
 -16   1   4 432.460 386.074   3
  15 -16   4 1100.88 403.502   2
 -15  -1   4 581.911 415.063   3
  16 -15   7 1508.68 391.669   2
  15 -16   7 1013.13 479.466   1
  -1  16   7 2009.64 552.548   1
 -15  -1   7 2200.42 583.379   3
  15 -16   7 2209.80 430.885   4
  16 -15   7 2833.21 707.225   1
 -16   1   7 1313.62 523.844   3
   1  15   7 1425.81 498.512   1
 -15  -1   7 1572.76 235.267   1
  15 -16   7 2019.04 473.079   2
  -1  16  10 1207.00 557.643   1
 -15  -1  10 190.272 531.013   3
   1  15  10 1949.08 668.341   1
 -16   1  10 721.733 690.120   3
  15 -16  10 1166.76 620.564   1
  16 -15  10 389.539 643.218   1
 -14  -2  -9 2828.84 592.605   4
  14 -16  -9 3332.33 551.274   4
  16 -14  -9 3457.78 537.143   4
  16 -14  -6 3949.05 546.696   4
  14 -16  -6 4187.73 710.530   2
  16 -14  -6 4217.02 723.910   2
 -16   2  -6 3875.83 848.880   3
 -14  -2  -6 4083.83 425.144   2
  14 -16  -6 4234.15 593.588   4
 -16   2  -6 3065.44 398.295   2
  16 -14  -6 3044.56 478.842   1
 -14  -2  -6 3025.32 355.824   2
 -16   2  -3 7943.66 693.389   2
  16 -14  -3 8384.66 856.514   2
 -16   2  -3 6336.74 914.014   3
 -14  -2  -3 5810.50 818.503   3
  14 -16  -3 6817.37 700.420   4
  16 -14  -3 7944.64 724.672   4
  16 -14  -3 7509.60 548.083   1
  14 -16  -3 9299.09 892.813   2
  14 -16   0 2635.94 448.587   4
 -16   2   0 2552.44 567.988   3
 -14  -2   0 1806.11 526.364   3
  16 -14   0 2158.09 463.094   2
 -16   2   0 2361.71 312.463   1
  16 -14   0 1976.10 440.511   4
   2  14   0 2746.18 445.790   1
 -14  -2   0 2727.39 354.104   1
  14 -16   0 2788.02 397.217   3
  14 -16   0 3544.04 584.877   2
  16 -14   0 1998.00 371.186   3
   2  14   0 2165.22 314.215   3
  -2  16   0 2413.66 214.331   3
  14 -16   3 17949.5 1162.64   2
   2  14   3 18007.0 1150.88   3
  14 -16   3 19052.3 974.080   3
  -2  16   3 19219.0 1070.14   3
   2  14   3 18614.8 1082.64   1
 -14  -2   3 16427.3 486.453   1
  16 -14   3 20084.9 1184.97   1
  14 -16   3 19519.4 1080.07   4
  -2  16   3 18117.6 1055.05   1
 -16   2   3 18526.5 1231.13   3
  16 -14   3 19673.6 1085.16   4
  16 -14   3 20039.6 1162.49   2
 -14  -2   3 20843.7 1251.28   3
 -14  -2   6 2963.54 573.239   3
   2  14   6 3210.36 591.024   2
  16 -14   6 2655.73 649.378   1
  14 -16   6 3467.26 496.698   4
 -14  -2   6 2762.38 247.682   1
 -14  -2   6 2878.51 293.800   1
  16 -14   6 4003.53 558.790   4
  16 -14   6 3949.95 557.094   2
   2  14   6 3530.95 656.374   1
 -16   2   6 3276.50 633.186   3
  14 -16   6 2211.78 492.726   2
  -2  16   6 2969.95 589.253   1
  14 -16   6 4558.71 769.094   1
   2  14   9 2930.29 712.917   1
  -2  16   9 1887.03 598.763   1
  14 -16   9 2977.76 870.604   1
  14 -16   9 1929.19 478.682   2
  16 -14   9 3336.16 832.953   1
 -16   2   9 1345.42 579.425   3
 -14  -2   9 2086.72 670.920   3
 -16   3 -10 12102.5 977.058   4
 -13  -3 -10 13345.0 1024.09   4
  13 -16 -10 12037.8 896.222   4
 -13  -3  -7 2517.83 555.126   4
  13 -16  -7 2826.40 623.666   2
 -16   3  -7 1492.74 212.727   2
  13 -16  -7 1411.17 402.445   4
 -16   3  -7 758.352 171.903   2
  16 -13  -7 1146.08 365.434   4
  13 -16  -4 41490.5 1778.67   2
  16 -13  -4 39054.3 1789.08   2
 -16   3  -4 39587.3 2023.37   3
 -13  -3  -4 34808.7 1896.43   3
  16 -13  -4 40649.9 1179.04   1
  13 -16  -4 41522.7 1601.69   4
  16 -13  -4 39765.3 1528.85   4
 -16   3  -4 40216.4 1389.46   2
 -13  -3  -1 306.483 241.617   1
 -16   3  -1-224.823 423.767   3
   3  13  -1 674.555 209.588   3
 -13  -3  -1 393.665 440.931   3
  16 -13  -1 548.756 341.726   2
  13 -16  -1 476.580 236.032   3
 -16   3  -1 542.233 247.959   1
  13 -16  -1-60.0859 257.005   4
  16 -13  -1 408.927 304.226   4
  16 -13  -1 376.297 222.297   1
  13 -16  -1 1256.61 436.924   2
   3  13   2 51320.0 1698.03   3
 -13  -3   2 51695.3 1070.80   1
  -3  16   2 54666.4 1492.08   3
   3  13   2 53754.6 1699.00   1
  13 -16   2 52193.4 1752.44   4
  16 -13   2 49561.9 1699.77   4
  16 -13   2 44176.5 1612.99   3
  13 -16   2 52498.1 1933.00   2
  13 -16   2 52611.7 1370.23   3
 -16   3   2 50697.3 1962.59   3
  -3  16   2 51762.8 1689.17   1
  16 -13   2 51419.1 1822.38   2
 -13  -3   2 52330.0 1940.26   3
  16 -13   5 2108.34 555.013   1
  -3  16   5 2248.76 503.028   1
  13 -16   5 1362.10 347.901   4
  16 -13   5 954.862 370.572   2
  13 -16   5 897.102 421.483   3
 -13  -3   5 1683.33 248.272   1
 -13  -3   5 1741.52 227.980   1
   3  13   5 964.655 419.300   2
   3  13   5 1892.69 509.823   1
  13 -16   5 1344.92 459.957   1
  16 -13   5 1685.77 430.995   4
  13 -16   5 2082.33 469.382   2
 -16   3   5 2140.79 546.732   3
 -13  -3   5 1840.49 479.323   3
  13 -16   8 24421.8 1742.96   1
 -13  -3   8 24489.9 1139.12   4
  16 -13   8 25876.6 1804.92   1
  13 -16   8 24849.1 1125.03   4
 -13  -3   8 22663.2 1023.34   1
  13 -16   8 26382.6 1393.50   2
 -16   3   8 23773.4 1704.22   3
 -13  -3   8 24485.1 1581.29   3
   3  13   8 22955.0 1520.03   1
  -3  16   8 22977.7 1487.93   1
  16 -13   8 22076.4 1063.92   2
   3  13  11 302.323 571.767   1
  -3  16  11 826.912 627.162   1
 -13  -3  11 113.179 582.220   2
  13 -16  11 707.294 860.693   1
 -16   3  11 1377.00 683.119   3
 -13  -3  11 981.374 620.311   3
  16 -13  11-203.421 617.661   1
  12 -16  -8 63.8966 399.274   2
  12 -16  -8-78.7591 313.953   4
  16 -12  -8 520.866 307.349   4
 -12  -4  -8 651.279 437.929   4
  16 -12  -5 4990.61 718.741   2
 -16   4  -5 5178.01 835.651   3
 -12  -4  -5 5947.96 856.193   3
  16 -12  -5 5570.19 616.030   4
 -12  -4  -5 5710.35 529.217   2
 -16   4  -5 4137.13 466.306   2
  16 -12  -5 5024.31 461.788   1
  12 -16  -5 4726.95 656.320   2
  12 -16  -5 4740.61 585.503   4
  12 -16  -2 6000.09 619.808   4
 -16   4  -2 5414.75 795.666   3
  16 -12  -2 4807.94 651.685   2
 -12  -4  -2 4797.35 745.607   3
  16 -12  -2 5126.62 399.326   1
 -16   4  -2 6361.24 589.159   1
   4  12  -2 5967.38 429.932   3
  16 -12  -2 4654.59 557.799   4
  12 -16  -2 6460.10 730.338   2
 -12  -4  -2 5856.61 587.931   1
 -16   4  -2 5205.51 583.677   2
  16 -12   1 9701.68 785.352   4
 -12  -4   1 10355.5 567.434   1
  -4  16   1 10665.9 548.512   3
  12 -16   1 9053.55 735.644   4
  -4  16   1 10765.1 787.656   1
  12 -16   1 9958.55 903.371   2
  12 -16   1 9951.63 543.796   3
   4  12   1 10931.6 753.409   1
 -12  -4   1 11720.6 947.740   3
   4  12   1 10132.7 728.580   3
  16 -12   1 10284.7 847.560   2
 -16   4   1 8578.67 877.091   3
  16 -12   4 3870.46 555.019   4
  -4  16   4 4884.58 609.716   1
  12 -16   4 3222.70 453.222   3
  12 -16   4 4391.73 547.409   4
  16 -12   4 3742.36 552.824   2
  16 -12   4 3364.07 581.557   1
  12 -16   4 3929.75 593.408   2
   4  12   4 3802.31 549.630   1
 -16   4   4 3879.47 656.439   3
 -12  -4   4 4686.55 646.333   3
 -12  -4   4 3697.37 293.700   1
 -16   4   7 7677.95 915.707   3
  16 -12   7 8452.01 995.970   1
 -12  -4   7 8817.63 645.710   1
   4  12   7 8044.51 907.942   1
  12 -16   7 8128.22 817.670   2
  12 -16   7 8871.10 698.892   4
  12 -16   7 8701.46 1050.87   1
 -12  -4   7 9165.51 949.597   3
 -12  -4   7 7269.17 686.035   4
  -4  16   7 8746.51 911.954   1
  16 -12   7 6952.06 627.802   2
   4  12  10 595.868 473.467   1
  12 -16  10 1120.41 722.917   1
  16 -12  10 1069.66 669.028   1
 -12  -4  10 1196.55 675.041   2
  -4  16  10 849.581 497.906   1
 -16   4  10 2025.10 752.393   3
 -12  -4  10 27.2843 509.541   3
 -11  -5  -9 1537.32 475.339   4
  11 -16  -9 1561.24 429.075   4
  11 -16  -6 4996.01 608.747   4
 -11  -5  -6 5865.51 437.287   2
 -16   5  -6 5505.15 930.047   3
  16 -11  -6 6287.59 641.494   4
 -11  -5  -6 6087.82 688.781   4
 -11  -5  -6 6387.27 496.278   2
 -16   5  -6 6663.22 544.665   2
  11 -16  -6 6747.54 803.175   2
  16 -11  -6 5560.00 475.317   1
  16 -11  -3 1248.83 211.899   1
 -16   5  -3 1509.23 370.437   2
 -16   5  -3 834.072 454.447   3
 -11  -5  -3 1013.51 447.426   3
  16 -11  -3 1182.17 433.984   2
 -11  -5  -3 1297.10 393.173   2
  11 -16  -3 1682.15 425.162   4
  16 -11  -3 1173.36 347.782   4
   5  11  -3 1415.76 281.774   3
  11 -16  -3 1438.39 453.757   2
 -16   5   0 158.848 371.100   3
 -11  -5   0 611.589 474.826   3
  16 -11   0-919.582 347.843   2
 -11  -5   0 187.276 205.494   1
  16 -11   0-30.8998 268.216   4
  11 -16   0-84.1398 270.815   4
  11 -16   0 69.8996 149.973   3
   5  11   0 334.411 260.606   1
  11 -16   0 316.395 395.167   2
   5  11   0 151.879 264.244   3
  -5  16   3 2241.56 416.259   1
  16 -11   3 2328.70 475.469   1
  11 -16   3 2801.73 486.283   4
  16 -11   3 2440.16 452.642   4
  11 -16   3 2677.30 529.563   2
 -11  -5   3 2374.67 481.499   3
 -11  -5   3 2589.28 290.197   1
  11 -16   3 3138.15 358.028   3
   5  11   3 3150.23 482.501   1
 -16   5   3 1824.33 465.105   3
  16 -11   3 2576.58 467.958   2
  11 -16   6 50.4906 246.754   4
   5  11   6-417.687 385.087   1
  11 -16   6-163.957 366.192   3
  16 -11   6 33.1898 264.221   2
 -11  -5   6 69.6438 210.131   1
 -11  -5   6-84.8270 242.445   4
  11 -16   6 232.167 421.228   1
 -11  -5   6 437.421 283.380   1
  16 -11   6-336.724 381.870   1
  11 -16   6-487.722 382.828   2
  -5  16   6-265.583 335.323   1
 -16   5   6-110.605 354.464   3
 -11  -5   6-312.962 355.300   3
 -16   5   9 2192.01 668.696   3
  11 -16   9 1721.97 458.743   2
  11 -16   9 2358.76 798.269   1
 -11  -5   9 2420.72 722.127   2
 -11  -5   9 1798.46 630.673   3
 -11  -5   9 2380.87 531.495   1
  16 -11   9 1487.22 606.650   1
  -5  16   9 1929.79 566.087   1
   5  11   9 2627.82 718.860   1
 -10  -6 -10 7327.28 785.060   4
  10 -16 -10 8392.16 763.081   4
 -10  -6  -7 96.7881 76.4174   2
  10 -16  -7 1125.38 429.517   2
  10 -16  -7 668.366 356.751   4
 -16   6  -7 124.808 191.030   2
 -10  -6  -7 511.981 375.844   4
  16 -10  -7 184.019 271.502   1
  16 -10  -7 273.809 282.894   4
 -16   6  -4 30018.4 1722.09   3
 -10  -6  -4 30061.2 1658.11   3
 -10  -6  -4 29948.3 1249.04   2
  10 -16  -4 30586.5 1352.62   4
 -10  -6  -4 31202.9 1489.61   4
  16 -10  -4 31362.2 1335.79   4
 -16   6  -4 29324.9 1216.52   2
  10 -16  -4 30059.1 1484.76   2
  16 -10  -4 30132.0 783.970   1
   6  10  -1 1895.18 336.781   1
  16 -10  -1 2548.99 517.328   2
 -10  -6  -1 2802.09 521.249   3
  16 -10  -1 2699.83 455.421   4
  10 -16  -1 2516.08 455.612   4
 -10  -6  -1 1740.93 376.454   1
   6  10  -1 2497.10 364.830   3
  10 -16  -1 2254.83 508.312   2
 -16   6  -1 3454.60 666.802   3
   6  10   2 19071.0 1101.24   3
  16 -10   2 20978.1 1044.18   1
   6  10   2 22841.3 1072.60   1
  16 -10   2 19825.3 1106.45   2
  10 -16   2 20755.8 1061.30   4
  -6  16   2 21958.5 1074.54   1
 -10  -6   2 21900.9 806.798   1
  16 -10   2 23061.3 1156.39   4
  10 -16   2 23235.6 1342.14   2
  -6  16   2 21548.9 815.001   3
  10 -16   2 21133.3 636.000   3
 -10  -6   2 22294.8 1164.43   3
 -16   6   2 20703.9 1223.51   3
  16 -10   5 2684.60 415.023   2
   6  10   5 2259.42 515.921   1
 -16   6   5 1862.56 549.730   3
 -10  -6   5 2597.27 338.444   1
  10 -16   5 2560.19 447.910   3
  -6  16   5 2320.80 513.185   1
  16 -10   5 3211.58 624.825   1
  10 -16   5 2907.62 569.835   2
 -10  -6   5 2176.35 414.401   4
  10 -16   5 2266.33 469.702   4
 -10  -6   5 2117.82 476.585   3
  -6  16   8 14234.9 1135.87   1
 -10  -6   8 13794.1 1338.49   2
 -10  -6   8 18353.2 926.612   4
  10 -16   8 18773.0 1500.75   1
   6  10   8 18426.0 1330.05   1
 -10  -6   8 17851.8 1075.13   1
  16 -10   8 15919.5 1418.69   1
  10 -16   8 16124.3 863.196   4
  10 -16   8 17088.3 1224.78   2
 -10  -6   8 17410.3 1283.23   3
 -16   6   8 15482.3 662.048   1
 -16   6   8 13834.0 1256.11   3
  16 -10  11 2117.85 757.485   1
  -6  16  11 538.251 541.485   1
 -10  -6  11 1218.57 715.647   2
  10 -16  11 1401.95 790.680   1
 -16   6  11 856.996 692.883   3
   6  10  11 668.305 637.164   1
 -10  -6  11 208.293 528.454   3
  -9  -7  -8 4062.24 618.780   4
   9 -16  -8 5477.98 729.140   2
   9 -16  -8 4770.46 602.231   4
  -9  -7  -5 15092.3 1043.76   4
 -16   7  -5 13230.9 1220.68   3
  -9  -7  -5 15979.4 868.577   2
  16  -9  -5 12759.0 514.943   1
   9 -16  -5 15860.0 1010.96   4
 -16   7  -5 14865.1 886.577   2
  16  -9  -5 14016.5 902.028   4
   9 -16  -5 14441.5 1026.82   2
 -16   7  -2 18866.4 1308.37   3
  -9  -7  -2 18566.9 1192.39   3
  16  -9  -2 17836.1 1204.32   2
  -9  -7  -2 21488.2 1185.64   2
  16  -9  -2 20173.1 567.352   1
  -9  -7  -2 19014.2 1111.24   4
 -16   7  -2 17063.3 1012.39   2
   9 -16  -2 19650.1 1075.03   4
  16  -9  -2 19431.4 1066.10   4
   9 -16  -2 20734.4 1233.82   2
   7   9  -2 20421.3 901.289   3
  16  -9   1 6742.30 696.228   2
   7   9   1 6007.04 542.861   1
 -16   7   1 5039.07 667.110   3
   9 -16   1 6763.81 681.071   4
  -9  -7   1 6615.55 506.707   1
   9 -16   1 6016.73 737.049   2
  16  -9   1 6792.86 646.367   4
   9 -16   1 5321.15 274.570   3
  -7  16   1 7369.38 408.835   3
  16  -9   1 6747.24 552.280   1
   7   9   1 7095.24 652.028   3
  -9  -7   1 6087.79 660.636   3
  16  -9   4 13897.4 869.148   2
  -9  -7   4 14036.3 904.705   4
  16  -9   4 11448.4 910.467   1
  -9  -7   4 12245.2 869.633   3
   9 -16   4 10981.8 764.544   4
  -7  16   4 13153.9 891.537   1
   9 -16   4 13259.1 1085.51   2
   7   9   4 11804.2 886.454   1
 -16   7   4 11772.1 993.776   3
  -9  -7   4 11896.2 635.694   1
   9 -16   4 12782.7 701.058   3
  -9  -7   7 3051.70 587.805   3
   9 -16   7 2508.40 393.479   4
 -16   7   7 2442.53 261.352   1
  -9  -7   7 3105.21 452.196   4
  -9  -7   7 3656.40 503.692   1
   9 -16   7 3419.37 704.643   1
  -7  16   7 2151.64 483.191   1
  16  -9   7 3115.97 746.313   1
   9 -16   7 3612.32 634.001   2
 -16   7   7 3787.03 722.156   3
   7   9   7 2803.98 657.048   1
  -9  -7   7 1137.49 543.325   2
  16  -9  10 3973.28 905.267   1
   9 -16  10 3402.77 659.488   2
  -9  -7  10 3550.71 866.667   2
   9 -16  10 7509.79 1173.32   1
  -7  16  10 5248.99 835.247   1
  -9  -7  10 5050.33 729.654   1
 -16   7  10 5290.74 1035.41   3
  -9  -7  10 4169.08 808.460   3
   7   9  10 4473.76 898.811   1
   8 -16  -9 486.225 361.278   4
   8 -16  -9 54.7738 371.198   2
  -8  -8  -9 425.040 378.813   4
 -16   8  -6 3468.53 759.406   3
  -8  -8  -6 4343.44 616.382   4
  -8  -8  -6 4429.99 455.231   2
 -16   8  -6 3681.68 488.642   2
   8 -16  -6 3608.05 544.329   4
  16  -8  -6 3549.25 311.449   1
   8 -16  -6 4562.49 607.152   2
  -8  -8  -3 306.758 324.428   4
 -16   8  -3 158.313 434.179   3
   8 -16  -3 415.242 296.336   4
  -8  -8  -3 50.5231 467.658   3
  -8  -8  -3-406.419 326.170   2
   8   8  -3 518.015 308.437   3
  16  -8  -3 392.603 277.543   4
   8 -16  -3 226.423 345.428   2
 -16   8  -3 19.8227 255.491   2
  -8  -8   0 8478.82 753.354   3
  16  -8   0 8375.41 778.198   2
  -8  -8   0 9100.98 791.161   4
  -8  -8   0 7928.88 818.015   2
  16  -8   0 9161.77 545.986   1
  -8  -8   0 9654.89 638.969   1
   8 -16   0 8416.43 834.806   2
 -16   8   0 8568.23 871.830   3
   8   8   0 8327.14 588.693   1
   8 -16   0 8172.51 715.641   4
  -8  16   0 7985.45 381.951   3
   8   8   0 9018.62 716.165   3
  -8  -8   3-20.6525 362.992   2
  -8  -8   3 513.102 240.763   1
   8   8   3 559.511 335.091   1
  16  -8   3 494.881 279.554   2
  16  -8   3 544.331 301.426   1
   8 -16   3-63.3463 250.412   4
   8 -16   3 523.265 388.149   2
  -8  16   3 472.857 277.534   1
  -8  16   3 430.919 265.002   3
 -16   8   3 13.7621 337.334   3
  -8  -8   3 264.330 302.347   3
   8 -16   3 212.397 115.932   3
  -8  -8   3 384.890 294.241   4
   8 -16   6 3208.43 539.479   3
  -8  16   6 3799.80 587.443   1
  -8  -8   6 4944.49 615.313   3
  -8  -8   6 3831.02 725.136   2
  -8  -8   6 4869.81 567.898   1
  16  -8   6 4614.93 711.027   1
   8 -16   6 4746.25 701.833   2
  -8  -8   6 4354.99 513.512   4
  -8  16   6 2945.72 561.945   3
 -16   8   6 4135.99 700.751   3
 -16   8   6 4268.94 291.028   1
   8   8   6 3661.99 602.670   1
   8 -16   6 4365.50 513.730   4
  16  -8   9 192.546 504.506   1
  -8  -8   9 934.613 594.186   2
   8 -16   9-121.934 520.337   1
 -16   8   9 465.486 281.617   1
  -8  16   9-525.414 416.406   1
   8 -16   9 883.114 443.751   2
  -8  16   9-65.5976 491.123   3
  -8  -8   9 418.425 392.314   1
   8   8   9-256.823 505.195   1
 -16   8   9-255.185 504.012   3
  -8  -8   9 406.831 424.289   3
  -7  -9 -10 4426.96 658.469   4
   7 -16 -10 4599.74 605.365   4
   7 -16  -7 2799.91 542.425   2
 -16   9  -7 2457.28 412.667   2
  -7  -9  -7 2607.93 535.757   4
   7 -16  -7 2618.60 482.778   4
  -7  -9  -7 2911.88 329.507   2
 -16   9  -4 11121.4 1059.74   3
  -7  -9  -4 12487.7 860.868   2
  -7  -9  -4 10448.9 863.996   4
   7 -16  -4 11785.2 900.828   4
 -16   9  -4 12002.5 864.852   2
   7 -16  -4 13500.7 987.398   2
  -9  16  -1 6040.02 341.325   3
  -7  -9  -1 6079.09 656.523   3
   7 -16  -1 6561.80 639.261   4
   7 -16  -1 6900.36 782.254   2
  -7  -9  -1 5152.12 609.834   4
  -7  -9  -1 6065.32 574.754   1
   9   7  -1 6368.84 495.511   1
  -7  -9  -1 6049.39 721.323   2
  16  -7  -1 5942.26 345.371   1
   9   7  -1 7290.93 624.258   3
 -16   9  -1 5929.40 747.392   3
  -7  -9   2 17970.5 825.805   1
  16  -7   2 18293.8 935.296   1
  16  -7   2 18673.5 1069.93   2
  -7  -9   2 18607.0 1056.69   4
  -7  -9   2 19115.5 1301.22   2
   7 -16   2 18192.0 1013.69   4
   7 -16   2 18620.5 1263.27   2
   9   7   2 18412.3 952.413   1
  -9  16   2 18445.4 791.406   3
  -9  16   2 19151.5 970.211   1
 -16   9   2 18720.2 1164.18   3
  -7  -9   2 17753.9 977.174   3
   7 -16   5 14233.6 793.600   3
   7 -16   5 13720.3 1135.63   2
  -7  -9   5 13205.1 1211.75   2
   7 -16   5 14764.8 867.572   4
  -9  16   5 12838.2 886.239   1
   9   7   5 13704.2 1020.29   1
  -7  -9   5 14896.5 920.545   3
  16  -7   5 14275.2 1074.81   1
  -9  16   5 15108.2 991.866   3
  -7  -9   5 14471.2 792.653   1
 -16   9   5 12884.2 1144.60   3
  -7  -9   5 14598.1 887.135   4
  -9  16   8 3936.53 677.138   1
 -16   9   8 4050.69 441.401   1
  -7  -9   8 5822.21 747.023   1
   9   7   8 4006.06 771.194   1
  -7  -9   8 3491.93 434.810   4
  -7  -9   8 2260.53 655.816   2
   7 -16   8 3558.86 799.289   1
   7 -16   8 3682.89 431.134   4
   7 -16   8 3505.99 663.324   2
  16  -7   8 4236.51 794.592   1
  -9  16   8 3739.74 719.090   3
 -16   9   8 3255.45 723.493   3
  -7  -9   8 3051.02 580.803   3
  16  -7  11 1227.37 722.541   1
  -7  -9  11 3818.34 916.099   2
 -16   9  11 1961.69 792.496   3
  -7  -9  11 1696.35 554.019   1
  -9  16  11 786.079 496.554   1
   7 -16  11 1699.40 777.246   1
   9   7  11 1167.66 668.630   1
  -9  16  11 1569.32 748.584   3
  -7  -9  11 431.997 556.195   3
   6 -16  -8 16848.4 1117.66   2
  -6 -10  -8 17885.1 1162.06   4
   6 -16  -8 17105.5 1080.15   4
 -16  10  -5 2102.71 572.330   3
   6 -16  -5 2477.47 463.483   4
  -6 -10  -5 2354.70 406.806   2
  -6 -10  -5 2069.16 468.706   4
 -16  10  -5 2496.09 483.165   2
   6 -16  -5 1999.05 488.734   2
 -16  10  -2 21358.6 1345.14   3
 -10  16  -2 19453.8 678.498   3
  -6 -10  -2 22339.6 1175.86   3
  -6 -10  -2 22547.0 1229.79   2
   6 -16  -2 22621.7 1160.34   4
  -6 -10  -2 20436.4 1170.68   4
   6 -16  -2 22453.9 1313.55   2
  10   6  -2 19153.4 1016.42   3
  -6 -10   1 2709.76 451.658   3
 -10  16   1 2603.29 322.334   3
  10   6   1 3061.17 413.588   1
  -6 -10   1 2826.95 420.018   1
  -6 -10   1 2640.21 463.550   4
  -6 -10   1 3149.07 600.500   2
   6 -16   1 2228.99 410.342   4
  16  -6   1 2348.07 347.069   1
   6 -16   1 1910.37 614.616   2
 -16  10   1 1465.14 445.563   3
   6 -16   4 31083.6 877.170   3
  -6 -10   4 31177.0 1247.08   3
  -6 -10   4 30879.7 1156.32   1
  -6 -10   4 33007.1 1773.22   2
  -6 -10   4 27724.7 1234.51   4
  10   6   4 30820.2 1396.46   1
   6 -16   4 32179.3 1285.43   4
   6 -16   4 31269.7 1643.06   2
  16  -6   4 32501.0 1466.78   1
   6 -16   4 29065.6 702.231   3
 -10  16   4 33992.4 1365.72   3
 -10  16   4 28981.3 1232.69   1
 -16  10   4 30551.9 1511.78   3
  16  -6   7 802.292 488.843   1
 -10  16   7 896.882 442.188   1
  10   6   7 543.322 440.329   1
  -6 -10   7 554.393 453.620   2
  -6 -10   7 486.292 262.326   4
   6 -16   7 1474.23 634.680   1
  -6 -10   7 411.367 386.088   1
 -16  10   7 181.772 208.246   1
 -10  16   7 420.101 418.995   3
 -16  10   7 1952.18 566.065   3
  -6 -10   7 400.311 320.596   3
   6 -16   7 1318.21 343.609   4
   6 -16   7 56.5434 439.638   2
   6 -16  10 8782.52 1027.02   2
 -10  16  10 10088.3 1233.62   3
  10   6  10 7951.81 1174.48   1
  -6 -10  10 6699.14 1041.05   2
   6 -16  10 7735.43 1176.64   1
  -6 -10  10 7251.58 896.727   1
 -10  16  10 6468.54 880.199   1
   6 -16  10 8162.79 917.644   3
 -16  10  10 7727.94 1097.81   3
  -6 -10  10 6750.27 913.905   3
  16  -6  10 7832.08 1116.15   1
   5 -16  -9 2498.65 492.922   2
  -5 -11  -9 1661.02 478.598   4
   5 -16  -9 3184.30 555.033   4
  -5 -11  -6 408.712 353.014   4
   5 -16  -6-119.128 285.643   4
 -16  11  -6 607.588 367.661   2
  -5 -11  -6-37.2031 271.879   2
   5 -16  -6 96.5238 290.973   2
 -16  11  -3 3187.89 646.758   3
   5 -16  -3 2026.55 474.043   2
  -5 -11  -3 2169.71 507.383   4
   5 -16  -3 2842.22 469.105   4
  -5 -11  -3 2631.18 528.803   2
 -16  11  -3 2047.22 466.194   2
 -16  11   0-237.689 315.415   3
  16  -5   0 153.440 178.619   1
  11   5   0 133.751 194.834   1
  -5 -11   0-206.787 255.424   3
  -5 -11   0-291.579 313.857   4
  -5 -11   0 177.103 356.211   2
   5 -16   0 46.3901 277.702   4
   5 -16   0-30.6400 358.257   2
 -11  16   0 81.0919 183.422   3
  -5 -11   3 1600.74 344.344   1
  -5 -11   3 1980.61 415.918   4
  -5 -11   3 1021.59 458.428   2
   5 -16   3 675.563 261.331   4
   5 -16   3 1110.77 470.445   2
 -11  16   3 1155.96 330.054   1
 -11  16   3 1315.30 356.065   3
  11   5   3 901.845 334.659   1
 -16  11   3 967.444 386.310   3
  16  -5   3 1147.48 335.094   1
  -5 -11   3 1388.22 322.015   3
  -5 -11   6 6349.92 898.949   2
   5 -16   6 4498.41 567.867   3
  11   5   6 6892.32 817.624   1
 -16  11   6 6113.50 820.554   3
  -5 -11   6 6206.30 594.819   4
 -11  16   6 5544.42 615.870   1
  16  -5   6 6269.09 807.703   1
   5 -16   6 4741.45 524.271   4
   5 -16   6 6503.78 517.111   3
 -11  16   6 7071.46 806.029   3
  -5 -11   6 6526.36 653.168   3
 -16  11   6 6072.57 453.599   1
   5 -16   6 7231.96 896.625   2
  16  -5   9 1267.16 615.216   1
   5 -16   9 771.467 646.728   1
  -5 -11   9 2058.16 650.581   2
 -16  11   9 1186.15 622.595   3
  -5 -11   9 1018.76 508.297   1
  11   5   9 1440.69 636.302   1
   5 -16   9 397.715 434.151   2
 -11  16   9 542.632 455.900   1
   5 -16   9 1824.41 482.091   3
 -11  16   9 781.258 555.263   3
  -5 -11   9 692.178 415.672   3
 -16  11   9 1931.52 389.430   1
   4 -16 -10 854.174 383.195   4
  -4 -12 -10 893.047 434.684   4
   4 -16  -7 7792.59 748.318   2
  -4 -12  -7 7565.69 771.052   4
 -16  12  -7 5530.02 648.381   2
   4 -16  -7 7913.99 783.437   4
  -4 -12  -7 7578.75 610.253   2
 -16  12  -4 5436.87 762.697   3
  -4 -12  -4 6019.92 682.718   4
   4 -16  -4 3385.99 526.441   2
  -4 -12  -4 4030.87 557.658   2
   4 -16  -4 4662.63 594.763   4
   4 -16  -1 11487.0 984.764   2
  -4 -12  -1 12376.6 792.027   3
  16  -4  -1 10389.0 384.946   1
  -4 -12  -1 11778.5 922.122   4
  -4 -12  -1 9673.72 904.321   2
 -16  12  -1 11274.3 964.905   3
  12   4  -1 11314.4 563.207   1
 -12  16  -1 11371.0 688.298   3
  -4 -12   2 4691.07 586.491   4
 -16  12   2 3854.67 579.734   3
  -4 -12   2 4498.99 720.610   2
   4 -16   2 4676.32 559.799   4
   4 -16   2 4319.23 678.546   2
  12   4   2 4276.00 479.727   1
  16  -4   2 4866.44 518.234   1
 -12  16   2 4269.00 466.254   3
  -4 -12   2 4580.45 455.208   3
 -16  12   5 4903.87 676.446   3
   4 -16   5 4691.55 485.295   3
  12   4   5 3776.74 568.696   1
   4 -16   5 4469.95 774.965   2
  -4 -12   5 4367.31 808.613   2
  -4 -12   5 4768.90 554.659   4
   4 -16   5 4129.46 517.019   4
 -16  12   5 4490.23 390.179   1
 -12  16   5 4486.69 538.791   1
   4 -16   5 4934.26 381.146   3
 -12  16   5 3962.95 590.505   3
  16  -4   5 4990.33 696.960   1
  -4 -12   5 5923.73 571.857   3
 -16  12   8 615.185 291.402   1
   4 -16   8 547.102 519.187   1
 -12  16   8 1192.76 429.532   1
  12   4   8 1780.23 598.759   1
  16  -4   8 1069.66 604.623   1
  -4 -12   8 785.451 398.764   1
  -4 -12   8 314.132 271.952   4
   4 -16   8 779.667 252.470   4
   4 -16   8 1231.04 526.472   2
   4 -16   8 1006.85 389.782   3
 -12  16   8 791.589 531.389   3
 -16  12   8 902.592 565.521   3
  -4 -12   8 556.264 318.431   3
  -4 -12   8 656.936 482.594   2
  16  -4  11 748.248 673.372   1
   4 -16  11 1014.52 749.221   1
  12   4  11 437.776 572.336   1
 -16  12  11 128.926 630.376   3
   4 -16  11 799.615 491.613   3
  -4 -12  11 2218.22 753.959   1
  -4 -12  11 765.145 630.539   2
 -12  16  11 718.899 664.769   3
 -12  16  11 836.499 523.328   1
  -4 -12  11-591.897 558.910   3
   3 -16  -8 25937.4 1391.28   4
  -3 -13  -8 23871.9 1374.42   4
  -3 -13  -8 26206.2 1030.02   2
   3 -16  -8 25114.8 1295.03   2
   3 -16  -5 1312.36 396.175   2
  -3 -13  -5 2148.99 484.248   4
 -16  13  -5-17.4384 441.878   3
  -3 -13  -5 1406.64 405.464   2
   3 -16  -5 803.360 359.693   4
 -16  13  -2 53816.9 1990.77   3
 -13  16  -2 56897.7 1599.84   3
  -3 -13  -2 55984.7 1943.28   4
   3 -16  -2 52904.8 1857.97   4
  -3 -13  -2 51306.9 1933.29   2
   3 -16  -2 59109.0 2182.13   2
  13   3   1 936.420 294.010   1
  -3 -13   1 197.893 207.131   3
  -3 -13   1 185.105 317.328   4
   3 -16   1 435.884 266.301   4
  -3 -13   1 30.5290 381.486   2
  16  -3   1 442.600 245.968   1
   3 -16   1 130.049 394.580   2
 -13  16   1 306.958 246.292   3
 -16  13   1 222.224 311.279   3
  13   3   4 39449.7 1580.84   1
 -13  16   4 38383.0 1338.96   1
   3 -16   4 35687.2 886.888   3
  16  -3   4 39985.5 1611.50   1
 -13  16   4 42420.3 1567.63   3
  -3 -13   4 42914.5 2065.98   2
   3 -16   4 40018.6 1977.93   2
   3 -16   4 38864.0 810.897   3
   3 -16   4 39973.6 1489.82   4
  -3 -13   4 38547.9 1465.69   4
  -3 -13   4 42115.1 1265.64   3
 -16  13   4 41301.7 1712.26   3
 -16  13   7 1863.48 357.714   1
  13   3   7 1174.91 526.030   1
  16  -3   7 1311.02 488.227   1
  -3 -13   7 1444.62 589.305   2
 -13  16   7 2694.43 478.778   1
  -3 -13   7 1372.85 472.444   1
   3 -16   7 2216.20 403.040   4
  -3 -13   7 2116.05 472.685   3
   3 -16   7 1630.10 556.864   2
  -3 -13   7 1649.74 371.004   4
   3 -16   7 2283.62 401.466   3
 -13  16   7 1750.47 529.288   3
 -16  13   7 2041.37 596.155   3
   3 -16  10 14850.5 1362.14   2
 -16  13  10 14672.9 1019.40   1
  13   3  10 15237.4 1447.49   1
  -3 -13  10 16211.5 1258.02   3
  -3 -13  10 11432.0 1339.38   2
   3 -16  10 13780.9 1421.58   1
  -3 -13  10 14847.8 1342.61   1
 -13  16  10 13885.3 1154.00   1
   3 -16  10 15553.3 1177.56   3
 -13  16  10 15638.5 1508.39   3
 -16  13  10 14854.6 1511.60   3
  16  -3  10 14904.0 1503.99   1
  -2 -14  -9 2335.31 566.223   4
   2 -16  -9 1838.01 427.201   2
   2 -16  -9 1501.08 502.399   4
  -2 -14  -6 2991.92 467.517   2
  -2 -14  -6 3443.87 572.745   4
   2 -16  -6 3092.62 540.822   2
   2 -16  -6 3641.97 581.116   4
 -16  14  -3 19949.9 1248.83   3
 -14  16  -3 18172.0 989.145   3
  -2 -14  -3 18954.3 1191.52   4
   2 -16  -3 18236.2 1127.36   4
  -2 -14  -3 19824.3 1202.22   2
   2 -16  -3 17599.6 1216.45   2
  -2 -14   0 3060.25 367.049   3
  16  -2   0 3024.13 322.832   1
   2 -16   0 2566.69 523.498   4
  -2 -14   0 3316.99 548.244   4
  -2 -14   0 2277.10 529.365   2
   2 -16   0 3578.92 668.721   2
 -14  16   0 2606.82 415.161   3
  14   2   0 2478.14 313.717   1
 -16  14   0 2804.03 526.937   3
  14   2   3 9253.16 742.138   1
  -2 -14   3 6864.63 704.250   4
  -2 -14   3 9377.45 1038.02   2
   2 -16   3 8637.67 750.932   4
   2 -16   3 8065.34 916.412   2
 -14  16   3 7415.46 663.590   3
 -16  14   3 8217.29 763.002   3
  16  -2   3 9233.96 754.627   1
  -2 -14   3 8077.69 530.479   3
  14   2   6 4317.68 668.058   1
  16  -2   6 3843.56 667.149   1
  -2 -14   6 4191.08 530.557   4
  -2 -14   6 3389.39 718.433   2
   2 -16   6 3175.98 732.575   2
   2 -16   6 4403.93 540.946   4
 -14  16   6 3809.13 677.189   3
 -16  14   6 4360.27 687.273   3
 -14  16   6 4081.46 515.214   1
  -2 -14   6 4161.68 526.590   3
   2 -16   6 4847.87 473.833   3
 -16  14   6 3469.34 435.768   1
  -2 -14   9 2380.47 641.906   1
  -2 -14   9 3818.90 878.530   2
 -14  16   9 3063.17 586.654   1
  16  -2   9 3545.29 789.604   1
  14   2   9 2605.62 745.308   1
   2 -16   9 2728.22 717.699   1
   2 -16   9 3645.69 729.640   2
   2 -16   9 3952.66 628.734   3
 -14  16   9 5028.20 927.346   3
  -2 -14   9 2050.56 527.161   3
 -16  14   9 2566.70 680.719   3
 -16  14   9 2713.03 505.556   1
  -1 -15 -10 1330.88 483.295   4
   1 -16 -10 1435.98 492.501   4
   1 -16  -7 1547.65 457.250   4
  -1 -15  -7 1957.37 540.628   4
  -1 -15  -7 2202.52 447.175   2
   1 -16  -7 1653.69 416.151   2
 -16  15  -4 302.453 365.612   3
 -15  16  -4 503.273 340.971   3
  -1 -15  -4 231.191 308.296   4
  -1 -15  -4 573.160 352.579   2
   1 -16  -4 697.680 412.963   2
   1 -16  -4 699.516 372.529   4
   1 -16  -1 14182.5 1135.57   2
  -1 -15  -1 14020.5 1030.67   4
  15   1  -1 13721.5 549.423   1
  -1 -15  -1 11099.6 1049.16   2
   1 -16  -1 13633.9 994.556   4
  16  -1  -1 12801.5 483.457   1
 -16  15  -1 14179.5 1007.38   3
 -15  16  -1 12156.8 893.066   3
  -1 -15   2 1193.56 213.423   3
  -1 -15   2 1436.16 462.624   2
  -1 -15   2 1616.21 440.950   4
  16  -1   2 1498.72 331.107   1
 -15  16   2 1193.79 338.325   3
   1 -16   2 1362.77 481.291   2
  15   1   2 966.267 308.865   1
   1 -16   2 1456.84 378.060   4
 -16  15   2 1731.41 396.575   3
 -16  15   5 2126.56 350.643   1
  -1 -15   5 2121.70 424.286   4
  15   1   5 1642.97 441.337   1
  -1 -15   5 1764.73 588.489   2
  16  -1   5 1085.60 413.032   1
 -15  16   5 1451.38 350.540   1
   1 -16   5 1474.80 375.336   4
 -15  16   5 1248.83 447.682   3
 -16  15   5 1413.46 512.784   3
   1 -16   5 1388.32 265.475   3
  -1 -15   5 1214.63 275.826   3
   1 -16   5 716.266 498.044   2
  -1 -15   8 1878.77 367.599   4
   1 -16   8 1230.52 336.246   4
   1 -16   8 1511.25 620.019   1
   1 -16   8 2548.10 724.281   2
  15   1   8 2628.84 723.164   1
  -1 -15   8 2641.13 668.657   1
  16  -1   8 2252.34 669.671   1
  -1 -15   8 253.883 484.799   2
 -15  16   8 1400.46 421.279   1
 -15  16   8 1188.42 570.872   3
   1 -16   8 1924.56 452.823   3
 -16  15   8 1030.46 553.902   3
  -1 -15   8 2157.71 471.463   3
 -16  15   8 1645.15 412.413   1
 -15  16  11 906.222 546.922   1
  16  -1  11 1233.66 690.519   1
  15   1  11 1323.77 727.145   1
  -1 -15  11 489.713 589.278   2
   1 -16  11 1128.11 703.911   2
  -1 -15  11 1472.08 762.450   1
 -15  16  11 541.668 649.816   3
   1 -16  11 1253.41 640.740   3
 -16  15  11 62.0110 657.911   3
  -1 -15  11 527.254 536.984   3
   1 -16  11 487.348 686.632   1
   0 -16  -8 27205.2 1495.72   4
   0 -16  -8 23306.4 1189.84   2
   0 -16  -5-8.39732 323.436   4
   0 -16  -5-248.450 382.527   2
 -16  16  -2 48410.7 1786.48   3
   0 -16  -2 52686.5 1961.63   4
   0 -16  -2 49769.5 2024.57   2
  16   0   1 296.558 201.951   1
   0 -16   1-73.9489 300.256   4
   0 -16   1-82.5979 393.930   2
 -16  16   1 594.418 354.467   3
  16   0   4 30359.5 1443.87   1
   0 -16   4 33793.6 1457.39   4
   0 -16   4 33292.1 1905.93   2
 -16  16   4 31747.7 1485.10   3
   0 -16   4 32151.2 938.993   3
 -16  16   7 44.7936 287.323   1
  16   0   7 586.977 456.343   1
   0 -16   7-161.593 299.939   4
   0 -16   7 593.938 604.713   2
 -16  16   7 295.868 488.712   3
   0 -16   7-296.536 339.258   3
  16   0  10 13802.2 1430.29   1
   0 -16  10 15629.9 1492.03   1
   0 -16  10 14010.2 1442.16   2
 -16  16  10 11814.3 1003.40   1
 -16  16  10 12698.6 1406.90   3
   0 -16  10 14436.6 1160.29   3
  17 -17  -8 2161.45 498.234   4
  17 -17  -5-400.221 344.985   4
 -17   0  -5 242.892 289.944   2
  17 -17  -5 376.010 375.964   2
 -17   0  -5-151.032 449.976   3
  17 -17  -2 13731.3 1008.95   4
  17 -17  -2 13004.1 1090.43   2
 -17   0  -2 13708.0 1310.84   3
  17 -17   1 550.671 390.494   2
 -17   0   1-94.9959 388.380   3
   0  17   1-301.250 256.531   3
   0  17   1 687.145 349.929   1
  17 -17   1 176.733 322.043   4
 -17   0   1-146.865 177.995   1
  17 -17   1-143.886 259.810   3
  17 -17   4 1578.81 451.907   2
   0  17   4 732.765 375.182   1
  17 -17   4 1122.59 437.224   1
  17 -17   4 1557.10 400.386   4
 -17   0   4 441.709 473.078   3
  17 -17   7-87.6254 329.498   2
  17 -17   7 384.282 544.656   1
  17 -17   7-148.148 328.106   4
   0  17   7-345.808 422.614   1
 -17   0   7 128.334 442.235   3
   0  17  10 2437.35 709.222   1
  17 -17  10 1689.25 795.099   1
 -17   0  10 2158.04 755.455   3
 -16  -1  -9 1222.10 486.969   4
  16 -17  -9 656.298 379.893   4
 -17   1  -9 979.214 541.547   4
  17 -16  -9 860.171 398.217   4
 -16  -1  -6 1218.79 308.201   2
  16 -17  -6 1618.01 513.681   2
  17 -16  -6 2160.39 589.374   2
 -17   1  -6 1513.61 614.518   3
 -16  -1  -6 1264.66 608.938   3
 -16  -1  -6 2625.25 437.807   2
  16 -17  -6 2571.75 507.844   4
  17 -16  -6 1891.35 446.620   4
 -17   1  -6 2047.36 355.388   2
 -17   1  -3 16438.6 1416.02   3
 -16  -1  -3 18141.4 1433.77   3
  17 -16  -3 16968.8 1243.38   2
  16 -17  -3 17333.3 1105.48   4
  17 -16  -3 16674.0 1071.76   4
  17 -16  -3 15394.2 833.446   1
  16 -17  -3 14939.3 1196.62   2
  17 -16   0 2890.43 540.977   2
 -17   1   0 2621.76 596.714   3
   1  16   0 2953.30 333.877   3
 -16  -1   0 2610.71 647.188   3
 -16  -1   0 3529.21 405.393   1
 -17   1   0 3118.39 389.313   1
  16 -17   0 3034.62 502.644   4
  17 -16   0 4066.83 597.265   4
  16 -17   0 2833.67 429.410   3
  16 -17   0 3850.73 633.987   2
  -1  17   0 2807.86 268.308   3
   1  16   0 3145.48 489.693   1
   1  16   3 7759.93 802.662   3
  -1  17   3 7868.15 764.352   3
   1  16   3 6129.73 713.287   1
  -1  17   3 6416.89 691.862   1
  16 -17   3 7618.62 748.700   4
  17 -16   3 7765.27 746.367   4
 -17   1   3 7062.89 862.332   3
  16 -17   3 7542.53 825.814   2
  17 -16   3 7514.57 791.974   2
  16 -17   3 6770.64 652.733   3
 -16  -1   3 7567.51 882.446   3
  -1  17   6 5296.48 751.563   1
  16 -17   6 5655.93 868.724   1
  16 -17   6 5287.00 652.601   4
 -16  -1   6 6948.72 870.578   3
  17 -16   6 4737.79 783.015   1
  17 -16   6 5994.15 681.895   4
  16 -17   6 5723.32 724.746   2
 -17   1   6 6284.80 852.732   3
  17 -16   6 5646.39 698.314   2
   1  16   6 4998.29 738.951   1
  -1  17   9 7574.59 987.021   1
 -17   1   9 6570.09 1003.36   3
  16 -17   9 6947.36 1080.46   1
  17 -16   9 3935.54 894.339   1
   1  16   9 5349.48 894.452   1
 -16  -1   9 5230.39 897.515   3
 -17   2 -10 3749.46 660.782   4
 -15  -2 -10 2092.42 583.190   4
  15 -17  -7 26283.3 1624.30   2
 -17   2  -7 18697.4 734.723   2
 -15  -2  -7 18840.1 670.461   2
  15 -17  -7 26750.1 1358.85   4
  17 -15  -7 23866.7 1275.23   4
  17 -15  -4 5106.80 765.557   2
 -15  -2  -4 2897.60 473.327   2
  15 -17  -4 4417.28 627.424   4
  15 -17  -4 3444.40 629.696   2
 -17   2  -4 3331.69 715.433   3
 -15  -2  -4 3876.23 708.614   3
  17 -15  -4 3900.80 457.632   1
  17 -15  -4 3565.32 551.781   4
 -17   2  -4 2999.76 468.505   2
 -17   2  -1 14694.5 1253.95   3
 -15  -2  -1 17083.9 1294.90   3
  17 -15  -1 14742.7 775.084   1
 -17   2  -1 14940.6 810.861   1
  15 -17  -1 15723.4 1160.61   2
  15 -17  -1 16100.9 1055.19   4
  17 -15  -1 16436.8 1035.98   4
 -15  -2  -1 16752.9 898.764   1
   2  15  -1 15833.6 597.022   3
  17 -15  -1 18756.8 1241.09   2
  15 -17  -1 14452.2 830.140   3
   2  15   2 16435.0 985.958   3
 -15  -2   2 14435.4 564.655   1
  -2  17   2 16296.7 900.540   3
  17 -15   2 15851.1 1092.18   2
  15 -17   2 15734.1 1138.39   2
  15 -17   2 15084.9 1013.80   4
   2  15   2 17106.4 1025.86   1
  15 -17   2 16118.3 856.704   3
  17 -15   2 15653.4 1037.45   4
 -17   2   2 14689.1 1151.84   3
 -15  -2   2 14771.8 1138.96   3
  -2  17   2 14549.5 968.400   1
  -2  17   5 22402.1 1313.91   1
  17 -15   5 21918.3 1417.18   1
  17 -15   5 23140.5 1239.85   4
  15 -17   5 24885.9 1239.83   4
 -17   2   5 19607.7 1396.00   3
  15 -17   5 22999.7 1354.60   2
 -15  -2   5 23995.7 1442.08   3
  17 -15   5 25086.3 1309.24   2
   2  15   5 22384.9 1331.29   1
  15 -17   5 22800.3 1491.93   1
 -17   2   8 5879.40 950.003   3
  15 -17   8 4568.83 576.589   4
  17 -15   8 6511.13 1056.22   1
  15 -17   8 3145.80 769.868   1
   2  15   8 5940.31 911.498   1
  15 -17   8 5092.90 693.264   2
 -15  -2   8 4621.03 824.127   3
  -2  17   8 6096.76 843.001   1
  17 -15   8 5138.23 624.040   2
   2  15  11 5402.50 986.008   1
  15 -17  11 6336.10 1213.10   1
  -2  17  11 4610.05 913.425   1
 -17   2  11 5348.70 1059.20   3
 -15  -2  11 2768.06 878.308   3
  17 -15  11 4143.32 1025.21   1
  14 -17  -8 4304.47 768.430   2
 -14  -3  -8 4649.12 732.526   4
  14 -17  -8 3556.69 557.516   4
  17 -14  -8 3613.21 568.668   4
 -17   3  -5 258.001 295.615   2
  14 -17  -5 650.682 431.734   2
 -14  -3  -5-212.379 284.886   2
  17 -14  -5 172.673 420.023   2
 -17   3  -5 1095.03 622.690   3
 -14  -3  -5 94.4813 446.085   3
  17 -14  -5 349.033 272.132   1
  14 -17  -5 91.4516 302.059   4
  17 -14  -5 435.294 312.975   4
 -14  -3  -5 62.4069 264.765   2
  14 -17  -2 1208.75 447.231   2
 -17   3  -2 820.317 418.087   3
  14 -17  -2 1323.14 394.424   4
  17 -14  -2 1131.46 430.651   2
 -14  -3  -2 2077.51 627.813   3
 -17   3  -2 1560.08 372.317   1
  17 -14  -2 1255.83 274.178   1
  17 -14  -2 969.857 364.616   4
   3  14  -2 887.488 194.768   3
  -3  17   1 7660.51 508.931   3
  14 -17   1 8137.51 747.283   4
 -14  -3   1 8849.16 545.370   1
   3  14   1 7638.29 671.711   1
  17 -14   1 7291.98 698.355   4
  -3  17   1 7651.29 694.424   1
  14 -17   1 6915.10 536.516   3
  14 -17   1 8806.19 877.060   2
  17 -14   1 8010.01 798.123   2
 -17   3   1 8388.90 886.117   3
 -14  -3   1 8138.83 876.358   3
   3  14   1 7403.29 652.266   3
   3  14   4 6607.53 716.871   1
 -14  -3   4 4302.75 302.854   1
 -14  -3   4 5178.75 297.997   1
  -3  17   4 5472.69 693.316   1
  14 -17   4 5144.07 608.622   4
  17 -14   4 5828.09 729.987   1
  17 -14   4 5991.69 660.174   4
  14 -17   4 7511.52 810.337   2
 -17   3   4 5426.96 755.178   3
 -14  -3   4 4801.58 672.268   3
  17 -14   4 6007.02 672.747   2
  14 -17   4 4300.40 574.195   3
  17 -14   7 2327.31 452.569   2
   3  14   7 2857.05 572.482   1
  14 -17   7 2885.67 704.088   1
  17 -14   7 2720.69 712.551   1
  -3  17   7 1765.72 531.849   1
  14 -17   7 2032.83 443.868   4
 -17   3   7 1451.82 601.909   3
  14 -17   7 1488.52 443.522   2
 -14  -3   7 1994.81 565.406   3
 -14  -3   7 1739.90 312.242   1
   3  14  10 703.454 550.615   1
  17 -14  10 250.479 593.234   1
  -3  17  10 1380.01 646.459   1
  14 -17  10 917.706 675.930   1
 -14  -3  10 1176.11 772.233   3
 -17   3  10 333.621 595.286   3
 -13  -4  -9 1312.80 497.827   4
  17 -13  -9 2467.92 488.250   4
  13 -17  -9 2532.36 511.877   4
 -13  -4  -6 2719.44 365.363   2
  13 -17  -6 2420.38 552.819   2
 -17   4  -6 1274.35 775.618   3
 -13  -4  -6 3513.01 417.711   2
  13 -17  -6 3149.50 554.247   4
  17 -13  -6 2177.04 459.277   4
 -17   4  -6 3094.31 414.988   2
  17 -13  -6 2723.91 426.709   1
 -13  -4  -6 3092.24 571.692   4
  17 -13  -3 3434.52 612.156   2
 -17   4  -3 2766.68 657.703   3
 -13  -4  -3 2072.39 560.286   3
  17 -13  -3 2308.18 439.795   4
  17 -13  -3 2423.35 315.536   1
  13 -17  -3 2808.83 482.289   4
   4  13  -3 2944.01 328.506   3
  13 -17  -3 3076.04 596.407   2
 -17   4  -3 2806.51 477.530   2
  13 -17   0 2443.42 333.401   3
 -17   4   0 2056.00 562.026   3
 -13  -4   0 3266.08 634.877   3
  17 -13   0 2254.87 493.807   2
   4  13   0 1854.90 366.363   1
  13 -17   0 1512.07 384.019   4
  17 -13   0 2459.02 447.550   4
 -13  -4   0 2385.57 371.026   1
   4  13   0 2890.50 395.308   3
  13 -17   0 2383.33 518.716   2
  13 -17   3 4618.76 482.577   3
   4  13   3 3709.02 534.101   1
  -4  17   3 4285.29 565.742   3
  13 -17   3 4802.10 568.884   4
 -13  -4   3 4742.91 337.371   1
  17 -13   3 4178.99 612.970   1
  17 -13   3 4691.75 596.351   4
 -13  -4   3 4133.10 586.974   3
  -4  17   3 3823.96 545.466   1
  13 -17   3 4482.04 685.001   2
 -17   4   3 4553.04 680.411   3
  17 -13   3 3979.77 568.007   2
  -4  17   6 643.510 345.920   1
  17 -13   6 842.822 351.639   2
 -13  -4   6 404.808 203.117   1
   4  13   6 851.892 466.164   1
 -13  -4   6 788.684 259.144   1
  13 -17   6 1125.36 447.859   1
  13 -17   6 968.955 416.732   2
  13 -17   6 794.925 311.166   4
  17 -13   6 1006.63 512.301   1
 -17   4   6 1699.42 539.175   3
 -13  -4   6 603.750 384.714   3
   4  13   9 260.271 491.933   1
  13 -17   9 168.895 524.781   1
  13 -17   9 364.891 434.076   2
  -4  17   9 797.839 472.150   1
  17 -13   9 1170.18 604.975   1
 -17   4   9-147.745 497.225   3
 -13  -4   9 616.333 548.025   3
  12 -17 -10 1160.96 400.557   4
 -12  -5 -10 860.225 442.964   4
  12 -17  -7 10213.7 975.819   2
  17 -12  -7 10116.4 826.840   4
 -12  -5  -7 9371.39 896.913   4
  12 -17  -7 10184.5 850.222   4
 -12  -5  -7 8349.20 436.750   2
  12 -17  -4 2309.01 473.319   2
  17 -12  -4 2903.84 322.488   1
 -17   5  -4 2048.97 604.369   3
 -12  -5  -4 2286.85 444.231   2
 -12  -5  -4 2758.26 603.095   3
  17 -12  -4 3591.57 596.253   2
  12 -17  -4 4501.70 598.526   4
  17 -12  -4 2457.82 447.661   4
 -17   5  -4 2636.15 446.461   2
  12 -17  -1 15006.6 987.510   4
 -12  -5  -1 15395.0 861.454   1
 -12  -5  -1 13693.7 1108.48   3
  17 -12  -1 14114.6 1033.98   2
  17 -12  -1 14006.7 944.380   4
  17 -12  -1 13992.0 661.316   1
  12 -17  -1 14333.9 1091.64   2
   5  12  -1 15123.6 733.942   3
 -17   5  -1 15256.5 1224.12   3
   5  12   2 4036.68 579.412   3
  17 -12   2 4104.43 531.125   1
  -5  17   2 4049.98 455.033   3
  -5  17   2 4499.46 554.733   1
   5  12   2 4121.00 542.804   1
  12 -17   2 5005.41 614.605   4
 -12  -5   2 4540.90 676.962   3
  17 -12   2 4247.36 591.511   2
  17 -12   2 4508.90 580.711   4
  12 -17   2 4808.98 675.099   2
  12 -17   2 4334.42 374.323   3
 -17   5   2 4732.38 655.102   3
 -12  -5   2 4080.36 385.953   1
 -12  -5   5 23798.5 895.008   1
 -12  -5   5 21126.9 762.032   1
  12 -17   5 23146.6 1146.63   4
  -5  17   5 21056.3 1223.81   1
   5  12   5 23514.7 1334.26   1
  17 -12   5 21499.8 1350.83   1
 -17   5   5 21580.5 1397.81   3
 -12  -5   5 22876.2 1354.19   3
  12 -17   5 22461.1 1364.52   2
  12 -17   5 20685.9 1120.41   3
  17 -12   5 21342.3 1119.54   2
  17 -12   8 3447.02 454.565   2
 -12  -5   8 4383.43 567.219   1
  12 -17   8 4936.50 998.236   1
   5  12   8 5531.78 804.983   1
  17 -12   8 5522.15 934.288   1
  12 -17   8 4743.90 539.421   4
  -5  17   8 2632.64 625.341   1
 -12  -5   8 4545.92 742.070   3
  12 -17   8 3527.56 627.080   2
 -17   5   8 3225.11 799.962   3
 -12  -5   8 4851.15 562.707   4
  -5  17  11 6434.30 1024.43   1
 -12  -5  11 7141.31 1242.14   2
  12 -17  11 6146.82 1211.77   1
 -12  -5  11 6025.91 1090.24   3
   5  12  11 5956.82 1029.78   1
 -17   5  11 5244.16 1029.61   3
  17 -12  11 6087.55 1148.38   1
 -11  -6  -8 1859.51 511.610   4
  11 -17  -8 1181.27 528.360   2
  11 -17  -8 1048.04 366.292   4
  17 -11  -5 13288.1 922.304   4
 -17   6  -5 10074.2 1087.86   3
 -11  -6  -5 11112.1 940.358   4
  11 -17  -5 10554.5 860.740   4
  17 -11  -5 11158.0 547.046   1
 -17   6  -5 9989.87 736.850   2
  11 -17  -5 9879.13 902.887   2
 -11  -6  -5 10325.8 748.476   2
  17 -11  -2 3850.74 547.078   4
  17 -11  -2 2931.86 553.429   2
 -17   6  -2 2953.66 656.327   3
  11 -17  -2 2736.12 483.593   4
 -11  -6  -2 2923.00 605.873   3
 -11  -6  -2 3923.57 628.070   2
  17 -11  -2 2774.05 282.651   1
  11 -17  -2 3137.28 586.867   2
   6  11  -2 3548.20 401.336   3
  17 -11   1 18901.3 1140.72   2
 -11  -6   1 19845.0 848.655   1
  17 -11   1 19594.0 946.593   1
   6  11   1 18189.8 952.447   1
  11 -17   1 18023.5 1043.97   4
  17 -11   1 18696.9 1097.46   4
  11 -17   1 17800.3 1192.69   2
  11 -17   1 17849.9 608.313   3
  -6  17   1 20415.6 635.030   3
 -17   6   1 17589.9 1187.93   3
  -6  17   1 20020.7 1060.67   1
   6  11   1 18350.0 1013.80   3
 -11  -6   1 18367.4 1175.93   3
  17 -11   4 7597.19 690.722   2
 -11  -6   4 5620.20 454.326   1
  17 -11   4 7587.54 788.746   1
 -17   6   4 8054.14 896.180   3
  11 -17   4 7921.75 705.573   4
  -6  17   4 7131.03 714.779   1
  11 -17   4 7215.36 825.010   2
   6  11   4 8031.46 790.872   1
 -11  -6   4 7651.49 753.447   3
  11 -17   4 6838.87 546.649   3
   6  11   7 1890.85 527.378   1
  17 -11   7 1601.10 363.258   2
 -11  -6   7 1997.92 428.364   4
 -11  -6   7 1427.67 469.373   3
 -11  -6   7 2166.07 410.638   1
  11 -17   7 1543.70 359.241   4
  11 -17   7 2037.43 576.459   2
  17 -11   7 2756.73 658.222   1
 -17   6   7 2295.70 620.457   3
  -6  17   7 1231.22 471.702   1
  11 -17   7 2861.35 731.719   1
 -11  -6  10 2994.29 837.720   2
  11 -17  10 3061.01 844.606   1
  -6  17  10 3280.46 756.284   1
 -17   6  10 1396.98 640.124   3
 -11  -6  10 1407.89 647.168   3
  17 -11  10 2479.93 791.633   1
   6  11  10 717.558 583.807   1
  10 -17  -9 585.768 482.363   2
 -10  -7  -9 539.553 437.307   4
  10 -17  -9 934.747 409.063   4
 -10  -7  -6 3400.07 599.449   4
 -17   7  -6 5327.77 833.982   3
  17 -10  -6 2929.17 327.134   1
  10 -17  -6 4263.89 594.085   4
 -17   7  -6 3661.00 506.459   2
  17 -10  -6 3070.22 480.249   4
 -10  -7  -6 3864.27 436.541   2
  10 -17  -6 4140.35 669.829   2
 -10  -7  -3 4044.28 665.463   3
 -17   7  -3 3122.22 663.174   3
  17 -10  -3 4991.76 716.405   2
 -10  -7  -3 3165.43 528.356   4
  17 -10  -3 3276.25 248.113   1
 -10  -7  -3 4191.45 563.528   2
  10 -17  -3 3047.55 497.188   4
 -17   7  -3 3725.97 541.799   2
  17 -10  -3 4439.13 575.785   4
   7  10  -3 3258.12 410.667   3
  10 -17  -3 4309.19 653.284   2
  17 -10   0 4140.66 575.742   4
  17 -10   0 4933.36 643.076   2
  -7  17   0 3330.13 211.049   3
 -10  -7   0 4932.83 498.162   1
 -10  -7   0 4694.66 645.707   3
  10 -17   0 6203.99 656.406   4
  10 -17   0 4060.26 632.641   2
   7  10   0 5056.93 498.585   1
  -7  17   0 4735.26 245.313   3
   7  10   0 5452.14 547.985   3
  17 -10   0 4634.89 441.609   1
 -17   7   0 4980.96 788.738   3
  17 -10   3 2689.84 450.984   2
 -10  -7   3 2335.64 474.959   4
  10 -17   3 2745.00 444.329   4
 -17   7   3 2273.60 547.566   3
  -7  17   3 2111.46 422.617   1
  17 -10   3 1995.63 435.869   1
  -7  17   3 3032.47 413.632   3
  10 -17   3 2711.61 554.935   2
   7  10   3 2642.23 476.261   1
 -10  -7   3 1807.42 278.079   1
  10 -17   3 2564.91 266.273   3
 -10  -7   3 2082.06 482.815   3
   7  10   6 1282.31 539.086   1
  10 -17   6 836.949 420.988   3
  -7  17   6 1020.67 469.064   1
 -10  -7   6 333.947 246.362   1
  17 -10   6 587.478 284.090   2
 -10  -7   6 262.093 246.996   1
 -10  -7   6 461.406 316.453   4
  10 -17   6 431.642 380.674   2
  10 -17   6 271.467 267.501   4
  17 -10   6 399.338 441.068   1
 -17   7   6 1707.15 566.079   3
 -10  -7   6 244.759 323.059   3
 -10  -7   9 2431.42 757.353   2
  -7  17   9 4305.08 739.527   1
  10 -17   9 2093.45 620.148   2
 -10  -7   9 2852.40 585.985   1
 -17   7   9 2413.21 690.911   3
 -10  -7   9 2956.49 675.825   3
   7  10   9 2543.77 691.313   1
  17 -10   9 2757.84 777.154   1
  10 -17   9 3274.97 839.362   1
  -9  -8 -10 1851.43 479.506   4
   9 -17 -10 2173.32 489.339   4
  -9  -8  -7 5047.06 403.682   2
  -9  -8  -7 5706.23 720.736   4
   9 -17  -7 5366.18 668.126   4
   9 -17  -7 5771.81 760.281   2
 -17   8  -4 6990.20 933.581   3
  -9  -8  -4 7795.77 927.038   3
  -9  -8  -4 5377.54 608.254   2
   9 -17  -4 5628.10 654.988   4
  17  -9  -4 5967.17 634.957   4
 -17   8  -4 5357.49 611.262   2
  -9  -8  -4 5553.84 679.700   4
   9 -17  -4 5197.55 687.439   2
  -9  -8  -1 25588.9 1355.23   3
  17  -9  -1 25053.9 1390.85   2
  17  -9  -1 24718.6 773.140   1
   8   9  -1 21158.6 927.543   1
   9 -17  -1 24487.7 1215.56   4
  17  -9  -1 23518.7 1178.64   4
   9 -17  -1 23562.9 1369.26   2
   8   9  -1 23586.8 1078.91   3
  -9  -8  -1 22899.1 1337.79   2
 -17   8  -1 21867.5 1432.13   3
  17  -9   2 7838.55 740.901   2
  -8  17   2 8616.96 559.122   3
  -9  -8   2 8567.65 928.311   2
  17  -9   2 9151.12 714.204   1
   9 -17   2 9246.99 787.052   4
  -9  -8   2 7426.08 546.072   1
   9 -17   2 7430.47 833.832   2
  -8  17   2 9247.47 723.588   1
 -17   8   2 9051.92 883.614   3
  -9  -8   2 9047.90 777.901   4
   8   9   2 8868.89 702.836   1
  -9  -8   2 9180.57 789.557   3
   9 -17   5 24196.3 1070.88   3
  -9  -8   5 21921.6 940.767   1
  17  -9   5 24927.4 1147.50   2
  -8  17   5 23729.2 1236.74   1
  -9  -8   5 25479.6 1655.47   2
  -9  -8   5 25827.6 1221.29   4
  17  -9   5 23113.4 1377.10   1
   9 -17   5 25825.9 1186.01   4
   8   9   5 26604.2 1386.13   1
   9 -17   5 28509.7 1605.41   2
  -8  17   5 24668.6 1270.09   3
 -17   8   5 22818.8 1408.36   3
  -9  -8   5 25012.6 1290.91   3
   9 -17   8 2140.72 701.697   1
  -9  -8   8 1601.89 629.146   2
 -17   8   8 1323.59 262.605   1
  -9  -8   8 1204.96 479.216   1
   9 -17   8 1299.90 321.178   4
   9 -17   8 1298.40 520.014   2
  -8  17   8 399.563 458.621   3
  -9  -8   8 792.808 294.572   4
 -17   8   8 1565.80 674.137   3
  -9  -8   8 447.008 391.624   3
  -8  17   8 1739.01 574.082   1
   8   9   8 1234.80 535.625   1
  17  -9   8 1059.38 518.169   1
  17  -9  11 3662.27 960.454   1
  -9  -8  11 5889.06 1048.99   2
   9 -17  11 5217.18 1125.84   1
 -17   8  11 4682.81 999.438   3
  -9  -8  11 5050.48 910.842   3
   8   9  11 4696.20 923.416   1
  -8  17  11 5414.34 930.363   1
  -8  17  11 3738.65 929.660   3
   8 -17  -8 1404.68 468.952   2
  -8  -9  -8 979.539 457.306   4
   8 -17  -8 875.942 369.288   4
 -17   9  -5 23902.8 1615.87   3
   8 -17  -5 24315.4 1342.20   2
  -8  -9  -5 26252.8 1182.42   2
   8 -17  -5 25407.9 1312.44   4
  -8  -9  -5 25533.4 1374.47   4
 -17   9  -5 25785.1 1248.87   2
  -8  -9  -2 8713.93 815.875   2
 -17   9  -2 5738.36 812.684   3
  17  -8  -2 7181.78 285.295   1
  -8  -9  -2 6796.01 745.284   3
   8 -17  -2 7093.18 713.046   4
   8 -17  -2 8032.62 836.806   2
  17  -8  -2 5684.26 258.417   1
   9   8  -2 7426.25 644.424   3
  -8  -9  -2 8278.27 799.162   4
   9   8   1 24118.2 1036.59   1
  17  -8   1 25376.6 1320.00   2
  -8  -9   1 22881.2 1225.56   4
  17  -8   1 24483.2 994.192   1
   8 -17   1 25457.8 1230.99   4
  -8  -9   1 22758.1 979.259   1
  -9  17   1 26080.4 819.269   3
  -8  -9   1 22734.0 1409.77   2
   8 -17   1 26216.7 1504.74   2
 -17   9   1 23245.8 1347.54   3
   9   8   1 23495.4 1229.81   3
  -8  -9   1 24729.9 1226.94   3
  -8  -9   4 6580.33 674.482   4
  -8  -9   4 5611.65 865.290   2
  17  -8   4 5898.15 685.331   1
  -8  -9   4 4461.24 477.923   1
   9   8   4 4699.52 603.746   1
   8 -17   4 5012.01 563.435   4
  -9  17   4 5763.23 618.902   3
  -9  17   4 5092.24 585.139   1
   8 -17   4 5603.50 792.610   2
 -17   9   4 4945.11 709.200   3
  -8  -9   4 4891.87 570.003   3
   8 -17   4 5313.20 401.303   3
  17  -8   7 5521.39 828.250   1
  -9  17   7 5947.16 733.065   1
   8 -17   7 4703.76 807.734   1
  -8  -9   7 4974.19 627.016   1
  -8  -9   7 5075.52 567.470   4
   8 -17   7 6130.76 845.532   2
   8 -17   7 4893.24 533.071   4
   9   8   7 4720.88 766.805   1
 -17   9   7 4588.17 350.708   1
  -9  17   7 5623.03 785.809   3
 -17   9   7 5163.03 811.104   3
  -8  -9   7 5273.82 665.695   3
  -8  -9   7 5473.84 883.007   2
  17  -8  10 1309.57 749.240   1
   8 -17  10 3386.09 883.166   1
   9   8  10 3104.80 763.839   1
   8 -17  10 1763.02 617.174   2
  -9  17  10 2395.20 784.647   3
  -9  17  10 2524.75 664.626   1
  -8  -9  10 788.773 500.820   1
  -8  -9  10 3693.48 925.389   2
 -17   9  10 4001.39 901.203   3
  -8  -9  10 3346.83 746.301   3
   7 -17  -9 3097.96 586.331   2
  -7 -10  -9 1712.28 506.353   4
   7 -17  -9 2352.63 479.451   4
   7 -17  -6 808.604 366.166   2
 -17  10  -6 1172.88 536.677   3
  -7 -10  -6 581.395 359.045   4
 -17  10  -6 680.374 377.029   2
   7 -17  -6 789.052 342.350   4
  -7 -10  -6 621.679 310.885   2
 -17  10  -3 3710.84 733.658   3
  -7 -10  -3 2805.10 571.339   3
  -7 -10  -3 3030.67 541.258   4
  -7 -10  -3 2646.96 506.757   2
   7 -17  -3 2205.16 498.083   2
   7 -17  -3 2832.17 526.236   4
  -7 -10   0 4392.37 571.463   3
  -7 -10   0 4524.60 597.742   4
  -7 -10   0 4383.95 663.515   2
  10   7   0 4436.50 454.977   1
  -7 -10   0 3931.98 491.306   1
  17  -7   0 4900.31 416.876   1
   7 -17   0 5535.47 738.798   2
   7 -17   0 4418.58 551.561   4
  10   7   0 3792.13 548.959   3
 -10  17   0 5374.71 395.203   3
 -17  10   0 5727.37 742.964   3
  17  -7   3 4246.66 568.427   1
  -7 -10   3 3484.61 661.511   2
  -7 -10   3 3371.90 533.520   4
 -10  17   3 3286.83 457.648   1
   7 -17   3 3968.30 533.238   4
   7 -17   3 4317.15 720.122   2
  10   7   3 4771.99 550.727   1
 -10  17   3 2764.14 434.320   3
  -7 -10   3 3160.42 418.541   1
 -17  10   3 3382.24 637.310   3
  -7 -10   3 4917.50 558.785   3
 -17  10   6 3129.63 286.616   1
   7 -17   6 2909.60 485.498   3
  -7 -10   6 3025.65 464.319   4
 -10  17   6 4075.70 595.212   1
  -7 -10   6 3932.72 732.918   2
   7 -17   6 3800.64 488.166   4
   7 -17   6 2946.79 655.213   2
  17  -7   6 3344.03 701.604   1
 -10  17   6 3845.55 633.516   3
  10   7   6 2625.68 557.841   1
  -7 -10   6 3400.66 544.832   3
 -17  10   6 1754.59 509.417   3
  17  -7   9 48.4754 513.052   1
 -10  17   9-400.320 440.119   1
  -7 -10   9-411.056 559.331   2
   7 -17   9 325.193 454.360   2
   7 -17   9 38.9184 607.152   1
  -7 -10   9 46.5245 374.404   1
  10   7   9 699.256 595.733   1
 -10  17   9 166.107 527.744   3
 -17  10   9 172.160 485.538   3
  -7 -10   9 120.323 383.027   3
  -6 -11 -10 1371.27 450.601   4
   6 -17 -10 1414.55 424.944   4
   6 -17  -7 2851.91 541.642   2
  -6 -11  -7 2028.18 498.339   4
   6 -17  -7 1364.98 444.334   4
  -6 -11  -7 1835.68 343.994   2
 -17  11  -4 6702.50 856.196   3
  -6 -11  -4 9497.30 816.988   2
  -6 -11  -4 7680.13 796.708   4
   6 -17  -4 7170.55 753.127   2
   6 -17  -4 6678.03 710.966   4
 -11  17  -1 21854.2 812.127   3
  11   6  -1 21530.0 844.275   1
  -6 -11  -1 23101.6 1154.21   3
  -6 -11  -1 20876.6 1238.12   4
  -6 -11  -1 21111.1 1281.88   2
   6 -17  -1 17575.2 1099.03   4
   6 -17  -1 22686.3 1369.52   2
  17  -6  -1 20681.2 570.327   1
 -17  11  -1 22282.4 1340.29   3
  -6 -11   2 2261.33 373.466   1
  11   6   2 2523.72 396.243   1
  -6 -11   2 2798.26 487.753   4
 -17  11   2 3283.20 557.437   3
  -6 -11   2 3604.62 660.923   2
   6 -17   2 3149.65 495.927   4
  17  -6   2 2206.28 400.556   1
   6 -17   2 2401.17 564.833   2
 -11  17   2 2118.25 327.065   3
  -6 -11   2 3283.69 473.244   3
   6 -17   5 9891.01 618.285   3
   6 -17   5 10423.5 524.119   3
  -6 -11   5 10253.7 1097.47   2
  -6 -11   5 9722.94 791.914   4
   6 -17   5 10224.6 763.145   4
   6 -17   5 11875.5 1116.64   2
  11   6   5 9756.09 917.714   1
  17  -6   5 10124.2 933.060   1
 -11  17   5 9680.70 840.045   3
 -11  17   5 9347.97 781.989   1
 -17  11   5 11152.2 1016.46   3
  -6 -11   5 11171.1 799.383   3
  17  -6   8 3159.76 723.649   1
 -17  11   8 3073.40 417.561   1
 -11  17   8 1758.81 496.612   1
  -6 -11   8 2485.50 547.654   3
  -6 -11   8 3469.89 646.643   1
  -6 -11   8 2616.18 431.871   4
  -6 -11   8 1757.01 618.054   2
   6 -17   8 3018.44 711.434   1
   6 -17   8 2827.54 402.165   4
   6 -17   8 3614.21 732.140   2
  11   6   8 2514.75 729.823   1
   6 -17   8 3225.59 508.764   3
 -11  17   8 2135.30 681.973   3
 -17  11   8 3577.33 768.230   3
  17  -6  11 1889.99 871.339   1
 -11  17  11 466.401 623.456   3
  -6 -11  11 2338.18 789.013   2
   6 -17  11 2481.39 928.759   1
  11   6  11 3041.78 887.329   1
   6 -17  11 1625.06 616.945   3
  -6 -11  11 994.890 601.051   1
 -17  11  11 1808.78 763.543   3
  -6 -11  11 1451.84 589.428   3
 -11  17  11 1459.38 611.846   1
  -5 -12  -8 5082.28 709.087   4
   5 -17  -8 3581.10 598.497   4
  -5 -12  -8 3131.46 374.074   2
   5 -17  -8 4963.57 691.841   2
   5 -17  -5 20157.0 1191.32   4
 -17  12  -5 20059.0 1395.08   3
  -5 -12  -5 20507.9 1275.51   4
  -5 -12  -5 22470.1 1186.03   2
   5 -17  -5 21672.6 1250.83   2
 -17  12  -2 4585.55 689.316   3
 -12  17  -2 5691.71 468.673   3
  -5 -12  -2 4354.10 550.624   3
  -5 -12  -2 4349.42 589.021   4
  -5 -12  -2 4079.59 652.081   2
   5 -17  -2 6376.32 681.415   4
   5 -17  -2 5656.71 743.777   2
  -5 -12   1 12896.9 800.277   3
  -5 -12   1 13941.5 997.416   4
  -5 -12   1 14747.4 1147.41   2
   5 -17   1 13892.5 940.829   4
  12   5   1 11507.7 692.881   1
 -12  17   1 12064.9 688.677   3
 -17  12   1 12447.1 946.506   3
  17  -5   1 13266.0 719.877   1
   5 -17   1 13208.8 1106.36   2
 -12  17   4 2624.02 438.888   1
  -5 -12   4 3621.33 533.163   4
   5 -17   4 2381.03 188.268   3
  12   5   4 3269.68 533.236   1
   5 -17   4 2746.12 458.722   4
   5 -17   4 2246.88 219.056   3
  -5 -12   4 3774.92 639.793   2
   5 -17   4 1588.48 527.125   2
  17  -5   4 2933.45 522.612   1
 -12  17   4 2642.59 469.478   3
  -5 -12   4 4204.49 492.296   3
 -17  12   4 2545.87 493.139   3
  12   5   7 12488.5 1133.27   1
 -12  17   7 11826.3 1085.10   3
   5 -17   7 11158.3 1141.69   1
  -5 -12   7 11086.0 1192.31   2
   5 -17   7 12103.2 1193.95   2
  -5 -12   7 12163.5 828.628   4
  -5 -12   7 13651.1 960.628   3
  -5 -12   7 11485.3 1013.11   1
 -12  17   7 12536.7 956.515   1
   5 -17   7 11568.2 766.550   3
 -17  12   7 11580.9 660.065   1
 -17  12   7 12502.0 1174.99   3
  17  -5   7 10629.6 1067.67   1
   5 -17   7 11587.2 781.561   4
 -12  17  10 989.880 496.624   1
  17  -5  10 1518.03 688.065   1
  -5 -12  10 900.569 604.140   2
   5 -17  10 12.1979 743.621   1
   5 -17  10 178.915 565.481   2
  12   5  10 599.771 583.314   1
   5 -17  10 1414.72 543.861   3
 -12  17  10 1135.38 644.047   3
 -17  12  10-245.633 685.083   3
  -5 -12  10 1478.07 560.539   3
  -5 -12  10 1580.07 585.612   1
   4 -17  -9 554.140 376.027   2
   4 -17  -9 748.733 404.524   4
  -4 -13  -9 732.586 427.029   4
  -4 -13  -6 730.570 344.074   2
   4 -17  -6 1283.15 387.503   4
  -4 -13  -6 1434.92 426.500   4
   4 -17  -6 853.930 395.902   2
  -4 -13  -3 4127.46 616.355   2
 -17  13  -3 5291.35 764.346   3
 -13  17  -3 4059.01 464.575   3
   4 -17  -3 4230.70 606.779   4
  -4 -13  -3 4385.07 629.830   4
   4 -17  -3 4302.37 677.395   2
 -17  13   0 1213.71 407.142   3
  13   4   0 2386.56 325.682   1
  -4 -13   0 3435.32 431.394   3
  -4 -13   0 2793.61 541.014   4
  -4 -13   0 1782.51 505.326   2
   4 -17   0 2397.84 484.757   4
   4 -17   0 3152.00 610.350   2
 -13  17   0 2252.30 371.278   3
  17  -4   0 3085.54 318.455   1
  13   4   3 2683.87 452.284   1
   4 -17   3 3526.33 524.330   4
  -4 -13   3 2498.74 620.191   2
  -4 -13   3 3271.42 518.479   4
 -13  17   3 2863.24 489.976   3
  17  -4   3 2968.47 470.919   1
 -17  13   3 3223.56 549.056   3
   4 -17   3 3034.58 623.796   2
  -4 -13   3 3727.49 457.733   3
  13   4   6 3622.23 629.188   1
   4 -17   6 2718.35 453.650   3
 -17  13   6 2959.85 640.522   3
 -17  13   6 2658.56 357.684   1
  -4 -13   6 3755.77 757.437   2
  -4 -13   6 3149.01 482.015   4
   4 -17   6 3443.10 476.277   4
   4 -17   6 2908.44 696.497   2
 -13  17   6 3372.35 499.897   1
 -13  17   6 3579.45 666.665   3
   4 -17   6 3006.61 359.467   3
  -4 -13   6 3315.47 486.908   3
  17  -4   6 3850.40 670.852   1
   4 -17   9 3373.75 771.474   2
  17  -4   9 3252.32 846.099   1
 -13  17   9 3077.22 630.425   1
  -4 -13   9 3286.25 880.668   2
   4 -17   9 3728.81 927.524   1
  -4 -13   9 3047.87 707.206   1
  -4 -13   9 2223.68 548.316   3
  13   4   9 2656.03 740.122   1
 -17  13   9 2185.84 447.435   1
   4 -17   9 2628.26 538.716   3
 -13  17   9 3123.59 799.073   3
 -17  13   9 1427.40 606.408   3
  -3 -14 -10 764.089 445.118   4
   3 -17 -10 136.885 353.219   4
   3 -17  -7 2322.49 480.858   2
  -3 -14  -7 2713.98 574.061   4
   3 -17  -7 2033.47 497.191   4
  -3 -14  -7 1935.37 415.240   2
  -3 -14  -4 6873.93 777.737   4
 -17  14  -4 6018.85 790.217   3
   3 -17  -4 5753.91 691.124   4
  -3 -14  -4 6987.81 751.523   2
   3 -17  -4 6602.43 771.967   2
  -3 -14  -1 8726.01 860.185   4
  -3 -14  -1 7573.18 883.463   2
   3 -17  -1 9435.89 858.066   4
   3 -17  -1 8398.97 919.701   2
  17  -3  -1 8223.70 369.515   1
  14   3  -1 8455.73 475.043   1
 -17  14  -1 8354.72 844.295   3
 -14  17  -1 9117.71 722.163   3
  -3 -14   2 1397.72 321.148   3
   3 -17   2 1008.88 374.542   4
 -14  17   2 1453.22 371.556   3
  17  -3   2 1175.15 341.713   1
  -3 -14   2 1534.56 563.036   2
   3 -17   2 1532.23 547.126   2
  14   3   2 1230.98 330.905   1
 -17  14   2 1806.90 487.651   3
  -3 -14   2 1071.70 401.746   4
   3 -17   5 452.660 510.008   2
  17  -3   5 750.927 444.943   1
   3 -17   5 269.811 231.755   3
  -3 -14   5 233.383 317.710   4
   3 -17   5 412.668 306.672   4
  14   3   5 135.638 356.067   1
  -3 -14   5 183.169 460.263   2
 -14  17   5-531.974 392.133   3
 -17  14   5-169.962 421.436   3
   3 -17   5 81.1637 152.398   3
  -3 -14   5-112.025 248.863   3
 -14  17   5 70.6505 272.148   1
   3 -17   8 4894.70 522.572   4
  -3 -14   8 4511.81 520.618   4
  17  -3   8 2502.50 702.680   1
  -3 -14   8 4204.00 755.544   1
   3 -17   8 4721.75 887.226   1
 -14  17   8 3583.15 578.044   1
   3 -17   8 5402.36 893.119   2
  -3 -14   8 3561.23 829.648   2
  14   3   8 4702.41 822.559   1
 -17  14   8 4387.55 548.013   1
   3 -17   8 5352.72 625.803   3
 -14  17   8 3866.04 788.939   3
  -3 -14   8 5700.53 709.614   3
 -17  14   8 3530.24 725.259   3
  -3 -14  11 369.336 600.210   2
 -14  17  11 911.565 566.712   1
  17  -3  11 1391.66 760.052   1
  14   3  11-172.245 634.206   1
   3 -17  11-320.431 650.245   1
  -3 -14  11-167.622 584.520   1
 -14  17  11 394.182 657.652   3
 -17  14  11 430.225 645.398   3
  -3 -14  11-275.329 484.715   3
   2 -17  -8 6010.84 751.328   4
  -2 -15  -8 4389.68 683.547   4
  -2 -15  -8 6086.83 610.564   2
 -17  15  -5 21715.4 1341.64   3
   2 -17  -5 23800.2 1366.92   4
   2 -17  -5 21919.6 1277.87   2
  -2 -15  -5 23893.7 1333.17   2
  -2 -15  -5 23263.2 1370.54   4
 -17  15  -2 17688.3 1179.00   3
 -15  17  -2 15311.3 965.249   3
  -2 -15  -2 14751.1 1064.08   4
   2 -17  -2 18628.4 1165.86   4
  -2 -15  -2 16065.7 1207.99   2
   2 -17  -2 17228.5 1245.42   2
  -2 -15   1 15244.1 1216.56   2
  17  -2   1 15780.5 771.951   1
  -2 -15   1 14110.0 654.513   3
   2 -17   1 14260.7 1200.90   2
  -2 -15   1 14133.0 1007.90   4
   2 -17   1 14172.0 1021.88   4
  15   2   1 13004.3 728.229   1
 -15  17   1 11523.6 788.982   3
 -17  15   1 13616.2 954.182   3
  15   2   4 5138.71 636.932   1
  -2 -15   4 4710.49 816.948   2
  -2 -15   4 4003.19 576.445   4
   2 -17   4 3282.57 683.389   2
 -15  17   4 5694.09 674.415   3
 -17  15   4 3542.49 641.681   3
  -2 -15   4 5243.83 485.232   3
   2 -17   4 4007.26 293.332   3
  17  -2   4 3421.21 555.199   1
   2 -17   4 5432.39 633.871   4
  15   2   7 27597.7 1660.40   1
   2 -17   7 30093.7 1279.35   4
  -2 -15   7 27230.5 1874.63   2
  -2 -15   7 29248.8 1281.46   4
 -15  17   7 24932.5 1245.01   1
   2 -17   7 28719.7 1864.51   2
 -15  17   7 27304.2 1633.73   3
   2 -17   7 29002.4 1160.84   3
 -17  15   7 29008.0 1743.62   3
  -2 -15   7 28451.7 1275.51   3
 -17  15   7 27083.7 1132.40   1
  17  -2   7 26470.7 1666.19   1
  -2 -15  10 2983.83 774.401   1
  -2 -15  10 6064.59 1053.38   2
   2 -17  10 4964.05 959.172   2
 -15  17  10 3525.84 667.673   1
   2 -17  10 4770.97 980.160   1
  -2 -15  10 4121.79 748.860   3
 -15  17  10 3050.16 835.274   3
   2 -17  10 3865.74 679.322   3
 -17  15  10 2617.57 832.056   3
  15   2  10 4753.56 957.646   1
  17  -2  10 4428.02 1004.78   1
  -1 -16  -9 6706.24 828.026   4
   1 -17  -9 5557.56 749.337   4
   1 -17  -6 5653.29 755.764   4
  -1 -16  -6 5526.74 722.687   4
  -1 -16  -6 6803.49 736.319   2
   1 -17  -6 5282.86 668.870   2
 -17  16  -3 7393.21 815.196   3
 -16  17  -3 6056.49 680.169   3
  -1 -16  -3 6634.83 759.163   4
   1 -17  -3 8080.69 833.215   4
  -1 -16  -3 6799.69 821.531   2
   1 -17  -3 7236.04 845.311   2
 -17  16   0 4074.13 569.824   3
  -1 -16   0 2429.87 553.872   2
  17  -1   0 2949.61 325.961   1
   1 -17   0 3447.35 663.529   2
  -1 -16   0 2961.23 560.784   4
   1 -17   0 3852.65 612.003   4
  16   1   0 2950.27 338.729   1
 -16  17   0 3913.39 543.631   3
  17  -1   3 18433.3 1037.86   1
  16   1   3 19072.2 1059.55   1
  -1 -16   3 15245.3 1329.34   2
   1 -17   3 17047.6 1090.60   4
   1 -17   3 15757.2 1327.60   2
  -1 -16   3 16411.7 1059.34   4
 -16  17   3 14031.3 1011.24   3
 -17  16   3 16428.5 1100.12   3
  -1 -16   3 15194.0 650.902   3
  -1 -16   6 2237.09 395.853   3
  -1 -16   6 2919.66 492.695   4
 -16  17   6 3101.06 482.336   1
  17  -1   6 1164.64 440.216   1
   1 -17   6 3540.32 529.352   4
  16   1   6 2593.56 610.422   1
  -1 -16   6 3373.20 822.377   2
   1 -17   6 2923.80 766.084   2
 -17  16   6 2668.70 423.143   1
   1 -17   6 2402.11 374.339   3
 -16  17   6 2305.33 619.481   3
 -17  16   6 1852.64 586.642   3
 -17  16   9 1631.56 453.460   1
   1 -17   9 1891.75 695.042   1
   1 -17   9 2744.15 796.082   2
  17  -1   9 2505.77 802.211   1
  16   1   9 2553.11 804.744   1
  -1 -16   9 1985.71 678.909   1
  -1 -16   9 1647.67 665.308   2
   1 -17   9 3184.08 597.889   3
 -16  17   9 724.011 557.017   3
 -17  16   9 1553.46 694.247   3
  -1 -16   9 1866.10 495.237   3
 -16  17   9 2209.59 520.385   1
   0 -17 -10 2641.79 618.834   4
   0 -17  -7-178.127 353.363   4
   0 -17  -7 683.491 410.299   2
 -17  17  -4 1156.30 433.429   3
   0 -17  -4 1229.87 421.472   4
   0 -17  -4 474.640 386.663   2
 -17  17  -1-177.480 318.749   3
  17   0  -1-31.2667 133.505   1
   0 -17  -1 56.7361 355.647   4
   0 -17  -1 583.541 436.698   2
  17   0   2 12199.0 801.725   1
   0 -17   2 13952.7 1014.25   4
   0 -17   2 12164.9 1184.69   2
 -17  17   2 11741.3 896.642   3
  17   0   5 276.314 365.548   1
   0 -17   5-365.260 321.854   4
   0 -17   5 787.268 589.600   2
 -17  17   5 449.719 410.113   3
   0 -17   5-26.9841 208.330   3
   0 -17   8 2670.89 741.276   1
  17   0   8 1159.92 624.077   1
 -17  17   8 1333.47 549.635   3
   0 -17   8 1682.84 399.238   4
   0 -17   8 1628.02 444.357   3
 -17  17   8 1682.91 428.623   1
 -18   0  -9-339.871 439.788   4
  18 -18  -9 671.053 430.068   4
  18 -18  -6 18609.4 1427.31   2
 -18   0  -6 18405.3 1689.55   3
  18 -18  -6 15070.2 1097.94   4
  18 -18  -3 136.000 465.547   2
 -18   0  -3 327.979 466.885   3
  18 -18  -3-375.675 375.981   4
  18 -18   0 9333.33 940.618   2
 -18   0   0 8657.15 616.685   1
  18 -18   0 8363.23 832.239   4
   0  18   0 8941.42 473.810   3
 -18   0   0 8672.79 995.618   3
  18 -18   3 681.820 436.093   2
   0  18   3 81.3801 360.187   3
   0  18   3 379.978 365.271   1
  18 -18   3-29.1388 278.163   4
 -18   0   3-184.475 390.664   3
  18 -18   6 13865.6 1275.37   1
   0  18   6 14651.6 1182.13   1
  18 -18   6 15921.3 1102.10   4
  18 -18   6 14291.6 1107.09   2
 -18   0   6 16558.8 1361.43   3
   0  18   9 114.161 525.313   1
  18 -18   9 1056.80 664.295   1
 -18   0   9 210.264 529.513   3
 -18   1 -10 1935.30 584.866   4
 -17  -1 -10 2520.29 662.860   4
  17 -18  -7 15176.0 1079.41   4
 -17  -1  -7 12091.2 649.341   2
  17 -18  -7 11951.3 1200.86   2
  18 -17  -7 15701.8 1379.49   2
 -18   1  -7 12041.1 675.832   2
  18 -17  -7 14465.7 1069.24   4
  18 -17  -4 3883.05 688.050   2
 -18   1  -4 2901.86 734.120   3
 -17  -1  -4 4256.93 801.845   3
  18 -17  -4 5035.67 666.870   4
  17 -18  -4 4361.26 628.319   4
  17 -18  -4 4852.85 746.670   2
 -17  -1  -1 17575.9 961.383   1
 -18   1  -1 16264.1 1373.75   3
 -17  -1  -1 19896.1 1498.36   3
  17 -18  -1 21188.9 1259.96   4
  18 -17  -1 18553.6 1180.16   4
   1  17  -1 17726.8 559.182   3
  17 -18  -1 17531.2 1278.36   2
 -18   1  -1 18693.4 968.218   1
  18 -17  -1 19065.4 1307.58   2
   1  17   2 3893.85 535.907   3
  -1  18   2 4358.21 539.047   3
  17 -18   2 4738.36 629.246   4
  17 -18   2 3427.75 492.554   3
 -17  -1   2 3459.15 273.794   1
  18 -17   2 4698.31 612.173   4
   1  17   2 3732.09 539.751   1
  17 -18   2 3508.39 631.831   2
  18 -17   2 4050.81 686.632   2
 -18   1   2 5041.65 781.810   3
 -17  -1   2 4931.32 772.069   3
  -1  18   2 4019.43 577.294   1
   1  17   5 15398.5 1152.47   1
  17 -18   5 14637.1 1248.99   1
  18 -17   5 14378.9 1222.71   1
  -1  18   5 14931.4 1136.15   1
  17 -18   5 14543.1 1021.13   4
  18 -17   5 16269.4 1094.87   4
  17 -18   5 14766.6 1130.52   2
  18 -17   5 13826.2 1060.19   2
 -18   1   5 14024.3 1235.00   3
 -17  -1   5 12884.3 1190.69   3
  17 -18   8 9920.86 1227.00   1
  18 -17   8 9276.15 1210.75   1
 -18   1   8 10972.2 1216.10   3
 -17  -1   8 11197.3 1206.22   3
  17 -18   8 9788.69 945.458   2
   1  17   8 9568.63 1075.33   1
  18 -17   8 10914.7 920.391   2
  -1  18   8 10402.9 1101.86   1
 -16  -2  -8 935.320 485.248   4
  16 -18  -8 1122.99 601.147   2
  18 -16  -8 1296.13 468.544   4
  16 -18  -8 1487.79 465.191   4
  18 -16  -5 2909.19 469.322   1
  18 -16  -5 3789.61 719.270   2
  16 -18  -5 3198.03 649.243   2
 -16  -2  -5 2217.75 406.671   2
 -18   2  -5 2744.45 758.150   3
 -16  -2  -5 2923.59 770.057   3
 -16  -2  -5 2828.34 512.224   2
  18 -16  -5 3156.29 543.155   4
  16 -18  -5 2259.32 500.939   4
 -18   2  -5 2908.87 503.762   2
 -18   2  -2 5393.85 859.792   3
 -16  -2  -2 5272.90 836.063   3
  18 -16  -2 5241.83 649.588   4
  18 -16  -2 5000.33 498.788   1
  16 -18  -2 5753.50 699.114   4
   2  16  -2 4205.04 311.132   3
  16 -18  -2 4760.14 719.730   2
  18 -16  -2 3988.33 669.021   2
 -18   2   1 1297.27 552.121   3
   2  16   1 1181.67 311.902   3
 -16  -2   1 910.262 496.589   3
  18 -16   1 1386.83 460.381   2
  -2  18   1 1015.51 347.356   1
  18 -16   1 527.830 321.983   4
  16 -18   1 1099.07 380.326   4
  16 -18   1 652.135 280.287   3
   2  16   1 1074.77 404.267   1
 -16  -2   1 1060.12 253.602   1
  16 -18   1 1458.17 498.436   2
  -2  18   1 1996.57 336.967   3
  18 -16   4 1357.61 449.130   2
   2  16   4 1617.76 467.803   1
  18 -16   4 171.380 351.346   1
  16 -18   4 1609.07 410.606   4
  18 -16   4 1443.94 457.771   4
  -2  18   4 1218.98 433.833   1
  16 -18   4 1204.21 428.513   2
 -18   2   4 1142.55 511.063   3
 -16  -2   4 1867.87 509.540   3
  16 -18   4 770.991 388.086   3
  18 -16   7 1453.72 628.081   1
  18 -16   7 878.849 426.899   2
  16 -18   7 464.822 489.856   1
   2  16   7 1546.20 529.152   1
  -2  18   7 896.949 519.788   1
 -18   2   7-83.9374 524.686   3
 -16  -2   7 231.393 439.896   3
  16 -18   7 254.522 327.996   4
  16 -18   7 839.861 392.412   2
  -2  18  10 398.757 507.455   1
   2  16  10 1014.99 575.338   1
  16 -18  10 1131.23 728.519   1
  18 -16  10 1832.53 858.350   1
 -18   2  10 1766.96 687.407   3
 -16  -2  10 60.9003 581.831   3
 -15  -3  -9 637.395 428.149   4
  15 -18  -9 206.002 349.033   4
  18 -15  -9 588.553 348.290   4
  15 -18  -6 6459.70 874.980   2
  18 -15  -6 4681.97 795.356   2
 -18   3  -6 3928.69 956.112   3
 -15  -3  -6 3435.64 420.644   2
 -15  -3  -6 4402.68 501.817   2
  15 -18  -6 5065.73 686.265   4
  18 -15  -6 4994.59 663.333   4
 -18   3  -6 4751.58 542.909   2
  18 -15  -3 3802.22 636.692   2
 -18   3  -3 3371.61 762.087   3
 -15  -3  -3 3789.13 757.560   3
  18 -15  -3 2839.03 386.550   1
  15 -18  -3 3596.77 580.644   4
  18 -15  -3 3689.47 547.750   4
  15 -18  -3 3600.16 663.538   2
 -18   3   0 13388.7 670.854   1
  15 -18   0 13032.2 977.558   4
  18 -15   0 14393.1 987.943   4
   3  15   0 12738.2 871.799   1
 -15  -3   0 13647.8 767.192   1
  15 -18   0 11704.1 709.182   3
  15 -18   0 11744.3 1030.72   2
   3  15   0 12951.0 714.478   3
  18 -15   0 13203.7 1078.25   2
 -18   3   0 13384.3 1193.54   3
 -15  -3   0 14904.8 1220.66   3
  18 -15   3 1495.25 452.317   2
  -3  18   3 1004.72 357.650   3
  -3  18   3 963.250 347.444   1
 -15  -3   3 836.187 173.463   1
   3  15   3 1106.85 402.915   1
  18 -15   3 2045.50 506.249   1
  15 -18   3 762.840 361.947   4
  18 -15   3 1001.00 348.041   4
  15 -18   3 1268.18 439.409   2
  15 -18   3 1405.10 352.779   3
 -18   3   3 705.572 425.365   3
 -15  -3   3 1719.38 512.632   3
  18 -15   6 9648.90 1066.35   1
  -3  18   6 7770.39 866.503   1
  15 -18   6 9163.69 1054.26   1
 -15  -3   6 6721.08 411.766   1
  15 -18   6 7536.86 733.925   4
  15 -18   6 9100.58 920.551   2
 -18   3   6 8195.09 1003.51   3
   3  15   6 9367.60 968.765   1
 -15  -3   6 8275.86 923.154   3
  18 -15   6 6964.14 751.825   2
  15 -18   9 533.512 632.623   1
 -18   3   9 1459.25 651.557   3
   3  15   9 387.033 533.970   1
 -15  -3   9 252.642 537.024   3
  -3  18   9-241.057 493.080   1
  18 -15   9 2176.00 751.942   1
  15 -18   9 570.175 419.667   2
 -14  -4 -10 3873.23 703.074   4
  14 -18 -10 2770.95 552.615   4
 -14  -4  -7 5666.56 416.747   2
  14 -18  -7 8637.31 975.695   2
 -14  -4  -7 8327.22 911.352   4
  14 -18  -7 7249.28 785.098   4
  18 -14  -7 7519.04 745.555   4
  18 -14  -4 13868.9 1159.41   2
 -18   4  -4 14642.2 1317.88   3
  14 -18  -4 15943.7 1091.00   4
 -14  -4  -4 12658.9 1224.37   3
 -14  -4  -4 14948.1 1030.77   2
  18 -14  -4 13658.1 706.022   1
  18 -14  -4 14864.4 1039.73   4
  14 -18  -4 15352.0 1159.76   2
 -18   4  -4 13060.0 902.596   2
 -18   4  -1 6202.40 859.435   3
  18 -14  -1 8795.96 883.274   2
 -14  -4  -1 9876.74 993.100   3
 -18   4  -1 8588.35 636.440   1
  18 -14  -1 7169.29 532.159   1
   4  14  -1 7631.77 513.659   3
  14 -18  -1 9836.94 840.547   4
  18 -14  -1 8632.17 769.639   4
  14 -18  -1 7423.47 574.871   3
 -14  -4  -1 7539.64 654.323   1
  14 -18  -1 8007.98 868.697   2
 -14  -4   2 12835.5 613.951   1
  -4  18   2 12107.2 748.107   3
  -4  18   2 12494.2 897.017   1
  18 -14   2 14785.1 982.151   1
   4  14   2 12438.0 882.607   1
  14 -18   2 14336.8 1008.71   4
  18 -14   2 13015.3 956.923   4
  14 -18   2 13529.4 1090.93   2
  14 -18   2 12184.1 674.557   3
 -18   4   2 12081.1 1069.37   3
 -14  -4   2 12117.5 1029.59   3
  18 -14   2 13323.2 1006.95   2
   4  14   2 12179.9 908.675   3
 -14  -4   5 5718.00 407.916   1
  -4  18   5 6363.44 755.339   1
  18 -14   5 6319.13 837.832   1
  14 -18   5 5642.66 628.196   4
  18 -14   5 7204.01 705.279   4
  14 -18   5 7434.35 865.033   2
 -14  -4   5 5322.79 352.306   1
 -18   4   5 7595.96 915.150   3
 -14  -4   5 4307.23 736.240   3
   4  14   5 5914.60 750.583   1
  18 -14   5 6800.35 710.420   2
  14 -18   5 4852.59 623.733   3
  14 -18   8 2323.46 721.259   1
 -14  -4   8 3315.60 517.675   4
  18 -14   8 2940.04 472.724   2
   4  14   8 3692.53 714.848   1
 -14  -4   8 3254.96 481.983   1
  14 -18   8 2710.33 464.912   4
  18 -14   8 2445.56 704.051   1
 -18   4   8 3823.51 788.733   3
  -4  18   8 2043.03 570.094   1
  14 -18   8 2531.22 593.754   2
 -14  -4   8 2419.56 711.138   3
 -14  -4  11 4128.16 1075.68   2
   4  14  11 5436.67 1030.60   1
  -4  18  11 4417.73 917.413   1
  14 -18  11 4035.87 1087.26   1
 -18   4  11 4314.96 1001.31   3
 -14  -4  11 4876.18 1038.38   3
  18 -14  11 2510.06 912.185   1
  13 -18  -8 8180.93 986.586   2
  13 -18  -8 7928.18 797.258   4
 -13  -5  -8 7428.37 859.538   4
  18 -13  -8 8748.94 807.875   4
  13 -18  -5 1793.19 539.907   2
  18 -13  -5 1656.39 308.653   1
 -18   5  -5 1695.66 647.006   3
 -13  -5  -5 1557.19 581.386   3
  18 -13  -5 1743.74 528.764   2
 -13  -5  -5 2084.15 443.888   2
  13 -18  -5 2614.39 525.274   4
  18 -13  -5 2909.30 489.305   4
 -18   5  -5 2145.88 432.427   2
 -18   5  -2 12727.3 1231.41   3
  18 -13  -2 15041.4 1156.90   2
 -13  -5  -2 15121.1 1241.70   3
  13 -18  -2 14293.1 988.374   4
 -18   5  -2 13855.6 873.352   1
  18 -13  -2 15631.5 1039.62   4
   5  13  -2 14792.7 710.644   3
  13 -18  -2 13983.7 1099.92   2
  18 -13  -2 15097.2 679.697   1
  18 -13   1 12258.0 992.677   2
 -13  -5   1 11604.3 669.264   1
  -5  18   1 12833.7 594.445   3
  18 -13   1 11387.5 800.779   1
  -5  18   1 11401.2 855.018   1
  13 -18   1 10416.5 865.419   4
  18 -13   1 13024.9 979.942   4
   5  13   1 12021.5 808.385   1
  -5  18   1 12159.6 491.821   3
  13 -18   1 12259.5 1064.72   2
  13 -18   1 11993.9 596.707   3
   5  13   1 10914.0 825.572   3
 -18   5   1 11990.9 1061.97   3
 -13  -5   1 12283.3 1058.83   3
  13 -18   4 9920.72 813.377   4
  -5  18   4 9566.26 858.699   1
  18 -13   4 8630.95 795.326   4
  18 -13   4 9228.16 923.238   1
  13 -18   4 8671.41 899.769   2
 -13  -5   4 9174.15 485.239   1
 -18   5   4 8627.04 938.128   3
 -13  -5   4 7814.65 812.977   3
  13 -18   4 7917.06 647.801   3
   5  13   4 9542.85 844.868   1
  18 -13   4 10267.5 858.899   2
  18 -13   7 4655.83 560.931   2
  -5  18   7 4739.05 715.017   1
  13 -18   7 5527.64 904.797   1
 -13  -5   7 4528.48 594.152   4
  18 -13   7 6651.16 932.470   1
 -13  -5   7 6318.40 582.523   1
  13 -18   7 4641.39 574.978   4
   5  13   7 5044.25 762.086   1
  13 -18   7 5479.54 812.142   2
 -18   5   7 5945.61 894.356   3
 -13  -5   7 6376.72 865.424   3
   5  13  10 2269.67 739.196   1
 -18   5  10 1420.88 719.791   3
  13 -18  10 2661.30 993.491   1
  -5  18  10 3312.18 794.672   1
 -13  -5  10 2470.05 712.491   3
  18 -13  10 2847.99 854.346   1
 -13  -5  10 1770.94 804.533   2
  12 -18  -9 2589.03 549.138   4
 -12  -6  -9 2894.70 611.798   4
 -18   6  -6 2072.69 819.257   3
 -12  -6  -6 3573.33 606.095   4
  12 -18  -6 3737.55 671.768   2
 -12  -6  -6 4788.67 500.419   2
  18 -12  -6 3344.78 382.062   1
  12 -18  -6 4569.23 637.534   4
 -18   6  -6 3529.53 498.421   2
  18 -12  -6 3654.24 538.468   4
 -18   6  -3 10358.4 1156.76   3
  18 -12  -3 9104.00 952.690   2
 -12  -6  -3 7895.50 891.706   3
 -12  -6  -3 8553.90 853.053   2
  12 -18  -3 7586.77 763.391   4
  18 -12  -3 9324.90 481.914   1
  18 -12  -3 9269.80 801.448   4
   6  12  -3 8264.23 585.916   3
  12 -18  -3 8218.74 881.633   2
 -12  -6   0 7965.56 855.723   3
 -12  -6   0 8391.14 638.717   1
  18 -12   0 8413.59 847.157   2
   6  12   0 8246.16 665.819   1
  18 -12   0 7936.90 591.997   1
  18 -12   0 8427.19 785.263   4
  12 -18   0 7053.85 724.059   4
  12 -18   0 6875.90 814.087   2
   6  12   0 8195.41 680.993   3
 -18   6   0 7498.58 898.216   3
   6  12   3 3621.11 550.493   1
  18 -12   3 4519.78 615.533   2
 -18   6   3 4895.43 740.170   3
  18 -12   3 4064.61 577.600   1
  12 -18   3 4861.59 597.866   4
 -12  -6   3 3778.40 371.356   1
  12 -18   3 3905.40 640.823   2
  18 -12   3 3611.08 564.149   4
  12 -18   3 4261.59 400.952   3
 -12  -6   3 4131.68 624.136   3
  -6  18   3 4145.36 569.639   1
  18 -12   6 979.877 348.802   2
 -12  -6   6 2279.56 392.753   1
   6  12   6 1717.35 522.136   1
  -6  18   6 634.595 445.759   1
 -12  -6   6 1797.45 415.612   4
  12 -18   6 2261.47 660.798   1
 -12  -6   6 1519.45 295.745   1
  12 -18   6 1059.28 353.877   4
  18 -12   6 1254.44 553.334   1
 -18   6   6 1801.85 615.831   3
 -12  -6   6 2167.90 540.792   3
  12 -18   6 1707.86 556.956   2
 -12  -6   9 4700.91 1022.03   2
  12 -18   9 5141.66 976.273   1
   6  12   9 6159.79 946.972   1
 -12  -6   9 6086.33 720.540   1
  18 -12   9 6427.22 1062.62   1
  12 -18   9 6110.38 831.341   2
 -12  -6   9 6601.50 919.658   3
 -18   6   9 6036.42 933.244   3
  -6  18   9 6493.01 911.706   1
 -11  -7 -10 1769.87 560.076   4
  11 -18 -10 1932.96 494.683   4
 -11  -7  -7 5176.03 728.335   4
  11 -18  -7 6520.94 740.721   4
 -11  -7  -7 5046.61 422.630   2
  11 -18  -7 6164.51 804.773   2
 -18   7  -4 19215.9 1471.86   3
  18 -11  -4 16761.7 1060.21   4
 -11  -7  -4 16290.6 1269.95   3
 -11  -7  -4 16657.7 1180.27   4
 -11  -7  -4 16412.9 1034.02   2
   7  11  -4 14586.5 855.635   3
  11 -18  -4 16804.1 1085.83   4
 -18   7  -4 15892.5 1005.20   2
  11 -18  -4 16895.8 1214.46   2
  18 -11  -4 15416.6 549.784   1
 -11  -7  -1 15438.0 1156.47   3
  18 -11  -1 16673.8 1165.20   2
 -11  -7  -1 15390.3 1140.62   2
   7  11  -1 16251.8 860.345   3
  18 -11  -1 15623.4 702.733   1
  11 -18  -1 17252.1 1069.23   4
   7  11  -1 17217.2 884.026   1
  11 -18  -1 15692.5 1170.02   2
  18 -11  -1 17595.2 1096.74   4
 -18   7  -1 14241.0 1188.66   3
  18 -11   2 15100.6 1041.75   2
   7  11   2 14142.9 907.597   1
  18 -11   2 14509.6 973.253   4
 -11  -7   2 12946.1 683.194   1
  18 -11   2 13021.8 888.241   1
  -7  18   2 13543.3 659.352   3
  11 -18   2 12502.9 473.640   3
  -7  18   2 14294.3 909.372   1
  11 -18   2 14510.1 1156.57   2
 -18   7   2 11778.5 1048.84   3
  11 -18   2 14370.9 969.806   4
 -11  -7   2 13345.3 996.464   3
  18 -11   5 9747.22 788.668   2
 -18   7   5 9307.36 999.522   3
 -11  -7   5 10018.1 850.318   4
  -7  18   5 9402.70 838.646   1
  18 -11   5 9873.90 951.967   1
  11 -18   5 12307.1 884.898   4
 -11  -7   5 10071.3 609.784   1
   7  11   5 11336.2 953.672   1
 -11  -7   5 11143.3 947.519   3
  11 -18   5 11012.0 1042.25   2
  11 -18   5 9357.42 720.954   3
 -11  -7   8 4937.03 620.755   1
  -7  18   8 4768.59 761.968   1
 -11  -7   8 5590.95 594.554   4
 -11  -7   8 4345.36 936.967   2
  11 -18   8 3928.36 841.152   1
   7  11   8 4016.16 787.721   1
  18 -11   8 5524.78 950.655   1
  11 -18   8 4509.65 515.452   4
  11 -18   8 4962.22 781.602   2
 -18   7   8 4265.69 849.759   3
 -11  -7   8 5532.18 794.090   3
   7  11  11 3266.18 846.085   1
  18 -11  11 2439.29 948.526   1
 -11  -7  11 7075.68 1193.01   2
 -11  -7  11 3028.68 833.023   3
  11 -18  11 5183.73 1119.49   1
  -7  18  11 3455.60 962.121   3
 -18   7  11 6418.58 1197.47   3
  -7  18  11 5281.13 934.875   1
  10 -18  -8 11377.1 1048.61   2
 -10  -8  -8 10375.4 968.980   4
  10 -18  -8 12490.7 989.965   4
 -10  -8  -5 9935.94 916.354   4
 -18   8  -5 12279.7 1230.60   3
 -10  -8  -5 11495.2 836.301   2
  10 -18  -5 13771.4 1004.84   4
 -18   8  -5 11922.4 881.065   2
  18 -10  -5 12000.9 890.587   4
  10 -18  -5 14105.3 1066.51   2
 -18   8  -2 17910.0 1373.95   3
 -10  -8  -2 17458.2 1198.29   3
  18 -10  -2 19390.0 588.290   1
  18 -10  -2 20677.1 1315.89   2
 -10  -8  -2 18399.3 1182.48   4
  18 -10  -2 17991.4 600.487   1
 -10  -8  -2 18976.1 1206.53   2
  10 -18  -2 18945.1 1116.27   4
  18 -10  -2 18662.7 1104.95   4
  10 -18  -2 19272.0 1266.19   2
   8  10  -2 17844.6 926.321   3
  18 -10   1 27652.6 1418.01   2
 -10  -8   1 25171.2 1494.11   2
 -10  -8   1 23890.5 1296.65   4
  18 -10   1 24158.9 1255.21   4
   8  10   1 24702.9 1100.83   1
 -10  -8   1 22959.3 975.520   1
  10 -18   1 24786.4 1267.05   4
  10 -18   1 24989.9 1455.25   2
  18 -10   1 25539.3 1076.12   1
  -8  18   1 25340.7 755.528   3
 -18   8   1 23832.5 1406.52   3
   8  10   1 23742.1 1242.73   3
 -10  -8   1 27337.5 1404.21   3
  18 -10   4 14226.5 941.382   2
 -10  -8   4 12320.4 915.631   4
 -10  -8   4 11517.0 666.003   1
  10 -18   4 12301.6 877.595   4
  10 -18   4 13475.3 1169.94   2
   8  10   4 12954.4 961.759   1
  -8  18   4 12287.9 832.834   3
  -8  18   4 12377.1 906.539   1
 -18   8   4 12828.7 1087.22   3
 -10  -8   4 14033.4 982.219   3
  18 -10   4 10858.6 939.433   1
  10 -18   4 11648.7 610.782   3
  -8  18   7 11916.6 1014.41   1
  10 -18   7 11246.7 787.844   4
  10 -18   7 11336.2 1202.13   1
 -10  -8   7 10986.8 1263.73   2
 -10  -8   7 11010.7 826.251   4
 -10  -8   7 10764.9 821.218   1
  18 -10   7 12069.3 1180.30   1
  10 -18   7 11186.7 1105.65   2
  -8  18   7 11201.0 1080.60   3
 -18   8   7 10041.8 1119.20   3
 -10  -8   7 9966.68 992.655   3
   8  10   7 12060.7 1116.49   1
  18 -10  10 3120.18 833.963   1
 -10  -8  10 2448.97 576.916   1
 -10  -8  10 3439.25 869.653   2
  -8  18  10 2723.56 676.103   1
  10 -18  10 2173.38 889.655   1
  -8  18  10 3802.74 871.977   3
 -10  -8  10 2696.09 739.864   3
  10 -18  10 3233.31 722.399   2
 -18   8  10 3107.30 828.308   3
   8  10  10 3474.11 815.891   1
   9 -18  -9 1942.24 566.552   2
  -9  -9  -9 1579.16 524.625   4
   9 -18  -9 2094.05 515.506   4
   9 -18  -6 1670.86 473.967   2
 -18   9  -6 1274.85 608.698   3
   9 -18  -6 2287.65 508.920   4
  -9  -9  -6 1778.01 496.783   4
  -9  -9  -6 1948.75 387.189   2
 -18   9  -6 2297.23 481.803   2
 -18   9  -3 9011.13 1047.66   3
  -9  -9  -3 11631.8 983.764   3
  -9  -9  -3 12306.6 951.231   2
   9 -18  -3 10256.1 842.935   4
   9 -18  -3 9402.48 895.625   2
  -9  -9  -3 11325.3 934.823   4
  -9  -9   0 4201.11 611.983   3
  -9  -9   0 3268.61 444.929   1
  18  -9   0 3061.22 575.537   2
  -9  -9   0 4541.98 686.240   2
  18  -9   0 3178.79 376.466   1
   9 -18   0 3089.39 544.013   4
   9   9   0 3722.25 449.553   1
  -9  -9   0 4093.73 597.361   4
   9 -18   0 4202.75 653.653   2
   9   9   0 3466.35 508.283   3
  -9  18   0 3338.39 271.789   3
 -18   9   0 3529.03 642.515   3
   9 -18   3 10323.6 832.227   4
  -9  -9   3 10333.1 673.086   1
  18  -9   3 12965.5 908.961   1
  18  -9   3 11197.3 874.406   2
  -9  -9   3 12447.7 1176.10   2
  -9  -9   3 11204.2 900.678   4
  -9  18   3 11124.0 828.794   1
   9 -18   3 10218.6 1024.31   2
  -9  18   3 11917.9 738.096   3
   9   9   3 11789.9 861.378   1
 -18   9   3 9571.33 918.871   3
  -9  -9   3 9107.90 781.405   3
  -9  -9   6 2141.79 441.372   4
   9 -18   6 1774.35 457.465   3
  -9  -9   6 4177.40 834.758   2
   9 -18   6 2413.41 436.861   4
  -9  18   6 1699.82 486.980   1
  18  -9   6 2498.84 648.458   1
   9 -18   6 2098.47 609.786   2
  -9  18   6 2725.99 546.299   3
 -18   9   6 2629.85 593.239   3
  -9  -9   6 1972.14 443.276   3
   9   9   6 2101.90 521.653   1
  18  -9   9 2646.47 745.405   1
  -9  -9   9 1427.73 623.707   2
   9 -18   9 3179.33 887.668   1
  -9  -9   9 2462.80 554.617   1
   9 -18   9 1341.81 546.994   2
  -9  18   9 1522.31 588.965   3
 -18   9   9 1957.11 683.007   3
  -9  -9   9 2176.96 631.528   3
   9   9   9 1620.40 592.959   1
  -9  18   9 1414.88 549.525   1
  -8 -10 -10 3252.46 617.657   4
   8 -18 -10 3100.17 564.061   4
  -8 -10  -7 11622.5 1027.34   4
   8 -18  -7 13554.6 1027.40   4
  -8 -10  -7 12586.9 700.338   2
   8 -18  -7 13536.3 1074.04   2
 -18  10  -4 12198.0 1186.46   3
  -8 -10  -4 12573.8 1011.17   4
  -8 -10  -4 12019.1 913.319   2
   8 -18  -4 13391.5 996.393   4
   8 -18  -4 12659.7 1038.38   2
 -10  18  -1 20355.0 578.322   3
  -8 -10  -1 23119.1 1261.79   3
  -8 -10  -1 25482.5 1348.22   4
  10   8  -1 24550.5 987.273   1
   8 -18  -1 25928.4 1288.65   4
  18  -8  -1 24419.6 720.356   1
   8 -18  -1 26374.2 1489.33   2
  -8 -10  -1 23231.1 1377.38   2
  10   8  -1 24485.0 1213.40   3
 -18  10  -1 25965.2 1553.49   3
  -8 -10   2 17919.4 1331.34   2
  -8 -10   2 18990.2 1130.00   4
  -8 -10   2 18191.3 901.151   1
  18  -8   2 18893.9 996.582   1
  10   8   2 19192.0 1006.59   1
   8 -18   2 19141.4 1366.91   2
   8 -18   2 17616.4 1046.84   4
 -10  18   2 18777.0 836.731   3
 -18  10   2 19212.4 1250.30   3
  -8 -10   2 19789.4 1113.36   3
   8 -18   5 11112.2 674.638   3
  -8 -10   5 11990.0 1292.96   2
  -8 -10   5 12171.0 883.625   4
   8 -18   5 12326.0 1137.26   2
  10   8   5 12273.2 991.272   1
   8 -18   5 11424.5 835.260   4
  18  -8   5 11004.9 996.050   1
 -10  18   5 12128.6 912.141   1
 -10  18   5 12387.2 927.687   3
 -18  10   5 12871.1 1103.97   3
  -8 -10   5 11803.6 891.929   3
   8 -18   8 12304.6 1300.24   1
 -10  18   8 12875.1 1066.19   1
  -8 -10   8 14197.2 1080.32   1
  -8 -10   8 12271.2 810.007   4
  10   8   8 12001.3 1172.66   1
 -18  10   8 9840.21 1088.67   3
   8 -18   8 14562.0 1277.94   2
   8 -18   8 12003.7 763.810   4
 -18  10   8 9667.46 543.528   1
 -10  18   8 12719.2 1203.93   3
  18  -8   8 13146.8 1318.63   1
  -8 -10   8 12825.2 1358.13   2
  -8 -10   8 12882.8 1063.48   3
  -8 -10  11 2276.69 784.943   2
  18  -8  11 1880.47 789.079   1
  -8 -10  11 1332.45 638.393   3
   8 -18  11 2055.70 865.121   1
 -10  18  11 1894.38 863.239   3
 -18  10  11 2312.99 833.347   3
  10   8  11 1821.69 731.664   1
 -10  18  11 3267.15 794.805   1
  -7 -11  -8 4507.76 707.202   4
   7 -18  -8 5234.09 703.242   4
   7 -18  -8 4638.53 707.047   2
 -18  11  -5 9524.40 1074.71   3
  -7 -11  -5 9573.97 809.939   2
   7 -18  -5 9725.72 876.959   4
  -7 -11  -5 8471.94 867.988   4
   7 -18  -5 9079.56 878.374   2
 -18  11  -2 13509.1 1159.33   3
  -7 -11  -2 13596.7 983.640   3
 -11  18  -2 11905.9 509.088   3
  -7 -11  -2 13973.7 1050.96   4
  -7 -11  -2 13676.5 1058.53   2
   7 -18  -2 14230.1 1027.62   4
   7 -18  -2 13295.3 1080.92   2
  -7 -11   1 17926.4 1036.44   3
  11   7   1 17394.8 882.859   1
  -7 -11   1 16726.8 1098.00   4
   7 -18   1 17374.4 1305.14   2
  18  -7   1 16560.7 820.707   1
   7 -18   1 18613.9 1105.75   4
 -11  18   1 17555.2 757.395   3
  -7 -11   1 17483.4 1274.60   2
 -18  11   1 14507.7 1106.07   3
 -11  18   4 18823.6 1045.76   1
  -7 -11   4 16534.6 1346.81   2
  -7 -11   4 17942.7 1088.24   4
   7 -18   4 19335.4 1086.50   4
  11   7   4 17236.0 1076.51   1
   7 -18   4 19479.7 1375.25   2
  18  -7   4 17303.9 1148.37   1
 -11  18   4 16271.4 980.656   3
   7 -18   4 14141.3 452.524   3
 -18  11   4 16714.3 1202.91   3
  -7 -11   4 19526.9 1084.53   3
 -18  11   7 4805.28 387.094   1
   7 -18   7 5868.93 940.555   1
  -7 -11   7 6424.52 750.578   1
  -7 -11   7 5839.21 1003.05   2
  11   7   7 5937.20 829.795   1
  -7 -11   7 5832.66 614.584   4
 -11  18   7 6028.42 730.270   1
   7 -18   7 6265.85 909.286   2
   7 -18   7 4993.22 569.727   4
   7 -18   7 5280.17 548.787   3
 -11  18   7 5171.29 789.292   3
  18  -7   7 5030.33 811.534   1
 -18  11   7 6039.61 892.664   3
  -7 -11   7 6481.30 760.649   3
 -11  18  10 1336.49 546.744   1
  18  -7  10 1128.13 673.773   1
  -7 -11  10 1965.36 740.213   2
   7 -18  10 1901.38 769.781   1
   7 -18  10 1656.94 660.822   2
  -7 -11  10 1932.75 636.450   1
   7 -18  10 1709.85 534.049   3
 -11  18  10 2707.85 782.366   3
  11   7  10 2284.39 716.659   1
 -18  11  10 1203.34 689.500   3
  -7 -11  10 1484.81 576.738   3
   6 -18  -9 4593.55 685.719   2
  -6 -12  -9 5368.52 748.156   4
   6 -18  -9 5003.35 695.879   4
 -18  12  -6 2607.45 703.478   3
  -6 -12  -6 2439.27 535.068   4
   6 -18  -6 2129.16 506.883   4
  -6 -12  -6 2141.90 433.657   2
   6 -18  -6 2333.14 513.031   2
 -18  12  -3 3320.53 655.208   3
  -6 -12  -3 3692.94 597.589   4
   6 -18  -3 3982.43 588.232   4
  -6 -12  -3 2766.42 528.927   2
   6 -18  -3 2959.74 580.383   2
  -6 -12   0 8306.30 705.977   3
  -6 -12   0 7510.87 765.384   4
  12   6   0 7200.50 559.315   1
  -6 -12   0 7902.03 875.150   2
  18  -6   0 9077.52 517.059   1
   6 -18   0 8229.96 770.539   4
   6 -18   0 9088.46 984.909   2
 -12  18   0 8536.03 578.918   3
 -18  12   0 9048.63 902.891   3
  -6 -12   3 8862.70 795.236   4
  -6 -12   3 9396.61 1048.67   2
  18  -6   3 10125.0 816.893   1
   6 -18   3 9295.22 980.345   2
  12   6   3 10010.3 790.709   1
   6 -18   3 8691.62 755.727   4
 -12  18   3 9703.32 728.812   3
 -18  12   3 8257.56 857.553   3
  -6 -12   3 8192.40 677.390   3
 -12  18   3 8407.35 716.434   1
  18  -6   6 3764.31 661.086   1
   6 -18   6 2753.56 467.548   3
  12   6   6 4781.88 721.443   1
  -6 -12   6 3599.77 545.977   4
  -6 -12   6 3794.01 766.851   2
   6 -18   6 3027.61 451.284   4
 -12  18   6 3475.57 551.762   1
   6 -18   6 3403.75 706.689   2
   6 -18   6 3584.84 372.843   3
 -12  18   6 2849.04 639.686   3
  -6 -12   6 3235.69 503.571   3
 -18  12   6 2933.37 635.998   3
  18  -6   9 2381.27 732.150   1
 -12  18   9 2397.38 604.084   1
  -6 -12   9 2254.70 806.180   2
   6 -18   9 1495.24 759.851   1
  -6 -12   9 1300.68 537.358   1
   6 -18   9 3031.36 747.540   2
  12   6   9 1812.87 710.028   1
   6 -18   9 1472.82 445.831   3
 -12  18   9 1347.84 596.966   3
 -18  12   9 1527.15 675.286   3
  -6 -12   9 2247.27 581.349   3
  -5 -13 -10 2588.18 609.967   4
   5 -18 -10 3481.81 618.520   4
  -5 -13  -7 4929.83 697.474   4
   5 -18  -7 5470.43 711.478   4
  -5 -13  -7 4629.65 533.480   2
   5 -18  -7 4847.96 658.951   2
  -5 -13  -4 9690.73 884.123   2
 -18  13  -4 7617.20 906.652   3
   5 -18  -4 7182.84 768.173   4
   5 -18  -4 7446.40 797.431   2
  -5 -13  -4 9393.50 928.687   4
 -13  18  -1 12452.9 736.236   3
  -5 -13  -1 13269.8 856.386   3
  18  -5  -1 11103.3 423.066   1
  -5 -13  -1 12961.0 1007.28   4
  -5 -13  -1 11082.9 1012.21   2
   5 -18  -1 10696.1 902.638   4
   5 -18  -1 13526.8 1165.02   2
  13   5  -1 12055.9 634.272   1
 -18  13  -1 10725.9 994.275   3
  -5 -13   2 15118.4 1051.21   4
  -5 -13   2 14062.6 1243.15   2
   5 -18   2 16184.1 1033.73   4
   5 -18   2 14397.1 1216.55   2
  13   5   2 16599.7 920.267   1
  18  -5   2 14192.9 857.960   1
 -13  18   2 15478.9 856.083   3
 -18  13   2 15151.7 1075.46   3
  -5 -13   2 15784.7 892.350   3
   5 -18   5 1997.12 295.348   3
  18  -5   5 2959.59 581.355   1
  -5 -13   5 1698.48 383.315   4
  -5 -13   5 2584.02 664.757   2
   5 -18   5 3367.85 492.353   4
 -13  18   5 2530.86 562.171   3
  13   5   5 3717.95 596.593   1
   5 -18   5 2690.29 264.120   3
 -13  18   5 2103.13 436.478   1
 -18  13   5 3654.94 647.278   3
   5 -18   5 3674.84 752.382   2
  -5 -13   5 2592.99 436.758   3
  13   5   8 8251.12 1021.44   1
   5 -18   8 9925.62 1181.76   1
 -13  18   8 7057.52 786.701   1
  -5 -13   8 7771.70 679.861   4
  -5 -13   8 5209.98 898.089   2
   5 -18   8 7662.39 1023.14   2
   5 -18   8 7599.00 628.774   4
   5 -18   8 8856.68 760.192   3
 -13  18   8 7199.56 960.988   3
 -18  13   8 7350.85 579.874   1
 -18  13   8 7361.19 990.726   3
  -5 -13   8 9511.26 873.994   3
  18  -5   8 7254.36 1007.61   1
  -5 -13   8 6555.54 878.218   1
 -13  18  11-325.777 516.662   1
  18  -5  11 1428.54 749.096   1
  -5 -13  11 206.320 586.646   2
   5 -18  11 579.073 681.823   1
  13   5  11 1730.23 723.494   1
  -5 -13  11-95.0830 527.050   1
 -13  18  11-538.826 673.307   3
 -18  13  11 167.535 681.830   3
  -5 -13  11 288.712 521.608   3
   4 -18  -8 3059.75 573.301   4
  -4 -14  -8 3799.90 663.048   4
  -4 -14  -8 3163.98 475.398   2
   4 -18  -8 4127.31 647.534   2
 -18  14  -5 6049.45 869.926   3
  -4 -14  -5 7729.69 836.513   4
   4 -18  -5 7030.81 793.552   4
  -4 -14  -5 6651.81 715.879   2
   4 -18  -5 5509.54 719.637   2
 -18  14  -2 12142.0 1074.40   3
 -14  18  -2 13605.0 813.816   3
  -4 -14  -2 11140.6 997.433   4
   4 -18  -2 13343.7 998.932   4
  -4 -14  -2 13890.3 1124.89   2
   4 -18  -2 13632.7 1153.64   2
  -4 -14   1 7324.23 602.997   3
  -4 -14   1 8006.34 978.764   2
  -4 -14   1 6986.58 758.861   4
   4 -18   1 5022.17 767.898   2
   4 -18   1 6072.97 679.356   4
  14   4   1 7277.51 585.182   1
 -14  18   1 7110.97 611.652   3
 -18  14   1 6430.13 749.779   3
  18  -4   1 6893.05 542.822   1
   4 -18   4 14569.6 1290.07   2
  -4 -14   4 12430.7 925.421   4
   4 -18   4 13967.7 945.971   4
  14   4   4 14057.3 1014.21   1
  -4 -14   4 12311.1 1219.81   2
 -14  18   4 12485.3 918.056   3
 -14  18   4 12731.8 845.274   1
 -18  14   4 12379.1 1026.28   3
  18  -4   4 12983.7 976.028   1
  -4 -14   4 11828.8 782.326   3
 -18  14   7 8292.24 611.035   1
  14   4   7 7911.25 975.116   1
  -4 -14   7 10852.9 1302.20   2
  -4 -14   7 9951.72 804.511   4
   4 -18   7 9988.77 1169.20   2
   4 -18   7 10097.2 782.543   4
 -14  18   7 9281.16 826.109   1
 -14  18   7 9723.94 1031.02   3
   4 -18   7 9699.48 678.093   3
 -18  14   7 9427.56 1057.76   3
  -4 -14   7 9116.36 794.309   3
  18  -4   7 8646.06 1007.67   1
 -14  18  10 5069.36 793.745   1
   4 -18  10 4407.70 1041.35   1
  -4 -14  10 4207.49 867.429   1
  14   4  10 3590.56 854.838   1
   4 -18  10 4054.01 862.811   2
 -14  18  10 5280.34 1031.61   3
  -4 -14  10 4855.76 792.112   3
 -18  14  10 2823.07 894.768   3
  -4 -14  10 3904.26 962.417   2
  18  -4  10 5305.44 1032.51   1
   3 -18  -9 36.9191 393.263   4
  -3 -15  -9 1025.88 502.000   4
  -3 -15  -6 8652.27 885.819   4
   3 -18  -6 8097.82 861.156   4
  -3 -15  -6 9880.53 840.744   2
   3 -18  -6 8859.54 851.384   2
 -18  15  -3 1689.34 532.616   3
 -15  18  -3 907.116 337.006   3
   3 -18  -3 1656.92 490.082   4
  -3 -15  -3 1300.87 483.948   2
  -3 -15  -3 1043.58 400.743   4
   3 -18  -3 816.258 431.259   2
  15   3   0 11868.5 643.498   1
  -3 -15   0 11176.4 686.170   3
  18  -3   0 12856.9 598.853   1
  -3 -15   0 12624.6 999.564   4
   3 -18   0 11425.3 949.508   4
   3 -18   0 11984.9 1137.24   2
  -3 -15   0 11838.1 1078.91   2
 -15  18   0 11025.3 766.401   3
 -18  15   0 11248.3 965.483   3
   3 -18   3 4075.56 754.476   2
  15   3   3 4263.49 569.375   1
  -3 -15   3 3991.99 772.533   2
   3 -18   3 2918.51 495.287   4
 -15  18   3 4157.26 567.176   3
 -18  15   3 4435.26 657.521   3
  -3 -15   3 3784.25 565.742   4
  18  -3   3 3724.35 533.656   1
  -3 -15   3 3979.74 448.630   3
  -3 -15   6 6105.12 1008.39   2
 -15  18   6 5233.56 612.943   1
   3 -18   6 5364.15 893.102   2
  15   3   6 5563.01 791.399   1
  -3 -15   6 6220.88 686.174   4
   3 -18   6 5158.82 600.990   4
 -15  18   6 6518.34 841.706   3
   3 -18   6 5482.30 467.052   3
 -18  15   6 5245.18 799.270   3
 -18  15   6 5383.67 495.339   1
  -3 -15   6 6491.80 630.738   3
  18  -3   6 6585.03 862.031   1
 -18  15   9 1070.93 372.233   1
  18  -3   9 1118.42 607.080   1
   3 -18   9 511.810 573.627   1
  -3 -15   9 1110.62 618.549   2
  -3 -15   9 670.987 517.709   1
  15   3   9 1440.48 618.233   1
   3 -18   9-223.086 531.301   2
   3 -18   9 148.470 345.120   3
 -15  18   9-506.592 630.191   3
 -18  15   9 267.268 583.653   3
  -3 -15   9 344.199 430.329   3
 -15  18   9-167.854 372.357   1
  -2 -16 -10 699.401 493.681   4
   2 -18 -10 103.692 434.302   4
  -2 -16  -7 204.686 383.292   4
   2 -18  -7 519.355 399.860   4
  -2 -16  -7 215.485 303.477   2
   2 -18  -7 520.176 344.837   2
 -18  16  -4 1024.12 485.505   3
 -16  18  -4 1461.60 428.743   3
   2 -18  -4 2074.55 507.275   4
  -2 -16  -4 1162.08 520.975   2
   2 -18  -4 2280.75 555.245   2
  -2 -16  -4 2091.13 531.195   4
  16   2  -1 1431.20 221.045   1
 -18  16  -1 891.716 459.150   3
 -16  18  -1 811.450 402.985   3
   2 -18  -1 585.586 356.715   4
  -2 -16  -1 896.835 376.082   4
  -2 -16  -1 1495.51 542.398   2
   2 -18  -1 1501.87 484.548   2
  18  -2  -1 1338.34 197.919   1
  16   2   2 5004.87 550.106   1
  18  -2   2 4850.05 536.503   1
  -2 -16   2 4167.95 393.156   3
  -2 -16   2 6087.90 720.834   4
  -2 -16   2 4881.26 775.034   2
   2 -18   2 4863.25 636.574   4
   2 -18   2 2947.98 650.143   2
 -16  18   2 3871.51 562.071   3
 -18  16   2 4823.62 667.278   3
  -2 -16   5 2528.83 763.363   2
   2 -18   5 2695.62 332.030   3
   2 -18   5 3627.30 806.209   2
  -2 -16   5 3125.93 513.932   4
  16   2   5 2014.50 520.229   1
 -16  18   5 3959.28 522.838   1
   2 -18   5 3322.41 541.771   4
 -16  18   5 2713.48 590.259   3
   2 -18   5 3593.24 347.821   3
  -2 -16   5 4010.58 456.052   3
 -18  16   5 1885.39 554.573   3
  18  -2   5 3414.40 645.493   1
   2 -18   8 1182.16 606.103   2
 -16  18   8-535.255 388.373   1
  18  -2   8 968.285 653.395   1
  -2 -16   8 249.257 466.987   1
   2 -18   8 238.931 509.754   1
  -2 -16   8 889.401 389.458   4
  16   2   8 660.465 535.721   1
   2 -18   8 878.544 379.650   4
 -18  16   8 243.901 284.674   1
  -2 -16   8 1096.89 662.984   2
 -16  18   8 947.188 554.832   3
   2 -18   8 182.053 302.162   3
 -18  16   8 1177.43 589.423   3
  -2 -16   8 1001.32 404.943   3
  -1 -17  -8 10948.7 1036.15   4
   1 -18  -8 11402.9 1055.05   4
  -1 -17  -8 8933.71 809.671   2
   1 -18  -8 9599.89 878.804   2
 -18  17  -5 16047.9 1185.66   3
  -1 -17  -5 15111.5 1186.74   4
   1 -18  -5 14345.8 1138.15   4
  -1 -17  -5 16552.9 1199.68   2
   1 -18  -5 14660.0 1144.31   2
 -18  17  -2 3843.64 651.180   3
 -17  18  -2 4239.49 639.681   3
  -1 -17  -2 3454.20 617.855   4
   1 -18  -2 3900.26 615.987   4
   1 -18  -2 5969.67 815.448   2
  -1 -17  -2 3827.68 690.970   2
  17   1   1 21195.8 940.948   1
  18  -1   1 21908.1 931.983   1
  -1 -17   1 20272.9 1469.48   2
  -1 -17   1 19912.5 1242.49   4
   1 -18   1 21676.9 1301.78   4
   1 -18   1 19531.1 1426.48   2
 -17  18   1 21644.9 1157.23   3
 -18  17   1 20996.7 1232.25   3
  18  -1   4 5378.48 690.828   1
  -1 -17   4 4186.43 788.714   2
  17   1   4 4629.33 651.637   1
  -1 -17   4 3370.76 362.153   3
  -1 -17   4 5313.10 677.986   4
   1 -18   4 4963.36 651.578   4
   1 -18   4 6309.54 914.101   2
 -17  18   4 3742.72 628.633   3
 -18  17   4 4771.76 674.529   3
   1 -18   4 3070.83 260.358   3
  18  -1   7 15391.0 1361.77   1
 -18  17   7 14786.0 904.375   1
 -17  18   7 13596.9 923.984   1
  17   1   7 18127.0 1383.11   1
  -1 -17   7 16616.2 1518.63   2
   1 -18   7 16829.8 1047.77   4
  -1 -17   7 17046.8 1065.34   4
   1 -18   7 15360.5 1450.18   2
 -17  18   7 14310.0 1266.11   3
 -18  17   7 17835.8 1400.89   3
   1 -18   7 14542.6 835.786   3
  -1 -17   7 16806.1 981.434   3
 -17  18  10 3532.42 647.348   1
  17   1  10 4774.99 970.365   1
  -1 -17  10 4018.49 926.802   2
   1 -18  10 1971.20 792.539   1
  18  -1  10 3217.92 978.293   1
  -1 -17  10 1810.33 718.517   1
   1 -18  10 1576.70 702.659   2
 -17  18  10 2457.80 852.486   3
 -18  17  10 1557.63 731.905   3
   0 -18  -9 692.397 524.559   4
   0 -18  -6 16439.5 1233.42   4
   0 -18  -6 15066.0 1094.94   2
 -18  18  -3-309.967 343.932   3
   0 -18  -3 475.111 430.943   4
   0 -18  -3 548.850 535.675   2
   0 -18   0 10031.3 961.071   4
  18   0   0 10177.9 589.957   1
   0 -18   0 9502.69 1043.89   2
 -18  18   0 9473.99 859.866   3
 -18  18   3-17.8232 326.897   3
   0 -18   3 330.211 392.787   4
   0 -18   3 46.7590 589.838   2
  18   0   3 90.1605 325.245   1
  18   0   6 19934.9 1421.28   1
   0 -18   6 20960.0 1201.82   4
 -18  18   6 22168.8 1463.94   3
   0 -18   6 20560.1 1729.10   2
 -18  18   6 19170.4 1034.20   1
   0 -18   6 21440.6 941.287   3
 -18  18   9 605.724 416.684   1
  18   0   9-127.500 516.701   1
   0 -18   9-429.103 602.019   2
 -18  18   9-316.645 591.420   3
 -19   0 -10 6240.16 962.056   4
  19 -19  -7 246.492 582.172   2
  19 -19  -7-351.894 369.824   4
  19 -19  -4 360.216 461.348   2
 -19   0  -4 579.155 558.921   3
  19 -19  -4-9.40664 337.374   4
  19 -19  -1-380.890 405.655   2
 -19   0  -1-88.5589 495.320   3
  19 -19  -1-411.744 327.744   4
 -19   0  -1 141.220 286.041   1
   0  19  -1 58.4310 55.4590   3
   0  19   2 23915.8 1178.74   3
   0  19   2 25601.8 1363.90   1
  19 -19   2 29195.1 1508.48   4
  19 -19   2 28163.8 1591.94   2
 -19   0   2 26121.1 1666.80   3
  19 -19   5 510.971 405.874   2
  19 -19   5 173.441 419.077   1
   0  19   5 194.261 388.814   1
  19 -19   5-371.045 357.969   4
 -19   0   5-160.912 470.380   3
   0  19   8 16768.7 1408.72   1
  19 -19   8 17034.5 1614.89   1
 -19   0   8 17902.3 1524.29   3
  19 -19   8 14428.1 1139.91   2
  18 -19  -8 1105.54 652.860   2
  18 -19  -8 1329.25 459.997   4
  19 -18  -8 525.328 374.209   4
  18 -19  -5-421.770 472.949   2
  19 -18  -5 413.920 397.424   2
 -19   1  -5 583.933 570.332   3
 -18  -1  -5-262.501 500.766   3
  18 -19  -5 10.6564 336.186   4
  19 -18  -5 254.951 376.141   4
  18 -19  -2 1351.13 511.246   2
  19 -18  -2 1184.25 512.877   2
 -19   1  -2 1408.95 594.744   3
 -18  -1  -2 1206.37 559.968   3
  18 -19  -2 1623.06 469.200   4
  19 -18  -2 2158.33 483.735   4
  18 -19   1 3348.82 633.112   2
 -19   1   1 2832.98 686.977   3
 -18  -1   1 2486.34 694.166   3
  19 -18   1 2338.62 549.473   2
 -18  -1   1 3049.51 358.043   1
   1  18   1 2540.54 478.125   1
  18 -19   1 2969.60 602.527   4
  19 -18   1 2341.08 473.406   4
  -1  19   1 3202.99 600.192   1
 -19   1   1 3194.78 315.500   1
   1  18   1 3139.46 455.379   3
  -1  19   1 2912.32 396.772   3
  -1  19   4 2819.35 568.463   1
  19 -18   4 3168.46 631.616   1
  19 -18   4 2972.13 557.199   4
  18 -19   4 3388.16 576.023   4
   1  18   4 3035.09 587.843   1
  19 -18   4 3674.52 646.405   2
 -19   1   4 3118.32 702.702   3
 -18  -1   4 2867.49 676.987   3
  18 -19   4 2439.77 589.661   2
  18 -19   7 1727.01 533.399   2
  -1  19   7 637.380 491.478   1
  19 -18   7-239.835 411.576   2
   1  18   7-243.123 415.080   1
  18 -19   7 714.971 588.209   1
  19 -18   7 616.528 513.092   1
  18 -19   7 235.259 384.349   4
  19 -18   7 350.752 338.620   4
 -19   1   7 777.050 561.322   3
 -18  -1   7-773.853 559.726   3
  18 -19  10 2362.47 949.125   1
  -1  19  10 1559.66 671.744   1
  19 -18  10 1064.31 790.577   1
   1  18  10 1907.61 672.819   1
 -19   1  10 1564.44 721.810   3
 -18  -1  10 289.693 581.580   3
 -17  -2  -9 2202.56 609.119   4
  17 -19  -9 2562.70 532.820   4
  19 -17  -9 913.748 425.275   4
  19 -17  -6 3729.82 826.786   2
  17 -19  -6 3560.07 715.931   2
 -19   2  -6 2564.99 745.471   3
 -17  -2  -6 3727.32 932.559   3
 -17  -2  -6 3711.83 521.304   2
  17 -19  -6 4184.27 656.613   4
  19 -17  -6 3253.07 590.133   4
  19 -17  -3 7199.86 891.943   2
 -19   2  -3 7306.51 1044.30   3
 -17  -2  -3 5715.61 926.166   3
  17 -19  -3 5512.94 702.037   4
  19 -17  -3 6713.76 767.977   4
  19 -17  -3 6075.96 569.190   1
  17 -19  -3 7077.92 895.518   2
  17 -19   0 2926.73 604.432   2
 -17  -2   0 2637.00 420.528   1
 -19   2   0 1922.83 570.732   3
  19 -17   0 1887.31 478.930   4
 -19   2   0 2506.59 362.825   1
  17 -19   0 2957.73 541.342   4
   2  17   0 2326.83 464.765   1
  17 -19   0 1816.49 375.804   3
  -2  19   0 1839.98 166.864   3
   2  17   0 2449.63 335.859   3
  19 -17   0 3329.92 662.012   2
 -17  -2   0 3018.65 790.912   3
  -2  19   3 2413.48 534.327   3
  19 -17   3 3801.09 667.623   1
  -2  19   3 2445.52 481.613   1
   2  17   3 3506.04 571.351   1
 -17  -2   3 2619.75 203.342   1
  17 -19   3 3642.05 606.907   4
  19 -17   3 3493.65 575.730   4
  17 -19   3 3581.31 677.427   2
  17 -19   3 3468.13 536.966   3
  19 -17   3 3157.56 573.617   2
 -17  -2   3 4139.58 733.052   3
 -19   2   3 2986.27 681.550   3
  19 -17   6 2350.53 497.346   2
  -2  19   6 3338.83 627.509   1
  17 -19   6 2142.01 644.054   1
  19 -17   6 1834.31 699.115   1
  17 -19   6 2831.95 507.380   4
  19 -17   6 1769.24 472.342   4
   2  17   6 2754.99 621.846   1
 -19   2   6 1138.08 638.384   3
 -17  -2   6 2286.01 645.109   3
  17 -19   6 2480.81 613.866   2
   2  17   9 2519.19 697.554   1
  17 -19   9 3242.75 922.956   1
  19 -17   9 3131.13 879.586   1
  -2  19   9 3825.90 769.253   1
 -19   2   9 5212.10 996.332   3
 -17  -2   9 4688.61 921.002   3
 -19   3 -10 6889.32 943.277   4
 -16  -3 -10 6466.83 888.713   4
  16 -19  -7 3314.50 715.717   2
 -16  -3  -7 2070.18 337.557   2
 -16  -3  -7 2470.43 566.358   4
  19 -16  -7 2940.31 537.016   4
  16 -19  -7 2275.44 536.572   4
  19 -16  -4 12249.2 1125.09   2
 -19   3  -4 11071.6 1225.30   3
 -16  -3  -4 13308.1 1269.23   3
  19 -16  -4 10572.5 707.243   1
  16 -19  -4 12471.2 1023.85   4
  19 -16  -4 12237.9 969.129   4
  16 -19  -4 12557.0 1129.58   2
  16 -19  -1 1732.04 534.612   2
 -19   3  -1 1980.38 623.894   3
 -16  -3  -1 3047.06 677.609   3
  19 -16  -1 1754.14 475.139   2
 -19   3  -1 2630.47 416.859   1
  16 -19  -1 2006.64 511.687   4
  19 -16  -1 2191.01 486.096   4
  16 -19  -1 1701.68 369.605   3
   3  16  -1 2122.21 292.779   3
  19 -16  -1 1458.01 337.254   1
 -16  -3  -1 1706.61 398.478   1
  -3  19   2 17680.9 934.322   3
   3  16   2 15057.3 991.947   3
  -3  19   2 16930.4 1080.85   1
  16 -19   2 17480.4 1125.89   4
   3  16   2 17607.0 1095.63   1
 -16  -3   2 16963.6 684.311   1
  16 -19   2 16775.2 1242.77   2
  16 -19   2 16023.9 861.633   3
 -19   3   2 17887.0 1330.60   3
  19 -16   2 16960.7 1218.58   2
 -16  -3   2 17540.2 1292.41   3
  19 -16   2 17700.8 1150.04   4
  19 -16   5 2373.91 530.719   2
 -16  -3   5 1124.06 132.990   1
  16 -19   5 3151.05 684.199   1
   3  16   5 1958.31 505.895   1
  19 -16   5 2879.36 689.068   1
  -3  19   5 2736.24 597.822   1
  19 -16   5 3294.13 556.522   4
  16 -19   5 1914.81 470.332   4
 -16  -3   5 1156.55 145.875   1
  16 -19   5 2020.97 561.974   2
 -19   3   5 1750.66 621.405   3
 -16  -3   5 1112.77 475.937   3
  -3  19   8 17314.1 1373.26   1
  19 -16   8 15648.7 1475.03   1
 -16  -3   8 15271.9 1085.63   4
  16 -19   8 15905.5 1506.78   1
  16 -19   8 15811.1 1048.34   4
  16 -19   8 13527.3 1139.67   2
   3  16   8 15455.6 1344.55   1
 -19   3   8 14508.6 1402.00   3
 -16  -3   8 14633.3 1371.66   3
  19 -16   8 16110.9 1060.02   2
  15 -19  -8 1046.52 492.879   2
 -15  -4  -8 857.786 504.869   4
  15 -19  -8 71.9731 372.405   4
  19 -15  -8 771.783 421.510   4
 -15  -4  -5 8158.71 721.462   2
  19 -15  -5 9528.38 1040.18   2
 -19   4  -5 7828.50 1117.18   3
 -15  -4  -5 8875.61 1179.00   3
 -15  -4  -5 8612.61 764.832   2
  19 -15  -5 8478.75 826.940   4
  15 -19  -5 10598.3 935.849   4
 -19   4  -5 7140.46 685.923   2
  15 -19  -5 9361.53 990.377   2
  19 -15  -5 8362.64 634.645   1
  15 -19  -2 3519.86 643.789   2
 -19   4  -2 4928.45 864.017   3
  19 -15  -2 4343.31 682.484   2
 -19   4  -2 5234.43 590.611   1
 -15  -4  -2 4487.58 776.963   3
  19 -15  -2 5522.04 496.733   1
  19 -15  -2 5095.52 632.429   4
   4  15  -2 5788.72 423.782   3
  15 -19  -2 4838.72 639.899   4
  -4  19   1 3711.90 365.560   3
  -4  19   1 4116.75 583.281   1
 -15  -4   1 4197.37 441.188   1
  15 -19   1 3863.04 587.188   4
  19 -15   1 3547.56 572.258   4
  15 -19   1 3288.95 406.764   3
  15 -19   1 4182.22 676.569   2
   4  15   1 4326.04 579.947   1
   4  15   1 4310.55 549.095   3
 -19   4   1 3841.59 705.207   3
 -15  -4   1 3602.79 661.145   3
  19 -15   1 4659.57 681.422   2
   4  15   4 429.638 357.035   1
  19 -15   4 493.297 375.536   2
  -4  19   4 177.787 307.583   1
  19 -15   4-100.185 357.824   1
  15 -19   4 263.075 319.587   4
  19 -15   4 1086.53 390.108   4
 -15  -4   4 269.091 159.009   1
  15 -19   4 1046.16 476.406   2
 -19   4   4 609.624 469.721   3
 -15  -4   4 1047.70 470.741   3
  15 -19   4 218.550 319.318   3
  -4  19   7 2297.21 570.315   1
  19 -15   7 3035.73 521.290   2
   4  15   7 3058.93 651.315   1
  15 -19   7 3372.95 745.129   1
 -15  -4   7 2675.76 348.551   1
  15 -19   7 3937.31 566.883   4
  19 -15   7 4113.49 799.067   1
  15 -19   7 2567.45 602.961   2
 -15  -4   7 2413.90 658.077   3
 -19   4   7 3985.65 794.072   3
 -15  -4  10 404.464 637.926   2
 -19   4  10 67.8155 648.949   3
   4  15  10-250.135 562.062   1
  15 -19  10 143.628 603.422   1
  -4  19  10 173.791 505.886   1
 -15  -4  10-472.460 587.041   3
  19 -15  10 437.797 687.768   1
 -14  -5  -9 1915.06 515.541   4
  14 -19  -9 1284.20 580.482   2
  14 -19  -9 2867.19 594.909   4
  14 -19  -6-43.3285 399.871   2
 -19   5  -6-559.257 589.727   3
 -14  -5  -6-209.365 396.763   4
 -14  -5  -6 553.347 340.687   2
  14 -19  -6 992.188 377.908   4
  19 -14  -6-18.0675 297.953   4
 -19   5  -3 13201.6 1360.57   3
  19 -14  -3 13079.7 1141.69   2
 -14  -5  -3 14174.7 1254.55   3
 -14  -5  -3 15730.3 1124.70   2
  19 -14  -3 13420.1 673.345   1
  14 -19  -3 16791.8 1104.74   4
  19 -14  -3 14499.1 1019.31   4
   5  14  -3 13216.6 695.033   3
  14 -19  -3 14034.8 1142.61   2
 -19   5   0 2187.83 696.747   3
 -14  -5   0 1791.53 564.461   3
  19 -14   0 1440.54 480.345   2
 -14  -5   0 1670.87 356.174   1
  14 -19   0 2375.86 466.495   4
  19 -14   0 2437.89 487.342   4
  14 -19   0 1713.09 320.731   3
   5  14   0 1930.06 394.424   1
   5  14   0 2439.07 402.846   3
  14 -19   0 1300.73 434.633   2
  19 -14   3 8777.50 805.273   4
  -5  19   3 9217.75 784.320   3
   5  14   3 8167.02 810.292   1
 -14  -5   3 8397.65 502.112   1
  19 -14   3 10110.4 906.611   1
  14 -19   3 10649.5 900.735   4
  14 -19   3 10021.5 992.033   2
  14 -19   3 8679.49 604.150   3
 -19   5   3 7930.71 924.028   3
 -14  -5   3 10792.8 985.120   3
  -5  19   3 9447.88 842.252   1
  19 -14   3 8237.32 810.107   2
  19 -14   6-235.645 331.821   2
  -5  19   6 559.164 457.278   1
  14 -19   6 1083.32 504.997   1
   5  14   6-162.213 423.512   1
 -14  -5   6 576.843 270.004   1
  19 -14   6 273.978 439.453   1
  14 -19   6 623.654 476.943   2
 -19   5   6 957.125 484.056   3
 -14  -5   6 350.669 426.461   3
  14 -19   6 1026.38 394.357   4
   5  14   9 3353.37 783.991   1
  14 -19   9 3246.17 855.226   1
  19 -14   9 2917.42 780.707   1
  -5  19   9 4103.80 781.097   1
 -19   5   9 3434.54 819.820   3
  14 -19   9 3516.78 679.886   2
 -14  -5   9 3671.85 775.329   3
 -13  -6 -10 8480.66 930.247   4
  13 -19 -10 6181.24 800.071   4
  13 -19  -7 4911.72 780.450   2
 -13  -6  -7 4567.00 435.367   2
 -13  -6  -7 5045.10 771.641   4
  19 -13  -7 5595.60 670.282   4
  13 -19  -7 4904.38 713.666   4
  19 -13  -4 14251.2 634.318   1
 -19   6  -4 15279.7 1373.78   3
  19 -13  -4 12698.8 1136.87   2
 -13  -6  -4 14636.3 1250.98   3
 -13  -6  -4 15374.2 1055.51   2
  13 -19  -4 15955.6 1114.94   4
  19 -13  -4 14447.9 1027.81   4
  13 -19  -4 13636.5 1109.06   2
  19 -13  -1 4009.46 667.320   2
 -19   6  -1 2229.95 594.073   3
 -13  -6  -1 2405.74 682.414   3
  19 -13  -1 2003.59 304.264   1
  13 -19  -1 2763.35 590.042   4
  19 -13  -1 2523.47 482.684   4
   6  13  -1 2601.62 390.770   3
  13 -19  -1 2355.67 543.648   2
  19 -13   2 34802.9 1594.25   2
  -6  19   2 33543.4 1173.78   3
   6  13   2 32218.8 1385.58   1
 -13  -6   2 31833.2 1050.35   1
  13 -19   2 32200.6 1479.89   4
  -6  19   2 30869.2 1412.69   1
  19 -13   2 35138.0 1471.31   1
  19 -13   2 33509.0 1534.21   4
  13 -19   2 32733.9 1704.47   2
  -6  19   2 34842.3 1025.64   3
  13 -19   2 32257.4 910.064   3
 -13  -6   2 30378.5 1594.11   3
  13 -19   5 860.448 342.814   3
  19 -13   5 1035.55 435.978   2
   6  13   5 1276.12 478.339   1
  13 -19   5 991.114 359.244   4
  19 -13   5 1222.90 471.441   1
  13 -19   5 2146.36 590.132   2
  -6  19   5 1573.84 477.308   1
 -19   6   5 234.683 417.197   3
 -13  -6   5 796.620 236.167   1
 -13  -6   5 964.595 469.569   3
 -13  -6   8 9202.98 804.030   4
  -6  19   8 9639.06 1052.94   1
  19 -13   8 7582.09 680.130   2
  13 -19   8 9730.67 1247.99   1
 -13  -6   8 9133.69 743.159   1
  19 -13   8 8070.69 1120.88   1
  13 -19   8 8404.20 734.649   4
   6  13   8 8109.22 986.600   1
  13 -19   8 9992.87 1026.80   2
 -19   6   8 9620.14 1119.01   3
 -13  -6   8 8579.21 1023.78   3
  12 -19  -8 2800.29 620.638   2
 -12  -7  -8 2216.57 595.973   4
  12 -19  -8 2513.17 532.472   4
 -19   7  -5 9409.95 1079.72   3
 -12  -7  -5 8100.33 765.618   2
 -12  -7  -5 6936.92 813.841   4
  12 -19  -5 7844.53 820.939   4
  19 -12  -5 5895.30 386.989   1
  19 -12  -5 8558.01 817.943   4
 -19   7  -5 5869.48 659.566   2
  12 -19  -5 7767.99 865.730   2
 -12  -7  -2 6555.04 785.139   2
 -19   7  -2 6344.07 936.936   3
 -12  -7  -2 7746.50 908.890   3
  19 -12  -2 7532.01 873.805   2
  19 -12  -2 5954.94 402.617   1
  12 -19  -2 7304.75 750.774   4
  19 -12  -2 6296.38 703.942   4
  12 -19  -2 6152.66 774.414   2
   7  12  -2 5382.99 524.509   3
  19 -12   1 8000.28 825.789   2
  -7  19   1 6658.08 432.731   3
 -12  -7   1 7261.92 579.799   1
  19 -12   1 6327.28 606.535   1
  12 -19   1 7311.80 747.552   4
   7  12   1 6905.07 643.864   1
  19 -12   1 7157.97 762.634   4
  12 -19   1 6314.05 816.188   2
  12 -19   1 7166.52 395.612   3
  -7  19   1 7027.94 397.061   3
 -19   7   1 5720.00 789.733   3
   7  12   1 7151.98 697.771   3
 -12  -7   1 6437.28 804.144   3
  19 -12   4 4808.06 641.247   2
 -12  -7   4 5366.41 664.638   4
  19 -12   4 4236.98 653.109   1
  12 -19   4 5855.24 665.375   4
  12 -19   4 6989.62 861.563   2
  -7  19   4 4623.53 573.454   3
  -7  19   4 4530.30 631.706   1
   7  12   4 5459.79 693.917   1
 -19   7   4 5586.72 875.374   3
 -12  -7   4 4784.87 633.558   3
  12 -19   4 5205.00 471.479   3
 -12  -7   4 4570.33 433.968   1
 -12  -7   7 1479.89 533.031   3
   7  12   7 1373.22 522.754   1
  19 -12   7 2353.42 463.668   2
  -7  19   7 2427.21 575.182   1
 -12  -7   7 1862.88 496.398   4
  12 -19   7 1908.07 613.818   1
  12 -19   7 2498.86 479.234   4
 -12  -7   7 2265.38 445.366   1
 -12  -7   7 1632.59 714.110   2
  12 -19   7 2240.53 575.531   2
  19 -12   7 2791.16 714.147   1
 -19   7   7 1279.63 585.158   3
  -7  19  10 5157.63 861.693   1
   7  12  10 2515.54 746.484   1
 -12  -7  10 3239.47 944.102   2
  12 -19  10 2892.10 1003.83   1
  -7  19  10 3632.86 904.705   3
 -19   7  10 5110.83 1035.32   3
 -12  -7  10 2614.27 706.861   3
  19 -12  10 2556.79 831.851   1
  11 -19  -9 4493.38 823.021   2
 -11  -8  -9 5504.09 801.835   4
  11 -19  -9 5803.77 764.879   4
  11 -19  -6 2512.55 600.175   2
 -19   8  -6 705.035 601.671   3
 -11  -8  -6 1602.24 496.038   4
  11 -19  -6 2641.27 573.674   4
  19 -11  -6 913.194 174.610   1
 -11  -8  -6 1632.14 384.220   2
 -19   8  -6 895.343 388.802   2
 -11  -8  -3 3788.88 738.694   3
 -19   8  -3 3122.54 756.591   3
 -11  -8  -3 3725.64 621.928   4
 -11  -8  -3 3741.87 614.706   2
  19 -11  -3 3534.43 262.062   1
  19 -11  -3 4276.49 612.044   4
  11 -19  -3 3679.21 593.949   4
   8  11  -3 3365.24 438.910   3
  11 -19  -3 2807.67 570.478   2
  19 -11   0 3711.48 635.232   2
 -11  -8   0 3230.62 578.616   3
 -11  -8   0 3434.02 461.310   1
 -11  -8   0 2759.99 576.721   4
  11 -19   0 3376.50 564.659   4
  19 -11   0 3712.06 430.221   1
 -11  -8   0 4502.30 725.379   2
  19 -11   0 3448.52 529.882   4
  11 -19   0 3830.07 664.830   2
   8  11   0 4161.28 566.612   3
   8  11   0 3719.92 489.750   1
 -19   8   0 3541.23 663.194   3
  19 -11   3 7899.54 769.483   2
  -8  19   3 5973.87 675.754   1
 -11  -8   3 8704.67 844.411   4
  19 -11   3 8497.33 792.837   1
  11 -19   3 7624.26 750.855   4
  11 -19   3 7630.56 949.622   2
 -11  -8   3 7652.61 555.555   1
  -8  19   3 7501.88 603.919   3
  11 -19   3 6396.22 355.026   3
 -19   8   3 7076.99 810.653   3
   8  11   3 7283.93 714.743   1
 -11  -8   3 6760.98 745.952   3
   8  11   6 2217.13 602.680   1
  19 -11   6 1397.68 386.543   2
 -19   8   6 1932.92 550.146   3
 -11  -8   6 1985.67 669.536   2
 -11  -8   6 1003.95 366.514   1
  11 -19   6 2187.82 450.555   4
 -11  -8   6 1274.05 378.103   4
  -8  19   6 818.098 438.564   3
  -8  19   6 2163.50 551.897   1
  11 -19   6 1709.18 553.003   2
  19 -11   6 1121.41 479.763   1
 -11  -8   6 1771.32 522.923   3
   8  11   9 3859.09 820.055   1
  -8  19   9 5929.69 893.342   1
 -11  -8   9 6116.31 1111.19   2
  11 -19   9 7437.06 1117.85   1
 -11  -8   9 6485.30 764.017   1
  11 -19   9 5341.25 827.247   2
  -8  19   9 5921.39 943.800   3
 -19   8   9 4495.54 920.915   3
 -11  -8   9 5638.42 866.470   3
  19 -11   9 4313.97 953.248   1
 -10  -9 -10 3809.22 702.387   4
  10 -19 -10 4070.14 648.916   4
 -10  -9  -7 7425.30 876.832   4
  10 -19  -7 7511.75 811.359   4
 -10  -9  -7 5784.13 510.046   2
  10 -19  -7 7158.30 859.381   2
 -19   9  -4 6883.48 975.285   3
 -10  -9  -4 8050.77 906.407   3
 -10  -9  -4 8298.52 859.351   4
 -10  -9  -4 8142.52 809.035   2
  10 -19  -4 8064.30 873.783   2
  10 -19  -4 6724.26 754.816   4
  10 -19  -1 4723.01 620.988   4
 -10  -9  -1 4580.30 673.851   3
  19 -10  -1 4651.58 721.912   2
 -10  -9  -1 4195.01 643.659   4
 -10  -9  -1 6252.72 788.951   2
  19 -10  -1 5658.00 412.179   1
  10 -19  -1 5183.53 794.529   2
   9  10  -1 5268.54 520.374   1
  19 -10  -1 5275.78 644.974   4
   9  10  -1 4376.84 560.347   3
 -19   9  -1 5975.55 916.312   3
   9  10   2 14066.2 904.765   1
  -9  19   2 14223.6 946.937   1
  19 -10   2 15154.4 1067.26   2
 -10  -9   2 14487.0 1242.25   2
 -10  -9   2 14173.2 1025.43   4
  19 -10   2 13972.2 901.061   1
  10 -19   2 14307.2 992.041   4
  10 -19   2 14358.7 1184.06   2
 -10  -9   2 15263.9 809.256   1
  -9  19   2 14651.3 714.816   3
 -19   9   2 12910.5 1123.43   3
 -10  -9   2 15244.7 1066.33   3
 -10  -9   5 4471.91 790.148   2
  19 -10   5 3739.31 530.046   2
  10 -19   5 4608.94 580.855   4
 -10  -9   5 3485.60 531.392   4
  19 -10   5 4712.00 705.420   1
  10 -19   5 4557.21 778.931   2
   9  10   5 3943.88 647.408   1
 -10  -9   5 3096.80 441.874   1
  -9  19   5 3928.38 588.228   1
  -9  19   5 3706.83 583.339   3
 -10  -9   5 4025.17 647.004   3
 -19   9   5 3609.21 677.767   3
  10 -19   5 3405.17 417.152   3
  10 -19   8 2913.59 454.215   4
  -9  19   8 4395.25 737.052   1
 -10  -9   8 3307.35 541.401   4
 -10  -9   8 2773.03 825.474   2
  10 -19   8 3784.33 833.134   1
 -10  -9   8 2966.74 566.467   1
  -9  19   8 3165.11 704.271   3
  10 -19   8 3427.40 696.738   2
 -19   9   8 5132.85 972.278   3
 -10  -9   8 2564.05 595.427   3
  19 -10   8 2501.35 710.960   1
   9  10   8 3887.99 759.928   1
  -9  19  11 134.278 517.367   1
  19 -10  11 132.175 684.499   1
 -10  -9  11 1950.73 886.053   2
  10 -19  11-394.752 722.960   1
  -9  19  11 947.844 693.748   3
 -19   9  11 863.928 749.103   3
 -10  -9  11 325.910 594.975   3
   9  10  11 1738.54 733.560   1
   9 -19  -8 2757.02 598.649   2
  -9 -10  -8 2418.67 572.744   4
   9 -19  -8 2481.34 549.985   4
  -9 -10  -5 3397.61 522.791   2
 -19  10  -5 3165.17 719.811   3
  -9 -10  -5 3923.79 635.625   4
   9 -19  -5 4406.10 634.112   4
   9 -19  -5 4400.94 667.219   2
 -19  10  -2 13177.8 1209.63   3
  19  -9  -2 12157.7 398.486   1
  -9 -10  -2 15278.2 1103.45   3
  -9 -10  -2 15350.8 1103.66   4
  -9 -10  -2 14097.5 1094.34   2
   9 -19  -2 15662.5 1084.08   4
   9 -19  -2 15505.2 1220.30   2
  -9 -10   1 6589.19 716.930   3
  10   9   1 6087.39 573.376   1
  -9 -10   1 5682.62 697.824   4
  -9 -10   1 4784.69 762.769   2
   9 -19   1 6644.32 713.929   4
  19  -9   1 4964.58 515.178   1
   9 -19   1 5953.43 822.896   2
 -10  19   1 5092.83 398.692   3
 -19  10   1 5769.95 756.284   3
 -10  19   4 6855.69 701.687   1
  -9 -10   4 7409.99 737.305   4
  -9 -10   4 6425.65 573.497   1
   9 -19   4 6931.12 725.044   4
  -9 -10   4 6583.53 989.898   2
  19  -9   4 5887.46 735.171   1
   9 -19   4 8319.11 974.282   2
  10   9   4 6914.10 740.187   1
 -10  19   4 8581.94 742.962   3
 -19  10   4 6983.31 830.994   3
   9 -19   4 5839.34 326.474   3
  -9 -10   4 7951.99 766.485   3
   9 -19   7 7853.02 1004.85   1
  -9 -10   7 6798.44 1004.42   2
  -9 -10   7 7278.35 784.556   1
  10   9   7 6609.21 884.352   1
  -9 -10   7 6928.13 702.999   4
   9 -19   7 8158.64 709.395   4
   9 -19   7 6628.98 912.278   2
 -10  19   7 7029.72 815.804   1
  19  -9   7 6644.45 967.778   1
 -10  19   7 7585.65 905.324   3
 -19  10   7 9118.31 1072.01   3
  -9 -10   7 9085.55 875.888   3
  19  -9  10 2469.91 816.472   1
 -10  19  10 3083.83 793.541   1
   9 -19  10 4071.30 937.305   1
  -9 -10  10 5234.00 1015.87   2
   9 -19  10 5141.78 900.880   2
 -10  19  10 3588.59 891.814   3
  -9 -10  10 4220.45 712.071   1
  -9 -10  10 4255.33 854.028   3
 -19  10  10 3106.89 774.984   3
  10   9  10 3592.54 852.535   1
   8 -19  -9 5005.81 706.880   4
   8 -19  -9 5484.27 771.648   2
  -8 -11  -9 3950.26 638.588   4
   8 -19  -6 1119.48 447.522   2
   8 -19  -6 2007.91 502.855   4
 -19  11  -6 1470.46 590.981   3
  -8 -11  -6 1958.03 544.365   4
  -8 -11  -6 2203.26 450.409   2
 -19  11  -3 8243.17 1007.96   3
  -8 -11  -3 5673.57 722.671   4
  -8 -11  -3 6424.39 746.214   3
  -8 -11  -3 7460.20 792.960   2
   8 -19  -3 7208.53 772.312   4
   8 -19  -3 7876.15 852.721   2
  -8 -11   0 3828.31 590.545   3
   8 -19   0 3348.38 554.986   4
  -8 -11   0 4051.13 596.668   4
  -8 -11   0 4103.53 770.402   2
  11   8   0 3428.31 424.861   1
  19  -8   0 4546.87 403.765   1
   8 -19   0 4064.67 712.369   2
 -11  19   0 3664.75 359.454   3
 -19  11   0 3388.32 672.645   3
   8 -19   3 4424.32 751.979   2
  -8 -11   3 3640.50 573.148   4
  -8 -11   3 4164.37 781.969   2
   8 -19   3 2819.29 496.728   4
  19  -8   3 4335.32 575.041   1
  11   8   3 3530.08 505.652   1
 -11  19   3 3563.89 483.166   3
 -11  19   3 3477.83 529.120   1
  -8 -11   3 3642.95 540.545   3
 -19  11   3 2611.34 558.834   3
  -8 -11   6 1750.28 455.346   4
   8 -19   6 1338.11 632.411   2
   8 -19   6 900.273 375.790   4
 -11  19   6 2935.18 559.274   1
   8 -19   6 1290.93 273.876   3
 -11  19   6 2057.60 532.007   3
  -8 -11   6 962.429 591.331   2
 -19  11   6 1008.72 514.012   3
  -8 -11   6 1684.96 464.008   3
  11   8   6 1980.66 541.453   1
  19  -8   6 1818.62 550.499   1
 -11  19   9 4227.94 728.856   1
  -8 -11   9 6170.10 841.250   1
  11   8   9 5254.56 913.573   1
  -8 -11   9 5202.92 964.118   2
   8 -19   9 3709.05 889.785   1
   8 -19   9 4154.39 623.228   3
   8 -19   9 4191.42 818.330   2
 -11  19   9 3008.33 788.031   3
  19  -8   9 5165.11 926.577   1
  -8 -11   9 4628.80 764.317   3
 -19  11   9 5533.75 967.789   3
  -7 -12 -10 3418.25 650.326   4
   7 -19 -10 1924.52 506.030   4
   7 -19  -7 554.692 398.362   2
   7 -19  -7 1138.98 488.727   4
  -7 -12  -7 1651.46 524.698   4
  -7 -12  -7 784.342 307.224   2
 -19  12  -4 4184.51 791.125   3
  -7 -12  -4 4231.10 644.510   4
   7 -19  -4 4510.58 661.355   4
  -7 -12  -4 4694.33 663.872   2
   7 -19  -4 5828.87 780.459   2
 -12  19  -1 6111.17 447.083   3
  -7 -12  -1 5713.10 667.237   3
  12   7  -1 5769.53 493.753   1
   7 -19  -1 5391.00 679.439   4
  -7 -12  -1 6483.98 837.949   2
  -7 -12  -1 5741.81 736.821   4
   7 -19  -1 6442.92 833.036   2
  19  -7  -1 5623.86 336.058   1
 -19  12  -1 6573.30 865.657   3
  -7 -12   2 6244.03 958.383   2
  -7 -12   2 6511.05 735.626   4
   7 -19   2 6830.65 878.257   2
   7 -19   2 6176.67 678.138   4
  19  -7   2 6721.26 623.734   1
  12   7   2 6521.06 623.275   1
 -12  19   2 6421.21 540.692   3
 -19  12   2 5930.97 760.082   3
  -7 -12   2 5537.26 638.608   3
  12   7   5 8532.68 878.139   1
  -7 -12   5 8473.03 1050.58   2
   7 -19   5 8315.05 763.192   4
   7 -19   5 8549.41 1023.61   2
  -7 -12   5 7647.57 747.017   4
  19  -7   5 8014.26 861.265   1
   7 -19   5 7448.69 381.977   3
 -12  19   5 7225.49 755.321   3
 -19  12   5 7526.99 905.126   3
  -7 -12   5 7403.60 724.404   3
 -12  19   5 7469.35 730.875   1
   7 -19   5 6471.44 442.195   3
  19  -7   8 2046.52 635.291   1
  -7 -12   8 2668.42 772.428   2
  -7 -12   8 3432.33 527.856   4
   7 -19   8 3064.13 731.696   1
  -7 -12   8 2210.68 593.446   1
   7 -19   8 3515.66 813.151   2
   7 -19   8 2353.15 426.676   4
 -12  19   8 2367.63 575.729   1
   7 -19   8 2664.17 489.882   3
 -12  19   8 2656.10 737.141   3
  12   7   8 2072.12 587.461   1
 -19  12   8 2485.24 684.824   3
  -7 -12   8 2707.58 578.887   3
  19  -7  11 2366.12 834.143   1
 -12  19  11 2401.60 712.708   1
  -7 -12  11 2244.91 816.709   2
   7 -19  11 1951.55 996.758   1
  12   7  11 2784.55 864.286   1
 -19  12  11 3823.37 1019.81   3
   6 -19  -8 10656.7 971.435   4
  -6 -13  -8 10563.6 1005.63   4
   6 -19  -8 10700.4 999.578   2
  -6 -13  -5 1229.62 492.578   4
 -19  13  -5-346.780 484.796   3
  -6 -13  -5 1311.70 426.640   2
   6 -19  -5 853.861 409.979   4
   6 -19  -5 397.114 332.426   2
 -19  13  -2 28001.2 1655.18   3
 -13  19  -2 30892.3 993.769   3
  -6 -13  -2 33408.7 1507.76   3
  -6 -13  -2 31114.9 1562.90   4
  -6 -13  -2 33357.9 1670.63   2
   6 -19  -2 32449.1 1727.28   2
   6 -19  -2 32104.6 1548.28   4
 -19  13   1 1268.30 472.519   3
  -6 -13   1 2667.91 477.441   3
  -6 -13   1 2131.73 517.532   4
  -6 -13   1 1704.55 576.054   2
   6 -19   1 2274.34 484.001   4
   6 -19   1 2427.39 611.567   2
  19  -6   1 2115.63 349.886   1
 -13  19   1 2138.07 364.045   3
  13   6   1 2521.44 396.106   1
   6 -19   4 12291.6 1186.95   2
   6 -19   4 14178.3 968.530   4
  13   6   4 13963.1 1027.53   1
  -6 -13   4 14392.5 1019.03   4
  -6 -13   4 13792.0 1334.63   2
 -13  19   4 12089.0 858.988   1
  19  -6   4 14221.8 1051.13   1
 -13  19   4 14952.5 966.254   3
 -19  13   4 13647.2 1132.03   3
  -6 -13   4 14398.1 928.134   3
  -6 -13   7 5872.27 670.106   4
  13   6   7 4353.24 763.712   1
  -6 -13   7 4315.53 892.977   2
   6 -19   7 4441.87 537.927   4
 -13  19   7 5032.40 659.662   1
   6 -19   7 5269.50 899.495   2
   6 -19   7 6405.81 564.194   3
 -13  19   7 5225.81 781.938   3
  19  -6   7 5458.88 850.877   1
  -6 -13   7 5972.00 697.060   3
 -19  13   7 4258.64 755.157   3
 -13  19  10 7350.33 932.977   1
  13   6  10 9103.48 1222.75   1
   6 -19  10 7439.56 1253.41   1
  -6 -13  10 7066.65 1003.67   1
   6 -19  10 8634.43 1164.51   2
 -13  19  10 6408.19 1100.92   3
  -6 -13  10 6092.66 1079.72   2
 -19  13  10 5371.79 1113.90   3
  -6 -13  10 5669.78 843.126   3
  19  -6  10 7199.51 1145.09   1
   5 -19  -9 2879.87 597.165   2
   5 -19  -9 3090.02 612.692   4
  -5 -14  -9 3762.81 663.153   4
 -19  14  -6 296.840 525.632   3
  -5 -14  -6 84.5461 330.092   4
   5 -19  -6 38.9717 353.261   4
  -5 -14  -6 1242.53 425.848   2
   5 -19  -6 161.924 347.742   2
  -5 -14  -3 7842.41 893.084   4
 -19  14  -3 8669.26 1008.80   3
 -14  19  -3 7675.91 580.830   3
   5 -19  -3 7932.21 860.014   4
  -5 -14  -3 8545.52 905.884   2
   5 -19  -3 8875.75 942.910   2
 -19  14   0 1648.50 472.956   3
   5 -19   0 3587.28 715.617   2
  -5 -14   0 1956.04 379.091   3
  14   5   0 2225.25 347.395   1
  -5 -14   0 2367.83 541.055   4
   5 -19   0 2731.60 526.651   4
  -5 -14   0 2948.65 631.524   2
 -14  19   0 2517.74 415.468   3
  19  -5   0 1967.44 281.920   1
  14   5   3 12786.6 909.795   1
  -5 -14   3 13891.1 1271.40   2
   5 -19   3 15340.7 1044.02   4
  -5 -14   3 15682.7 1072.04   4
   5 -19   3 15186.4 1289.81   2
 -14  19   3 15970.0 946.231   3
  19  -5   3 15250.3 973.578   1
 -19  14   3 13075.7 1067.64   3
  -5 -14   3 12919.9 847.222   3
  19  -5   6-214.446 412.093   1
  -5 -14   6-5.98090 301.791   4
   5 -19   6 1294.71 439.615   4
 -14  19   6-220.780 309.804   1
   5 -19   6-256.591 443.528   2
  14   5   6 226.939 414.039   1
  -5 -14   6 505.171 531.994   2
 -14  19   6-24.8524 409.864   3
   5 -19   6 95.1931 180.140   3
 -19  14   6-858.928 579.018   3
  -5 -14   6-338.257 347.819   3
  19  -5   9 1428.29 658.683   1
   5 -19   9 917.458 611.868   1
  -5 -14   9 1446.88 677.725   2
  -5 -14   9 2328.60 653.462   1
   5 -19   9 1939.01 746.709   2
 -14  19   9 1588.20 514.880   1
 -14  19   9 1664.70 677.649   3
 -19  14   9 3020.47 864.339   3
  -5 -14   9 1838.42 544.793   3
  14   5   9 2282.74 692.713   1
  -4 -15 -10 205.600 430.524   4
   4 -19 -10 392.188 428.807   4
  -4 -15  -7 2559.96 562.167   4
  -4 -15  -7 3324.50 545.742   2
   4 -19  -7 3437.93 633.446   2
   4 -19  -7 4031.52 679.472   4
 -19  15  -4 330.521 454.578   3
  -4 -15  -4 706.497 454.495   4
   4 -19  -4-4.03849 330.434   4
  -4 -15  -4 407.031 367.838   2
   4 -19  -4 330.253 377.991   2
 -15  19  -1 4430.29 546.428   3
  -4 -15  -1 4180.09 673.683   4
   4 -19  -1 4498.35 637.037   4
   4 -19  -1 6269.86 866.903   2
  -4 -15  -1 5790.57 818.197   2
  19  -4  -1 3957.87 275.012   1
  15   4  -1 4559.78 407.588   1
 -19  15  -1 4418.74 720.013   3
  -4 -15   2 5340.03 523.616   3
  -4 -15   2 6837.84 989.809   2
   4 -19   2 5352.27 672.398   4
  -4 -15   2 5619.11 707.333   4
  15   4   2 5677.84 586.185   1
   4 -19   2 6331.80 949.583   2
 -15  19   2 6546.15 635.283   3
 -19  15   2 5230.08 733.276   3
  19  -4   2 6466.67 613.311   1
   4 -19   5 6183.46 397.540   3
  15   4   5 10690.3 960.824   1
  -4 -15   5 9255.20 1146.68   2
  -4 -15   5 9925.65 870.542   4
   4 -19   5 9755.61 857.454   4
   4 -19   5 9570.82 1123.48   2
 -15  19   5 8941.94 760.294   1
 -15  19   5 9157.44 879.752   3
 -19  15   5 8919.03 977.769   3
   4 -19   5 7613.39 384.912   3
  19  -4   5 8165.83 849.840   1
  -4 -15   5 10164.5 750.825   3
  -4 -15   8 781.192 487.778   1
 -15  19   8 522.516 355.468   1
  19  -4   8 1696.66 659.654   1
   4 -19   8-184.822 533.765   1
  -4 -15   8 631.173 376.129   4
  -4 -15   8-126.129 563.298   2
   4 -19   8-19.7687 263.715   4
   4 -19   8-80.3892 551.193   2
  15   4   8 1715.96 651.800   1
 -15  19   8-153.584 419.359   3
   4 -19   8 452.053 296.559   3
 -19  15   8 996.514 628.050   3
  -4 -15   8 98.8741 346.902   3
 -19  15   8-55.7896 258.381   1
  -3 -16  -8 16364.0 1257.08   4
   3 -19  -8 16846.3 1251.13   4
  -3 -16  -8 14200.2 939.928   2
   3 -19  -8 13701.5 1079.51   2
 -19  16  -5 1058.91 542.212   3
  -3 -16  -5 1366.84 453.306   4
   3 -19  -5 2236.27 503.391   4
  -3 -16  -5 2457.94 582.952   2
   3 -19  -5 2415.38 581.812   2
 -19  16  -2 16275.9 1244.51   3
 -16  19  -2 18154.7 1077.26   3
  -3 -16  -2 20621.6 1327.01   4
   3 -19  -2 18092.7 1238.22   4
  -3 -16  -2 18431.0 1323.25   2
   3 -19  -2 18891.6 1375.31   2
   3 -19   1 1402.00 431.207   4
  -3 -16   1 1632.06 318.406   3
  16   3   1 1510.21 307.346   1
  -3 -16   1 2159.30 488.155   4
  -3 -16   1 1048.37 538.732   2
  19  -3   1 1969.27 326.838   1
   3 -19   1 1977.06 579.351   2
 -16  19   1 2154.71 430.341   3
 -19  16   1 2560.67 557.634   3
  16   3   4 11804.2 931.385   1
   3 -19   4 12485.3 962.576   4
  -3 -16   4 12543.7 1267.24   2
  -3 -16   4 13607.9 1000.00   4
   3 -19   4 14722.2 1344.23   2
 -16  19   4 12627.9 987.401   3
 -19  16   4 11167.4 1011.21   3
  -3 -16   4 12766.4 778.476   3
  19  -3   4 11346.8 946.612   1
 -19  16   7 1628.46 374.363   1
  19  -3   7 2195.87 658.318   1
  -3 -16   7 2666.33 517.769   4
  -3 -16   7 1907.73 689.105   2
   3 -19   7 1930.45 447.837   4
   3 -19   7 3362.23 811.858   2
  16   3   7 1429.40 545.949   1
 -16  19   7 2032.75 453.085   1
 -16  19   7 1053.53 534.974   3
   3 -19   7 2256.80 388.513   3
 -19  16   7 888.758 574.804   3
  -3 -16   7 1776.48 417.195   3
  -3 -16  10 6846.14 1138.60   2
  16   3  10 7865.27 1137.13   1
   3 -19  10 7313.92 1189.96   1
  -3 -16  10 6323.38 1083.56   1
   3 -19  10 7781.03 1249.39   2
 -16  19  10 7991.82 942.236   1
 -16  19  10 6498.82 1133.84   3
 -19  16  10 5076.27 1085.20   3
  19  -3  10 8006.65 1220.15   1
   2 -19  -9 3657.43 730.233   4
  -2 -17  -9 4421.54 756.880   4
   2 -19  -6 1912.56 520.015   4
  -2 -17  -6 1111.21 410.279   2
  -2 -17  -6 1881.71 578.767   4
   2 -19  -6 1983.70 530.742   2
 -19  17  -3 2847.44 693.845   3
 -17  19  -3 2989.01 516.974   3
  -2 -17  -3 4683.14 735.125   4
   2 -19  -3 4071.47 657.559   4
  -2 -17  -3 4143.25 709.646   2
   2 -19  -3 4701.75 774.023   2
 -17  19   0 2004.64 432.702   3
 -19  17   0 2591.03 537.617   3
  -2 -17   0 3479.20 595.051   4
  19  -2   0 2290.06 310.827   1
  -2 -17   0 2164.08 591.903   2
   2 -19   0 3054.71 669.354   2
  17   2   0 3156.70 375.759   1
   2 -19   0 1784.03 482.339   4
  -2 -17   3 5634.92 460.733   3
  19  -2   3 6680.12 693.788   1
  17   2   3 4605.39 588.763   1
  -2 -17   3 6780.61 750.423   4
  -2 -17   3 7419.64 1037.88   2
   2 -19   3 5358.96 920.436   2
   2 -19   3 5990.48 751.199   4
 -17  19   3 5201.00 660.128   3
 -19  17   3 5057.90 708.300   3
   2 -19   6 5830.72 689.078   4
  17   2   6 4883.40 744.167   1
   2 -19   6 3001.65 768.710   2
  -2 -17   6 4527.28 925.416   2
 -17  19   6 4287.87 559.107   1
  -2 -17   6 4652.15 631.259   4
 -17  19   6 4651.86 729.338   3
 -19  17   6 6533.12 897.233   3
   2 -19   6 3665.94 395.080   3
  -2 -17   6 4771.87 543.457   3
  19  -2   6 4903.43 777.498   1
 -17  19   9 2384.42 572.680   1
  19  -2   9 2662.55 799.566   1
   2 -19   9 2248.70 787.475   1
  -2 -17   9 2730.43 714.711   1
  -2 -17   9 4133.32 901.712   2
  17   2   9 2564.52 821.566   1
   2 -19   9 2972.80 856.315   2
 -17  19   9 1748.54 692.696   3
 -19  17   9 1574.26 730.627   3
  -2 -17   9 3018.96 606.533   3
  -1 -18 -10 1277.56 599.483   4
   1 -19 -10 1833.69 600.679   4
   1 -19  -7 1158.72 492.151   4
  -1 -18  -7 925.554 474.961   4
  -1 -18  -7 484.540 430.368   2
   1 -19  -7 734.150 426.569   2
 -19  18  -4 1367.30 540.048   3
 -18  19  -4 2170.39 551.382   3
   1 -19  -4 3115.16 670.166   4
   1 -19  -4 4166.11 740.084   2
  -1 -18  -4 3010.06 662.255   2
  -1 -18  -4 2576.34 583.835   4
  19  -1  -1 3662.78 311.856   1
  -1 -18  -1 5374.51 737.430   4
   1 -19  -1 3340.87 634.641   4
  -1 -18  -1 2855.88 701.610   2
   1 -19  -1 3222.60 713.894   2
  18   1  -1 3977.02 347.752   1
 -19  18  -1 3508.50 641.799   3
 -18  19  -1 4134.61 655.790   3
  -1 -18   2 1095.49 169.422   3
  -1 -18   2 1502.38 453.912   4
   1 -19   2 985.510 397.440   4
  -1 -18   2 2235.37 735.148   2
   1 -19   2 1933.47 644.171   2
  19  -1   2 1980.76 405.821   1
  18   1   2 1724.01 385.986   1
 -18  19   2 1307.89 402.232   3
 -19  18   2 1308.18 430.040   3
   1 -19   5 52.6716 174.441   3
   1 -19   5 389.172 566.283   2
  19  -1   5 399.851 418.457   1
  -1 -18   5 128.308 311.858   4
   1 -19   5 1168.19 413.207   4
  -1 -18   5 174.246 499.044   2
  18   1   5 672.603 454.123   1
 -18  19   5 798.617 436.046   3
 -19  18   5 282.606 413.439   3
  -1 -18   5 1001.83 297.679   3
   1 -19   8 1682.47 672.648   1
  -1 -18   8 1054.06 696.455   1
  19  -1   8 872.864 597.575   1
  -1 -18   8 191.067 557.509   2
  -1 -18   8 940.131 398.718   4
   1 -19   8 1194.08 400.482   4
  18   1   8 1099.40 588.641   1
   1 -19   8 31.3762 520.160   2
 -19  18   8 637.022 402.175   1
 -18  19   8 1000.65 600.979   3
 -19  18   8 1085.69 633.559   3
  -1 -18   8 623.433 383.239   3
 -18  19   8 627.890 381.664   1
   0 -19  -8 17734.3 1357.62   4
   0 -19  -8 18011.3 1173.86   2
 -19  19  -5 139.555 408.119   3
   0 -19  -5 50.7871 357.136   4
   0 -19  -5 560.345 500.160   2
 -19  19  -2 25259.7 1459.32   3
   0 -19  -2 26613.4 1560.69   4
   0 -19  -2 28798.0 1718.24   2
   0 -19   1-92.4892 330.658   4
   0 -19   1 783.634 520.952   2
  19   0   1 8.91737 220.534   1
 -19  19   1 236.846 335.137   3
   0 -19   4 1029.44 188.199   3
   0 -19   4 2812.48 554.979   4
   0 -19   4 498.208 579.404   2
  19   0   4 1957.47 500.087   1
 -19  19   4 1841.15 557.080   3
   0 -19   7 77.7229 331.448   4
  19   0   7 692.226 527.314   1
   0 -19   7-285.416 663.411   2
 -19  19   7 85.2683 305.426   1
 -19  19   7 219.090 502.083   3
   0 -19   7-88.2450 290.239   3
   0 -19  10 10647.5 1414.91   1
  19   0  10 7836.32 1232.17   1
   0 -19  10 9776.83 1347.74   2
 -19  19  10 9222.88 1303.22   3
  20 -20  -8 2980.02 804.722   2
  20 -20  -8 1755.28 527.949   4
  20 -20  -5 109.236 471.235   2
 -20   0  -5-588.826 595.820   3
  20 -20  -5 774.446 429.065   4
  20 -20  -2 2690.12 660.309   2
 -20   0  -2 3438.24 876.565   3
  20 -20  -2 2916.72 571.891   4
   0  20   1 23.5335 267.680   3
 -20   0   1 151.616 439.572   3
  20 -20   1-116.559 376.324   2
  20 -20   1 650.065 462.301   4
 -20   0   1-365.977 227.903   1
   0  20   1 640.204 365.343   1
  20 -20   4 1413.01 476.101   2
   0  20   4 1481.86 521.569   1
  20 -20   4 1533.35 584.416   1
  20 -20   4 1742.24 528.111   4
 -20   0   4 759.330 540.997   3
  20 -20   7 127.370 419.921   2
   0  20   7 542.618 439.567   1
  20 -20   7 553.513 540.234   1
  20 -20   7 252.247 347.966   4
 -20   0   7 490.171 542.765   3
 -20   1  -9 4114.66 808.961   4
 -19  -1  -9 3146.85 798.784   4
  19 -20  -9 2663.06 614.412   4
  20 -19  -9 3182.49 654.936   4
  19 -20  -6 4446.97 814.121   2
  20 -19  -6 4029.16 663.091   4
  20 -19  -6 2679.96 700.985   2
 -19  -1  -6 4952.77 958.524   3
 -19  -1  -6 3510.01 585.161   2
  19 -20  -6 4088.43 683.112   4
  19 -20  -3 2841.91 669.060   2
  20 -19  -3 2459.23 607.304   2
 -20   1  -3 4459.54 889.745   3
 -19  -1  -3 3121.64 787.433   3
  19 -20  -3 3207.79 609.590   4
  20 -19  -3 3269.33 624.326   4
 -19  -1   0 4287.09 818.122   3
 -20   1   0 4431.54 478.475   1
 -19  -1   0 4503.37 523.685   1
  19 -20   0 5078.98 675.877   4
  -1  20   0 3053.69 235.814   3
  20 -19   0 4629.42 692.546   4
   1  19   0 4244.62 374.948   3
  19 -20   0 4172.61 700.962   2
  20 -19   0 4813.74 774.075   2
 -20   1   0 4664.65 865.669   3
  19 -20   3 3914.16 682.820   2
 -19  -1   3 3141.82 719.913   3
  19 -20   3 3669.61 640.192   4
  20 -19   3 3475.49 580.564   4
   1  19   3 4827.89 686.680   1
  -1  20   3 3877.17 608.513   1
  20 -19   3 3830.97 676.306   2
 -20   1   3 4076.51 828.466   3
  19 -20   6 2363.80 589.606   2
  20 -19   6 3089.71 606.496   2
   1  19   6 1942.85 569.375   1
  -1  20   6 2324.78 628.899   1
  19 -20   6 3809.68 813.346   1
  20 -19   6 3215.20 770.399   1
  20 -19   6 3054.30 607.806   4
  19 -20   6 3058.29 562.796   4
 -20   1   6 3131.06 801.772   3
 -19  -1   6 2559.06 726.294   3
  20 -19   9 5923.23 1126.43   1
  19 -20   9 4797.22 1020.87   1
   1  19   9 4139.20 827.928   1
 -20   1   9 3799.95 841.128   3
 -19  -1   9 2577.21 822.112   3
  -1  20   9 3678.83 758.687   1
 -20   2 -10 1028.01 597.214   4
 -18  -2 -10 142.242 509.117   4
  18 -20  -7 5726.06 928.802   2
  20 -18  -7 3871.33 867.609   2
  18 -20  -7 5548.89 743.447   4
  20 -18  -7 6838.13 795.068   4
  18 -20  -4 498.993 428.924   2
  20 -18  -4 374.765 454.600   2
 -20   2  -4-468.851 459.644   3
 -18  -2  -4 478.549 521.904   3
  18 -20  -4 250.087 344.440   4
  20 -18  -4 512.359 382.318   4
 -20   2  -1 21763.3 1645.17   3
 -18  -2  -1 18212.1 1508.15   3
 -18  -2  -1 19826.1 1064.35   1
  18 -20  -1 20615.0 1296.62   4
  20 -18  -1 22823.0 1372.45   4
 -20   2  -1 19044.3 1001.04   1
   2  18  -1 18397.3 633.675   3
  18 -20  -1 22092.4 1507.69   2
  20 -18  -1 20656.1 1435.35   2
  -2  20   2 3136.57 502.598   3
 -20   2   2 2746.16 648.111   3
  -2  20   2 4429.68 612.852   1
 -18  -2   2 3357.70 322.269   1
  18 -20   2 4755.61 681.784   4
  20 -18   2 3138.13 551.037   4
  18 -20   2 5502.50 792.806   2
  18 -20   2 3248.32 474.743   3
   2  18   2 4098.94 637.034   1
  20 -18   2 4462.50 725.564   2
 -18  -2   2 4229.84 851.379   3
   2  18   2 3486.54 589.673   3
   2  18   5 14362.6 1183.64   1
  18 -20   5 11130.0 1132.34   1
  20 -18   5 11409.3 1123.73   1
  -2  20   5 12959.6 1107.30   1
  18 -20   5 12354.7 988.058   4
  20 -18   5 11999.6 1028.84   4
  18 -20   5 12669.9 1133.65   2
 -20   2   5 12951.0 1273.13   3
 -18  -2   5 12296.5 1215.41   3
  20 -18   5 13157.8 1100.79   2
  -2  20   8 1432.96 613.770   1
  20 -18   8 1487.07 467.883   2
  18 -20   8 1508.14 716.302   1
  20 -18   8 1744.92 759.017   1
  18 -20   8 2326.80 530.545   4
   2  18   8 2880.32 749.299   1
 -20   2   8 2308.60 795.952   3
 -18  -2   8 1618.87 700.629   3
  18 -20   8 1410.01 558.736   2
  17 -20  -8 2702.44 726.996   2
  17 -20  -8 1923.81 550.727   4
  20 -17  -8 1768.69 500.638   4
 -17  -3  -8 2005.30 643.788   4
  17 -20  -5 175.204 466.904   2
  20 -17  -5 1078.13 532.659   2
 -20   3  -5 2141.80 736.011   3
 -17  -3  -5 1350.59 711.983   3
 -17  -3  -5 1191.42 455.155   2
  17 -20  -5 650.344 378.279   4
  20 -17  -5 419.153 321.876   4
 -20   3  -2 3248.97 874.265   3
  20 -17  -2 2212.78 539.159   2
 -17  -3  -2 2755.46 768.207   3
  20 -17  -2 2260.95 385.385   1
  17 -20  -2 2490.92 560.862   4
  20 -17  -2 2826.37 560.093   4
   3  17  -2 2223.11 260.298   3
  17 -20  -2 3808.37 724.096   2
   3  17   1 963.919 358.337   3
 -20   3   1 826.901 496.733   3
 -17  -3   1 1264.65 610.841   3
  -3  20   1 783.098 251.201   3
   3  17   1 1350.58 409.377   1
  20 -17   1 1534.01 497.993   2
  -3  20   1 390.549 294.859   1
  17 -20   1 1054.69 449.725   4
  20 -17   1 1136.34 424.208   4
  17 -20   1 774.660 315.277   3
 -17  -3   1 1053.21 294.065   1
  17 -20   1 788.179 469.174   2
   3  17   4 4456.50 665.690   1
  20 -17   4 2620.59 579.534   1
  17 -20   4 4398.52 668.818   4
  20 -17   4 4772.24 678.903   4
  -3  20   4 3929.37 656.657   1
 -17  -3   4 2537.53 176.294   1
  17 -20   4 3862.52 688.930   2
 -20   3   4 4466.10 850.481   3
 -17  -3   4 3594.95 710.556   3
  20 -17   4 3542.78 601.984   2
  17 -20   4 3157.69 524.706   3
  20 -17   7 1014.69 427.689   2
  -3  20   7 1613.14 512.950   1
  17 -20   7 1481.24 676.434   1
  20 -17   7 2436.60 774.900   1
  17 -20   7 1078.86 385.042   4
   3  17   7 645.616 428.378   1
 -20   3   7 793.252 605.964   3
 -17  -3   7 740.442 538.737   3
  17 -20   7 650.789 426.800   2
   3  17  10 1461.87 672.450   1
  17 -20  10 1287.52 791.038   1
  20 -17  10 2076.23 862.369   1
 -20   3  10-129.987 618.531   3
 -17  -3  10 1094.55 637.385   3
  -3  20  10 2560.28 752.616   1
  20 -16  -9 3255.15 607.228   4
  16 -20  -9 2132.65 736.014   2
 -16  -4  -9 3330.71 710.192   4
  16 -20  -9 1387.22 479.880   4
  16 -20  -6 7269.37 910.216   2
 -20   4  -6 8957.05 1220.65   3
  20 -16  -6 7769.91 1036.33   2
 -16  -4  -6 7455.93 699.302   2
  16 -20  -6 8047.79 866.176   4
  20 -16  -6 8343.03 841.291   4
  16 -20  -3 703.483 463.247   2
 -20   4  -3 2144.76 709.458   3
  20 -16  -3 1547.58 511.976   2
 -16  -4  -3 1326.20 540.198   3
  20 -16  -3 579.904 275.845   1
  20 -16  -3 942.324 399.338   4
  16 -20  -3 1769.22 455.703   4
  20 -16   0 8441.40 923.946   2
 -16  -4   0 6144.80 872.342   3
  16 -20   0 7346.35 791.842   4
  20 -16   0 7196.53 795.689   4
   4  16   0 8311.93 747.974   1
  16 -20   0 6737.80 573.017   3
 -16  -4   0 7212.48 630.519   1
  16 -20   0 8339.29 946.080   2
   4  16   0 6488.72 585.281   3
 -20   4   0 8185.52 1049.73   3
  -4  20   3 3818.35 574.520   3
   4  16   3 3191.89 595.069   1
  20 -16   3 2043.26 515.112   1
  16 -20   3 4891.01 666.514   4
  20 -16   3 3307.73 570.936   4
  16 -20   3 4567.72 731.501   2
  -4  20   3 2677.39 537.690   1
  16 -20   3 3184.91 444.591   3
 -16  -4   3 3727.22 698.889   3
 -16  -4   3 3030.54 306.645   1
  20 -16   3 3204.35 609.193   2
 -20   4   3 2799.76 661.402   3
  20 -16   6 2829.20 563.900   2
  16 -20   6 2933.14 736.984   1
 -16  -4   6 1920.45 250.883   1
  -4  20   6 2913.73 586.858   1
  20 -16   6 1939.07 646.129   1
  16 -20   6 2383.81 515.223   4
   4  16   6 2227.20 585.588   1
  16 -20   6 2188.68 576.551   2
 -20   4   6 1078.04 514.407   3
 -16  -4   6 2005.12 610.209   3
  -4  20   9 1662.32 611.730   1
   4  16   9 1588.48 686.317   1
  16 -20   9 2600.61 806.019   1
  20 -16   9 506.628 648.623   1
 -20   4   9 1270.69 700.203   3
 -16  -4   9 520.606 563.554   3
  16 -20   9 1300.33 570.933   2
 -15  -5 -10 1510.06 596.962   4
  15 -20 -10 1074.13 500.473   4
  15 -20  -7 8149.46 1008.41   2
 -15  -5  -7 9560.26 1030.97   4
  15 -20  -7 9333.91 923.774   4
  20 -15  -7 8864.79 861.951   4
 -15  -5  -7 9320.20 620.730   2
 -20   5  -4 5217.60 1003.81   3
  20 -15  -4 4233.11 741.018   2
 -15  -5  -4 5346.71 909.645   3
  20 -15  -4 4246.22 428.002   1
 -15  -5  -4 5279.71 719.024   2
  15 -20  -4 5954.80 743.743   4
  20 -15  -4 4940.34 677.752   4
  15 -20  -4 4277.18 715.528   2
 -20   5  -1 18618.2 1514.22   3
 -15  -5  -1 19277.3 1465.97   3
  20 -15  -1 19786.0 1369.73   2
  20 -15  -1 18529.7 854.261   1
  20 -15  -1 23671.8 1329.69   4
  15 -20  -1 23015.1 1497.64   2
   5  15  -1 20345.7 892.002   3
  15 -20  -1 21344.6 1287.44   4
 -20   5   2 2291.10 593.578   3
 -15  -5   2 2605.03 352.061   1
 -15  -5   2 1900.51 437.074   3
  -5  20   2 3215.81 421.870   3
  20 -15   2 3084.88 545.484   1
   5  15   2 3246.55 510.233   1
  15 -20   2 2274.57 497.577   4
  20 -15   2 3174.67 552.563   4
  15 -20   2 4273.05 767.801   2
  15 -20   2 2636.19 352.682   3
  -5  20   2 2171.29 494.762   1
  20 -15   2 2925.84 592.310   2
 -15  -5   5 11856.5 594.324   1
  20 -15   5 14841.9 1243.20   1
  -5  20   5 14596.5 1108.81   1
  15 -20   5 14907.1 1030.18   4
 -15  -5   5 12837.7 558.710   1
  15 -20   5 15687.2 1245.39   2
 -20   5   5 11918.1 1187.45   3
 -15  -5   5 11851.5 1135.88   3
   5  15   5 16785.4 1192.18   1
  20 -15   5 15382.1 1106.81   2
  20 -15   8 3241.15 557.339   2
  -5  20   8 2752.79 659.725   1
 -15  -5   8 2348.78 511.623   4
  15 -20   8 2823.31 855.296   1
  15 -20   8 2081.20 484.039   4
   5  15   8 4081.79 800.144   1
  20 -15   8 4382.76 920.097   1
 -20   5   8 4687.12 903.113   3
  15 -20   8 2683.57 649.369   2
 -15  -5   8 3118.27 731.972   3
  14 -20  -8 948.683 601.317   2
 -14  -6  -8 374.218 450.496   4
  14 -20  -8 110.755 363.891   4
 -20   6  -5 4028.76 939.115   3
 -14  -6  -5 3946.72 754.499   3
 -14  -6  -5 3707.06 689.979   4
 -14  -6  -5 4417.34 630.862   2
  14 -20  -5 4011.95 620.240   4
  20 -14  -5 4446.70 631.656   4
  20 -14  -5 3315.87 380.814   1
  14 -20  -5 4148.53 721.799   2
 -20   6  -2 15744.5 1429.89   3
 -14  -6  -2 16821.7 1334.30   3
  20 -14  -2 18047.9 1335.80   2
  20 -14  -2 14086.8 681.377   1
  14 -20  -2 15932.6 1114.31   4
  20 -14  -2 17650.0 1179.79   4
   6  14  -2 13763.2 731.825   3
  14 -20  -2 17930.5 1309.66   2
 -14  -6   1 4872.90 503.187   1
  20 -14   1 6369.69 767.654   2
  -6  20   1 4883.00 389.378   3
  20 -14   1 5457.91 604.953   1
  14 -20   1 4316.93 614.376   4
  20 -14   1 5500.93 694.182   4
  14 -20   1 5240.16 422.383   3
  14 -20   1 4759.33 744.176   2
  -6  20   1 4929.13 322.873   3
   6  14   1 3526.91 525.770   1
   6  14   1 4431.87 582.376   3
 -20   6   1 6243.54 940.845   3
 -14  -6   1 6477.77 831.979   3
   6  14   4 3882.44 620.170   1
  20 -14   4 3515.25 610.445   2
 -14  -6   4 3108.28 349.535   1
  20 -14   4 3244.00 646.412   1
  -6  20   4 2990.67 555.611   1
  14 -20   4 3823.19 597.966   4
  20 -14   4 4275.86 623.658   4
  14 -20   4 5151.29 767.239   2
  14 -20   4 3948.54 469.549   3
 -20   6   4 3357.79 694.581   3
 -14  -6   4 2999.21 663.023   3
  20 -14   7 3685.15 543.281   2
  -6  20   7 4628.36 723.135   1
 -14  -6   7 3690.73 629.961   4
   6  14   7 3230.87 689.940   1
 -14  -6   7 3359.50 454.842   1
  14 -20   7 3064.22 739.059   1
  14 -20   7 4129.00 596.137   4
  14 -20   7 4100.81 727.636   2
  20 -14   7 2904.85 736.264   1
 -14  -6   7 4154.12 788.265   3
 -20   6   7 3494.27 779.353   3
  -6  20  10 1525.05 645.356   1
   6  14  10 705.741 596.357   1
 -14  -6  10 124.141 692.271   2
  14 -20  10 45.6666 635.661   1
 -20   6  10 1464.35 764.026   3
 -14  -6  10 1182.43 677.680   3
  20 -14  10 2025.45 915.590   1
 -13  -7  -9 1540.38 484.770   4
  13 -20  -9 1000.06 587.969   2
  13 -20  -9 2011.23 552.230   4
 -20   7  -6 8871.33 1180.74   3
  13 -20  -6 9250.46 895.346   4
 -13  -7  -6 8311.22 933.467   4
 -13  -7  -6 8518.74 710.496   2
  20 -13  -6 7773.86 800.726   4
  13 -20  -6 8836.45 970.670   2
  20 -13  -3 991.988 225.322   1
 -20   7  -3 335.538 581.120   3
 -13  -7  -3 1013.98 543.172   3
  20 -13  -3 1300.13 488.805   2
 -13  -7  -3 1613.01 471.938   4
  13 -20  -3 1175.08 430.131   4
  20 -13  -3 852.424 396.979   4
   7  13  -3 272.853 260.661   3
 -13  -7  -3 836.509 419.569   2
  13 -20  -3 628.439 394.878   2
 -13  -7   0 9782.06 751.064   1
 -13  -7   0 11380.5 1072.43   3
  20 -13   0 9664.81 954.226   2
  20 -13   0 10789.8 720.060   1
   7  13   0 11737.4 827.636   1
  13 -20   0 11554.1 935.832   4
  20 -13   0 10675.3 937.102   4
  13 -20   0 11525.0 1074.82   2
   7  13   0 9735.48 783.025   3
 -20   7   0 11823.4 1151.11   3
   7  13   3 1728.23 425.111   1
 -13  -7   3 1546.86 303.694   1
  -7  20   3 2764.03 504.227   1
  20 -13   3 1717.95 478.294   2
  13 -20   3 1859.97 491.194   4
  20 -13   3 1835.76 457.642   1
  20 -13   3 3180.87 589.078   4
  -7  20   3 2374.26 360.107   3
  13 -20   3 2334.03 581.824   2
  13 -20   3 1547.35 239.590   3
 -20   7   3 1831.75 621.400   3
  20 -13   6 1969.72 485.105   2
 -13  -7   6 1451.00 453.159   4
 -13  -7   6 714.648 317.826   1
  13 -20   6 1026.83 355.744   4
  20 -13   6 1377.41 601.702   1
  13 -20   6 1085.74 503.033   2
   7  13   6 1004.15 463.011   1
  -7  20   6 1797.93 531.687   1
 -20   7   6 900.862 483.056   3
 -13  -7   6 1688.26 503.553   3
  -7  20   9 1193.29 553.565   1
   7  13   9 1908.93 677.281   1
 -13  -7   9 1864.20 790.006   2
  13 -20   9 1355.43 711.491   1
  13 -20   9 1485.00 571.266   2
 -20   7   9 964.526 649.998   3
 -13  -7   9 1992.12 657.385   3
  20 -13   9 1780.34 743.791   1
 -12  -8 -10 878.270 499.513   4
  12 -20 -10 507.327 426.039   4
 -12  -8  -7 8469.17 958.950   4
  12 -20  -7 8071.94 884.067   4
 -12  -8  -7 8072.95 612.069   2
  12 -20  -7 7703.80 939.076   2
 -20   8  -4 3405.63 734.048   3
 -12  -8  -4 3092.61 696.872   3
 -12  -8  -4 2158.32 518.819   4
 -12  -8  -4 3463.72 576.532   2
  12 -20  -4 4385.78 643.737   4
  20 -12  -4 3350.38 561.150   4
  12 -20  -4 4399.94 707.734   2
  20 -12  -4 2174.60 216.358   1
 -12  -8  -1 14658.7 1193.41   3
  20 -12  -1 15103.7 1179.33   2
 -12  -8  -1 13822.7 1110.98   4
 -12  -8  -1 16368.8 1250.81   2
  20 -12  -1 15215.6 732.782   1
  12 -20  -1 16417.9 1111.71   4
  20 -12  -1 16836.7 1112.39   4
  12 -20  -1 14615.2 1213.15   2
  20 -12  -1 13595.3 634.248   1
   8  12  -1 14290.4 872.920   3
   8  12  -1 15354.4 892.231   1
 -20   8  -1 12305.1 1200.13   3
  20 -12   2 5186.66 690.376   2
   8  12   2 6228.58 677.382   1
  20 -12   2 5415.54 606.614   1
 -12  -8   2 6037.33 760.425   4
 -12  -8   2 5112.61 506.021   1
  12 -20   2 6009.87 686.207   4
  12 -20   2 6214.49 863.329   2
  12 -20   2 4164.28 264.107   3
  -8  20   2 6304.62 480.376   3
 -20   8   2 6333.95 888.464   3
 -12  -8   2 5825.62 762.435   3
  -8  20   2 5066.94 637.272   1
  20 -12   5 6217.04 699.818   2
 -12  -8   5 4393.62 455.359   1
 -12  -8   5 5193.03 674.734   4
  20 -12   5 5663.44 847.140   1
  12 -20   5 5985.94 683.373   4
  12 -20   5 6603.98 876.936   2
  -8  20   5 4059.70 625.499   1
  -8  20   5 5657.48 684.589   3
   8  12   5 5195.38 753.534   1
 -20   8   5 5399.75 819.568   3
 -12  -8   5 5846.60 760.143   3
  12 -20   5 4565.00 488.432   3
 -12  -8   8 1498.79 721.561   2
   8  12   8 867.876 462.343   1
 -12  -8   8 638.559 386.960   4
  -8  20   8 1293.55 523.010   1
  12 -20   8 729.250 606.378   1
  12 -20   8 555.683 309.089   4
 -12  -8   8 1702.20 442.788   1
  -8  20   8 2325.32 608.371   3
  12 -20   8 698.714 486.857   2
 -20   8   8 817.377 550.573   3
  20 -12   8 1646.37 700.294   1
 -12  -8   8 1823.98 558.978   3
  11 -20  -8 4557.50 756.901   2
 -11  -9  -8 5697.13 820.660   4
  11 -20  -8 5582.78 748.633   4
 -11  -9  -5 6253.39 810.378   4
  11 -20  -5 7476.98 802.786   4
 -11  -9  -5 5316.48 665.219   2
  11 -20  -5 6457.47 835.162   2
 -11  -9  -2 2879.66 634.967   3
 -20   9  -2 2883.61 641.789   3
  11 -20  -2 3074.31 561.935   4
  20 -11  -2 2960.86 273.243   1
 -11  -9  -2 3099.75 594.530   4
  20 -11  -2 3333.93 299.514   1
  20 -11  -2 3681.54 588.528   4
 -11  -9  -2 3712.43 658.153   2
   9  11  -2 2766.87 449.703   3
  11 -20  -2 2949.32 575.911   2
 -11  -9   1 11832.3 1029.52   3
  20 -11   1 10815.1 965.348   2
 -11  -9   1 14478.7 1246.94   2
 -11  -9   1 11806.6 997.943   4
  20 -11   1 12281.9 798.240   1
   9  11   1 11032.8 793.563   1
 -11  -9   1 10454.9 734.709   1
  11 -20   1 12568.7 985.585   4
  11 -20   1 11518.1 1145.38   2
  -9  20   1 11681.9 536.648   3
 -20   9   1 12581.3 1158.73   3
 -11  -9   4 4025.87 459.839   1
  -9  20   4 4285.47 591.434   1
  20 -11   4 4149.59 597.932   2
 -11  -9   4 4626.37 656.496   4
 -11  -9   4 3260.29 765.717   2
  20 -11   4 4960.56 686.791   1
  11 -20   4 4832.65 741.159   2
  11 -20   4 5722.28 666.313   4
  -9  20   4 5813.51 634.668   3
   9  11   4 4266.32 631.200   1
 -20   9   4 5095.70 788.430   3
  11 -20   4 3797.51 312.949   3
 -11  -9   4 4923.31 659.267   3
  11 -20   7 3893.52 578.682   4
 -11  -9   7 5027.27 989.732   2
  11 -20   7 6179.85 944.974   1
 -11  -9   7 3606.70 558.125   4
 -11  -9   7 3400.08 532.279   1
   9  11   7 6173.79 886.516   1
  20 -11   7 4905.68 881.924   1
  11 -20   7 5717.81 871.409   2
  -9  20   7 5054.50 807.966   3
  -9  20   7 3374.66 647.806   1
 -20   9   7 4178.60 829.710   3
 -11  -9   7 4414.00 732.909   3
  20 -11  10-1092.25 804.857   1
   9  11  10-136.753 541.964   1
  -9  20  10 339.217 557.595   1
 -11  -9  10-67.7175 619.116   2
  11 -20  10 2291.21 914.158   1
  -9  20  10-77.1878 582.238   3
 -20   9  10 1055.97 762.084   3
 -11  -9  10 839.443 559.989   3
  10 -20  -9 265.939 485.167   2
 -10 -10  -9 162.798 433.332   4
  10 -20  -9 498.007 425.725   4
 -10 -10  -6 5327.45 772.616   4
 -10 -10  -6 6578.31 657.510   2
  10 -20  -6 4917.42 706.410   4
  10 -20  -6 5847.37 804.427   2
 -20  10  -3 140.093 501.165   3
 -10 -10  -3 1374.62 566.047   3
 -10 -10  -3 560.706 389.143   4
 -10 -10  -3 864.095 407.107   2
  10 -20  -3 1392.60 447.955   4
  10 -20  -3 1107.54 484.445   2
 -10 -10   0 4851.51 719.027   3
 -10 -10   0 5412.68 739.219   4
 -10 -10   0 5991.92 803.527   2
  20 -10   0 5527.46 482.517   1
  10 -20   0 5977.70 703.237   4
  10 -20   0 6105.45 824.363   2
  10  10   0 6284.77 578.189   1
 -10  20   0 5184.71 342.236   3
 -20  10   0 5537.54 793.260   3
 -10 -10   3 624.997 404.266   3
 -10 -10   3 1223.30 432.111   4
  20 -10   3 618.431 363.026   2
 -10  20   3-175.740 350.539   1
 -10 -10   3 1012.74 525.550   2
  10 -20   3 531.821 349.899   4
  10  10   3 496.755 361.804   1
 -10 -10   3 637.256 283.859   1
  10 -20   3 785.718 439.852   2
  20 -10   3 554.634 373.945   1
 -10  20   3 290.748 247.089   3
 -20  10   3-487.015 450.147   3
 -10 -10   6 5374.76 929.671   2
 -10 -10   6 4618.59 611.092   4
  10 -20   6 5295.05 641.932   4
  10  10   6 6269.09 829.838   1
  10 -20   6 6103.76 911.357   2
  20 -10   6 6055.24 878.159   1
 -10  20   6 4849.83 698.378   1
 -10  20   6 6066.34 765.500   3
 -20  10   6 6879.54 937.687   3
 -10 -10   6 5354.81 706.474   3
  20 -10   9-758.193 662.519   1
 -10  20   9 531.489 539.103   1
  10 -20   9 436.264 684.676   1
 -10 -10   9 1562.54 754.107   2
 -10 -10   9-134.963 412.383   1
 -10  20   9-980.040 637.265   3
  10 -20   9-310.523 528.701   2
 -20  10   9-611.527 619.736   3
 -10 -10   9 442.346 467.664   3
  10  10   9 1359.29 606.325   1
  -9 -11 -10 219.584 457.142   4
   9 -20 -10 67.8321 389.348   4
  -9 -11  -7 5122.71 758.756   4
   9 -20  -7 6481.92 802.440   4
  -9 -11  -7 5563.38 573.920   2
   9 -20  -7 5025.89 731.325   2
 -20  11  -4 4313.87 901.308   3
  -9 -11  -4 4518.49 647.420   2
  -9 -11  -4 3873.29 668.247   4
   9 -20  -4 4735.47 682.946   4
   9 -20  -4 6097.45 806.204   2
  -9 -11  -1 12919.3 1032.35   3
  -9 -11  -1 11296.5 1050.02   2
   9 -20  -1 11560.1 947.340   4
  11   9  -1 14855.9 791.484   1
  20  -9  -1 12108.0 546.701   1
  -9 -11  -1 12804.3 1065.40   4
   9 -20  -1 13077.7 1183.71   2
 -20  11  -1 13709.6 1202.89   3
  -9 -11   2 4973.89 669.535   4
  -9 -11   2 3567.74 691.804   2
  20  -9   2 4588.57 556.739   1
   9 -20   2 3703.54 758.598   2
   9 -20   2 4434.57 623.268   4
 -11  20   2 4162.06 438.223   3
 -20  11   2 3698.30 679.026   3
  11   9   2 4012.40 533.049   1
  -9 -11   2 3807.66 586.594   3
  -9 -11   5 7439.49 1031.31   2
  -9 -11   5 5548.71 670.640   4
   9 -20   5 5462.38 644.827   4
   9 -20   5 6664.27 968.090   2
  11   9   5 6229.28 747.838   1
  20  -9   5 4865.65 745.244   1
   9 -20   5 4165.57 308.522   3
 -11  20   5 5612.01 678.105   3
 -20  11   5 5723.42 830.878   3
  -9 -11   5 7150.40 748.058   3
 -11  20   5 4856.79 657.083   1
   9 -20   5 4344.85 367.951   3
  -9 -11   8 6318.50 686.902   4
  -9 -11   8 6069.10 997.120   2
 -11  20   8 5162.66 739.030   1
  11   9   8 6703.04 957.772   1
   9 -20   8 6206.26 632.311   4
   9 -20   8 5569.35 917.954   2
  -9 -11   8 5149.38 717.440   1
 -11  20   8 6083.75 913.391   3
  20  -9   8 5847.58 938.250   1
   9 -20   8 6496.48 1041.45   1
  -9 -11   8 6635.90 829.722   3
 -20  11   8 5096.56 907.162   3
   8 -20  -8 45.2688 421.357   2
  -8 -12  -8 187.412 397.809   4
   8 -20  -8 610.969 461.057   4
 -20  12  -5 6694.68 1006.55   3
  -8 -12  -5 5511.07 792.010   4
   8 -20  -5 5905.46 733.630   4
  -8 -12  -5 5671.46 717.921   2
   8 -20  -5 5709.23 753.380   2
 -20  12  -2 4637.40 777.910   3
  -8 -12  -2 4751.46 680.353   3
  -8 -12  -2 4567.63 698.576   4
   8 -20  -2 5060.67 681.114   4
  -8 -12  -2 5958.93 774.368   2
   8 -20  -2 5214.70 774.221   2
  -8 -12   1 15478.3 1043.51   3
  12   8   1 17136.3 942.928   1
  -8 -12   1 16488.7 1147.76   4
  -8 -12   1 17326.9 1369.94   2
   8 -20   1 16981.2 1156.64   4
   8 -20   1 14884.3 1283.50   2
  20  -8   1 14536.9 820.762   1
 -12  20   1 15763.1 749.421   3
 -20  12   1 17381.6 1236.92   3
  12   8   4 2710.00 547.836   1
   8 -20   4 3736.01 574.359   4
  -8 -12   4 4172.76 626.691   4
  -8 -12   4 3029.33 745.078   2
 -12  20   4 2901.92 496.120   1
  20  -8   4 3564.57 637.238   1
   8 -20   4 2976.33 678.892   2
 -12  20   4 3961.61 532.748   3
  -8 -12   4 3550.27 576.122   3
 -20  12   4 2385.07 649.868   3
  -8 -12   7 9286.76 913.599   1
  -8 -12   7 10737.7 888.559   4
   8 -20   7 8299.38 746.732   4
   8 -20   7 8662.60 1118.37   2
 -12  20   7 8458.86 874.368   1
   8 -20   7 8769.42 634.490   3
 -12  20   7 7781.54 960.659   3
  20  -8   7 8613.11 1014.94   1
 -20  12   7 8879.28 1091.23   3
  -8 -12   7 10085.0 1269.55   2
  -8 -12   7 10265.5 924.053   3
  12   8   7 9020.36 1007.25   1
  20  -8  10 1418.35 714.648   1
  -8 -12  10 2540.12 883.052   2
 -12  20  10 1485.15 608.654   1
   8 -20  10 998.415 770.036   1
  -8 -12  10 2184.85 674.938   1
   8 -20  10 732.185 651.523   2
 -12  20  10 1109.21 751.798   3
 -20  12  10 1777.26 754.830   3
  -8 -12  10 1409.85 587.779   3
  12   8  10 1400.61 680.753   1
   7 -20  -9 2608.74 640.995   2
  -7 -13  -9 2182.07 601.370   4
   7 -20  -9 3036.05 645.250   4
   7 -20  -6 707.504 389.847   4
  -7 -13  -6 1855.52 474.875   2
  -7 -13  -6 1272.62 399.305   4
   7 -20  -6 1740.49 539.475   2
 -20  13  -3 2403.02 694.539   3
  -7 -13  -3 2089.72 526.008   4
   7 -20  -3 2106.59 518.775   4
   7 -20  -3 1665.57 526.597   2
  -7 -13  -3 2873.78 594.590   2
  -7 -13   0 11239.3 890.152   3
  -7 -13   0 11354.8 994.424   4
  -7 -13   0 12191.3 1142.77   2
   7 -20   0 11760.3 976.577   4
  13   7   0 13288.2 786.120   1
   7 -20   0 12731.2 1211.22   2
  20  -7   0 11572.3 605.385   1
 -13  20   0 11589.1 683.216   3
 -20  13   0 12473.0 1099.78   3
  20  -7   3 635.804 337.627   1
  -7 -13   3 531.398 378.932   3
  13   7   3 529.397 306.857   1
  -7 -13   3 1378.58 439.160   4
  -7 -13   3 340.205 507.807   2
   7 -20   3 955.155 382.781   4
   7 -20   3 1294.64 561.474   2
 -13  20   3 837.561 315.384   3
 -20  13   3 390.444 392.508   3
  -7 -13   6 10038.9 863.671   4
  -7 -13   6 9243.23 1175.18   2
  13   7   6 9664.75 1013.51   1
   7 -20   6 10418.7 842.610   4
   7 -20   6 10581.3 1168.82   2
   7 -20   6 8293.19 487.392   3
 -13  20   6 7523.42 876.882   3
  20  -7   6 8927.36 994.791   1
 -20  13   6 9595.74 1083.65   3
  -7 -13   6 10915.0 887.018   3
 -13  20   6 8704.78 850.659   1
  20  -7   9 665.080 666.205   1
  -7 -13   9 2593.14 819.421   2
   7 -20   9 2597.54 870.217   1
  -7 -13   9 2443.34 654.676   1
   7 -20   9 2246.26 764.054   2
 -13  20   9 1838.04 658.752   3
  13   7   9 3028.74 840.305   1
 -13  20   9 1041.83 532.438   1
 -20  13   9 2655.70 847.870   3
  -7 -13   9 1453.53 550.276   3
  -6 -14 -10 878.281 517.542   4
   6 -20 -10 91.4639 416.862   4
   6 -20  -7 4406.59 739.339   4
  -6 -14  -7 3521.94 656.706   4
  -6 -14  -7 3218.38 518.546   2
   6 -20  -7 4883.31 730.711   2
 -20  14  -4 3216.33 714.849   3
  -6 -14  -4 3371.33 667.377   4
   6 -20  -4 3603.28 664.110   4
  -6 -14  -4 3053.18 571.701   2
   6 -20  -4 3968.37 679.909   2
 -14  20  -1 6024.76 545.608   3
  14   6  -1 5520.19 481.025   1
  -6 -14  -1 5637.58 631.262   3
  20  -6  -1 5654.97 327.996   1
  -6 -14  -1 7331.46 819.010   4
  -6 -14  -1 5183.87 789.183   2
   6 -20  -1 5786.66 729.522   4
   6 -20  -1 7303.90 964.435   2
 -20  14  -1 5536.96 847.519   3
  -6 -14   2 17498.2 1009.07   3
  -6 -14   2 16256.0 1353.06   2
  -6 -14   2 15343.6 1128.50   4
   6 -20   2 16166.1 1096.63   4
   6 -20   2 18501.4 1427.34   2
  14   6   2 15486.6 941.504   1
  20  -6   2 16596.5 947.222   1
 -14  20   2 16223.6 904.049   3
 -20  14   2 17702.5 1248.45   3
  -6 -14   5 5439.07 920.067   2
  -6 -14   5 3983.88 624.276   4
  14   6   5 5346.79 706.599   1
 -14  20   5 4207.80 588.752   1
   6 -20   5 3824.29 558.066   4
   6 -20   5 5393.44 897.539   2
 -14  20   5 4901.29 683.420   3
  20  -6   5 4812.44 708.495   1
 -20  14   5 4351.22 742.845   3
  -6 -14   5 4838.30 583.137   3
   6 -20   8 356.067 299.509   4
 -14  20   8 1050.64 470.255   1
  20  -6   8 1810.79 673.151   1
  -6 -14   8 994.991 387.625   4
  -6 -14   8 1610.92 766.597   2
  -6 -14   8 1406.82 604.164   1
   6 -20   8-281.378 589.233   2
  14   6   8 355.569 467.973   1
 -14  20   8 1099.21 581.760   3
 -20  14   8 851.649 630.039   3
  -6 -14   8-119.429 365.687   3
   6 -20   8-644.006 602.169   1
   5 -20  -8 3280.65 647.067   4
  -5 -15  -8 2951.71 673.469   4
   5 -20  -8 5074.38 755.946   2
 -20  15  -5 14257.9 1323.57   3
  -5 -15  -5 14496.3 1182.23   4
   5 -20  -5 13843.6 1109.02   4
  -5 -15  -5 14871.3 1126.10   2
   5 -20  -5 14658.7 1167.45   2
 -15  20  -2 3170.32 448.212   3
 -20  15  -2 3219.20 733.640   3
  -5 -15  -2 2413.64 563.987   4
   5 -20  -2 3630.49 621.045   4
  -5 -15  -2 1834.15 577.476   2
   5 -20  -2 2593.02 621.585   2
  -5 -15   1 21797.1 1058.23   3
  -5 -15   1 24009.5 1395.00   4
  -5 -15   1 22070.6 1561.81   2
   5 -20   1 22380.8 1320.77   4
   5 -20   1 19057.8 1485.52   2
  15   5   1 23029.8 1037.90   1
 -15  20   1 21971.4 1042.44   3
 -20  15   1 26222.9 1486.99   3
  20  -5   1 21113.4 942.035   1
  -5 -15   4 4713.75 947.594   2
  -5 -15   4 4669.17 649.164   4
  15   5   4 5592.63 695.533   1
   5 -20   4 4743.03 639.045   4
   5 -20   4 5797.73 893.302   2
 -15  20   4 5588.37 672.928   3
 -20  15   4 4661.37 763.836   3
  20  -5   4 4715.86 685.809   1
  -5 -15   4 5805.24 605.807   3
  15   5   7 11145.1 1112.26   1
  -5 -15   7 9695.28 1219.82   2
 -15  20   7 10507.3 915.914   1
  -5 -15   7 10933.6 898.388   4
   5 -20   7 9735.43 806.957   4
   5 -20   7 13008.9 1321.33   2
 -15  20   7 10379.2 1063.60   3
   5 -20   7 10216.0 646.824   3
 -20  15   7 8719.40 1125.72   3
  -5 -15   7 11129.7 923.239   3
  20  -5   7 11033.3 1157.67   1
 -15  20  10 2201.16 658.922   1
  20  -5  10 1933.94 829.485   1
   5 -20  10 1780.95 893.197   1
  -5 -15  10 2900.39 792.375   1
   5 -20  10 2765.85 867.295   2
  15   5  10 2646.08 812.189   1
 -15  20  10 1022.22 691.915   3
 -20  15  10 1392.38 718.410   3
  -5 -15  10 1960.65 606.178   3
  -5 -15  10 1346.69 754.515   2
   4 -20  -9 2337.20 617.443   4
  -4 -16  -9 1544.32 535.907   4
   4 -20  -6 1527.04 539.937   4
  -4 -16  -6 1762.52 513.629   4
  -4 -16  -6 2857.94 559.266   2
   4 -20  -6 2091.33 548.044   2
   4 -20  -3 2123.74 521.217   4
 -16  20  -3 2543.15 456.791   3
 -20  16  -3 2888.07 700.958   3
  -4 -16  -3 2225.86 543.412   4
  -4 -16  -3 2373.00 593.243   2
   4 -20  -3 3428.81 667.017   2
  -4 -16   0 6985.30 610.496   3
  16   4   0 7511.69 577.793   1
  20  -4   0 6775.86 460.272   1
  -4 -16   0 7285.10 859.524   4
  -4 -16   0 7451.41 939.994   2
   4 -20   0 7853.18 851.740   4
   4 -20   0 6959.15 940.170   2
 -16  20   0 7927.35 683.417   3
 -20  16   0 7799.15 881.884   3
  -4 -16   3 853.727 329.331   3
  20  -4   3 1416.29 415.849   1
  -4 -16   3 1276.91 444.239   4
   4 -20   3 1643.00 477.609   4
  -4 -16   3 1018.91 540.473   2
   4 -20   3 1923.59 687.142   2
 -16  20   3 1480.55 415.588   3
 -20  16   3 2312.85 545.397   3
  16   4   3 944.414 387.290   1
  16   4   6 8522.79 972.216   1
 -16  20   6 9292.50 829.007   1
  -4 -16   6 8792.27 1174.37   2
  -4 -16   6 9545.07 901.983   4
   4 -20   6 8378.15 799.729   4
   4 -20   6 10155.7 1191.33   2
 -16  20   6 8512.10 935.015   3
 -20  16   6 7849.30 990.038   3
   4 -20   6 8062.31 494.102   3
  -4 -16   6 8975.97 755.976   3
  20  -4   6 7527.88 920.590   1
 -16  20   9 3375.68 650.972   1
  20  -4   9 1849.22 659.432   1
   4 -20   9 3670.70 927.389   1
  -4 -16   9 3888.89 1045.77   2
  -4 -16   9 3094.38 753.247   1
  16   4   9 1934.03 700.584   1
 -16  20   9 2862.84 803.609   3
 -20  16   9 1739.38 773.302   3
  -4 -16   9 3005.12 611.246   3
   4 -20   9 3078.49 852.077   2
  -3 -17 -10 2615.82 659.509   4
   3 -20 -10 1637.71 594.424   4
  -3 -17  -7 1305.18 565.433   4
   3 -20  -7 2216.69 586.344   4
  -3 -17  -7 1749.50 489.788   2
   3 -20  -7 1328.24 492.002   2
 -20  17  -4 3071.96 751.372   3
  -3 -17  -4 4728.89 738.544   4
 -17  20  -4 4888.23 621.008   3
   3 -20  -4 5818.33 839.258   2
   3 -20  -4 4694.95 729.483   4
  -3 -17  -4 4221.46 705.908   2
 -20  17  -1 977.645 436.947   3
 -17  20  -1 702.547 332.877   3
  17   3  -1 1009.83 227.857   1
  -3 -17  -1 946.033 404.000   4
   3 -20  -1 1323.69 480.224   4
  -3 -17  -1 1476.43 574.148   2
   3 -20  -1 166.990 442.246   2
  20  -3  -1 1031.34 167.197   1
  17   3   2 2528.22 427.871   1
  -3 -17   2 1986.54 336.524   3
  -3 -17   2 2514.01 554.146   4
   3 -20   2 3045.45 624.511   4
  20  -3   2 2084.61 411.662   1
  -3 -17   2 2430.36 687.035   2
 -17  20   2 2524.76 486.174   3
 -20  17   2 2481.42 527.045   3
   3 -20   2 2612.91 664.250   2
  20  -3   5 1368.30 494.414   1
   3 -20   5 1317.66 457.244   4
  -3 -17   5 1511.08 735.278   2
  -3 -17   5 1422.16 417.132   4
   3 -20   5 1406.18 667.605   2
  17   3   5 1308.58 507.366   1
 -17  20   5 1252.42 488.384   3
 -20  17   5 1662.27 537.324   3
  -3 -17   5 1341.10 371.912   3
   3 -20   8 1869.54 726.703   1
 -20  17   8 1915.60 433.205   1
  20  -3   8 2138.54 665.137   1
  -3 -17   8 1833.79 610.041   1
  -3 -17   8 1069.29 400.961   4
  -3 -17   8 1148.02 729.076   2
   3 -20   8 1660.76 429.764   4
   3 -20   8 2715.37 822.205   2
  17   3   8 1400.38 578.021   1
 -17  20   8 1742.70 505.215   1
 -17  20   8 1956.30 633.831   3
 -20  17   8 1230.91 647.811   3
  -3 -17   8 2119.35 524.025   3
   2 -20  -8 1010.15 429.293   2
  -2 -18  -8 1940.97 620.497   4
   2 -20  -8 2322.59 646.221   4
  -2 -18  -8 1590.14 485.091   2
 -20  18  -5 11331.6 1124.82   3
  -2 -18  -5 11523.4 1104.22   4
   2 -20  -5 13380.3 1129.48   4
  -2 -18  -5 13450.0 1158.71   2
   2 -20  -5 11522.5 1066.50   2
 -20  18  -2 4260.09 721.076   3
 -18  20  -2 4464.59 671.108   3
  -2 -18  -2 4737.45 783.319   4
   2 -20  -2 4168.62 711.262   4
  -2 -18  -2 4239.68 740.222   2
   2 -20  -2 3420.57 682.018   2
   2 -20   1 20962.9 1359.42   4
  20  -2   1 20387.1 930.939   1
  -2 -18   1 20688.1 1351.26   4
  -2 -18   1 23524.1 1661.61   2
   2 -20   1 19983.4 1536.74   2
  18   2   1 22005.9 1014.90   1
 -18  20   1 20583.0 1180.02   3
 -20  18   1 18836.5 1243.20   3
  -2 -18   4 472.763 232.578   3
  20  -2   4 960.312 430.352   1
  -2 -18   4-45.8033 361.062   4
  -2 -18   4 70.7653 482.740   2
   2 -20   4 162.757 382.917   4
   2 -20   4 262.032 494.413   2
  18   2   4 41.1063 331.786   1
 -18  20   4 770.181 409.193   3
 -20  18   4-11.9397 397.889   3
  20  -2   7 6540.82 928.033   1
  18   2   7 6277.03 930.287   1
   2 -20   7 7166.48 1102.16   2
  -2 -18   7 5973.23 1075.22   2
  -2 -18   7 5779.52 730.846   4
   2 -20   7 7057.68 776.959   4
 -18  20   7 6188.72 711.759   1
 -18  20   7 5431.96 876.731   3
 -20  18   7 6191.45 994.965   3
  -2 -18   7 5059.06 601.869   3
   2 -20  10 1950.22 880.699   2
  20  -2  10 1365.21 756.658   1
   2 -20  10 895.787 779.346   1
  -2 -18  10 1661.64 833.606   2
  -2 -18  10 339.673 644.300   1
  18   2  10 1522.26 735.101   1
 -18  20  10 230.579 660.670   3
 -20  18  10 353.330 735.113   3
  -1 -19  -9 4704.56 799.721   4
   1 -20  -9 3811.99 758.146   4
   1 -20  -6 3915.95 708.204   4
  -1 -19  -6 3112.79 630.376   4
  -1 -19  -6 2393.38 574.200   2
   1 -20  -6 1885.73 541.828   2
 -20  19  -3 5161.87 772.778   3
 -19  20  -3 4532.09 691.696   3
  -1 -19  -3 4154.71 714.923   4
   1 -20  -3 5012.30 740.062   4
  -1 -19  -3 5115.53 811.815   2
   1 -20  -3 4629.31 796.438   2
  -1 -19   0 4396.31 735.327   4
   1 -20   0 4146.30 661.353   4
  -1 -19   0 4776.44 870.159   2
   1 -20   0 5934.56 917.610   2
  20  -1   0 5184.82 441.543   1
  19   1   0 5555.48 491.439   1
 -19  20   0 4014.69 649.114   3
 -20  19   0 4224.86 689.672   3
  20  -1   3 4090.62 575.715   1
  19   1   3 4342.74 598.922   1
  -1 -19   3 5565.24 739.071   4
   1 -20   3 5144.42 746.899   4
  -1 -19   3 5458.77 976.524   2
 -19  20   3 3410.00 587.638   3
 -20  19   3 4792.69 733.524   3
   1 -20   3 5619.01 959.210   2
  20  -1   6 4944.54 848.686   1
   1 -20   6 3802.46 881.286   2
  -1 -19   6 4015.17 632.652   4
   1 -20   6 4128.98 660.506   4
  -1 -19   6 3867.63 907.406   2
  19   1   6 2879.45 674.003   1
 -19  20   6 2763.30 694.728   3
 -20  19   6 2068.64 613.098   3
  -1 -19   6 4390.37 499.414   3
 -19  20   9 4499.26 683.384   1
   1 -20   9 4745.83 1035.24   1
  -1 -19   9 4057.31 907.047   1
  20  -1   9 3534.03 844.046   1
  -1 -19   9 2799.23 891.391   2
  19   1   9 4405.60 980.382   1
   1 -20   9 4944.03 1025.06   2
 -19  20   9 3235.98 881.722   3
 -20  19   9 3375.14 868.138   3
   0 -20  -7 85.9271 439.028   4
   0 -20  -7 309.791 421.192   2
 -20  20  -4 1122.62 474.843   3
   0 -20  -4 425.745 383.028   4
   0 -20  -4 254.640 460.720   2
 -20  20  -1-234.955 435.862   3
   0 -20  -1-84.6236 367.502   4
   0 -20  -1 832.015 525.958   2
  20   0  -1 11.2289 150.743   1
  20   0   2 2936.47 479.261   1
   0 -20   2 2667.75 604.330   4
   0 -20   2 1904.73 656.797   2
 -20  20   2 3816.81 634.000   3
   0 -20   5 143.094 178.711   3
   0 -20   5 156.062 377.608   4
   0 -20   5 161.805 525.337   2
  20   0   5 104.293 404.598   1
 -20  20   5 49.4257 403.754   3
   0 -20   8 1541.30 485.759   4
  20   0   8 577.574 521.047   1
   0 -20   8 1013.69 671.418   2
 -20  20   8 946.464 407.376   1
 -20  20   8 2147.06 755.947   3
 -21   0  -9 545.305 598.586   4
  21 -21  -9 241.736 440.392   4
  21 -21  -6 1727.05 685.208   2
 -21   0  -6 2591.95 878.424   3
  21 -21  -6 1154.63 474.447   4
  21 -21  -3-90.8784 416.250   2
 -21   0  -3-221.460 506.251   3
  21 -21  -3 257.983 351.223   4
 -21   0   0 21770.6 1723.55   3
 -21   0   0 20012.1 980.284   1
  21 -21   0 24932.3 1463.19   4
   0  21   0 18232.2 604.923   3
  21 -21   0 24623.0 1651.55   2
 -21   0   3-736.323 579.499   3
  21 -21   3 34.2986 388.556   2
  21 -21   3 35.8925 389.874   4
   0  21   3-89.3407 426.176   1
  21 -21   6 7152.61 1068.04   1
   0  21   6 8288.31 1021.67   1
  21 -21   6 9075.50 936.466   4
 -21   0   6 7481.41 1142.58   3
  21 -21   6 7236.00 916.168   2
   0  21   9 350.714 531.988   1
  21 -21   9 841.913 815.220   1
 -21   0   9-302.743 601.316   3
  20 -21  -7 3975.22 861.415   2
  21 -20  -7 2314.48 716.110   2
  20 -21  -7 3899.46 688.830   4
  21 -20  -7 3913.41 708.343   4
  20 -21  -4 1850.55 606.863   2
  21 -20  -4 2952.40 706.967   2
 -21   1  -4 1513.98 714.813   3
 -20  -1  -4 1170.95 538.697   3
  20 -21  -4 2132.50 528.719   4
  21 -20  -4 2537.49 551.689   4
  20 -21  -1 3589.97 707.514   2
 -21   1  -1 4583.78 921.466   3
 -20  -1  -1 3344.65 780.011   3
 -21   1  -1 3074.87 511.104   1
  20 -21  -1 2902.90 626.457   4
  21 -20  -1 3001.16 596.216   4
   1  20  -1 2240.34 190.517   3
  21 -20  -1 4584.23 787.379   2
 -21   1   2 3274.18 827.987   3
 -20  -1   2 2736.31 713.601   3
   1  20   2 2424.32 537.471   1
  -1  21   2 2765.49 509.035   3
 -20  -1   2 2351.59 239.499   1
  -1  21   2 2753.21 566.136   1
  20 -21   2 4011.68 667.571   4
  21 -20   2 3839.96 646.544   4
  20 -21   2 3793.60 731.057   2
  21 -20   2 3856.85 741.767   2
   1  20   2 3804.80 604.538   3
  20 -21   5 8113.94 991.922   1
  21 -20   5 7005.66 940.493   1
  21 -20   5 7191.95 858.109   4
   1  20   5 7119.62 914.428   1
  -1  21   5 6469.87 846.028   1
  20 -21   5 4900.18 693.763   4
  20 -21   5 6726.30 905.404   2
 -21   1   5 5185.49 916.284   3
 -20  -1   5 8148.53 1080.04   3
  21 -20   5 7741.17 921.369   2
   1  20   8 2533.58 656.766   1
  20 -21   8 2987.71 648.875   2
  21 -20   8 2275.65 600.209   2
  -1  21   8 3852.47 851.139   1
  20 -21   8 3210.08 898.854   1
  21 -20   8 2827.05 805.584   1
  20 -21   8 2913.70 609.705   4
 -21   1   8 2885.68 789.017   3
 -20  -1   8 3392.82 881.384   3
  19 -21  -8 2458.24 793.048   2
 -19  -2  -8 3101.06 774.005   4
  21 -19  -8 3591.87 682.060   4
  19 -21  -8 3226.89 624.456   4
  19 -21  -5 1317.05 587.225   2
  21 -19  -5 1448.03 622.315   2
 -21   2  -5 1019.76 765.485   3
 -19  -2  -5-36.5612 555.204   3
  19 -21  -5 1999.59 529.041   4
  21 -19  -5 1225.44 445.647   4
 -21   2  -2 4960.13 937.314   3
 -19  -2  -2 5700.12 981.987   3
  21 -19  -2 3118.56 644.901   2
  19 -21  -2 5322.31 746.348   4
  21 -19  -2 4273.10 645.784   4
  19 -21  -2 6069.77 884.548   2
  19 -21   1 2457.32 641.588   2
 -21   2   1 3080.84 797.166   3
 -19  -2   1 3840.70 791.199   3
 -19  -2   1 3806.95 429.140   1
  -2  21   1 4127.82 687.334   1
   2  19   1 4509.50 657.429   1
  19 -21   1 4742.55 726.348   4
  21 -19   1 4447.74 697.727   4
   2  19   1 3257.63 510.366   3
  21 -19   1 4141.38 718.734   2
  -2  21   1 3408.69 398.127   3
  21 -19   4 27.1925 387.732   2
  -2  21   4 277.979 349.866   1
  21 -19   4 170.106 369.023   1
  19 -21   4 76.4075 365.845   4
  21 -19   4 648.190 396.034   4
   2  19   4 196.269 378.326   1
  19 -21   4 1056.50 500.396   2
 -21   2   4 543.715 574.948   3
 -19  -2   4 48.3826 468.236   3
   2  19   7 2639.67 667.919   1
  21 -19   7 1760.38 565.566   2
  -2  21   7 1948.05 639.827   1
  19 -21   7 1093.26 663.136   1
  21 -19   7 1163.06 650.304   1
  19 -21   7 1210.97 466.864   4
 -21   2   7 2898.25 835.049   3
 -19  -2   7 2812.63 785.817   3
  19 -21   7 1968.09 606.799   2
  18 -21  -9 1017.09 642.206   2
 -18  -3  -9 708.529 574.614   4
  18 -21  -9 78.5680 413.262   4
  21 -18  -9 782.359 427.913   4
  18 -21  -6 14256.8 1296.49   2
  21 -18  -6 12421.8 1330.89   2
 -21   3  -6 9630.77 1484.18   3
 -18  -3  -6 9857.88 1409.62   3
 -18  -3  -6 12980.2 960.816   2
  18 -21  -6 13147.8 1106.83   4
  21 -18  -6 12599.7 1062.61   4
  18 -21  -3 454.670 432.783   2
 -21   3  -3 814.583 621.300   3
  21 -18  -3 1152.29 492.951   2
 -18  -3  -3 628.738 547.911   3
  18 -21  -3 839.019 445.703   4
  21 -18  -3 1015.27 472.261   4
 -18  -3   0 18280.0 1487.89   3
 -18  -3   0 16168.7 919.832   1
  21 -18   0 19708.1 1292.16   4
  18 -21   0 16144.0 1318.27   2
   3  18   0 17527.7 837.232   3
  18 -21   0 18538.0 1252.59   4
   3  18   0 17200.8 1098.05   1
  21 -18   0 18558.5 1342.35   2
 -21   3   0 17222.1 1515.60   3
 -21   3   3-1013.60 471.970   3
 -18  -3   3 1613.76 655.797   3
   3  18   3 594.175 401.789   1
  21 -18   3 107.194 415.072   2
  -3  21   3-104.341 383.379   3
  18 -21   3 615.774 374.598   4
  21 -18   3 540.210 388.391   4
  21 -18   3 312.462 378.925   1
  -3  21   3 580.158 379.143   1
  18 -21   3 427.416 344.453   3
 -18  -3   3 346.686 150.647   1
  18 -21   3 403.240 462.942   2
   3  18   6 8955.66 1014.88   1
  18 -21   6 7944.97 1028.07   1
  21 -18   6 9280.20 1076.74   1
  -3  21   6 10381.6 1070.67   1
  18 -21   6 10580.0 927.005   4
  21 -18   6 9712.82 932.870   4
  18 -21   6 8491.66 970.887   2
 -21   3   6 10451.3 1252.24   3
 -18  -3   6 10512.7 1171.50   3
  21 -18   6 9606.67 974.799   2
  -3  21   9 909.120 642.799   1
   3  18   9 1223.78 668.819   1
  21 -18   9 1250.04 701.704   1
  18 -21   9 1498.31 824.259   1
 -21   3   9 82.5404 632.321   3
 -18  -3   9-273.449 609.780   3
 -17  -4 -10 585.487 574.569   4
  17 -21  -7 4855.12 828.153   2
 -21   4  -7 3489.26 939.047   3
 -17  -4  -7 3669.95 776.854   4
  17 -21  -7 4160.90 698.135   4
  21 -17  -7 3648.53 633.578   4
  17 -21  -4 1161.49 492.054   2
 -21   4  -4 1292.02 703.539   3
  21 -17  -4 834.136 495.373   2
 -17  -4  -4 282.431 466.064   3
 -17  -4  -4 2022.66 524.161   2
  17 -21  -4 1754.83 501.012   4
  21 -17  -4 2520.16 571.330   4
  21 -17  -4 1708.97 385.435   1
 -21   4  -1 8350.00 1071.38   3
  21 -17  -1 7915.79 946.475   2
 -17  -4  -1 9157.22 1095.92   3
  17 -21  -1 9382.43 941.653   4
  21 -17  -1 9555.68 895.709   4
   4  17  -1 7044.40 499.285   3
  17 -21  -1 8070.47 946.107   2
 -21   4   2 2520.25 675.893   3
 -17  -4   2 3485.53 722.760   3
  -4  21   2 4094.13 509.350   3
  21 -17   2 2756.80 608.777   2
  21 -17   2 3462.84 612.559   1
  17 -21   2 3703.67 663.159   4
  21 -17   2 4491.44 673.280   4
   4  17   2 3399.95 592.500   1
  17 -21   2 2476.79 410.584   3
 -17  -4   2 2925.13 367.316   1
  17 -21   2 2759.10 673.604   2
  -4  21   2 2936.77 546.514   1
   4  17   5 7424.64 875.702   1
  21 -17   5 8578.68 990.003   1
  17 -21   5 7513.86 783.119   4
  -4  21   5 7914.44 901.039   1
  21 -17   5 6616.30 796.445   4
  17 -21   5 7782.39 932.692   2
 -21   4   5 10067.8 1145.20   3
 -17  -4   5 8376.91 990.922   3
  21 -17   5 8708.50 903.451   2
  21 -17   8 1207.40 440.839   2
  -4  21   8 2069.27 668.193   1
 -17  -4   8 2273.41 568.652   4
  17 -21   8 1545.72 717.653   1
   4  17   8 2037.16 687.436   1
  17 -21   8 1329.73 428.092   4
  21 -17   8 1775.07 816.472   1
 -21   4   8 1380.22 610.904   3
 -17  -4   8 2136.81 681.480   3
  17 -21   8 2329.34 618.719   2
 -16  -5  -8 2518.01 646.366   4
  16 -21  -8 3051.80 777.522   2
  16 -21  -8 2962.44 656.715   4
  21 -16  -8 2919.06 587.168   4
  16 -21  -5 323.328 391.389   2
 -21   5  -5 109.504 636.843   3
 -16  -5  -5 858.421 668.045   3
  21 -16  -5 396.144 450.813   2
  16 -21  -5-40.1131 348.041   4
  21 -16  -5 126.367 364.044   4
 -16  -5  -5 837.305 395.259   2
 -21   5  -2 5647.79 1029.64   3
  21 -16  -2 7404.32 914.115   2
 -16  -5  -2 7648.47 983.964   3
  21 -16  -2 6756.08 552.986   1
  16 -21  -2 8951.83 877.521   4
  21 -16  -2 7050.04 778.555   4
   5  16  -2 6109.20 490.250   3
  16 -21  -2 8667.79 975.958   2
   5  16   1-116.920 332.578   3
 -21   5   1-390.906 485.117   3
 -16  -5   1-756.922 479.240   3
  -5  21   1 231.054 179.276   3
  21 -16   1 929.973 491.191   2
 -16  -5   1 251.823 275.744   1
  21 -16   1 288.783 293.162   1
  16 -21   1 142.583 343.749   4
  -5  21   1 48.3656 116.308   3
  16 -21   1 160.767 231.980   3
   5  16   1 430.173 355.077   1
  21 -16   1 12.5979 378.821   4
  16 -21   1 107.174 404.038   2
 -16  -5   4 4222.07 357.953   1
   5  16   4 4127.51 636.127   1
  16 -21   4 4809.72 668.717   4
  21 -16   4 3253.50 667.309   1
  21 -16   4 4538.93 687.642   4
  16 -21   4 3851.99 710.493   2
  -5  21   4 5382.31 717.117   1
  16 -21   4 3363.17 487.403   3
 -16  -5   4 4527.78 768.847   3
 -21   5   4 3769.05 750.871   3
  21 -16   4 4110.37 657.764   2
  21 -16   7 521.602 394.142   2
  16 -21   7 213.930 522.406   1
  -5  21   7-240.345 417.273   1
   5  16   7 942.405 589.514   1
  16 -21   7 149.427 355.408   4
  21 -16   7-574.871 557.190   1
  16 -21   7 210.253 524.557   2
 -16  -5   7 757.342 464.551   4
 -21   5   7 448.973 598.163   3
 -16  -5   7 41.8407 579.996   3
  -5  21  10 1891.20 701.291   1
 -16  -5  10 886.410 798.982   2
   5  16  10-83.1106 583.421   1
  16 -21  10 2917.49 1095.27   1
  21 -16  10 3510.19 985.521   1
 -21   5  10 1943.28 816.313   3
 -16  -5  10 1575.65 746.946   3
  15 -21  -9 3563.14 781.736   2
 -15  -6  -9 3341.18 704.979   4
  15 -21  -9 2386.87 586.717   4
 -21   6  -6 20965.6 1761.24   3
 -15  -6  -6 20173.9 1472.30   4
 -15  -6  -6 18509.4 1086.44   2
  15 -21  -6 17863.1 1256.10   4
  21 -15  -6 19256.3 1269.72   4
  15 -21  -6 16674.8 1362.76   2
 -21   6  -3 5230.19 996.729   3
  21 -15  -3 5697.64 845.755   2
 -15  -6  -3 4880.31 858.407   3
 -15  -6  -3 6684.82 857.950   2
  15 -21  -3 6033.84 758.082   4
  21 -15  -3 6586.20 755.960   4
  21 -15  -3 5294.40 468.094   1
   6  15  -3 4674.23 462.581   3
  15 -21  -3 5781.17 825.328   2
 -21   6   0 1719.85 544.569   3
 -15  -6   0 2699.77 668.704   3
  21 -15   0 3011.82 640.310   2
 -15  -6   0 2451.06 451.203   1
  15 -21   0 2546.83 518.217   4
  21 -15   0 2337.92 486.630   4
   6  15   0 2128.19 420.546   1
   6  15   0 2707.87 456.986   3
  15 -21   0 3053.66 655.759   2
  21 -15   3 4550.61 715.266   2
  -6  21   3 3597.85 539.999   3
 -15  -6   3 3002.30 355.541   1
  -6  21   3 3850.07 621.659   1
   6  15   3 4682.08 652.713   1
  21 -15   3 5030.32 679.547   1
  15 -21   3 3778.70 578.171   4
  21 -15   3 4436.36 673.195   4
  -6  21   3 3703.80 441.232   3
  15 -21   3 5149.19 820.168   2
  15 -21   3 3373.05 403.382   3
 -21   6   3 4624.51 856.141   3
 -15  -6   3 4876.82 752.433   3
  15 -21   6 1495.09 563.328   1
  21 -15   6 1549.90 460.462   2
 -15  -6   6 1867.19 510.967   4
 -15  -6   6 1265.48 318.173   1
   6  15   6 671.447 485.824   1
  15 -21   6 1245.19 398.504   4
  21 -15   6 1815.13 635.225   1
  15 -21   6 1216.18 496.453   2
  -6  21   6 1329.66 484.447   1
 -21   6   6 3416.68 773.266   3
 -15  -6   6 1849.61 545.704   3
  -6  21   9 3427.83 781.707   1
   6  15   9 3765.79 861.305   1
 -15  -6   9 4528.54 1092.40   2
  15 -21   9 3392.15 950.658   1
  21 -15   9 3945.99 1044.56   1
 -21   6   9 2083.03 780.526   3
  15 -21   9 3452.68 724.451   2
 -15  -6   9 3308.69 806.959   3
 -14  -7 -10 3631.54 735.736   4
  14 -21 -10 3387.22 682.024   4
  14 -21  -7 4975.27 828.013   2
 -21   7  -7 3938.12 875.698   3
 -14  -7  -7 5207.12 815.474   4
 -14  -7  -7 4426.10 501.897   2
  14 -21  -7 4968.16 742.759   4
  21 -14  -7 5134.81 696.932   4
  14 -21  -4 941.055 530.300   2
 -21   7  -4 525.810 584.591   3
 -14  -7  -4 1494.72 553.327   3
  21 -14  -4 1518.66 582.494   2
 -14  -7  -4 976.740 431.746   2
  21 -14  -4 682.341 237.785   1
  14 -21  -4 1829.21 488.064   4
  21 -14  -4 1524.71 478.935   4
 -14  -7  -4 1537.32 511.539   4
 -21   7  -1 4857.53 844.605   3
 -14  -7  -1 5530.07 838.344   3
  21 -14  -1 5904.00 807.465   2
  21 -14  -1 4489.66 435.844   1
  14 -21  -1 5823.12 732.654   4
  14 -21  -1 5515.73 819.407   2
   7  14  -1 4900.96 538.093   3
  21 -14  -1 4330.41 679.679   4
  21 -14   2 7366.64 846.068   2
  -7  21   2 6110.40 555.058   3
 -14  -7   2 5146.06 497.844   1
  21 -14   2 6012.32 693.742   1
   7  14   2 5269.14 648.156   1
  14 -21   2 5914.12 722.385   4
  21 -14   2 4972.18 690.548   4
  14 -21   2 5496.97 798.362   2
  -7  21   2 5290.39 436.118   3
  14 -21   2 5103.56 372.091   3
 -21   7   2 4730.91 809.816   3
  -7  21   2 6024.50 731.391   1
 -14  -7   2 4316.05 715.940   3
  21 -14   5 5312.18 660.184   2
  21 -14   5 6589.58 893.811   1
  14 -21   5 6254.25 718.726   4
 -14  -7   5 6213.81 777.682   4
  14 -21   5 5262.31 829.233   2
  -7  21   5 4826.99 690.752   1
 -21   7   5 4680.01 829.263   3
 -14  -7   5 5050.14 778.682   3
   7  14   5 5632.35 758.390   1
 -14  -7   8 6458.32 1155.08   2
 -14  -7   8 6845.29 778.503   4
  -7  21   8 7574.34 947.272   1
  14 -21   8 6502.92 1032.57   1
   7  14   8 4980.69 842.470   1
  14 -21   8 5569.86 660.466   4
  14 -21   8 6652.48 930.523   2
 -21   7   8 6324.15 1032.97   3
  21 -14   8 4807.23 982.818   1
 -14  -7   8 5054.02 858.360   3
  13 -21  -8 5556.59 885.824   2
 -13  -8  -8 5081.19 818.687   4
  13 -21  -8 6467.25 817.095   4
  13 -21  -5 2102.88 631.696   2
 -21   8  -5 1452.56 646.122   3
 -13  -8  -5 1755.14 491.632   4
 -13  -8  -5 1656.89 457.947   2
  13 -21  -5 1290.03 429.244   4
  21 -13  -5 1892.11 481.950   4
  21 -13  -5 586.049 146.796   1
 -21   8  -2 19604.7 1581.15   3
 -13  -8  -2 20759.9 1458.93   3
  21 -13  -2 17489.5 1351.55   2
  21 -13  -2 19097.7 716.484   1
  21 -13  -2 19260.8 760.079   1
 -13  -8  -2 23255.9 1449.97   4
 -13  -8  -2 21853.0 1445.30   2
  13 -21  -2 22271.6 1333.63   4
  21 -13  -2 22897.2 1370.70   4
   8  13  -2 20291.2 999.866   3
  13 -21  -2 20401.7 1427.33   2
  21 -13   1 7116.44 819.714   2
  -8  21   1 6604.74 439.688   3
 -13  -8   1 6631.37 621.059   1
  21 -13   1 6215.38 618.794   1
  13 -21   1 6575.00 745.812   4
  21 -13   1 8012.03 848.272   4
   8  13   1 7883.11 738.918   1
  13 -21   1 8149.19 965.771   2
  -8  21   1 7697.80 410.798   3
 -21   8   1 7676.05 958.264   3
 -13  -8   1 8793.70 949.367   3
  -8  21   4 7887.05 814.577   1
  21 -13   4 8863.31 854.287   2
 -13  -8   4 8014.25 868.547   4
  13 -21   4 7970.24 802.606   4
  13 -21   4 8363.03 1010.05   2
  -8  21   4 7234.38 677.735   3
 -13  -8   4 6286.68 523.312   1
  13 -21   4 6915.72 477.885   3
 -21   8   4 7274.25 960.424   3
 -13  -8   4 9410.76 934.154   3
  21 -13   4 9590.80 942.373   1
   8  13   4 8890.68 888.046   1
  21 -13   7 507.557 358.891   2
   8  13   7 1250.77 504.769   1
 -13  -8   7 947.005 630.958   2
 -13  -8   7 1190.86 454.603   4
  13 -21   7 838.526 558.504   1
 -13  -8   7 639.358 364.791   1
  13 -21   7 840.023 370.716   4
  -8  21   7 1232.36 501.111   3
  13 -21   7 507.659 524.239   2
  21 -13   7 443.323 511.230   1
  -8  21   7 1048.09 472.805   1
 -21   8   7-88.9551 595.302   3
 -13  -8   7 1271.15 545.811   3
   8  13  10 2206.26 848.827   1
  -8  21  10 2470.69 715.682   1
 -13  -8  10 2651.88 913.322   2
  13 -21  10 2485.33 865.106   1
  -8  21  10 2935.73 857.015   3
 -21   8  10 2215.94 847.793   3
 -13  -8  10 2898.89 885.516   3
  21 -13  10 3058.95 920.253   1
  12 -21  -9 4646.58 842.770   2
 -12  -9  -9 3429.87 736.594   4
  12 -21  -9 3019.79 641.162   4
  12 -21  -6 2584.36 587.870   2
 -21   9  -6 1561.75 743.965   3
 -12  -9  -6 3626.01 702.848   4
 -12  -9  -6 3440.88 531.922   2
  12 -21  -6 2256.45 539.321   4
  21 -12  -3 6348.90 333.398   1
 -21   9  -3 9043.95 1111.94   3
 -12  -9  -3 6791.71 905.696   3
 -12  -9  -3 7754.39 889.472   4
  21 -12  -3 6814.62 352.490   1
  12 -21  -3 8522.73 856.447   4
  21 -12  -3 7468.65 801.439   4
  12 -21  -3 9367.33 998.029   2
 -12  -9  -3 9119.46 941.515   2
 -12  -9   0 5114.77 754.969   3
   9  12   0 5120.78 568.052   1
  21 -12   0 5552.49 792.172   2
 -12  -9   0 5302.39 773.258   4
 -12  -9   0 6010.63 843.219   2
  21 -12   0 5334.47 519.239   1
  12 -21   0 6005.17 750.312   4
  21 -12   0 5409.25 741.351   4
  12 -21   0 5591.06 847.861   2
 -21   9   0 6134.13 920.480   3
   9  12   3 9978.75 842.026   1
  21 -12   3 9562.08 917.033   2
 -12  -9   3 7666.13 1019.61   2
 -12  -9   3 9065.10 908.965   4
  21 -12   3 8834.53 840.157   1
  12 -21   3 10169.4 888.088   4
  12 -21   3 8333.01 978.582   2
 -12  -9   3 7581.81 599.955   1
  -9  21   3 8396.16 812.457   1
  -9  21   3 7880.52 624.296   3
 -21   9   3 7406.34 1008.67   3
 -12  -9   3 10467.7 988.597   3
  21 -12   6 4084.67 621.429   2
  -9  21   6 3365.98 583.163   1
 -12  -9   6 5402.37 994.092   2
 -12  -9   6 3600.95 624.719   4
   9  12   6 2380.10 641.506   1
  12 -21   6 4010.94 598.367   4
  12 -21   6 5324.50 872.305   2
  -9  21   6 3325.80 615.964   3
  21 -12   6 2964.68 691.405   1
 -21   9   6 4379.47 830.341   3
 -12  -9   6 2875.73 564.718   3
  -9  21   9 6914.39 960.572   1
 -12  -9   9 4124.75 998.889   2
  12 -21   9 4541.61 1064.83   1
   9  12   9 6890.95 1036.99   1
  12 -21   9 5367.60 880.897   2
  21 -12   9 7087.15 1093.81   1
  -9  21   9 5633.93 960.742   3
 -12  -9   9 7158.19 980.973   3
 -21   9   9 5036.15 993.209   3
 -11 -10 -10 2976.27 645.550   4
  11 -21 -10 2094.75 577.677   4
 -11 -10  -7 5274.93 813.123   4
 -11 -10  -7 5278.15 553.796   2
  11 -21  -7 5425.38 827.972   2
 -21  10  -4 3966.41 907.821   3
 -11 -10  -4 5127.26 816.517   3
 -11 -10  -4 6951.54 863.755   4
  11 -21  -4 5918.88 764.998   4
 -11 -10  -4 4918.77 715.584   2
  11 -21  -4 5459.79 795.796   2
  21 -11  -1 7645.69 499.881   1
 -11 -10  -1 5412.09 786.517   3
 -11 -10  -1 6709.97 817.811   4
 -11 -10  -1 7247.81 891.803   2
  11 -21  -1 5445.94 725.290   4
  11 -21  -1 8783.44 975.582   2
  10  11  -1 8393.47 687.233   1
 -21  10  -1 7604.53 1030.04   3
  10  11   2 13899.3 961.177   1
  21 -11   2 12548.7 1063.39   2
 -11 -10   2 11951.4 1019.68   4
 -11 -10   2 13473.0 1277.74   2
  21 -11   2 12986.6 912.878   1
  11 -21   2 13697.8 1030.50   4
  11 -21   2 14846.3 1280.01   2
 -10  21   2 14312.9 727.252   3
 -21  10   2 10836.3 1112.50   3
 -11 -10   2 13483.5 1073.14   3
 -11 -10   5 1167.86 423.881   4
 -11 -10   5 2849.79 806.547   2
  11 -21   5 2377.65 505.620   4
 -10  21   5 2210.48 523.433   1
  10  11   5 3179.55 626.202   1
  11 -21   5 1636.78 654.949   2
 -10  21   5 1722.18 458.442   3
  21 -11   5 2186.89 580.475   1
 -21  10   5 1708.75 592.425   3
 -11 -10   5 2682.78 561.615   3
 -10  21   8 6464.14 835.225   1
  11 -21   8 7502.21 1109.13   1
 -11 -10   8 7431.40 813.388   1
 -11 -10   8 6676.54 1188.74   2
  11 -21   8 5935.42 664.707   4
  10  11   8 7978.65 1023.44   1
  11 -21   8 8296.64 1063.37   2
  21 -11   8 9786.23 1166.68   1
 -10  21   8 7076.47 947.646   3
 -21  10   8 6005.50 984.107   3
 -11 -10   8 6459.79 948.524   3
 -11 -10   8 6939.37 741.488   4
 -10 -11  -8 9229.10 1010.59   4
  10 -21  -8 8194.24 915.106   4
  10 -21  -8 7745.89 944.386   2
 -21  11  -5 2668.56 736.933   3
 -10 -11  -5 3266.60 580.137   2
  10 -21  -5 3720.75 652.601   4
 -10 -11  -5 2622.85 621.675   4
  10 -21  -5 4538.74 732.803   2
 -21  11  -2 12115.4 1222.92   3
 -10 -11  -2 13091.5 1093.13   3
 -10 -11  -2 13027.3 1084.72   4
 -10 -11  -2 13080.0 1141.65   2
  10 -21  -2 12539.8 1026.65   4
  10 -21  -2 13173.8 1175.95   2
 -10 -11   1 8552.29 852.891   3
 -10 -11   1 6243.49 754.676   4
 -10 -11   1 7028.36 958.467   2
  10 -21   1 8434.94 846.065   4
  21 -10   1 7452.27 629.008   1
  10 -21   1 8010.57 960.190   2
  11  10   1 8364.88 689.450   1
 -11  21   1 7737.15 504.739   3
 -21  11   1 7649.74 947.821   3
 -10 -11   4 6750.26 988.270   2
 -10 -11   4 6994.94 792.706   4
 -11  21   4 5529.16 680.152   1
  10 -21   4 7757.41 790.839   4
  21 -10   4 7028.03 790.056   1
  10 -21   4 5536.13 872.709   2
 -11  21   4 6566.64 673.012   3
  11  10   4 5756.61 723.342   1
 -21  11   4 4693.32 796.042   3
 -10 -11   4 6493.93 724.479   3
 -10 -11   7 6859.19 787.424   1
 -10 -11   7 5659.51 1054.03   2
 -10 -11   7 6020.51 712.049   4
  11  10   7 6580.27 870.452   1
  10 -21   7 8223.30 1111.11   2
 -11  21   7 5290.21 763.130   1
  21 -10   7 6038.86 931.960   1
 -11  21   7 9125.26 990.391   3
  10 -21   7 6944.44 730.685   4
 -21  11   7 5191.17 895.127   3
 -10 -11   7 4403.42 693.858   3
  21 -10  10 3831.21 952.161   1
 -10 -11  10 1063.76 798.200   2
 -11  21  10 3015.90 729.196   1
  10 -21  10 3460.96 1035.82   1
 -11  21  10 3349.16 823.810   3
  10 -21  10 3315.53 835.106   2
 -21  11  10 1218.03 760.733   3
 -10 -11  10 1669.98 631.708   3
  11  10  10 1497.38 724.343   1
   9 -21  -9 6959.29 937.809   2
  -9 -12  -9 4968.92 818.248   4
   9 -21  -9 4331.08 718.913   4
 -21  12  -6 3284.98 900.122   3
  -9 -12  -6 3426.44 645.827   4
   9 -21  -6 4180.59 685.588   4
  -9 -12  -6 2959.37 572.301   2
   9 -21  -6 3995.50 707.420   2
 -21  12  -3 9144.88 1128.20   3
  -9 -12  -3 9950.08 989.479   3
  -9 -12  -3 8415.62 927.993   4
  -9 -12  -3 8541.62 955.826   2
   9 -21  -3 9599.64 909.218   4
   9 -21  -3 8576.21 947.092   2
  -9 -12   0 5680.64 724.373   3
  -9 -12   0 4385.53 652.498   4
  -9 -12   0 3201.21 698.752   2
   9 -21   0 4641.79 656.797   4
  21  -9   0 4199.16 438.422   1
   9 -21   0 5144.12 796.202   2
  12   9   0 4213.14 513.033   1
 -12  21   0 3703.70 369.159   3
 -21  12   0 4503.08 779.877   3
  -9 -12   3 8489.73 860.168   4
  -9 -12   3 10092.8 1163.67   2
   9 -21   3 9234.85 864.443   4
   9 -21   3 9668.84 1134.23   2
  21  -9   3 8978.79 813.972   1
 -12  21   3 8597.16 688.180   3
  12   9   3 8206.92 814.037   1
 -21  12   3 8619.76 976.455   3
  -9 -12   3 7725.12 800.522   3
  -9 -12   6 3943.99 919.129   2
 -12  21   6 2962.44 546.850   1
   9 -21   6 3277.74 525.855   4
  12   9   6 3963.91 674.952   1
  21  -9   6 4345.31 763.948   1
   9 -21   6 3338.08 779.233   2
   9 -21   6 3170.16 331.801   3
 -12  21   6 2067.41 494.939   3
  -9 -12   6 3105.86 560.765   4
 -21  12   6 3554.78 794.189   3
  -9 -12   6 2877.95 569.334   3
  21  -9   9 2738.36 844.783   1
  -9 -12   9 2422.13 837.286   2
 -12  21   9 5176.47 824.741   1
   9 -21   9 3508.91 921.538   1
  -9 -12   9 3843.16 744.446   1
   9 -21   9 2781.03 758.352   2
 -12  21   9 2883.34 850.157   3
 -21  12   9 3800.91 902.152   3
  -9 -12   9 2743.28 692.644   3
  12   9   9 3741.42 858.270   1
  -8 -13 -10 2786.91 724.687   4
   8 -21 -10 1324.99 520.173   4
   8 -21  -7 491.351 463.369   2
  -8 -13  -7 1447.65 572.859   4
   8 -21  -7 480.347 406.394   4
  -8 -13  -7 493.539 332.175   2
   8 -21  -4 8014.73 848.393   4
 -21  13  -4 7207.88 1022.79   3
  -8 -13  -4 7471.35 877.706   4
  -8 -13  -4 7347.32 837.039   2
   8 -21  -4 8837.14 968.005   2
 -13  21  -1 7343.22 477.330   3
  -8 -13  -1 7591.85 771.256   3
  -8 -13  -1 8944.54 961.342   4
  -8 -13  -1 7609.81 925.703   2
  13   8  -1 8422.11 621.728   1
   8 -21  -1 7127.15 805.309   4
   8 -21  -1 8255.49 981.341   2
  21  -8  -1 7254.92 394.657   1
 -21  13  -1 8159.02 1007.33   3
  -8 -13   2 21778.8 1369.35   4
  -8 -13   2 19060.4 1537.11   2
   8 -21   2 21935.9 1281.69   4
   8 -21   2 20422.7 1579.50   2
  21  -8   2 22349.9 1127.24   1
 -13  21   2 21284.1 973.387   3
 -21  13   2 18794.2 1372.83   3
  13   8   2 20884.2 1113.17   1
  -8 -13   2 20236.0 1198.07   3
  21  -8   5 1462.97 527.996   1
  13   8   5 1879.15 570.899   1
 -13  21   5 1615.64 446.989   1
  -8 -13   5 1902.06 466.606   4
  -8 -13   5 1848.98 704.337   2
   8 -21   5 1695.42 437.222   4
   8 -21   5 1329.91 605.379   2
 -13  21   5 853.420 402.264   3
 -21  13   5 2298.52 642.083   3
  -8 -13   5 1387.71 473.488   3
   8 -21   8 6568.67 1049.62   1
  -8 -13   8 6664.21 867.664   1
  -8 -13   8 6513.16 1187.38   2
  -8 -13   8 6432.62 740.224   4
  13   8   8 6417.67 940.924   1
   8 -21   8 5951.89 662.823   4
   8 -21   8 8316.75 1130.17   2
 -13  21   8 6242.28 845.094   1
 -13  21   8 7311.45 980.021   3
  21  -8   8 5559.49 948.541   1
 -21  13   8 5101.67 952.707   3
  -8 -13   8 4194.83 708.518   3
  -7 -14  -8 7800.13 926.797   4
   7 -21  -8 5226.35 771.822   4
   7 -21  -8 6140.63 840.349   2
 -21  14  -5 7109.16 998.553   3
  -7 -14  -5 7374.00 894.451   4
   7 -21  -5 6878.52 853.971   4
  -7 -14  -5 5742.03 732.585   2
   7 -21  -5 4343.37 706.861   2
 -21  14  -2 5114.25 837.416   3
 -14  21  -2 4208.79 400.395   3
  -7 -14  -2 4028.81 605.854   3
  -7 -14  -2 6362.25 831.407   4
  -7 -14  -2 5538.29 793.824   2
   7 -21  -2 5057.64 711.214   4
   7 -21  -2 6523.17 913.742   2
  -7 -14   1 5891.11 668.989   3
  14   7   1 5470.75 571.036   1
  -7 -14   1 5253.93 717.424   4
   7 -21   1 5788.80 712.716   4
   7 -21   1 5042.21 811.576   2
  -7 -14   1 6294.95 902.456   2
  21  -7   1 6338.18 560.136   1
 -14  21   1 5208.41 527.063   3
 -21  14   1 5952.86 798.101   3
  -7 -14   4 796.690 344.832   3
  21  -7   4 1188.13 424.985   1
  14   7   4 1469.40 476.988   1
  -7 -14   4 1761.86 491.863   4
  -7 -14   4 1380.64 589.617   2
   7 -21   4 213.490 312.044   4
   7 -21   4 1273.06 658.326   2
 -14  21   4 846.759 388.690   3
 -14  21   4 1305.81 391.527   1
 -21  14   4 984.828 515.822   3
  21  -7   7 3445.49 728.313   1
  -7 -14   7 4098.55 630.634   4
  -7 -14   7 4734.04 931.522   2
  14   7   7 5618.00 863.741   1
   7 -21   7 5471.30 663.771   4
   7 -21   7 5755.92 1019.02   2
 -14  21   7 3370.33 710.814   3
  -7 -14   7 4647.90 677.097   3
 -21  14   7 4324.60 825.493   3
 -14  21   7 4384.52 699.947   1
 -14  21  10 3494.67 736.127   1
  21  -7  10 2715.34 855.595   1
  -7 -14  10 4099.11 1031.71   2
   7 -21  10 4838.20 1110.76   1
  -7 -14  10 4507.40 878.534   1
   7 -21  10 4835.46 994.495   2
 -14  21  10 3683.21 919.382   3
  14   7  10 3673.99 932.612   1
 -21  14  10 2105.38 817.698   3
  -7 -14  10 2711.52 696.628   3
   6 -21  -9 3930.92 715.165   2
  -6 -15  -9 3823.39 780.495   4
   6 -21  -9 5163.06 791.597   4
 -21  15  -6 674.849 666.004   3
  -6 -15  -6 1738.73 587.855   4
   6 -21  -6 1191.09 517.728   4
  -6 -15  -6 435.606 383.735   2
   6 -21  -6 726.022 401.315   2
 -21  15  -3 3285.35 848.153   3
  -6 -15  -3 4861.26 743.640   4
   6 -21  -3 4099.44 689.409   4
  -6 -15  -3 3589.66 641.725   2
   6 -21  -3 2815.09 635.952   2
 -15  21   0 2433.11 407.651   3
 -21  15   0 2267.22 604.841   3
  -6 -15   0 3136.17 535.882   3
  -6 -15   0 3417.38 635.227   4
  15   6   0 2719.46 406.764   1
   6 -21   0 3467.44 598.496   4
  -6 -15   0 2852.43 687.232   2
   6 -21   0 3205.00 700.983   2
  21  -6   0 2854.54 337.903   1
  -6 -15   3 6554.64 961.402   2
   6 -21   3 5783.93 698.226   4
  -6 -15   3 6053.34 754.979   4
   6 -21   3 4331.84 802.838   2
  15   6   3 6865.38 737.484   1
 -15  21   3 5568.71 628.167   3
  21  -6   3 5165.76 646.692   1
 -21  15   3 6407.95 881.951   3
  -6 -15   3 6460.77 674.269   3
 -15  21   6 18663.2 1174.66   1
  -6 -15   6 18769.2 1662.80   2
  -6 -15   6 18363.4 1191.95   4
  15   6   6 18650.9 1340.35   1
   6 -21   6 18073.5 1169.70   4
   6 -21   6 20517.3 1649.00   2
 -15  21   6 18508.9 1293.94   3
 -21  15   6 13993.9 1309.32   3
  21  -6   6 21389.3 1463.79   1
  -6 -15   6 18814.5 1143.68   3
 -15  21   9 2388.36 647.836   1
  21  -6   9 2764.68 805.300   1
  -6 -15   9 2508.22 904.011   2
   6 -21   9 3678.23 932.619   1
  -6 -15   9 1610.54 614.467   1
   6 -21   9 3336.92 905.964   2
  15   6   9 3973.38 872.452   1
 -15  21   9 2444.48 813.619   3
 -21  15   9 1274.91 660.222   3
  -6 -15   9 2577.04 642.762   3
  -5 -16 -10 2515.72 682.341   4
   5 -21 -10 1663.11 597.175   4
  -5 -16  -7-411.775 420.822   4
   5 -21  -7-133.794 396.433   4
  -5 -16  -7 88.9544 329.219   2
   5 -21  -7 273.613 434.704   2
 -21  16  -4 3678.67 818.697   3
  -5 -16  -4 5615.60 794.388   4
   5 -21  -4 4815.60 721.548   4
  -5 -16  -4 5695.26 808.619   2
   5 -21  -4 5897.77 832.244   2
 -21  16  -1 846.897 500.786   3
 -16  21  -1 158.284 274.986   3
  21  -5  -1 172.532 115.513   1
  -5 -16  -1 526.219 365.039   3
  -5 -16  -1-319.888 393.289   4
   5 -21  -1 581.369 411.870   4
  -5 -16  -1 271.968 456.331   2
   5 -21  -1 695.804 673.875   2
  16   5  -1 215.824 205.311   1
  -5 -16   2 5954.22 609.986   3
  -5 -16   2 6994.71 815.650   4
  -5 -16   2 7690.96 975.621   2
   5 -21   2 6494.19 753.308   4
   5 -21   2 7673.90 1013.91   2
  16   5   2 6639.55 646.499   1
 -16  21   2 6058.48 630.287   3
 -21  16   2 8359.21 911.877   3
  21  -5   2 6381.72 626.681   1
  -5 -16   5-46.0089 349.863   4
  21  -5   5 267.327 449.499   1
   5 -21   5 1068.56 604.705   2
  -5 -16   5 889.082 524.661   2
   5 -21   5 379.817 341.177   4
 -16  21   5 86.4717 298.256   1
 -16  21   5 81.3941 372.202   3
  16   5   5 302.882 406.126   1
 -21  16   5 220.586 478.167   3
  -5 -16   5-94.6957 324.707   3
  21  -5   8 2955.25 776.007   1
  -5 -16   8 5313.94 835.847   1
  -5 -16   8 5242.80 728.672   4
   5 -21   8 2876.92 809.154   1
  -5 -16   8 3896.40 970.767   2
   5 -21   8 3594.89 539.887   4
 -16  21   8 2623.66 550.990   1
   5 -21   8 3817.84 904.678   2
  16   5   8 4710.45 871.216   1
 -16  21   8 3529.05 798.722   3
 -21  16   8 3730.22 889.835   3
  -5 -16   8 2925.80 599.458   3
   4 -21  -8 600.165 465.544   2
  -4 -17  -8 851.803 511.871   4
   4 -21  -8 1129.42 556.683   4
  -4 -17  -5 8725.28 984.303   4
   4 -21  -5 9251.18 975.227   4
  -4 -17  -5 7453.79 913.300   2
   4 -21  -5 8653.83 939.997   2
 -17  21  -2 4190.28 547.101   3
 -21  17  -2 3555.04 703.512   3
  -4 -17  -2 4747.59 777.557   4
   4 -21  -2 4333.27 680.564   4
  -4 -17  -2 3748.20 711.884   2
   4 -21  -2 3119.17 775.377   2
  21  -4   1 7236.03 589.246   1
  -4 -17   1 6750.90 575.944   3
  -4 -17   1 8704.64 908.353   4
  -4 -17   1 7497.02 1008.16   2
   4 -21   1 6437.35 769.724   4
   4 -21   1 5713.58 934.386   2
  17   4   1 8175.77 645.089   1
 -17  21   1 5859.00 639.360   3
 -21  17   1 6414.86 831.593   3
  17   4   4 3119.58 608.171   1
  -4 -17   4 3116.28 573.561   4
   4 -21   4 2448.37 546.793   4
  -4 -17   4 2528.31 735.195   2
  21  -4   4 1815.33 462.651   1
   4 -21   4 3755.63 846.657   2
 -17  21   4 2550.42 535.350   3
 -21  17   4 2984.35 670.892   3
  -4 -17   4 2326.66 463.162   3
  21  -4   7 3570.16 735.385   1
  -4 -17   7 3383.69 598.455   4
   4 -21   7 3328.70 581.613   4
  -4 -17   7 3202.25 843.385   2
   4 -21   7 4267.91 964.693   2
  17   4   7 4190.00 804.135   1
 -17  21   7 4097.50 643.265   1
 -17  21   7 3942.52 780.340   3
  -4 -17   7 5092.61 640.040   3
 -21  17   7 1730.42 677.130   3
  -4 -17  10 2571.13 946.115   2
  21  -4  10 1252.39 766.735   1
   4 -21  10 672.472 728.361   1
  -4 -17  10 783.439 679.364   1
   4 -21  10 1870.56 809.468   2
 -17  21  10 728.263 521.405   1
  17   4  10 486.200 669.136   1
 -17  21  10 1767.70 818.385   3
 -21  17  10 770.508 772.294   3
  -3 -18  -9 1058.12 562.252   4
   3 -21  -9 558.266 485.772   4
   3 -21  -6 9740.83 1036.11   4
  -3 -18  -6 8512.83 896.547   2
  -3 -18  -6 10882.6 1115.54   4
   3 -21  -6 10079.7 1000.41   2
 -21  18  -3 295.942 469.334   3
 -18  21  -3 100.203 387.105   3
  -3 -18  -3 577.753 468.241   4
   3 -21  -3 395.131 421.293   4
  -3 -18  -3 418.525 446.993   2
   3 -21  -3 120.129 396.782   2
  21  -3   0 20541.7 802.336   1
  18   3   0 19125.2 888.918   1
  -3 -18   0 19765.3 1358.53   4
   3 -21   0 19042.2 1298.21   4
  -3 -18   0 19532.3 1530.94   2
   3 -21   0 20884.9 1577.70   2
 -18  21   0 16930.5 1090.45   3
 -21  18   0 17223.1 1282.33   3
  -3 -18   3 1101.93 278.529   3
  -3 -18   3 1314.07 709.472   2
  -3 -18   3 612.820 382.783   4
  21  -3   3 1049.89 379.101   1
   3 -21   3 1492.24 630.362   2
   3 -21   3 823.700 391.145   4
 -18  21   3 1189.74 408.530   3
 -21  18   3 818.620 459.127   3
  18   3   3 265.082 320.309   1
  18   3   6 11737.5 1107.77   1
  -3 -18   6 11743.0 997.250   4
  -3 -18   6 12711.8 1421.46   2
   3 -21   6 12066.7 991.423   4
   3 -21   6 12329.1 1408.56   2
 -18  21   6 11924.7 1111.66   3
 -21  18   6 9177.72 1063.38   3
  -3 -18   6 12759.0 869.900   3
  21  -3   6 11745.4 1117.53   1
  21  -3   9 1506.81 719.986   1
   3 -21   9-462.643 779.138   1
  -3 -18   9 909.031 612.157   1
  -3 -18   9 1120.66 723.519   2
   3 -21   9 481.688 641.039   2
  18   3   9 1385.66 688.884   1
 -18  21   9 1725.64 746.061   3
 -21  18   9 1565.53 795.881   3
 -18  21   9 1240.19 503.059   1
  -2 -19  -7 2126.93 562.787   4
   2 -21  -7 2723.49 636.860   4
  -2 -19  -7 2589.64 590.942   2
   2 -21  -7 1911.02 602.777   2
 -21  19  -4-639.848 519.030   3
 -19  21  -4 493.490 355.410   3
  -2 -19  -4-234.296 412.368   4
   2 -21  -4-807.453 458.421   4
  -2 -19  -4 174.450 438.321   2
   2 -21  -4 178.210 456.540   2
 -19  21  -1 4406.79 660.562   3
  21  -2  -1 4089.22 309.685   1
  -2 -19  -1 4566.08 759.241   4
  -2 -19  -1 4277.94 813.372   2
   2 -21  -1 4479.21 810.323   2
   2 -21  -1 5101.87 743.331   4
  19   2  -1 4942.21 406.106   1
 -21  19  -1 4507.95 723.882   3
  -2 -19   2 3067.94 300.663   3
  21  -2   2 4793.33 572.170   1
  -2 -19   2 5141.61 750.372   4
   2 -21   2 5170.10 721.336   4
  -2 -19   2 6716.79 998.524   2
   2 -21   2 5710.40 932.425   2
  19   2   2 5365.49 612.516   1
 -19  21   2 4308.38 631.698   3
 -21  19   2 3773.96 664.410   3
  -2 -19   5 1595.39 375.213   3
  21  -2   5 878.698 408.580   1
  -2 -19   5 1910.94 527.979   4
   2 -21   5 2294.93 547.737   4
  -2 -19   5 2128.39 737.674   2
   2 -21   5 1318.00 619.963   2
  19   2   5 1234.14 498.809   1
 -19  21   5 2471.80 576.124   3
 -21  19   5 1564.49 609.079   3
  -2 -19   8 2586.67 775.857   1
  21  -2   8 4646.21 879.034   1
  -2 -19   8 2361.78 520.112   4
   2 -21   8 2816.23 540.473   4
  -2 -19   8 2636.53 809.502   2
   2 -21   8 2665.81 888.671   2
  19   2   8 2507.91 765.042   1
 -19  21   8 1555.01 480.464   1
 -19  21   8 983.611 594.252   3
 -21  19   8 1983.97 758.090   3
   1 -21  -8 5102.94 859.738   4
  -1 -20  -8 3376.67 721.699   4
   1 -21  -8 3016.35 613.959   2
 -21  20  -5 6271.61 924.198   3
   1 -21  -5 5988.13 834.472   4
  -1 -20  -5 6855.33 921.479   4
  -1 -20  -5 7606.96 967.153   2
   1 -21  -5 6381.97 869.871   2
 -21  20  -2 2417.00 618.399   3
 -20  21  -2 3354.30 662.047   3
   1 -21  -2 2977.87 614.329   4
  -1 -20  -2 3742.07 774.656   4
  -1 -20  -2 3450.58 738.868   2
   1 -21  -2 2878.17 750.831   2
 -21  20   1 2961.14 601.808   3
  20   1   1 4693.79 513.093   1
  -1 -20   1 4851.63 736.193   4
   1 -21   1 4449.74 714.561   4
  21  -1   1 4257.88 468.094   1
  -1 -20   1 3266.47 757.695   2
   1 -21   1 4166.08 835.580   2
 -20  21   1 4011.79 658.581   3
  -1 -20   4 1586.65 227.178   3
  21  -1   4 3180.65 612.993   1
  20   1   4 3172.06 616.435   1
  -1 -20   4 2390.19 567.291   4
   1 -21   4 1893.12 517.682   4
  -1 -20   4 3746.57 951.889   2
   1 -21   4 3105.52 791.202   2
 -20  21   4 2687.42 557.874   3
 -21  20   4 2565.95 606.997   3
  -1 -20   7 5480.95 761.777   4
   1 -21   7 4133.53 657.686   4
  21  -1   7 3197.73 764.218   1
  -1 -20   7 3986.95 945.497   2
  20   1   7 4325.59 842.004   1
 -20  21   7 3841.63 791.138   3
 -21  20   7 4514.88 886.561   3
   1 -21   7 2882.25 824.009   2
   0 -21  -9 970.375 595.187   4
   0 -21  -6 9647.44 1087.87   4
   0 -21  -6 8870.57 1015.33   2
 -21  21  -3-357.625 447.000   3
   0 -21  -3 693.555 494.146   4
   0 -21  -3 430.037 525.440   2
   0 -21   0 29446.2 1699.82   4
   0 -21   0 30007.1 1921.46   2
  21   0   0 25949.1 967.406   1
 -21  21   0 24761.5 1488.88   3
   0 -21   3-755.726 415.772   4
   0 -21   3 1133.77 666.253   2
  21   0   3 661.723 375.181   1
 -21  21   3 410.202 473.621   3
   0 -21   6 1802.35 536.685   4
   0 -21   6 1750.79 756.167   2
  21   0   6 2315.96 643.830   1
 -21  21   6 832.516 490.355   3
   0 -21   9 62.6566 701.162   1
  21   0   9-252.987 675.897   1
   0 -21   9 717.304 764.297   2
 -21  21   9 486.111 626.024   3
  22 -22  -7 107.078 635.183   2
  22 -22  -7 259.651 520.289   4
  22 -22  -4 1162.70 632.682   2
 -22   0  -4 3166.11 907.245   3
  22 -22  -4 1728.11 580.119   4
  22 -22  -1 14.4402 434.077   2
 -22   0  -1 1036.45 682.004   3
  22 -22  -1-350.330 372.079   4
   0  22   2 8635.96 904.100   1
  22 -22   2 8450.23 963.734   4
  22 -22   2 7950.76 975.354   2
 -22   0   2 6637.52 1050.65   3
  22 -22   5 562.166 537.141   2
   0  22   5 475.492 447.658   1
  22 -22   5-60.1695 385.016   4
  22 -22   5-102.816 559.008   1
 -22   0   5-1012.20 584.442   3
  22 -22   8 3381.00 749.011   2
   0  22   8 4622.51 901.228   1
 -22   0   8 2355.56 858.829   3
  21 -22  -8 1888.67 731.439   2
  21 -22  -8 783.292 473.532   4
  22 -21  -8 838.085 480.807   4
  21 -22  -5 4650.63 850.745   2
  22 -21  -5 5473.51 938.081   2
 -22   1  -5 4413.90 980.040   3
 -21  -1  -5 4021.12 990.533   3
  21 -22  -5 5628.88 794.770   4
  22 -21  -5 4275.00 741.408   4
  21 -22  -2-156.766 456.267   2
  22 -21  -2 1083.09 459.771   2
 -22   1  -2 1819.16 693.987   3
 -21  -1  -2 2210.55 724.619   3
  21 -22  -2 1085.78 449.855   4
  22 -21  -2 1262.22 460.239   4
  21 -22   1 8481.15 946.809   4
  22 -21   1 8888.39 949.631   4
   1  21   1 9043.23 894.164   1
  21 -22   1 9491.62 1080.19   2
   1  21   1 8238.94 646.589   3
  -1  22   1 7568.79 560.639   3
  22 -21   1 8511.47 1038.55   2
  -1  22   1 9040.35 908.521   1
 -22   1   1 8522.04 1147.61   3
 -21  -1   1 9613.73 1190.62   3
 -22   1   4 1102.07 587.608   3
 -21  -1   4 1610.17 665.984   3
  21 -22   4 1328.88 559.642   2
  22 -21   4 1263.45 510.384   2
   1  21   4 2191.15 635.189   1
  21 -22   4 2417.52 686.799   1
  22 -21   4 1605.99 595.755   1
  -1  22   4 1854.26 570.232   1
  21 -22   4 2388.40 535.014   4
  22 -21   4 1739.25 542.170   4
  21 -22   7 3891.33 734.718   2
  -1  22   7 5972.23 901.484   1
  22 -21   7 5104.98 1050.42   1
   1  21   7 3634.70 786.791   1
  21 -22   7 5209.65 971.035   1
  22 -21   7 5973.23 816.558   4
  21 -22   7 3625.44 679.486   4
  22 -21   7 4871.25 802.657   2
 -22   1   7 5563.08 996.294   3
 -21  -1   7 3931.17 903.981   3
 -20  -2  -9 4789.94 940.742   4
  20 -22  -9 5055.97 790.194   4
  22 -20  -9 4059.96 748.877   4
  20 -22  -6 607.146 565.869   2
  22 -20  -6 1475.65 630.138   2
 -22   2  -6 423.400 628.261   3
 -20  -2  -6-69.2879 569.245   3
 -20  -2  -6 928.672 495.337   2
  20 -22  -6 395.265 411.341   4
  22 -20  -6 731.051 488.855   4
  22 -20  -3 7874.95 1016.75   2
 -22   2  -3 7467.75 1139.50   3
 -20  -2  -3 7380.64 1121.08   3
  20 -22  -3 8598.70 964.451   4
  22 -20  -3 6049.08 801.367   4
  20 -22  -3 7861.20 1007.10   2
  20 -22   0 1554.64 595.954   2
 -22   2   0 1412.94 630.504   3
 -20  -2   0 2482.73 728.519   3
  22 -20   0 2993.17 728.140   2
 -22   2   0 1587.86 354.139   1
  20 -22   0 1844.04 572.120   4
  22 -20   0 1979.80 529.139   4
 -20  -2   0 1575.85 401.024   1
   2  20   0 1407.57 302.065   3
  -2  22   3 7010.55 838.997   1
  22 -20   3 5678.20 776.093   1
  20 -22   3 6375.85 798.923   4
  22 -20   3 6691.58 826.068   4
   2  20   3 6790.29 828.182   1
  20 -22   3 6643.00 917.370   2
  22 -20   3 4905.74 769.340   2
 -22   2   3 4826.50 957.162   3
 -20  -2   3 7597.35 1021.89   3
   2  20   6 4836.13 857.101   1
  20 -22   6 4616.41 872.227   1
  -2  22   6 5711.96 877.185   1
  22 -20   6 4191.52 842.408   1
  20 -22   6 5253.93 744.305   4
  22 -20   6 5721.88 793.329   4
  20 -22   6 5357.38 838.383   2
 -20  -2   6 5689.12 995.895   3
  22 -20   6 4082.13 752.445   2
 -22   2   6 3884.24 984.106   3
  -2  22   9 3686.70 883.596   1
  22 -20   9 2050.30 942.549   1
  20 -22   9 3685.95 976.643   1
 -22   2   9 3676.10 941.628   3
 -20  -2   9 3697.56 918.951   3
   2  20   9 3923.66 853.579   1
  19 -22  -7 959.027 605.183   2
 -22   3  -7 694.374 689.865   3
 -19  -3  -7 815.209 565.425   4
  19 -22  -7 1361.85 543.518   4
  22 -19  -7 494.523 480.449   4
  22 -19  -4 4998.25 858.940   2
 -19  -3  -4 5877.70 1025.63   3
 -22   3  -4 4242.85 974.570   3
  19 -22  -4 5980.78 830.701   4
  22 -19  -4 3631.42 646.726   4
  19 -22  -4 4883.04 832.024   2
 -22   3  -1 2360.95 769.036   3
 -19  -3  -1 3321.09 839.781   3
  22 -19  -1 2677.61 680.760   2
 -22   3  -1 2105.94 426.107   1
  19 -22  -1 3163.41 631.987   4
  22 -19  -1 3229.15 622.323   4
   3  19  -1 2018.40 274.537   3
  19 -22  -1 3869.98 755.212   2
  -3  22   2 4014.66 520.937   3
 -19  -3   2 3784.96 783.988   3
 -19  -3   2 4237.09 406.039   1
  19 -22   2 6380.75 797.193   4
  22 -19   2 5544.90 762.613   4
  -3  22   2 4761.37 700.195   1
  19 -22   2 5283.42 852.453   2
 -22   3   2 5752.10 960.449   3
  22 -19   2 3994.90 742.997   2
   3  19   2 5634.36 705.611   1
  22 -19   5 472.055 373.517   2
  -3  22   5 620.642 445.494   1
  22 -19   5 1400.76 509.798   4
  19 -22   5 764.439 528.234   1
   3  19   5 2004.11 565.513   1
  22 -19   5 316.752 426.935   1
  19 -22   5 596.217 368.861   4
 -22   3   5 887.432 589.250   3
  19 -22   5 1524.22 600.363   2
 -19  -3   5 1473.58 651.551   3
   3  19   8 5709.33 970.789   1
 -19  -3   8 5280.05 776.792   4
  -3  22   8 5750.43 916.626   1
  19 -22   8 4909.42 981.469   1
  19 -22   8 5046.82 745.694   4
  22 -19   8 4603.16 1044.51   1
  19 -22   8 4599.61 809.899   2
 -22   3   8 6194.89 1160.10   3
 -19  -3   8 4109.09 902.500   3
  22 -19   8 4574.06 708.558   2
  18 -22  -8-25.0875 532.573   2
 -18  -4  -8 700.472 594.796   4
  18 -22  -8 292.550 448.068   4
  22 -18  -8 1129.12 517.692   4
  22 -18  -5 6293.45 989.676   2
 -22   4  -5 6507.18 1124.24   3
 -18  -4  -5 5315.82 967.648   3
 -18  -4  -5 5811.27 797.809   2
  18 -22  -5 5835.50 786.131   4
  22 -18  -5 6132.75 798.076   4
  18 -22  -5 5884.55 896.216   2
  18 -22  -2 1405.00 535.151   2
 -22   4  -2 1405.70 629.767   3
 -18  -4  -2 2060.30 657.905   3
  22 -18  -2 2386.57 680.003   2
  18 -22  -2 1696.01 504.968   4
  22 -18  -2 1686.34 465.270   4
   4  18  -2 1474.16 267.688   3
   4  18   1 2387.33 494.190   3
 -22   4   1 2173.06 691.906   3
 -18  -4   1 2523.50 721.102   3
   4  18   1 3035.13 516.747   1
  18 -22   1 3425.75 614.831   4
  22 -18   1 2254.73 584.751   4
  -4  22   1 2353.07 229.223   3
  18 -22   1 2802.20 453.163   3
  -4  22   1 1862.38 280.896   3
  18 -22   1 2274.49 628.664   2
 -18  -4   1 1967.57 413.411   1
  22 -18   1 3287.15 683.909   2
 -18  -4   4 27.9195 439.844   3
  22 -18   4 305.725 450.817   2
 -18  -4   4 406.930 128.566   1
  22 -18   4 445.005 443.882   1
  -4  22   4-22.6948 355.248   1
  18 -22   4 472.335 422.958   4
   4  18   4 112.055 425.595   1
  22 -18   4-115.940 338.514   4
  18 -22   4-465.424 439.546   2
 -22   4   4-490.672 523.667   3
  22 -18   7 1956.46 536.432   2
  18 -22   7 2907.06 803.330   1
  18 -22   7 1947.60 532.143   4
  22 -18   7 1025.00 581.184   1
  -4  22   7 1056.68 547.697   1
   4  18   7 3378.54 688.440   1
 -22   4   7 1372.15 691.987   3
  18 -22   7 2600.83 663.156   2
 -18  -4   7 2370.80 720.679   3
  17 -22  -9 7278.49 1118.57   2
 -17  -5  -9 5526.02 901.009   4
  17 -22  -9 5073.77 773.910   4
  17 -22  -6 1787.33 661.130   2
 -22   5  -6 2344.10 850.400   3
 -17  -5  -6 1128.83 567.279   4
 -17  -5  -6 620.045 364.890   2
  17 -22  -6 1264.37 537.039   4
  22 -17  -6 1475.00 480.342   4
  22 -17  -3 5386.16 916.043   2
 -17  -5  -3 6692.83 1021.54   3
 -22   5  -3 4103.00 909.975   3
  17 -22  -3 5803.02 776.603   4
  22 -17  -3 5947.29 753.133   4
   5  17  -3 4575.18 446.958   3
  22 -17  -3 4102.69 486.316   1
  17 -22  -3 5711.25 859.017   2
 -17  -5   0 544.700 311.992   1
 -22   5   0 465.852 479.120   3
 -17  -5   0 1781.13 620.151   3
  22 -17   0 592.816 394.793   2
  17 -22   0 752.805 436.540   4
  22 -17   0 1386.97 522.182   4
  17 -22   0 160.236 267.217   3
   5  17   0 664.042 341.252   3
   5  17   0 1050.35 394.009   1
  17 -22   0 954.151 520.569   2
  22 -17   3 5041.68 746.210   2
  -5  22   3 3634.03 600.358   3
  -5  22   3 4511.62 692.300   1
  22 -17   3 6638.98 808.082   1
   5  17   3 4868.72 690.261   1
  17 -22   3 6628.45 787.007   4
  22 -17   3 4572.00 713.429   4
  17 -22   3 4421.81 782.623   2
  17 -22   3 5111.71 540.953   3
 -17  -5   3 4760.31 422.959   1
 -22   5   3 5110.69 919.330   3
 -17  -5   3 5799.82 854.832   3
  -5  22   6 1032.69 491.651   1
  22 -17   6 672.568 390.699   2
  17 -22   6 1866.95 644.522   1
  17 -22   6 1708.65 459.326   4
  22 -17   6 2220.39 699.560   1
   5  17   6 2110.02 630.431   1
  17 -22   6 2121.49 646.608   2
 -22   5   6 2393.53 765.338   3
 -17  -5   6 1530.86 613.532   3
  -5  22   9 3615.95 859.443   1
  22 -17   9 5479.82 1115.87   1
  17 -22   9 3698.02 945.037   1
   5  17   9 5649.85 952.960   1
 -22   5   9 3184.38 894.899   3
 -17  -5   9 2271.17 765.808   3
  17 -22   9 4055.94 762.053   2
 -16  -6 -10 3182.51 755.815   4
  16 -22  -7 1711.74 642.091   2
 -22   6  -7 2994.68 922.135   3
 -16  -6  -7 2196.29 632.107   4
  16 -22  -7 1369.75 550.832   4
  22 -16  -7 1781.71 521.293   4
 -22   6  -4 6943.75 1139.67   3
  22 -16  -4 6937.16 1033.66   2
 -16  -6  -4 5146.91 915.979   3
  22 -16  -4 5848.95 492.061   1
 -16  -6  -4 6999.94 825.953   2
  16 -22  -4 6996.83 830.819   4
  22 -16  -4 7557.80 840.656   4
  16 -22  -4 6778.41 906.485   2
 -22   6  -1 8022.75 1104.22   3
 -16  -6  -1 7188.83 1027.89   3
  22 -16  -1 7750.17 929.355   2
  22 -16  -1 7414.06 601.120   1
  16 -22  -1 7944.56 862.143   4
  22 -16  -1 7690.15 849.111   4
  16 -22  -1 8721.86 1019.05   2
   6  16  -1 8513.67 634.870   3
  22 -16   2 8747.23 948.372   2
  -6  22   2 7566.00 622.462   3
  22 -16   2 8321.03 820.229   1
  16 -22   2 9025.67 921.434   4
   6  16   2 8424.00 827.320   1
  22 -16   2 7398.04 841.766   4
  -6  22   2 8584.46 527.383   3
  16 -22   2 7150.67 519.060   3
  16 -22   2 8368.21 1024.89   2
 -22   6   2 8773.69 1057.55   3
  -6  22   2 8891.75 881.042   1
 -16  -6   2 7244.03 938.455   3
 -16  -6   2 7075.65 571.190   1
  22 -16   5 569.401 366.709   2
 -16  -6   5 1117.68 273.234   1
  -6  22   5 1987.31 570.613   1
  16 -22   5 1822.66 484.193   4
  22 -16   5 1819.33 549.362   1
  16 -22   5 1406.02 589.194   2
   6  16   5 1231.61 523.238   1
 -22   6   5 1465.86 669.381   3
 -16  -6   5 2752.42 645.465   3
 -16  -6   8 2274.23 589.217   4
  16 -22   8 275.409 559.540   1
   6  16   8 3233.40 791.035   1
  -6  22   8 1213.83 545.514   1
  16 -22   8 1381.97 460.918   4
  22 -16   8 1621.94 677.654   1
  16 -22   8 2084.57 660.417   2
 -22   6   8 2730.99 787.368   3
 -16  -6   8 1448.00 657.634   3
  15 -22  -8-69.6805 464.319   2
  15 -22  -8 568.465 456.280   4
  15 -22  -5 2577.06 587.448   2
 -22   7  -5 2518.28 777.333   3
 -15  -7  -5 3338.38 623.170   2
 -15  -7  -5 2221.06 677.193   3
 -15  -7  -5 4192.14 776.000   4
  15 -22  -5 3970.06 676.004   4
  22 -15  -5 4012.67 682.211   4
 -15  -7  -2 4352.48 795.397   3
  22 -15  -2 5093.84 802.588   2
 -22   7  -2 4969.28 894.937   3
  22 -15  -2 4329.31 423.524   1
 -15  -7  -2 6916.85 937.357   2
  15 -22  -2 5103.90 717.923   4
  22 -15  -2 4532.74 705.100   4
   7  15  -2 3995.41 472.610   3
  15 -22  -2 4942.90 815.445   2
 -22   7   1 3910.39 768.294   3
  -7  22   1 3200.79 317.522   3
  22 -15   1 3707.64 692.034   2
 -15  -7   1 2789.76 648.625   3
  22 -15   1 3572.55 521.660   1
  15 -22   1 3412.09 598.754   4
  22 -15   1 4207.36 678.682   4
  15 -22   1 3001.91 333.171   3
  -7  22   1 2995.32 250.875   3
  15 -22   1 3445.75 667.235   2
   7  15   1 3682.00 567.747   1
 -15  -7   1 3925.03 505.799   1
 -15  -7   4 607.460 425.075   3
   7  15   4 1260.87 477.261   1
  22 -15   4 1042.72 406.454   2
  15 -22   4 1677.13 469.593   4
  22 -15   4 1704.37 527.333   1
  -7  22   4 825.709 353.191   3
  15 -22   4 1449.83 567.664   2
  -7  22   4 1510.70 482.828   1
 -22   7   4 733.964 518.940   3
  22 -15   7 3880.79 584.985   2
  15 -22   7 2533.41 722.757   1
  22 -15   7 4823.13 866.237   1
   7  15   7 3363.77 708.800   1
  15 -22   7 4539.58 645.583   4
 -15  -7   7 3066.40 621.959   4
  15 -22   7 3950.41 784.608   2
 -15  -7   7 5639.65 845.452   3
  -7  22   7 3807.80 722.384   1
 -22   7   7 1774.08 721.591   3
 -15  -7  10 310.236 786.333   2
  -7  22  10 831.311 642.363   1
   7  15  10-699.718 634.655   1
  15 -22  10 1757.26 945.117   1
  -7  22  10 1039.04 747.509   3
 -22   7  10 858.469 740.210   3
 -15  -7  10-468.518 617.127   3
  22 -15  10 622.171 772.749   1
  14 -22  -9 4955.01 933.329   2
 -14  -8  -9 4518.20 824.657   4
  14 -22  -9 4015.30 755.716   4
  14 -22  -6 1864.79 625.716   2
 -14  -8  -6 1424.20 542.102   4
 -22   8  -6 1743.53 790.264   3
 -14  -8  -6 985.815 404.826   2
  14 -22  -6 1190.41 496.793   4
  22 -14  -6 967.320 451.663   4
 -22   8  -3 10885.9 1290.67   3
 -14  -8  -3 12070.8 1235.07   3
  22 -14  -3 11236.2 1148.98   2
 -14  -8  -3 11973.4 1099.53   4
 -14  -8  -3 10509.8 1047.74   2
  14 -22  -3 11846.1 1022.48   4
  22 -14  -3 9948.57 517.900   1
  22 -14  -3 11475.4 1000.62   4
   8  14  -3 9006.23 696.313   3
  14 -22  -3 11625.3 1129.38   2
 -22   8   0-27.8349 457.528   3
 -14  -8   0-93.6947 475.492   3
  22 -14   0-218.143 361.377   2
 -14  -8   0 422.729 460.471   2
   8  14   0 436.891 348.570   1
  22 -14   0 210.545 266.244   1
  14 -22   0 606.804 410.023   4
  22 -14   0 673.243 384.085   4
  14 -22   0 183.601 469.090   2
  22 -14   3 8580.72 911.875   2
   8  14   3 12105.4 962.589   1
 -14  -8   3 10383.5 1008.59   4
  22 -14   3 9096.78 897.561   1
 -14  -8   3 9067.03 644.396   1
  14 -22   3 10415.1 934.291   4
  -8  22   3 11300.6 967.116   1
  14 -22   3 11509.0 1161.94   2
  -8  22   3 9911.94 690.226   3
  14 -22   3 7769.09 420.335   3
 -22   8   3 11603.1 1188.49   3
 -14  -8   3 11104.8 1067.50   3
  -8  22   6 2594.48 646.064   1
  22 -14   6 1583.07 463.260   2
 -14  -8   6 1315.53 441.356   4
 -14  -8   6 994.545 662.934   2
 -14  -8   6 1090.98 377.040   1
   8  14   6 1859.82 589.862   1
  14 -22   6 773.155 396.709   4
  -8  22   6 1322.38 494.630   3
  22 -14   6 914.269 557.590   1
  14 -22   6 1568.59 571.897   2
 -22   8   6 809.592 524.741   3
 -14  -8   6 1617.98 592.704   3
  -8  22   9 5619.51 918.574   1
  14 -22   9 6100.86 1127.18   1
 -14  -8   9 5089.65 1218.89   2
  22 -14   9 6455.41 1137.52   1
   8  14   9 6181.46 974.138   1
  -8  22   9 6095.32 1023.48   3
 -22   8   9 6159.01 1055.44   3
 -14  -8   9 6287.70 1001.07   3
  14 -22   9 4057.54 831.859   2
  13 -22 -10 1047.43 636.481   2
 -13  -9 -10 1616.21 638.736   4
  13 -22 -10 1658.64 586.778   4
  13 -22  -7 3004.24 729.735   2
 -13  -9  -7 1688.81 572.752   4
  13 -22  -7 2914.19 637.165   4
 -13  -9  -7 1564.06 410.537   2
 -22   9  -4 5078.68 967.618   3
 -13  -9  -4 4869.68 773.592   3
 -13  -9  -4 7094.67 902.769   4
 -13  -9  -4 5520.47 748.458   2
  13 -22  -4 6529.60 796.502   4
  22 -13  -4 6351.24 759.364   4
  13 -22  -4 5884.69 855.153   2
 -22   9  -1 787.737 508.762   3
 -13  -9  -1 2299.62 589.499   3
  22 -13  -1 1438.80 559.851   2
 -13  -9  -1 1037.48 420.957   2
  13 -22  -1 787.883 377.640   4
  22 -13  -1 1541.87 311.160   1
  22 -13  -1 1336.64 468.468   4
 -13  -9  -1 1912.14 557.220   4
  13 -22  -1 1437.51 609.082   2
  22 -13  -1 1397.31 276.568   1
 -22   9   2 1891.95 639.413   3
 -13  -9   2 2519.20 669.548   3
  22 -13   2 2995.21 581.084   2
 -13  -9   2 1717.32 477.452   4
 -13  -9   2 2334.65 719.629   2
  13 -22   2 1975.07 467.730   4
   9  13   2 2348.45 459.620   1
  22 -13   2 1963.64 471.998   1
  -9  22   2 2114.69 317.887   3
 -13  -9   2 1457.17 387.585   1
  13 -22   2 2319.01 583.052   2
  22 -13   5 1355.73 483.055   2
  13 -22   5 1682.77 468.207   4
 -13  -9   5 1205.78 464.083   4
 -13  -9   5 2062.97 752.694   2
   9  13   5 1546.72 540.149   1
  -9  22   5 1914.98 547.654   1
  -9  22   5 2320.21 513.683   3
  22 -13   5 1362.63 548.034   1
  13 -22   5 2018.24 595.147   2
 -22   9   5 1822.77 667.995   3
 -13  -9   5 2162.62 548.267   3
 -13  -9   8 6828.59 1208.71   2
 -13  -9   8 4675.88 675.223   4
  13 -22   8 5890.58 1041.52   1
  -9  22   8 5156.13 798.936   1
  13 -22   8 6069.03 694.697   4
  22 -13   8 5545.45 964.617   1
  13 -22   8 6789.70 973.928   2
   9  13   8 7544.64 1017.42   1
  -9  22   8 5569.47 886.977   3
 -13  -9   8 4816.68 878.754   3
 -22   9   8 5663.92 976.071   3
  12 -22  -8 1491.14 591.454   2
 -12 -10  -8 1123.86 534.430   4
  12 -22  -8 2237.76 573.473   4
  12 -22  -5 3147.22 688.765   2
 -22  10  -5 4304.88 925.111   3
 -12 -10  -5 3091.10 729.782   4
 -12 -10  -5 3025.31 576.632   2
  12 -22  -5 2851.55 609.971   4
 -12 -10  -2 7405.95 914.648   3
 -22  10  -2 5249.60 905.006   3
  22 -12  -2 5927.73 379.740   1
 -12 -10  -2 9278.27 977.152   4
 -12 -10  -2 9098.79 1030.78   2
  22 -12  -2 8059.25 445.779   1
  12 -22  -2 10316.0 973.051   4
  12 -22  -2 8273.30 970.443   2
 -12 -10   1 5086.07 765.080   3
 -22  10   1 3198.90 727.035   3
  22 -12   1 4935.19 745.947   2
 -12 -10   1 4028.45 650.727   4
 -12 -10   1 6613.13 930.037   2
  22 -12   1 4017.24 527.867   1
  12 -22   1 4936.55 681.047   4
  10  12   1 5268.24 631.820   1
  12 -22   1 4082.19 743.154   2
 -10  22   1 5013.37 378.535   3
  22 -12   4 4109.44 671.572   2
 -12 -10   4 5435.17 1022.51   2
 -12 -10   4 4637.71 689.779   4
 -10  22   4 5722.33 748.116   1
  22 -12   4 5731.37 799.687   1
  12 -22   4 4596.17 654.008   4
  12 -22   4 5009.00 871.050   2
 -10  22   4 5427.41 593.599   3
 -22  10   4 5977.24 939.027   3
  10  12   4 5418.12 708.281   1
 -12 -10   4 4839.23 721.870   3
  12 -22   7 5520.58 931.398   1
 -12 -10   7 3858.11 641.422   4
 -12 -10   7 3949.04 631.660   1
  12 -22   7 3751.87 553.920   4
  22 -12   7 4727.65 873.963   1
  12 -22   7 5840.61 932.088   2
 -10  22   7 4923.51 759.982   1
  10  12   7 5999.70 934.401   1
 -10  22   7 5549.30 831.400   3
 -12 -10   7 4293.34 975.305   2
 -22  10   7 5582.73 966.184   3
 -12 -10   7 3588.02 682.357   3
  22 -12  10 2909.81 882.467   1
  10  12  10 2366.17 818.783   1
  12 -22  10 1108.56 721.009   1
 -10  22  10 1801.37 644.006   1
 -12 -10  10 3098.29 1004.92   2
 -10  22  10 2665.82 847.184   3
 -22  10  10 3716.28 982.626   3
 -12 -10  10 2573.33 819.889   3
  11 -22  -9 2711.49 737.973   2
 -11 -11  -9 2761.81 705.785   4
  11 -22  -6 1602.65 535.651   2
 -22  11  -6 1297.97 692.397   3
 -11 -11  -6 1561.21 565.391   4
 -11 -11  -6 778.831 379.115   2
  11 -22  -6 840.049 445.441   4
 -22  11  -3 11553.5 1274.71   3
 -11 -11  -3 13230.5 1148.66   3
 -11 -11  -3 13188.5 1142.95   4
 -11 -11  -3 13183.9 1149.28   2
  11 -22  -3 12999.7 1052.82   4
  11 -22  -3 13143.3 1211.50   2
 -22  11   0 3384.45 726.935   3
 -11 -11   0 3181.58 623.992   3
 -11 -11   0 4762.35 719.131   4
 -11 -11   0 2847.43 678.298   2
  11 -22   0 3799.30 658.916   4
  22 -11   0 4847.80 490.579   1
  11 -22   0 3838.08 729.211   2
  11  11   0 3997.07 496.140   1
 -11  22   0 3193.77 272.243   3
 -11 -11   3 10889.9 1233.37   2
 -11 -11   3 13465.0 1083.69   4
  11 -22   3 14313.9 1070.29   4
  22 -11   3 14438.0 1045.58   1
  11 -22   3 13643.7 1267.27   2
 -11  22   3 14085.0 837.957   3
 -22  11   3 12981.7 1234.06   3
 -11  22   3 11489.1 930.210   1
 -11 -11   3 13308.7 1099.37   3
  11  11   3 13074.9 985.236   1
  11  11   6 1013.64 534.400   1
 -11 -11   6 738.807 416.181   4
 -11 -11   6 1459.47 777.002   2
 -11  22   6 751.035 437.764   1
  11 -22   6 707.248 397.394   4
  11 -22   6 416.259 483.606   2
 -11  22   6 344.505 384.994   3
  22 -11   6 1325.21 563.733   1
 -22  11   6 913.960 561.053   3
 -11 -11   6 672.508 489.035   3
  22 -11   9 2457.35 804.630   1
  11  11   9 3356.20 819.659   1
 -11 -11   9 3655.76 931.220   2
  11 -22   9 3108.56 966.122   1
 -11  22   9 2523.05 748.509   3
  11 -22   9 3340.43 840.787   2
 -22  11   9 4400.49 1019.50   3
 -11  22   9 2512.31 722.888   1
 -11 -11   9 2517.91 707.583   3
 -10 -12 -10 2067.19 648.684   4
  10 -22 -10 2231.06 631.725   4
 -10 -12  -7 3781.91 778.803   4
  10 -22  -7 3483.66 712.279   4
 -10 -12  -7 4742.70 618.473   2
  10 -22  -7 5192.32 798.609   2
 -22  12  -4 5397.54 919.309   3
 -10 -12  -4 6693.36 866.386   4
 -10 -12  -4 4839.95 732.342   2
  10 -22  -4 4437.30 676.895   4
  10 -22  -4 4486.68 790.821   2
 -22  12  -1 3635.67 786.949   3
 -10 -12  -1 4163.39 690.352   3
 -10 -12  -1 4638.28 709.070   4
 -10 -12  -1 3499.67 694.162   2
  10 -22  -1 5385.36 696.285   4
  22 -10  -1 3864.75 342.449   1
  10 -22  -1 5291.04 819.138   2
  12  10  -1 3443.05 478.729   1
  12  10   2 10405.5 850.526   1
 -10 -12   2 9136.48 949.714   4
 -10 -12   2 10286.9 1187.12   2
  10 -22   2 9504.56 933.869   4
  22 -10   2 9556.07 796.316   1
  10 -22   2 8680.37 1054.43   2
 -12  22   2 9040.79 625.215   3
 -22  12   2 8711.26 1003.88   3
 -10 -12   2 8841.13 909.831   3
 -12  22   5 1636.30 492.013   1
  12  10   5 2210.59 553.801   1
 -10 -12   5 3517.66 613.795   4
 -10 -12   5 3031.92 839.983   2
  10 -22   5 1708.84 455.492   4
  10 -22   5 2487.39 756.928   2
 -12  22   5 1737.41 465.170   3
 -22  12   5 2314.97 641.155   3
  22 -10   5 1292.47 542.774   1
 -10 -12   5 1841.24 492.845   3
  22 -10   8 1900.62 738.492   1
  12  10   8 2389.69 695.436   1
 -12  22   8 2927.35 687.926   1
 -10 -12   8 2359.97 539.586   4
 -10 -12   8 1534.59 776.823   2
  10 -22   8 1941.56 698.958   1
 -10 -12   8 1350.52 523.094   1
  10 -22   8 1763.18 450.381   4
  10 -22   8 2932.14 768.027   2
 -12  22   8 2436.45 697.979   3
 -22  12   8 167.177 543.183   3
 -10 -12   8 1463.97 533.697   3
  -9 -13  -8 4868.51 799.057   4
   9 -22  -8 4734.13 777.572   4
   9 -22  -8 5004.24 806.689   2
 -22  13  -5 3306.42 788.763   3
  -9 -13  -5 1003.37 468.884   4
   9 -22  -5 2126.23 544.659   4
  -9 -13  -5 2500.94 588.612   2
   9 -22  -5 2308.28 654.765   2
  -9 -13  -2 788.974 438.910   4
 -22  13  -2 689.076 572.528   3
  -9 -13  -2 1372.57 447.492   3
  -9 -13  -2 1604.56 559.987   2
   9 -22  -2 1565.78 510.808   4
   9 -22  -2 94.5980 391.919   2
 -22  13   1 2683.37 613.795   3
  -9 -13   1 1102.53 467.597   3
  13   9   1 875.072 347.990   1
  -9 -13   1 1971.13 577.897   2
  -9 -13   1 2168.01 562.776   4
   9 -22   1 2107.08 522.160   4
   9 -22   1 1604.84 532.693   2
 -13  22   1 1917.03 335.897   3
  22  -9   1 1839.29 377.657   1
  -9 -13   4 5749.62 751.970   4
   9 -22   4 5558.89 736.793   4
  -9 -13   4 5715.73 996.992   2
   9 -22   4 7011.56 1038.53   2
  22  -9   4 4788.37 696.594   1
  13   9   4 7116.61 789.350   1
 -13  22   4 6677.82 693.361   3
 -13  22   4 5328.00 658.489   1
 -22  13   4 4999.70 861.627   3
  -9 -13   4 4676.48 732.264   3
  13   9   7 2066.76 647.659   1
  22  -9   7 2172.03 704.321   1
  -9 -13   7 2625.38 576.185   1
  -9 -13   7 2172.03 526.482   4
  -9 -13   7 876.046 765.121   2
 -13  22   7 1330.38 493.129   1
   9 -22   7 2294.42 519.679   4
   9 -22   7 1051.00 665.127   2
 -13  22   7 1283.80 555.592   3
 -22  13   7 97.4468 687.187   3
  -9 -13   7 1537.18 506.143   3
 -13  22  10 903.156 632.842   1
  22  -9  10 2701.89 879.548   1
  -9 -13  10 2026.24 847.369   2
   9 -22  10 1805.99 876.306   1
   9 -22  10 888.419 690.541   2
 -13  22  10 942.491 726.969   3
 -22  13  10 1596.63 822.124   3
  -9 -13  10 1787.80 648.704   3
  13   9  10 953.218 618.315   1
   8 -22  -9 5053.08 830.688   2
  -8 -14  -9 6913.09 934.446   4
   8 -22  -9 7543.94 938.911   4
 -22  14  -6 902.685 716.317   3
  -8 -14  -6 1760.14 601.341   4
   8 -22  -6 1889.57 519.910   4
  -8 -14  -6 1375.95 449.498   2
   8 -22  -6 1314.81 512.449   2
 -22  14  -3 8041.58 1095.39   3
  -8 -14  -3 10035.4 1033.34   4
  -8 -14  -3 9436.81 1000.84   2
   8 -22  -3 9042.75 942.843   4
   8 -22  -3 8535.06 993.359   2
 -14  22   0 658.385 262.890   3
 -22  14   0 1683.64 547.473   3
  22  -8   0 400.790 218.353   1
  14   8   0 108.260 290.009   1
  -8 -14   0 432.512 426.804   4
  -8 -14   0 572.492 404.975   3
  -8 -14   0 1019.33 498.879   2
   8 -22   0 640.879 404.496   4
   8 -22   0-74.1598 399.058   2
  -8 -14   3 10194.3 956.861   4
  -8 -14   3 8961.69 1110.68   2
   8 -22   3 12083.4 993.854   4
   8 -22   3 11611.7 1237.97   2
  22  -8   3 10500.3 873.551   1
  14   8   3 10540.8 887.981   1
 -14  22   3 10070.2 771.527   3
 -22  14   3 9178.00 1006.53   3
  -8 -14   3 10250.1 909.458   3
  14   8   6 1226.33 532.036   1
  22  -8   6 1098.45 518.217   1
  -8 -14   6 656.269 383.737   4
 -14  22   6 859.780 393.783   1
  -8 -14   6 1099.57 632.115   2
   8 -22   6 1068.91 445.757   4
   8 -22   6 1082.40 527.204   2
 -14  22   6 429.412 397.483   3
 -22  14   6 692.622 539.444   3
  -8 -14   6 991.063 415.995   3
  22  -8   9 2208.95 683.934   1
 -14  22   9 4057.76 781.564   1
  -8 -14   9 4438.12 821.051   1
  -8 -14   9 5623.61 1160.97   2
   8 -22   9 2415.10 823.328   1
   8 -22   9 4503.28 990.843   2
 -14  22   9 5214.40 966.742   3
  -8 -14   9 4168.63 788.732   3
 -22  14   9 4271.11 1012.25   3
  14   8   9 5464.27 978.209   1
   7 -22 -10 54.4572 453.423   4
  -7 -15 -10 430.287 508.963   4
   7 -22  -7 2645.64 614.141   2
  -7 -15  -7 3711.78 763.514   4
   7 -22  -7 2743.20 609.619   4
  -7 -15  -7 2320.09 502.579   2
 -22  15  -4 1775.98 656.960   3
  -7 -15  -4 675.522 451.845   4
   7 -22  -4 1359.11 467.432   4
  -7 -15  -4 1737.09 570.414   2
   7 -22  -4 389.864 417.855   2
 -15  22  -1 3270.40 432.386   3
  -7 -15  -1 3335.34 651.549   4
 -22  15  -1 2184.05 596.351   3
  -7 -15  -1 3270.03 574.386   3
  22  -7  -1 3019.58 260.544   1
  15   7  -1 2687.71 370.237   1
  -7 -15  -1 3582.50 746.706   2
   7 -22  -1 3259.80 595.349   4
   7 -22  -1 3862.27 809.537   2
  -7 -15   2 5341.24 634.646   3
  -7 -15   2 4747.89 704.160   4
  -7 -15   2 5794.13 966.771   2
   7 -22   2 5787.52 787.386   4
   7 -22   2 5294.01 878.856   2
  22  -7   2 4405.41 543.771   1
 -15  22   2 4978.15 570.238   3
  15   7   2 5267.62 622.986   1
 -22  15   2 5506.05 860.133   3
  22  -7   5 2776.32 596.353   1
  -7 -15   5 3914.32 932.385   2
  -7 -15   5 3383.62 612.743   4
   7 -22   5 4400.04 674.343   4
  15   7   5 4357.52 677.477   1
   7 -22   5 3327.35 797.809   2
 -15  22   5 2875.41 600.718   3
 -15  22   5 4329.29 643.383   1
  -7 -15   5 5104.11 669.892   3
 -22  15   5 3576.21 761.804   3
  22  -7   8 1293.18 646.282   1
   7 -22   8 1998.02 770.876   1
  -7 -15   8 1242.62 454.790   4
  -7 -15   8 2224.27 637.277   1
  -7 -15   8 589.167 575.737   2
 -15  22   8 1906.56 570.952   1
   7 -22   8 1618.91 473.100   4
   7 -22   8 401.057 594.337   2
 -15  22   8 1965.53 724.270   3
 -22  15   8 423.683 555.094   3
  15   7   8 921.723 545.796   1
  -7 -15   8 938.844 469.148   3
   6 -22  -8 740.190 497.109   2
  -6 -16  -8 2026.75 653.740   4
   6 -22  -8 1897.50 616.711   4
 -22  16  -5 1240.11 742.286   3
  -6 -16  -5 1882.30 632.471   4
  -6 -16  -5 1067.59 473.889   2
   6 -22  -5 708.612 407.344   4
   6 -22  -5 665.721 477.783   2
 -22  16  -2 9185.64 1076.77   3
 -16  22  -2 8473.29 643.146   3
  -6 -16  -2 8905.12 967.176   4
  -6 -16  -2 9051.17 1054.99   2
   6 -22  -2 8726.44 918.096   4
   6 -22  -2 9468.69 1072.84   2
  16   6   1 8436.77 684.975   1
  -6 -16   1 8521.21 748.975   3
  -6 -16   1 8056.50 896.997   4
  -6 -16   1 8383.62 1053.69   2
   6 -22   1 9643.29 935.946   4
   6 -22   1 9098.51 1120.00   2
 -16  22   1 8822.60 712.030   3
 -22  16   1 7628.70 910.176   3
  22  -6   1 9069.41 649.003   1
  -6 -16   4 5689.07 940.165   2
  -6 -16   4 5211.88 713.248   4
   6 -22   4 7126.94 782.109   4
   6 -22   4 6134.20 991.029   2
  16   6   4 6431.29 754.399   1
 -16  22   4 4966.36 671.310   3
 -22  16   4 5369.63 820.223   3
  22  -6   4 5595.56 744.989   1
  -6 -16   4 5423.64 658.045   3
 -16  22   7 808.335 480.307   1
  22  -6   7 1339.97 541.281   1
  -6 -16   7 2412.10 552.878   4
  -6 -16   7 1351.03 738.928   2
   6 -22   7 1785.56 489.898   4
   6 -22   7 1814.08 767.666   2
 -16  22   7 986.530 509.234   3
  16   6   7 1363.13 596.606   1
 -22  16   7 931.938 572.173   3
  -6 -16   7 1236.75 446.777   3
   6 -22  10 2590.12 859.563   2
  22  -6  10 3701.94 914.784   1
 -16  22  10 4071.05 790.967   1
  -6 -16  10 3900.29 1058.04   2
   6 -22  10 3649.46 1041.76   1
  -6 -16  10 3888.57 919.355   1
 -16  22  10 3045.58 850.354   3
  16   6  10 3248.22 863.365   1
 -22  16  10 2616.55 904.292   3
  -5 -17  -9 2907.25 763.491   4
   5 -22  -9 1784.65 584.171   4
  -5 -17  -6 1705.95 564.391   4
 -22  17  -6 1568.79 702.510   3
   5 -22  -6 976.311 488.416   4
  -5 -17  -6 1677.74 577.305   2
   5 -22  -6 2043.32 519.534   2
 -22  17  -3 6347.67 960.948   3
 -17  22  -3 5842.03 596.806   3
  -5 -17  -3 4947.05 748.964   4
   5 -22  -3 7085.90 889.648   4
  -5 -17  -3 5940.03 856.020   2
   5 -22  -3 7576.83 947.864   2
 -17  22   0 1317.32 388.764   3
 -22  17   0 1582.89 578.542   3
  -5 -17   0 683.451 296.272   3
  -5 -17   0 1175.78 553.748   4
   5 -22   0 1173.56 496.934   4
  -5 -17   0 767.279 434.331   2
  17   5   0 1297.32 319.079   1
  22  -5   0 1059.54 248.961   1
   5 -22   0 1722.81 655.983   2
  -5 -17   3 5469.19 624.538   3
  -5 -17   3 5873.79 751.174   4
  -5 -17   3 6069.61 980.399   2
   5 -22   3 5716.10 749.398   4
   5 -22   3 5572.45 924.323   2
  17   5   3 5845.53 685.895   1
 -17  22   3 4181.58 585.366   3
 -22  17   3 5792.50 844.261   3
  22  -5   3 5978.07 676.232   1
  22  -5   6 774.087 496.612   1
  -5 -17   6 1762.07 470.380   4
  -5 -17   6 741.073 638.304   2
   5 -22   6 1006.93 430.187   4
   5 -22   6 1373.68 744.998   2
 -17  22   6 801.857 416.031   1
 -17  22   6 1708.01 576.597   3
  17   5   6 1459.21 572.615   1
 -22  17   6 2295.31 661.637   3
  -5 -17   6 1180.14 396.238   3
  22  -5   9 4377.57 971.353   1
  -5 -17   9 5226.98 933.802   1
   5 -22   9 4098.44 989.110   1
  -5 -17   9 5290.44 1181.05   2
   5 -22   9 6587.68 1152.26   2
 -17  22   9 5388.54 1000.23   3
  17   5   9 6414.51 1001.61   1
 -22  17   9 4369.57 1047.60   3
 -17  22   9 4445.67 770.933   1
  -4 -18  -7 2838.60 707.093   4
   4 -22  -7 2046.30 640.669   4
  -4 -18  -7 2470.78 569.464   2
   4 -22  -7 1976.19 583.130   2
 -22  18  -4 231.582 488.411   3
  -4 -18  -4-149.524 418.086   4
   4 -22  -4 132.202 417.030   4
  -4 -18  -4 217.741 448.702   2
   4 -22  -4-44.4852 434.242   2
 -18  22  -1 3353.10 562.208   3
 -22  18  -1 1729.83 603.077   3
  -4 -18  -1 3593.25 709.167   4
   4 -22  -1 4551.81 713.285   4
  -4 -18  -1 3470.06 753.863   2
   4 -22  -1 4027.64 797.017   2
  22  -4  -1 2921.39 254.276   1
  18   4  -1 3206.72 377.126   1
  -4 -18   2 1331.53 349.594   3
  18   4   2 1541.05 395.474   1
  -4 -18   2 1707.08 539.408   4
   4 -22   2 1928.95 521.525   4
  -4 -18   2 1341.84 585.383   2
   4 -22   2 959.357 558.280   2
  22  -4   2 1424.31 343.993   1
 -18  22   2 315.151 308.785   3
 -22  18   2 852.237 479.442   3
  -4 -18   5 6704.45 1116.60   2
  -4 -18   5 6901.00 827.751   4
  18   4   5 8438.06 895.530   1
   4 -22   5 6929.07 812.343   4
   4 -22   5 6481.16 1006.12   2
 -18  22   5 5636.99 843.149   3
 -22  18   5 6575.75 917.995   3
  -4 -18   5 6322.32 650.354   3
  22  -4   5 5952.46 836.154   1
  -4 -18   8 924.519 607.354   1
 -18  22   8 735.433 444.497   1
  -4 -18   8 459.343 426.077   4
  -4 -18   8 770.008 725.030   2
   4 -22   8 724.475 439.337   4
   4 -22   8-177.089 583.111   2
  18   4   8 422.514 549.105   1
  22  -4   8 925.752 631.293   1
 -18  22   8 1862.56 784.058   3
 -22  18   8 657.899 606.785   3
  -3 -19  -8 5734.45 886.320   4
   3 -22  -8 5796.08 850.046   4
   3 -22  -8 4655.61 741.352   2
 -22  19  -5 1008.69 552.499   3
  -3 -19  -5 791.412 556.229   4
   3 -22  -5 954.763 444.746   4
  -3 -19  -5 247.077 473.062   2
   3 -22  -5 538.275 419.440   2
 -22  19  -2 4025.57 800.038   3
 -19  22  -2 5011.64 718.139   3
  -3 -19  -2 4733.13 765.750   4
   3 -22  -2 5604.14 794.591   4
  -3 -19  -2 4881.61 893.799   2
   3 -22  -2 5826.79 954.575   2
 -19  22   1 2860.33 528.837   3
 -22  19   1 2977.93 649.807   3
  22  -3   1 2580.53 411.177   1
  -3 -19   1 3738.58 647.222   4
   3 -22   1 3029.26 593.339   4
  -3 -19   1 2260.26 746.242   2
  19   3   1 2515.81 414.672   1
   3 -22   1 1914.92 648.850   2
  -3 -19   4 5545.20 535.795   3
  22  -3   4 7293.43 802.367   1
  -3 -19   4 7300.23 862.275   4
  -3 -19   4 8149.35 1162.13   2
  19   3   4 6517.30 772.207   1
   3 -22   4 7553.02 1129.91   2
   3 -22   4 8563.52 884.802   4
 -19  22   4 7350.36 855.943   3
 -22  19   4 4180.22 764.643   3
 -19  22   7 1115.34 400.880   1
  22  -3   7 1002.59 616.393   1
  -3 -19   7 852.596 434.221   4
   3 -22   7 765.004 442.580   4
  -3 -19   7-272.055 562.243   2
   3 -22   7 1104.26 711.551   2
  19   3   7 1124.02 577.689   1
 -19  22   7 436.701 560.144   3
 -22  19   7-567.588 550.244   3
  -2 -20  -9 5641.49 967.466   4
   2 -22  -9 4166.85 812.813   4
  -2 -20  -6 6251.93 906.050   4
   2 -22  -6 6425.68 875.836   4
  -2 -20  -6 5439.93 833.504   2
   2 -22  -6 4522.59 778.315   2
 -22  20  -3 6462.51 902.859   3
 -20  22  -3 7815.77 845.826   3
  -2 -20  -3 8416.21 1005.46   4
   2 -22  -3 7433.49 945.434   4
  -2 -20  -3 7887.13 1017.49   2
   2 -22  -3 7059.55 999.399   2
 -20  22   0 1886.29 518.359   3
 -22  20   0 1351.05 539.170   3
  20   2   0 2654.48 379.041   1
  -2 -20   0 1646.56 543.614   4
  -2 -20   0 1553.85 623.501   2
   2 -22   0 2239.10 704.103   2
   2 -22   0 2867.35 607.466   4
  22  -2   0 1726.37 328.005   1
  22  -2   3 7684.53 766.574   1
  -2 -20   3 9608.67 983.288   4
   2 -22   3 8409.75 899.790   4
  -2 -20   3 9352.56 1238.00   2
  20   2   3 7350.55 750.938   1
   2 -22   3 7452.53 1077.47   2
 -20  22   3 8126.58 866.955   3
 -22  20   3 8466.41 987.278   3
   2 -22   6 2455.86 575.328   4
  -2 -20   6 1988.43 552.412   4
  22  -2   6 1506.01 576.467   1
  -2 -20   6 508.603 652.092   2
   2 -22   6 1003.84 616.698   2
  20   2   6 679.516 470.791   1
 -20  22   6 954.656 549.138   3
 -22  20   6 2523.52 644.676   3
  -2 -20   9 5741.56 1177.96   2
   2 -22   9 5173.30 1069.00   1
  -2 -20   9 6166.81 1062.04   1
   2 -22   9 7330.73 1316.67   2
  22  -2   9 3390.05 897.618   1
  20   2   9 4312.57 957.187   1
 -20  22   9 4314.63 986.416   3
 -22  20   9 4664.79 1040.51   3
  -1 -21  -7 4737.27 840.225   4
   1 -22  -7 6019.55 937.520   4
  -1 -21  -7 6187.14 846.407   2
   1 -22  -7 4304.18 745.617   2
 -22  21  -4 1419.98 579.406   3
 -21  22  -4 2385.90 659.367   3
  -1 -21  -4 2899.73 659.770   4
   1 -22  -4 2690.59 634.354   4
  -1 -21  -4 2243.66 651.200   2
   1 -22  -4 2187.36 627.418   2
 -22  21  -1 8328.93 945.418   3
 -21  22  -1 8489.94 936.083   3
   1 -22  -1 8620.00 1172.65   2
  -1 -21  -1 11353.2 1153.86   4
   1 -22  -1 10072.0 1090.50   4
  -1 -21  -1 10289.9 1167.02   2
  22  -1  -1 8721.41 463.153   1
  21   1  -1 9682.68 539.452   1
  21   1   2 1075.82 371.924   1
  -1 -21   2 723.239 449.242   4
   1 -22   2 1260.53 486.866   4
  -1 -21   2 746.065 632.290   2
   1 -22   2 2108.56 710.179   2
  22  -1   2 1061.61 369.914   1
 -21  22   2 1133.20 484.644   3
 -22  21   2 631.083 408.676   3
  21   1   5 4297.08 731.566   1
   1 -22   5 5038.72 760.519   4
  -1 -21   5 3541.56 648.301   4
  -1 -21   5 5356.17 1060.10   2
  22  -1   5 4046.30 672.840   1
   1 -22   5 3559.43 903.196   2
 -21  22   5 3062.69 720.042   3
 -22  21   5 2890.27 682.099   3
  22  -1   8 481.866 562.784   1
  -1 -21   8 680.802 666.416   2
   1 -22   8 1859.47 781.283   2
  21   1   8 1360.99 700.272   1
 -21  22   8 497.671 572.342   3
 -22  21   8 536.826 658.041   3
   0 -22  -8 5233.60 906.338   4
 -22  22  -5-562.661 511.429   3
   0 -22  -5-303.542 427.467   4
   0 -22  -5-779.031 520.825   2
 -22  22  -2 6047.86 858.714   3
   0 -22  -2 7798.47 979.207   4
   0 -22  -2 8767.97 1115.39   2
 -22  22   1 410.554 438.070   3
   0 -22   1 79.7486 393.582   4
  22   0   1-47.9480 251.756   1
   0 -22   1-267.326 546.953   2
   0 -22   4 2349.53 542.250   4
   0 -22   4 1747.62 607.727   2
  22   0   4 1655.06 480.888   1
 -22  22   4 1331.15 508.804   3
   0 -22   7 446.228 453.984   4
   0 -22   7 40.8534 633.838   2
  22   0   7-324.440 472.655   1
 -22  22   7 335.730 533.225   3
  23 -23  -8 4489.56 1062.04   2
  23 -23  -8 1504.40 618.319   4
  23 -23  -5 573.674 596.358   2
 -23   0  -5 1323.02 797.576   3
  23 -23  -5 316.562 428.654   4
 -23   0  -2 6470.16 1697.42   3
  23 -23  -2 7115.11 905.381   4
  23 -23  -2 6642.94 973.896   2
 -23   0   1 716.206 705.321   3
  23 -23   1 1325.58 573.111   2
  23 -23   1-61.0142 336.248   4
 -23   0   4 2414.27 789.610   3
  23 -23   4 3492.98 714.757   2
  23 -23   4 3608.65 737.043   1
  23 -23   4 4737.21 783.867   4
   0  23   4 4065.77 746.392   1
  23 -23   7 443.580 545.257   2
  23 -23   7 981.961 717.447   1
  23 -23   7 564.774 467.315   4
   0  23   7-32.7453 497.325   1
 -23   0   7-531.371 786.663   3
  22 -23  -6 2310.68 744.440   2
  23 -22  -6 3374.42 859.921   2
 -23   1  -6 3106.17 975.273   3
 -22  -1  -6 3913.93 1067.89   3
 -22  -1  -6 1811.36 575.470   2
  22 -23  -6 3600.31 709.006   4
  23 -22  -6 3247.54 681.424   4
  23 -22  -3 4611.81 840.915   2
 -23   1  -3 5329.23 1089.49   3
 -22  -1  -3 5256.65 1042.65   3
  22 -23  -3 5977.57 864.042   4
  23 -22  -3 3585.73 697.849   4
  22 -23  -3 4992.04 908.369   2
 -23   1   0 3812.70 908.756   3
 -22  -1   0 2956.08 747.640   3
  22 -23   0 4082.44 718.365   4
  23 -22   0 4716.48 784.563   4
  22 -23   0 5799.91 892.054   2
  23 -22   0 5586.56 861.073   2
   1  22   3 7164.03 865.132   1
  -1  23   3 5279.93 793.439   1
  23 -22   3 6117.72 857.121   1
  22 -23   3 6715.39 865.397   4
  23 -22   3 6668.57 874.216   4
  22 -23   3 5890.90 895.821   2
  23 -22   3 7338.49 1012.87   2
 -23   1   3 5705.49 991.244   3
 -22  -1   3 6100.41 966.702   3
  22 -23   6 544.334 492.278   2
  -1  23   6 1577.98 609.615   1
  23 -22   6 723.750 500.988   2
  22 -23   6 2883.75 768.532   1
  23 -22   6 1169.06 661.909   1
  22 -23   6 1185.49 513.597   4
  23 -22   6 1753.21 545.549   4
   1  22   6 1066.06 543.596   1
 -23   1   6 2114.05 728.123   3
 -22  -1   6 1200.94 662.601   3
  21 -23  -7 2133.32 707.364   2
  23 -21  -7 1760.03 795.761   2
 -23   2  -7 2451.33 928.010   3
  21 -23  -7 2488.71 644.740   4
  23 -21  -7 968.195 451.523   4
  21 -23  -4 1002.27 586.804   2
  23 -21  -4 611.030 616.257   2
 -23   2  -4 464.054 666.842   3
 -21  -2  -4 435.171 649.185   3
  21 -23  -4 240.272 488.982   4
  23 -21  -4 43.0862 418.345   4
 -23   2  -1 3903.84 920.687   3
 -21  -2  -1 4236.90 906.605   3
  21 -23  -1 4240.40 719.030   4
  23 -21  -1 5516.15 813.109   4
  21 -23  -1 5040.78 853.988   2
  23 -21  -1 4939.17 842.617   2
  21 -23   2 3257.05 725.527   2
 -23   2   2 1608.72 702.307   3
 -21  -2   2 1384.14 625.917   3
  23 -21   2 1252.21 532.058   2
   2  21   2 1564.88 499.635   1
  -2  23   2 2186.30 626.350   1
  21 -23   2 2452.77 587.767   4
  23 -21   2 2804.24 627.972   4
  21 -23   5 7054.08 1014.79   1
  23 -21   5 6270.04 944.554   1
   2  21   5 5819.71 851.090   1
  21 -23   5 4891.77 791.662   4
  23 -21   5 6571.81 841.678   4
  21 -23   5 5783.50 871.551   2
 -23   2   5 5282.27 1009.20   3
 -21  -2   5 7558.12 1077.19   3
  23 -21   5 6420.90 877.648   2
  21 -23   8 1298.46 645.034   2
   2  21   8 1717.08 698.663   1
  21 -23   8 2752.36 854.756   1
  -2  23   8 1521.07 673.647   1
  23 -21   8 2100.24 822.814   1
  21 -23   8 1973.10 599.785   4
 -23   2   8 1840.11 794.558   3
 -21  -2   8 1880.61 785.528   3
  20 -23  -8 704.759 662.609   2
  20 -23  -8 1401.31 566.733   4
  23 -20  -8 1398.37 543.763   4
 -20  -3  -8 1971.19 694.799   4
  20 -23  -5-122.834 498.285   2
 -23   3  -5 502.669 686.833   3
  23 -20  -5 1112.44 644.979   2
 -20  -3  -5 854.558 660.911   3
 -20  -3  -5 913.215 521.165   2
  20 -23  -5 772.865 474.227   4
  23 -20  -5-4.71899 384.559   4
  23 -20  -2 10763.7 1167.24   2
 -23   3  -2 8077.54 1265.78   3
 -20  -3  -2 10913.8 1321.28   3
  20 -23  -2 13229.1 1150.91   4
  23 -20  -2 10000.6 1022.12   4
  20 -23  -2 11318.1 1252.71   2
 -23   3   1 1469.96 659.510   3
 -20  -3   1 2494.02 738.325   3
  23 -20   1 2457.06 568.868   2
   3  20   1 2710.34 544.832   1
  20 -23   1 3465.89 635.935   4
  23 -20   1 1454.11 537.693   4
  -3  23   1 1500.30 202.197   3
  20 -23   1 3804.37 756.758   2
  -3  23   1 1600.91 265.260   3
   3  20   1 1037.94 375.740   3
 -20  -3   4 3055.65 721.882   3
   3  20   4 2400.05 652.204   1
  23 -20   4 3266.57 731.357   2
  23 -20   4 2456.98 662.373   1
  20 -23   4 2744.84 630.226   4
  23 -20   4 2733.96 584.820   4
  -3  23   4 2858.82 613.011   1
  20 -23   4 2652.70 657.350   2
 -23   3   4 2317.55 764.657   3
  23 -20   7 1515.57 569.475   2
   3  20   7 113.807 501.777   1
  20 -23   7 233.915 604.270   1
  23 -20   7 1612.79 723.789   1
  20 -23   7 1669.96 544.263   4
  -3  23   7 465.232 515.569   1
 -23   3   7 1566.69 682.593   3
 -20  -3   7-12.7427 552.679   3
  20 -23   7-131.877 437.164   2
  19 -23  -9 2527.45 838.388   2
 -19  -4  -9 3950.18 883.080   4
  19 -23  -9 3347.61 705.073   4
  23 -19  -9 4043.26 731.334   4
  19 -23  -6 7669.84 1053.79   2
 -23   4  -6 9068.00 1443.61   3
  23 -19  -6 10712.1 1326.95   2
 -19  -4  -6 7729.48 831.994   2
  19 -23  -6 7882.36 952.174   4
  23 -19  -6 9732.14 998.735   4
  23 -19  -3 8751.39 1039.30   2
 -23   4  -3 7167.22 1183.58   3
 -19  -4  -3 9805.19 1246.73   3
  19 -23  -3 10164.4 1034.07   4
  23 -19  -3 7496.89 862.973   4
  19 -23  -3 9415.52 1098.14   2
  23 -19   0 11847.8 1150.51   2
 -19  -4   0 10194.9 1203.05   3
  19 -23   0 11494.5 1046.46   4
  23 -19   0 10278.8 1001.02   4
  19 -23   0 9784.71 1117.72   2
   4  19   0 8405.69 639.663   3
 -23   4   0 10048.4 1223.58   3
  -4  23   3 6729.77 823.557   1
  23 -19   3 6668.83 859.489   1
  19 -23   3 6939.39 838.769   4
  23 -19   3 7388.91 879.801   4
   4  19   3 6727.33 830.740   1
  19 -23   3 8277.96 1097.56   2
 -23   4   3 6288.73 996.188   3
 -19  -4   3 7414.47 999.372   3
  23 -19   3 6917.11 885.853   2
  -4  23   6 3489.63 743.061   1
  23 -19   6 3610.90 698.430   2
   4  19   6 3206.49 764.391   1
  19 -23   6 4316.16 867.269   1
  19 -23   6 3749.57 630.798   4
  23 -19   6 3242.84 793.095   1
  19 -23   6 3491.39 719.696   2
 -23   4   6 3751.38 848.920   3
 -19  -4   6 2075.45 760.277   3
  -4  23   9 2787.30 730.236   1
  19 -23   9 3447.82 995.687   1
  23 -19   9 5407.12 1139.61   1
   4  19   9 3585.21 885.499   1
 -23   4   9 3256.60 958.649   3
 -19  -4   9 3242.71 913.280   3
  18 -23  -7 3300.67 801.164   2
 -23   5  -7 2641.48 970.059   3
 -18  -5  -7 3088.24 842.299   4
  18 -23  -7 5516.15 832.983   4
  23 -18  -7 4470.70 755.454   4
  18 -23  -4 3610.89 779.192   2
  23 -18  -4 5755.01 924.585   2
 -23   5  -4 3019.28 929.564   3
 -18  -5  -4 3553.18 783.575   3
 -18  -5  -4 2795.80 659.489   2
  18 -23  -4 5897.36 799.394   4
  23 -18  -4 3752.77 684.454   4
 -23   5  -1 6335.39 1043.30   3
 -18  -5  -1 8123.64 1102.71   3
  23 -18  -1 10308.0 1078.83   2
  18 -23  -1 8723.89 964.356   4
  23 -18  -1 8909.78 926.557   4
   5  18  -1 7567.78 564.848   3
  18 -23  -1 6855.34 957.702   2
 -23   5   2 2864.07 759.278   3
 -18  -5   2 1876.34 677.558   3
 -18  -5   2 1195.40 324.056   1
  -5  23   2 1448.17 375.473   3
  23 -18   2 3004.27 651.179   2
  -5  23   2 1846.82 535.491   1
   5  18   2 1411.06 467.510   1
  18 -23   2 2289.70 556.568   4
  23 -18   2 1629.06 492.906   1
  23 -18   2 1773.22 524.291   4
  -5  23   2 1702.46 279.660   3
  18 -23   2 1115.00 324.609   3
  18 -23   2 2193.33 601.378   2
  23 -18   5 8783.35 924.902   2
   5  18   5 10048.9 1034.65   1
  23 -18   5 8511.69 1016.83   1
  18 -23   5 9768.45 952.374   4
  23 -18   5 11579.6 1075.06   4
  18 -23   5 7779.03 999.171   2
  -5  23   5 9379.04 974.992   1
 -23   5   5 10700.2 1245.34   3
 -18  -5   5 8340.60 1070.45   3
 -18  -5   8 501.003 474.900   4
  18 -23   8 910.316 644.275   1
  18 -23   8-12.8790 385.621   4
  23 -18   8-552.078 665.745   1
  -5  23   8-47.3477 574.746   1
   5  18   8 896.239 610.552   1
 -23   5   8 209.242 650.199   3
  18 -23   8 654.154 572.554   2
 -18  -5   8-276.189 545.872   3
  17 -23  -8 531.003 531.199   2
 -17  -6  -8 1554.18 683.153   4
  17 -23  -8 923.927 489.130   4
  23 -17  -8 1142.03 492.663   4
  17 -23  -5 3346.90 731.677   2
 -23   6  -5 1926.71 763.060   3
 -17  -6  -5 2108.48 672.491   3
  23 -17  -5 1845.36 713.048   2
 -17  -6  -5 3153.80 755.990   4
 -17  -6  -5 2563.47 602.356   2
  17 -23  -5 2985.14 673.114   4
  23 -17  -5 2390.74 585.008   4
 -23   6  -2 5471.39 1064.11   3
  23 -17  -2 5593.34 894.558   2
 -17  -6  -2 4272.41 799.635   3
  23 -17  -2 5047.85 511.355   1
  17 -23  -2 6119.55 831.654   4
  23 -17  -2 6370.43 820.197   4
   6  17  -2 4452.77 471.738   3
   6  17   1 2243.96 491.028   1
  23 -17   1 3652.83 699.653   2
 -23   6   1 3782.74 812.797   3
 -17  -6   1 1971.20 609.623   3
 -17  -6   1 1974.01 412.891   1
  23 -17   1 2690.23 511.137   1
  17 -23   1 2780.37 588.949   4
  23 -17   1 3645.98 643.164   4
  17 -23   1 2349.50 363.901   3
  -6  23   1 1938.40 190.240   3
  17 -23   1 3647.90 807.140   2
  -6  23   1 2208.47 251.147   3
 -17  -6   4 3139.38 702.851   3
  23 -17   4 2839.13 620.157   2
  23 -17   4 3561.54 713.811   1
  17 -23   4 2743.91 585.704   4
  23 -17   4 3189.69 656.728   4
  17 -23   4 3795.10 763.664   2
  -6  23   4 2271.90 540.179   1
   6  17   4 3213.24 635.130   1
 -23   6   4 3073.50 801.610   3
  -6  23   7 4438.83 779.284   1
  23 -17   7 3510.68 649.566   2
 -17  -6   7 4329.09 711.175   4
  17 -23   7 3240.29 841.231   1
  23 -17   7 4255.69 923.501   1
  17 -23   7 2969.38 593.811   4
   6  17   7 2895.66 704.796   1
  17 -23   7 3980.70 774.439   2
 -23   6   7 4666.82 942.188   3
 -17  -6   7 3962.29 850.425   3
  16 -23  -9 1563.35 710.813   2
 -16  -7  -9 2856.22 736.392   4
  16 -23  -9 1926.94 560.059   4
 -23   7  -6 14237.8 1591.17   3
 -16  -7  -6 15124.0 1339.93   4
 -16  -7  -6 11419.4 951.514   2
  16 -23  -6 12542.0 1136.86   4
  23 -16  -6 13675.5 1154.24   4
  16 -23  -6 12835.8 1276.89   2
  16 -23  -3 2930.12 661.612   2
 -23   7  -3 3389.35 957.036   3
 -16  -7  -3 4104.65 825.140   3
  23 -16  -3 2226.31 346.971   1
  23 -16  -3 2542.51 685.750   2
 -16  -7  -3 1966.55 594.585   2
  16 -23  -3 3503.19 663.546   4
  23 -16  -3 2612.72 602.639   4
 -23   7   0 3079.80 803.424   3
  23 -16   0 5670.12 826.395   2
 -16  -7   0 4846.29 828.998   3
  23 -16   0 4178.28 556.991   1
  16 -23   0 4393.09 741.192   4
  23 -16   0 4580.29 726.893   4
   7  16   0 4361.98 577.414   1
  16 -23   0 6425.12 948.353   2
   7  16   0 3825.18 570.082   3
 -16  -7   3 123.453 427.821   3
  -7  23   3 509.170 346.829   1
  23 -16   3 877.116 487.687   2
  -7  23   3 629.137 395.575   3
  23 -16   3 1163.99 476.395   1
  16 -23   3 979.888 487.887   4
  23 -16   3 1111.13 500.187   4
   7  16   3 1808.82 512.983   1
  -7  23   3 655.257 267.805   3
  16 -23   3 850.575 555.040   2
 -23   7   3 991.696 585.767   3
  23 -16   6 4880.97 716.933   2
 -16  -7   6 5668.37 840.279   4
  23 -16   6 6975.13 984.445   1
  16 -23   6 6712.88 782.949   4
  -7  23   6 5876.29 813.638   3
  -7  23   6 6210.36 845.643   1
  16 -23   6 5895.75 896.941   2
 -23   7   6 5754.56 984.158   3
 -16  -7   6 6203.76 890.494   3
   7  16   6 5985.40 857.229   1
 -16  -7   9 298.266 800.934   2
   7  16   9 398.655 695.292   1
  16 -23   9 181.091 601.752   1
  -7  23   9 1515.89 638.619   1
  -7  23   9 345.561 568.690   3
  23 -16   9-617.768 657.036   1
  16 -23   9 309.994 558.015   2
 -23   7   9 828.853 712.748   3
 -16  -7   9 398.583 624.347   3
 -23   8  -7 6576.63 1230.05   3
 -15  -8  -7 9106.18 1067.24   4
  15 -23  -7 9426.83 1002.66   4
  15 -23  -7 8824.05 1065.39   2
 -23   8  -4 1518.55 794.910   3
 -15  -8  -4 3026.33 819.974   3
 -15  -8  -4 2991.95 671.141   4
 -15  -8  -4 2364.62 618.383   2
  15 -23  -4 3964.82 679.903   4
  23 -15  -4 4856.01 722.745   4
  15 -23  -4 4211.20 769.008   2
 -23   8  -1 7579.06 1096.28   3
 -15  -8  -1 7538.94 1005.53   3
  23 -15  -1 7182.43 932.004   2
  23 -15  -1 5988.05 512.857   1
 -15  -8  -1 6504.85 918.804   2
  23 -15  -1 6370.99 580.402   1
  15 -23  -1 5916.51 745.547   4
  23 -15  -1 7965.09 871.497   4
  15 -23  -1 6480.93 935.081   2
 -23   8   2 1180.76 589.215   3
   8  15   2 1196.12 401.336   1
 -15  -8   2 2321.71 650.062   3
  23 -15   2 519.478 401.534   2
  -8  23   2 324.777 277.993   3
 -15  -8   2 873.385 350.237   1
  15 -23   2 470.150 423.456   4
  23 -15   2 547.843 360.546   1
  23 -15   2 932.076 433.198   4
  -8  23   2 1871.54 299.919   3
  15 -23   2 512.380 185.259   3
  15 -23   2-32.5296 410.941   2
   8  15   5 7461.85 897.924   1
  23 -15   5 9167.54 949.925   2
 -15  -8   5 8101.12 901.858   4
  23 -15   5 7840.60 951.210   1
  15 -23   5 8799.42 894.983   4
  15 -23   5 8286.23 1073.83   2
  -8  23   5 9970.24 893.716   3
 -23   8   5 7335.63 1038.46   3
 -15  -8   5 10139.0 1088.76   3
  -8  23   5 9004.09 921.551   1
  -8  23   8 3471.41 722.486   1
 -15  -8   8 3258.98 925.160   2
 -15  -8   8 2802.95 622.807   4
   8  15   8 2456.61 624.280   1
  15 -23   8 2609.53 904.135   1
  15 -23   8 2978.71 580.356   4
  -8  23   8 3071.47 786.610   3
  23 -15   8 1611.76 712.498   1
  15 -23   8 2946.49 761.828   2
 -23   8   8 3193.29 793.928   3
 -15  -8   8 3288.75 784.487   3
  14 -23  -8 1447.45 609.967   2
 -14  -9  -8 1775.79 657.433   4
  14 -23  -8 2543.84 616.006   4
 -23   9  -5 3761.61 921.787   3
 -14  -9  -5 3903.53 723.177   4
 -14  -9  -5 4703.46 730.582   2
  14 -23  -5 3621.65 672.243   4
  23 -14  -5 4394.19 680.414   4
  14 -23  -5 5566.19 870.941   2
 -23   9  -2 1475.01 709.149   3
 -14  -9  -2 1318.49 493.508   4
 -14  -9  -2 1070.95 602.954   3
  23 -14  -2 722.522 248.845   1
  23 -14  -2 630.063 232.875   1
  23 -14  -2 1575.51 568.125   2
 -14  -9  -2 1050.62 514.322   2
  14 -23  -2 972.013 462.667   4
  23 -14  -2 1015.25 432.510   4
  14 -23  -2 1231.18 571.882   2
 -14  -9   1 5813.91 841.354   3
  -9  23   1 3417.42 315.757   3
  23 -14   1 6242.15 861.558   2
 -14  -9   1 4963.73 895.938   2
 -14  -9   1 5239.09 786.016   4
  23 -14   1 5940.10 642.766   1
  14 -23   1 4532.34 678.297   4
  23 -14   1 4985.45 716.339   4
  14 -23   1 5714.25 874.266   2
   9  14   1 5863.52 675.982   1
  -9  23   1 4195.20 310.795   3
 -23   9   1 4361.97 840.700   3
 -14  -9   4 583.275 438.817   3
  23 -14   4 907.188 439.091   2
 -14  -9   4 186.453 362.713   4
 -14  -9   4 1969.33 741.322   2
  -9  23   4 807.398 469.224   1
  14 -23   4 558.209 412.911   4
  23 -14   4 879.795 478.554   1
  -9  23   4 614.261 349.443   3
  14 -23   4 323.634 440.072   2
   9  14   4 1520.81 472.983   1
 -23   9   4 1877.24 672.341   3
  -9  23   7 3855.45 717.902   1
 -14  -9   7 4796.58 755.445   4
  14 -23   7 2901.39 808.873   1
   9  14   7 3090.79 768.611   1
  14 -23   7 4334.18 617.616   4
  14 -23   7 4449.68 835.859   2
  -9  23   7 4605.12 799.454   3
  23 -14   7 3706.35 775.273   1
 -23   9   7 4038.62 918.007   3
 -14  -9   7 3417.71 723.277   3
 -14  -9   7 5158.12 1045.12   2
  13 -23  -9 1020.59 620.465   2
 -13 -10  -9-679.991 558.176   4
  13 -23  -9 392.160 442.461   4
 -23  10  -6 10959.9 1390.77   3
 -13 -10  -6 9836.55 1094.55   4
 -13 -10  -6 11055.5 951.599   2
  13 -23  -6 10092.8 1017.03   4
  13 -23  -6 9992.68 1083.63   2
 -23  10  -3 646.100 592.847   3
 -13 -10  -3 464.335 535.955   3
 -13 -10  -3 777.856 418.570   4
 -13 -10  -3 365.401 430.171   2
  13 -23  -3-242.135 406.663   4
  23 -13  -3 233.073 112.797   1
  23 -13  -3-16.8228 102.146   1
  13 -23  -3 1215.03 601.733   2
 -13 -10   0 13419.7 1215.32   3
  10  13   0 14661.0 973.542   1
  23 -13   0 13863.0 1228.38   2
 -13 -10   0 13649.5 1196.53   4
 -13 -10   0 13231.0 1270.68   2
  23 -13   0 14197.1 820.513   1
  13 -23   0 14891.4 1143.60   4
  13 -23   0 14068.1 1307.16   2
 -23  10   0 12020.8 1254.65   3
 -13 -10   3 2154.36 561.809   3
  10  13   3 3798.84 636.657   1
  23 -13   3 2615.29 609.720   2
 -13 -10   3 1765.04 731.116   2
  13 -23   3 3167.27 594.375   4
 -13 -10   3 3011.62 639.720   4
  23 -13   3 2326.22 550.921   1
  13 -23   3 1679.31 601.742   2
 -10  23   3 1976.97 373.026   3
 -10  23   3 2315.19 527.428   1
 -23  10   3 1259.41 656.419   3
 -13 -10   6 8210.85 1281.76   2
 -13 -10   6 8431.88 913.444   4
  13 -23   6 10047.1 911.554   4
  23 -13   6 6618.65 985.813   1
  13 -23   6 6912.74 1021.81   2
 -10  23   6 8243.84 883.774   3
  10  13   6 7702.38 965.294   1
 -23  10   6 7888.49 1072.25   3
 -13 -10   6 6203.93 879.216   3
 -10  23   6 6329.82 815.714   1
  10  13   9 1546.17 677.212   1
 -13 -10   9 1884.91 901.211   2
  13 -23   9 556.262 665.104   1
 -10  23   9 299.865 547.681   3
  13 -23   9 342.034 564.178   2
 -23  10   9 740.838 712.877   3
 -13 -10   9-66.9358 539.483   3
  23 -13   9-48.6881 612.557   1
 -10  23   9 555.608 515.010   1
 -23  11  -7 6206.60 1172.14   3
 -12 -11  -7 6079.63 888.222   4
  12 -23  -7 6883.20 847.553   4
 -12 -11  -7 6244.19 678.738   2
  12 -23  -7 7244.29 970.890   2
 -23  11  -4 1934.87 678.236   3
 -12 -11  -4 964.546 498.193   3
 -12 -11  -4 678.989 466.678   4
 -12 -11  -4 1226.65 479.717   2
  12 -23  -4 1553.55 514.934   4
  12 -23  -4 748.345 444.714   2
 -23  11  -1 12404.4 1279.40   3
 -12 -11  -1 16573.9 1295.69   3
 -12 -11  -1 13371.3 1159.53   4
 -12 -11  -1 14981.8 1327.33   2
  23 -12  -1 14266.7 689.646   1
  12 -23  -1 16190.3 1207.28   4
  23 -12  -1 12364.8 604.776   1
  12 -23  -1 16299.5 1390.16   2
  11  12  -1 15281.4 936.086   1
 -23  11   2 4563.39 778.156   3
  11  12   2 6073.98 669.281   1
 -12 -11   2 4763.23 746.041   4
 -12 -11   2 6477.97 1044.26   2
  12 -23   2 4213.03 655.583   4
  23 -12   2 5655.15 656.377   1
  12 -23   2 5397.28 875.252   2
 -11  23   2 5553.82 481.696   3
 -12 -11   2 4687.34 740.294   3
 -11  23   5 8306.34 885.634   1
 -12 -11   5 11011.3 1324.81   2
 -12 -11   5 8956.66 918.130   4
  12 -23   5 9392.35 903.386   4
  23 -12   5 9494.44 1022.51   1
  12 -23   5 11615.3 1226.28   2
 -11  23   5 9926.44 892.222   3
  11  12   5 8588.03 928.381   1
 -23  11   5 10142.1 1185.25   3
 -12 -11   5 7845.63 933.496   3
 -11  23   8 2799.46 702.946   1
  11  12   8 3351.89 748.865   1
 -12 -11   8 3408.62 978.967   2
  12 -23   8 4244.13 942.448   1
 -12 -11   8 2929.70 609.044   4
  12 -23   8 3163.77 583.329   4
 -11  23   8 2489.78 694.193   3
  12 -23   8 1069.15 636.812   2
 -23  11   8 1148.06 717.379   3
 -12 -11   8 2790.71 680.559   3
  23 -12   8 3553.24 834.982   1
  11 -23  -8 1428.08 592.823   2
 -11 -12  -8 3906.98 782.344   4
  11 -23  -8 2679.13 687.202   4
 -23  12  -5 9602.43 1201.93   3
 -11 -12  -5 10901.5 1099.75   4
 -11 -12  -5 11832.0 1061.61   2
  11 -23  -5 10491.2 1052.91   4
  11 -23  -5 10398.0 1066.28   2
 -23  12  -2 5494.25 993.763   3
 -11 -12  -2 6044.64 843.024   3
 -11 -12  -2 5519.91 778.612   4
 -11 -12  -2 3997.49 730.206   2
  11 -23  -2 5629.80 771.792   4
  11 -23  -2 4198.23 796.454   2
 -11 -12   1 14832.1 1205.06   3
 -11 -12   1 13859.8 1150.65   4
 -11 -12   1 15275.7 1399.11   2
  11 -23   1 13972.8 1097.14   4
  12  11   1 14439.5 964.227   1
  23 -11   1 13209.1 860.409   1
  11 -23   1 15476.7 1346.06   2
 -12  23   1 13519.3 664.689   3
 -23  12   1 12717.2 1258.47   3
 -11 -12   4 1155.14 499.975   3
 -11 -12   4 659.267 380.009   4
 -11 -12   4 2053.23 729.969   2
  11 -23   4 549.323 392.763   4
  12  11   4 1581.03 509.051   1
 -12  23   4 1653.37 534.666   1
  11 -23   4 1178.90 613.503   2
 -12  23   4 1526.89 416.345   3
  23 -11   4 1936.14 524.462   1
 -23  12   4 2291.29 680.214   3
  12  11   7 4698.93 825.251   1
 -11 -12   7 5561.07 747.289   1
 -11 -12   7 5824.78 774.777   4
 -11 -12   7 4909.60 1083.68   2
  11 -23   7 7383.66 792.066   4
  11 -23   7 6543.57 977.445   2
  23 -11   7 5694.34 949.166   1
 -12  23   7 6892.61 898.940   3
 -23  12   7 5650.89 1017.11   3
 -12  23   7 5764.08 802.298   1
 -11 -12   7 7357.35 889.849   3
  10 -23  -9 41.8242 505.845   2
 -10 -13  -9 240.956 525.148   4
  10 -23  -9-148.120 443.449   4
 -23  13  -6 9665.46 1233.22   3
 -10 -13  -6 7601.04 967.882   4
  10 -23  -6 8654.13 960.557   4
 -10 -13  -6 7761.78 848.864   2
  10 -23  -6 5919.31 822.500   2
 -23  13  -3 1008.38 613.408   3
 -10 -13  -3 1364.01 481.240   3
 -10 -13  -3 2800.06 666.799   4
 -10 -13  -3 2611.35 621.488   2
  10 -23  -3 1931.21 499.399   4
  10 -23  -3 2935.70 651.266   2
 -10 -13   0 12626.0 1087.62   3
 -10 -13   0 12953.4 1114.11   4
 -10 -13   0 14054.1 1286.65   2
  10 -23   0 12425.0 1048.15   4
  10 -23   0 13728.5 1293.26   2
  23 -10   0 14061.9 743.397   1
  13  10   0 14164.4 890.818   1
 -23  13   0 14007.2 1319.37   3
 -13  23   0 13260.1 634.258   3
 -10 -13   3 162.383 408.529   3
 -10 -13   3 702.844 420.440   4
 -10 -13   3 263.669 498.877   2
  10 -23   3 424.332 384.474   4
  13  10   3-98.1785 322.586   1
  10 -23   3 451.078 473.788   2
 -13  23   3 37.0504 275.311   3
  23 -10   3 460.836 366.152   1
 -23  13   3 924.557 581.237   3
 -13  23   6 11372.5 1037.07   1
 -10 -13   6 11867.5 1355.48   2
 -10 -13   6 10558.8 978.701   4
  10 -23   6 11092.6 969.711   4
  10 -23   6 12223.6 1331.97   2
  13  10   6 10248.4 1058.74   1
  23 -10   6 10488.1 1111.85   1
 -13  23   6 11272.5 1063.49   3
 -23  13   6 9520.96 1155.18   3
 -10 -13   6 9669.81 972.526   3
  13  10   9 914.902 631.397   1
  23 -10   9 1015.92 709.144   1
 -13  23   9 583.433 530.762   1
 -10 -13   9 504.715 643.193   2
  10 -23   9 268.534 681.659   1
  10 -23   9 553.113 602.061   2
 -13  23   9 475.420 583.694   3
 -23  13   9-492.192 626.553   3
 -10 -13   9 250.808 513.201   3
   9 -23  -7 2916.40 674.206   2
   9 -23  -7 2785.76 614.652   4
  -9 -14  -7 3227.75 593.784   2
 -23  14  -4 1161.11 615.166   3
  -9 -14  -4 658.777 470.878   4
   9 -23  -4 683.292 394.933   4
  -9 -14  -4 712.533 438.605   2
   9 -23  -4 79.7567 393.456   2
 -14  23  -1 3191.97 318.456   3
  -9 -14  -1 3788.67 652.027   3
  -9 -14  -1 4883.68 779.898   4
  -9 -14  -1 4585.18 795.061   2
   9 -23  -1 5568.71 778.384   4
  14   9  -1 4536.66 521.736   1
   9 -23  -1 4993.18 836.107   2
  23  -9  -1 3745.48 316.728   1
 -23  14  -1 4617.54 868.815   3
  23  -9   2 578.469 325.235   1
  -9 -14   2 690.000 440.167   4
  -9 -14   2 975.301 441.629   3
  -9 -14   2 859.836 561.527   2
   9 -23   2 396.713 344.469   4
   9 -23   2 189.937 500.544   2
 -14  23   2-21.8568 242.631   3
  14   9   2 816.204 367.637   1
 -23  14   2-73.5712 490.208   3
  -9 -14   5 4154.86 932.260   2
  -9 -14   5 4121.43 637.283   4
   9 -23   5 2759.80 538.665   4
  14   9   5 3649.42 664.605   1
 -14  23   5 2541.75 522.129   1
   9 -23   5 3671.78 861.950   2
  23  -9   5 3611.04 683.648   1
 -14  23   5 4349.96 665.197   3
  -9 -14   5 4176.49 678.431   3
 -23  14   5 2569.73 735.921   3
  14   9   8 1858.01 660.924   1
  23  -9   8 1675.17 730.473   1
   9 -23   8 3109.80 848.480   1
  -9 -14   8 2882.33 621.348   4
  -9 -14   8 2210.49 801.922   2
  -9 -14   8 81.6076 456.252   1
 -14  23   8 1401.09 568.620   1
   9 -23   8 2303.32 503.703   4
   9 -23   8 2332.08 811.722   2
 -14  23   8 2752.75 743.206   3
 -23  14   8 2099.87 829.945   3
  -9 -14   8 2162.46 604.409   3
   8 -23  -8 3006.69 733.830   2
  -8 -15  -8 2537.69 676.129   4
   8 -23  -8 3507.41 692.976   4
 -23  15  -5 7361.90 1109.51   3
  -8 -15  -5 7903.12 972.459   4
   8 -23  -5 7749.24 916.958   4
  -8 -15  -5 8676.35 942.643   2
   8 -23  -5 9352.30 1067.54   2
 -23  15  -2 1140.58 581.461   3
 -15  23  -2 501.218 183.708   3
  -8 -15  -2 1090.82 455.111   3
  -8 -15  -2 1297.76 510.440   4
   8 -23  -2 1003.09 442.789   4
  -8 -15  -2 1451.07 586.258   2
   8 -23  -2 1518.31 598.999   2
  -8 -15   1 6517.89 746.083   3
  15   8   1 6889.33 669.393   1
  -8 -15   1 7237.45 887.234   4
  -8 -15   1 6316.17 965.836   2
   8 -23   1 8660.97 895.250   4
   8 -23   1 7242.02 1002.61   2
  23  -8   1 6418.04 585.506   1
 -15  23   1 7141.00 615.362   3
 -23  15   1 7155.03 958.438   3
  -8 -15   4 2846.18 584.265   3
  -8 -15   4 3092.43 623.136   4
  -8 -15   4 4737.08 894.532   2
   8 -23   4 4196.09 660.818   4
  15   8   4 3402.21 630.614   1
   8 -23   4 3518.93 847.502   2
  23  -8   4 3361.77 646.465   1
 -15  23   4 4362.95 615.588   3
 -23  15   4 2625.02 722.324   3
 -15  23   7 7764.18 852.979   1
  -8 -15   7 7716.09 1219.51   2
  -8 -15   7 8408.90 895.302   4
  15   8   7 7816.97 964.864   1
   8 -23   7 9992.98 904.677   4
   8 -23   7 6742.63 1123.59   2
 -15  23   7 7103.32 945.596   3
  23  -8   7 8341.73 1073.84   1
 -23  15   7 8825.50 1171.98   3
  -8 -15   7 7920.39 865.425   3
  -7 -16  -9 633.512 603.884   4
   7 -23  -9 180.956 473.367   4
 -23  16  -6 6731.68 1050.18   3
  -7 -16  -6 5429.83 841.535   4
   7 -23  -6 5402.42 793.990   4
  -7 -16  -6 6152.89 825.873   2
   7 -23  -6 6280.09 891.063   2
 -23  16  -3 1154.56 648.615   3
  -7 -16  -3 972.660 504.381   4
   7 -23  -3 779.191 394.034   4
  -7 -16  -3 176.926 429.679   2
   7 -23  -3 1163.62 501.752   2
  23  -7   0 4202.28 418.663   1
 -23  16   0 3216.11 746.791   3
  -7 -16   0 5340.00 638.534   3
  -7 -16   0 3737.59 681.775   4
  -7 -16   0 4809.39 880.479   2
  16   7   0 4826.46 545.369   1
   7 -23   0 5323.87 924.970   2
   7 -23   0 3388.94 610.045   4
 -16  23   0 4002.70 508.838   3
  -7 -16   3 2660.72 527.864   3
  23  -7   3 3037.78 523.597   1
  -7 -16   3 3508.95 607.815   4
  16   7   3 2693.12 517.545   1
   7 -23   3 3431.25 656.211   4
  -7 -16   3 3858.58 865.049   2
   7 -23   3 4484.85 876.471   2
 -16  23   3 3123.24 538.669   3
 -23  16   3 4211.41 773.595   3
  -7 -16   6 11679.5 1382.76   2
  -7 -16   6 14293.2 1137.51   4
   7 -23   6 13572.3 1062.41   4
  16   7   6 13002.2 1185.78   1
   7 -23   6 15570.7 1562.16   2
 -16  23   6 10889.6 978.815   1
 -16  23   6 13666.6 1158.26   3
 -23  16   6 14540.4 1383.62   3
  23  -7   6 15486.4 1315.15   1
  -7 -16   6 14021.1 1074.80   3
  23  -7   9 3761.87 990.735   1
  -7 -16   9 2365.44 904.565   2
   7 -23   9 1116.14 757.203   1
  -7 -16   9 850.650 628.578   1
 -16  23   9 2843.11 701.762   1
   7 -23   9 1132.43 702.593   2
 -16  23   9 2383.54 754.088   3
 -23  16   9 1617.79 799.183   3
  16   7   9 2362.80 781.362   1
  -6 -17  -7 3063.41 731.772   4
   6 -23  -7 5429.29 844.868   4
  -6 -17  -7 4420.54 696.260   2
   6 -23  -7 2482.39 634.638   2
  -6 -17  -4 2822.63 652.025   4
 -23  17  -4 2274.16 744.362   3
   6 -23  -4 2295.07 615.266   4
  -6 -17  -4 2782.75 690.145   2
   6 -23  -4 3444.25 750.162   2
 -23  17  -1 1846.07 652.894   3
 -17  23  -1 2339.11 468.194   3
  -6 -17  -1 3187.26 545.127   3
  17   6  -1 3286.73 423.897   1
  -6 -17  -1 3597.33 647.524   4
   6 -23  -1 2338.92 564.349   4
  -6 -17  -1 2088.13 730.757   2
  23  -6  -1 2534.11 230.024   1
   6 -23  -1 3056.56 748.584   2
  -6 -17   2 5758.74 645.384   3
  -6 -17   2 7621.08 888.097   4
  -6 -17   2 7978.50 1135.91   2
   6 -23   2 8005.87 880.962   4
   6 -23   2 7648.28 1084.39   2
  17   6   2 7944.21 743.343   1
 -17  23   2 6330.81 696.573   3
 -23  17   2 6702.07 958.438   3
  23  -6   2 8609.95 740.667   1
  17   6   5 2782.84 595.371   1
  23  -6   5 2283.11 632.207   1
  -6 -17   5 2676.05 597.672   4
  -6 -17   5 2975.56 816.547   2
   6 -23   5 2887.06 587.069   4
   6 -23   5 2468.23 806.114   2
 -17  23   5 2113.56 560.316   3
 -23  17   5 2976.78 764.783   3
  -6 -17   5 2962.90 564.431   3
  -6 -17   8 1940.36 546.266   4
 -17  23   8 1112.87 491.926   1
  23  -6   8 469.141 633.314   1
   6 -23   8 1889.91 754.692   1
  -6 -17   8 2131.78 671.464   1
  -6 -17   8 1928.56 880.277   2
   6 -23   8 1063.21 446.801   4
   6 -23   8 1678.09 721.774   2
 -17  23   8 1354.19 624.353   3
 -23  17   8 513.308 651.793   3
  17   6   8 1130.10 577.230   1
   5 -23  -8-124.361 453.110   2
  -5 -18  -8 757.081 573.874   4
   5 -23  -8 361.788 457.622   4
 -23  18  -5 10402.0 1178.07   3
  -5 -18  -5 10023.3 1095.98   4
   5 -23  -5 9679.88 1045.00   4
  -5 -18  -5 10481.8 1106.14   2
   5 -23  -5 9721.83 1083.58   2
 -23  18  -2 1565.68 683.260   3
 -18  23  -2 2069.04 449.821   3
  -5 -18  -2 1959.28 607.527   4
   5 -23  -2 1706.61 507.634   4
  -5 -18  -2 2484.46 685.734   2
   5 -23  -2 2458.45 680.686   2
  18   5   1 7775.53 695.811   1
  23  -5   1 7926.60 627.899   1
  -5 -18   1 7449.51 652.251   3
  -5 -18   1 8402.70 986.861   4
  -5 -18   1 7648.91 1072.99   2
   5 -23   1 9044.66 950.910   4
   5 -23   1 8029.96 1081.78   2
 -18  23   1 9307.46 816.577   3
 -23  18   1 8913.71 1004.35   3
  -5 -18   4 4860.20 758.310   4
  -5 -18   4 5449.66 1010.42   2
   5 -23   4 5009.95 720.982   4
  18   5   4 3995.80 626.391   1
   5 -23   4 4092.18 885.179   2
 -18  23   4 4550.48 693.108   3
 -23  18   4 4543.17 829.398   3
  23  -5   4 3877.38 660.963   1
  -5 -18   4 3993.86 559.501   3
  23  -5   7 3173.76 767.330   1
  -5 -18   7 5540.10 759.015   4
   5 -23   7 3302.55 642.673   4
  -5 -18   7 2406.23 927.716   2
   5 -23   7 4051.09 928.710   2
 -18  23   7 3764.04 669.577   1
 -18  23   7 3720.20 793.182   3
  18   5   7 3849.66 794.998   1
 -23  18   7 2701.64 790.526   3
  -4 -19  -9 2521.48 682.835   4
   4 -23  -9 3769.92 773.734   4
 -23  19  -6 1905.53 712.631   3
  -4 -19  -6 2780.97 674.835   4
   4 -23  -6 3702.98 772.110   4
  -4 -19  -6 2185.27 595.600   2
   4 -23  -6 2887.23 715.112   2
 -23  19  -3 7170.50 1069.52   3
 -19  23  -3 7760.15 756.208   3
   4 -23  -3 8723.27 997.555   4
  -4 -19  -3 6842.35 954.325   2
   4 -23  -3 9260.32 1109.28   2
  -4 -19  -3 10410.7 1095.67   4
  19   4   0 11970.0 745.810   1
  -4 -19   0 12619.9 1158.95   4
   4 -23   0 12111.1 1104.56   4
  -4 -19   0 12169.7 1305.76   2
  23  -4   0 14059.4 683.014   1
   4 -23   0 13509.2 1362.99   2
 -19  23   0 9858.31 882.157   3
 -23  19   0 9035.46 1042.28   3
  23  -4   3 9465.66 835.277   1
  -4 -19   3 6569.61 587.284   3
  -4 -19   3 9010.52 945.770   4
  -4 -19   3 9148.55 1194.36   2
   4 -23   3 8337.53 910.315   4
   4 -23   3 10082.2 1284.46   2
  19   4   3 7876.75 794.158   1
 -19  23   3 8987.53 885.311   3
 -23  19   3 7625.60 973.370   3
  19   4   6 9530.26 1044.15   1
  -4 -19   6 6317.34 1161.59   2
  -4 -19   6 9963.04 977.206   4
   4 -23   6 9957.89 968.977   4
   4 -23   6 6889.82 1209.82   2
 -19  23   6 8834.95 1068.17   3
 -23  19   6 7584.38 1049.87   3
  23  -4   6 7782.47 981.974   1
  23  -4   9 3188.44 876.263   1
   4 -23   9 3541.71 990.708   1
  -4 -19   9 2096.17 714.044   1
  -4 -19   9 3834.30 1027.10   2
 -19  23   9 2382.88 628.536   1
   4 -23   9 2858.68 907.676   2
  19   4   9 3097.80 843.641   1
 -19  23   9 4426.20 1009.72   3
 -23  19   9 3480.48 970.303   3
  -3 -20  -7 938.609 553.631   4
   3 -23  -7 1195.94 587.572   4
  -3 -20  -7 758.653 504.540   2
   3 -23  -7 913.539 515.507   2
 -23  20  -4 2819.92 725.078   3
 -20  23  -4 2051.44 532.268   3
  -3 -20  -4 4076.61 748.412   4
   3 -23  -4 2927.77 672.122   4
  -3 -20  -4 3075.34 729.730   2
   3 -23  -4 2960.66 768.555   2
 -23  20  -1 2064.47 593.552   3
 -20  23  -1 2585.67 551.808   3
  23  -3  -1 1992.87 231.656   1
   3 -23  -1 3757.16 769.516   4
  -3 -20  -1 3370.65 692.585   4
  -3 -20  -1 2872.20 775.228   2
   3 -23  -1 3044.15 717.326   2
  20   3  -1 2880.30 365.321   1
  -3 -20   2 7479.21 485.207   3
  23  -3   2 10957.7 814.180   1
  -3 -20   2 11088.1 1118.89   4
   3 -23   2 11297.8 1066.14   4
  -3 -20   2 12993.4 1396.61   2
   3 -23   2 12994.1 1372.00   2
  20   3   2 10459.6 825.796   1
 -20  23   2 9850.68 915.332   3
 -23  20   2 7691.24 942.526   3
  -3 -20   5 831.155 479.496   4
  23  -3   5 1170.12 480.596   1
   3 -23   5 589.224 450.294   4
  -3 -20   5 987.052 688.743   2
   3 -23   5 670.048 714.418   2
  20   3   5 1647.20 537.970   1
 -20  23   5 2477.93 658.802   3
 -23  20   5 1105.56 559.832   3
  23  -3   8 2953.28 819.645   1
 -20  23   8 1992.53 562.350   1
  -3 -20   8 3070.95 914.634   2
   3 -23   8 1685.90 782.409   2
  20   3   8 1478.73 667.577   1
 -20  23   8 1558.08 648.523   3
 -23  20   8 2486.31 773.068   3
  -2 -21  -8 2826.96 708.432   4
   2 -23  -8 1091.24 583.131   4
   2 -23  -8 1738.91 641.048   2
 -23  21  -5 8078.86 1038.92   3
   2 -23  -5 6775.15 989.111   4
  -2 -21  -5 5971.27 941.667   2
   2 -23  -5 7689.54 1014.04   2
  -2 -21  -5 7318.53 985.465   4
 -23  21  -2 1650.86 636.078   3
 -21  23  -2 1486.43 490.623   3
  -2 -21  -2 1113.38 477.752   4
   2 -23  -2 1908.80 655.172   4
  -2 -21  -2 1535.11 618.390   2
   2 -23  -2 1299.38 523.433   2
  -2 -21   1 3741.69 723.019   4
  -2 -21   1 6609.64 1074.65   2
   2 -23   1 5047.76 808.876   4
   2 -23   1 5445.95 946.988   2
  23  -2   1 4460.09 512.773   1
  21   2   1 4521.95 539.122   1
 -21  23   1 4147.32 695.813   3
 -23  21   1 3738.60 769.214   3
  -2 -21   4 118.423 420.115   4
   2 -23   4 1428.15 506.623   4
  -2 -21   4 983.645 642.639   2
  23  -2   4 795.227 429.751   1
   2 -23   4 1569.85 711.889   2
  21   2   4 587.219 422.366   1
 -21  23   4 210.743 431.119   3
 -23  21   4 369.915 478.105   3
  -2 -21   7 1410.72 481.393   4
   2 -23   7 1951.12 524.067   4
  23  -2   7 2159.83 687.159   1
  -2 -21   7 3688.69 980.435   2
   2 -23   7 2682.71 829.982   2
  21   2   7 2771.91 743.616   1
 -21  23   7 1176.79 645.848   3
 -23  21   7 941.318 639.785   3
  -1 -22  -6 207.291 549.279   4
   1 -23  -6 888.866 583.306   4
  -1 -22  -6 1414.37 607.362   2
   1 -23  -6 1009.69 555.214   2
 -23  22  -3 4423.11 891.837   3
 -22  23  -3 8080.22 970.972   3
  -1 -22  -3 7864.58 1006.28   4
   1 -23  -3 7439.77 1018.82   4
  -1 -22  -3 6608.71 1027.09   2
   1 -23  -3 9311.05 1163.82   2
 -22  23   0 3939.21 700.138   3
  22   1   0 4949.40 496.583   1
   1 -23   0 5393.13 820.931   4
  -1 -22   0 3926.06 785.133   4
   1 -23   0 6083.37 1003.67   2
  -1 -22   0 4627.84 881.467   2
  23  -1   0 4888.83 463.779   1
 -23  22   0 4813.20 762.922   3
  23  -1   3 5795.16 700.893   1
  -1 -22   3 7304.81 906.666   4
   1 -23   3 5503.53 839.396   4
  -1 -22   3 5001.38 1063.52   2
  22   1   3 5885.81 684.995   1
   1 -23   3 4997.86 1040.84   2
 -22  23   3 5724.66 828.235   3
 -23  22   3 6282.69 849.456   3
   1 -23   6 2903.00 670.271   4
  -1 -22   6 2861.31 678.852   4
  -1 -22   6 2379.07 879.482   2
   1 -23   6 3136.86 981.425   2
  23  -1   6 3225.06 756.229   1
  22   1   6 2451.67 619.199   1
 -23  22   6 3565.83 890.717   3
 -22  23   6 2032.88 698.872   3
   0 -23  -7-126.769 452.366   4
   0 -23  -7 212.398 501.066   2
 -23  23  -4 3862.56 758.574   3
   0 -23  -4 6665.43 990.388   4
   0 -23  -4 6615.00 1000.31   2
 -23  23  -1-461.759 565.802   3
   0 -23  -1 145.061 444.006   4
  23   0  -1 52.2952 154.696   1
   0 -23  -1 487.219 581.053   2
   0 -23   2 4589.56 811.424   4
   0 -23   2 4825.74 1004.73   2
  23   0   2 4847.04 604.811   1
 -23  23   2 5429.89 813.045   3
   0 -23   5 1112.34 546.740   4
   0 -23   5 766.661 722.392   2
  23   0   5 107.727 427.000   1
 -23  23   5-35.2394 524.509   3
   0 -23   8 3598.15 1092.17   2
  23   0   8 2160.42 725.158   1
 -23  23   8 1999.90 805.807   3
  24 -24  -6 3914.24 899.162   2
 -24   0  -6 4646.54 1172.21   3
  24 -24  -6 4383.53 805.083   4
  24 -24  -3-601.197 563.294   2
 -24   0  -3 176.691 631.494   3
  24 -24  -3 963.635 514.241   4
 -24   0   0 14465.9 1580.10   3
  24 -24   0 12972.3 1204.11   4
  24 -24   0 15156.3 1452.76   2
 -24   0   3 623.255 642.360   3
  24 -24   3 675.159 539.963   2
   0  24   3 1387.77 525.585   1
  24 -24   3-447.747 478.182   4
  24 -24   6 6576.00 1051.02   1
  24 -24   6 8761.50 1008.05   4
   0  24   6 7732.27 1081.33   1
  24 -24   6 6637.57 972.764   2
 -24   0   6 6827.33 1112.35   3
  23 -24  -7 1244.90 646.195   2
  24 -23  -7 2871.05 936.949   2
 -24   1  -7 912.839 751.088   3
  23 -24  -7 1332.32 631.871   4
  24 -23  -7 2528.26 684.799   4
  23 -24  -4 236.723 668.004   2
  24 -23  -4 675.757 531.868   2
 -24   1  -4-35.0623 669.145   3
 -23  -1  -4 474.083 621.365   3
  23 -24  -4 522.424 487.495   4
  24 -23  -4 779.573 513.763   4
  23 -24  -1 1291.44 582.520   2
 -24   1  -1 897.755 710.438   3
 -23  -1  -1 1493.31 702.073   3
  24 -23  -1 1632.28 622.740   2
  23 -24  -1 2099.72 624.851   4
  24 -23  -1 681.844 448.678   4
   1  23   2 1160.22 522.607   1
 -24   1   2 457.868 613.113   3
 -23  -1   2 1378.14 736.298   3
  23 -24   2 1167.98 537.970   2
  24 -23   2 1018.96 471.100   2
  23 -24   2 1488.79 534.702   4
  24 -23   2 1296.63 515.576   4
  -1  24   2 1433.43 501.752   1
 -24   1   5 3196.66 884.059   3
 -23  -1   5 2663.85 867.817   3
  23 -24   5 2477.59 710.672   2
  24 -23   5 2523.85 697.251   2
   1  23   5 2230.45 660.253   1
  -1  24   5 1989.09 638.511   1
  23 -24   5 2877.96 758.637   1
  24 -23   5 2039.65 679.907   1
  23 -24   5 2174.07 565.080   4
  24 -23   5 3480.15 715.793   4
  23 -24   8 669.714 630.050   2
   1  23   8 973.268 583.507   1
  23 -24   8 797.868 808.637   1
  24 -23   8 988.441 786.312   1
  23 -24   8 604.460 473.450   4
  -1  24   8 120.491 543.121   1
 -24   1   8 614.023 784.927   3
 -23  -1   8 1412.91 909.874   3
  22 -24  -8 3557.13 931.390   2
 -22  -2  -8 1829.97 774.104   4
  22 -24  -8 2102.89 679.026   4
  24 -22  -8 2654.36 724.898   4
 -22  -2  -5 1701.20 634.230   2
  22 -24  -5 774.030 593.566   2
  24 -22  -5 966.634 598.636   2
 -24   2  -5 1334.63 768.233   3
 -22  -2  -5 2357.07 867.888   3
  22 -24  -5 2048.39 658.053   4
  24 -22  -5 1473.27 526.423   4
  22 -24  -2 1029.04 576.075   2
 -24   2  -2 2560.72 847.308   3
  24 -22  -2 1012.26 544.780   2
 -22  -2  -2 3743.40 883.455   3
  22 -24  -2 2668.90 646.017   4
  24 -22  -2 2592.36 618.975   4
  22 -24   1 3822.70 777.111   2
 -24   2   1 3325.98 920.083   3
 -22  -2   1 2730.10 775.305   3
  22 -24   1 4372.68 733.395   4
  24 -22   1 4393.06 762.037   4
  24 -22   1 6320.58 969.717   2
   2  22   1 4116.01 695.920   1
 -24   2   4 1347.29 649.059   3
 -22  -2   4 1454.67 625.682   3
  22 -24   4 1402.14 559.655   2
  24 -22   4 2053.30 641.944   2
   2  22   4 1972.25 600.848   1
  24 -22   4 2033.98 716.182   1
  22 -24   4 1107.94 518.168   4
  24 -22   4 315.632 417.544   4
  -2  24   4 2645.68 636.891   1
  -2  24   7 3817.20 819.035   1
  24 -22   7 2519.44 699.873   2
  22 -24   7 1062.15 685.082   1
   2  22   7 3518.29 790.552   1
  24 -22   7 2748.68 762.946   1
  22 -24   7 2559.30 632.521   4
  22 -24   7 3947.52 858.210   2
 -24   2   7 2274.01 894.899   3
 -22  -2   7 3520.14 902.257   3
  21 -24  -6 9213.48 1176.03   2
  24 -21  -6 10162.5 1290.15   2
 -24   3  -6 5877.81 1303.20   3
 -21  -3  -6 7102.93 1339.79   3
 -21  -3  -6 8300.38 976.255   2
  21 -24  -6 10184.6 1078.83   4
  24 -21  -6 9727.70 1087.21   4
  21 -24  -3 2119.49 705.743   2
 -24   3  -3 1188.10 693.159   3
  24 -21  -3 1135.84 660.410   2
 -21  -3  -3 1126.90 667.697   3
  21 -24  -3 2313.72 592.717   4
  24 -21  -3 543.515 386.841   4
 -24   3   0 7778.57 1155.42   3
 -21  -3   0 8905.98 1230.46   3
  21 -24   0 7390.31 916.077   4
  24 -21   0 9334.24 992.190   4
  21 -24   0 8461.48 1057.91   2
  24 -21   0 8625.06 1086.15   2
  21 -24   3 716.888 433.065   2
 -24   3   3 1177.18 669.010   3
 -21  -3   3 187.328 559.205   3
  24 -21   3 1403.06 584.555   2
  24 -21   3 1078.14 513.354   1
   3  21   3 875.009 435.174   1
  -3  24   3 1223.93 531.513   1
  21 -24   3 745.786 439.986   4
  24 -21   3 925.351 460.427   4
  21 -24   6 4583.63 837.757   2
  24 -21   6 3892.27 750.721   2
  -3  24   6 3855.59 826.116   1
  21 -24   6 2177.34 704.355   1
  24 -21   6 3836.61 881.324   1
  21 -24   6 4174.88 758.022   4
   3  21   6 4280.98 776.593   1
  24 -21   6 4002.54 716.169   4
 -24   3   6 4197.88 903.901   3
 -21  -3   6 5507.70 995.941   3
  20 -24  -7 2794.37 778.026   2
 -24   4  -7 2663.60 980.511   3
 -20  -4  -7 2695.13 763.400   4
  20 -24  -7 1999.68 570.631   4
  24 -20  -7 1671.65 566.143   4
  20 -24  -4 1523.94 605.675   2
 -24   4  -4 540.911 666.177   3
  24 -20  -4 1763.16 616.835   2
 -20  -4  -4 1208.08 743.273   3
 -20  -4  -4 2306.96 716.699   2
  20 -24  -4 2316.59 593.357   4
  24 -20  -4 2051.62 562.305   4
  24 -20  -1 5491.80 902.395   2
 -24   4  -1 5736.65 1040.45   3
 -20  -4  -1 5557.73 969.946   3
  20 -24  -1 6920.13 871.125   4
  24 -20  -1 5895.87 839.365   4
  20 -24  -1 5003.16 940.731   2
 -24   4   2 1259.20 602.466   3
 -20  -4   2 1478.20 647.861   3
  24 -20   2 370.598 431.969   2
  24 -20   2 399.784 382.582   1
  20 -24   2 314.531 415.093   4
  24 -20   2 429.484 465.871   4
  -4  24   2 792.625 231.752   3
   4  20   2 985.719 464.409   1
  -4  24   2 808.063 438.128   1
  20 -24   2 764.071 528.212   2
 -20  -4   5 4062.64 887.734   3
  24 -20   5 2949.31 634.388   2
  20 -24   5 1887.44 669.132   1
  -4  24   5 3639.95 736.983   1
  24 -20   5 2997.47 741.381   1
  20 -24   5 5004.93 738.450   4
  24 -20   5 3658.54 667.111   4
   4  20   5 2982.21 705.887   1
  20 -24   5 3210.50 745.780   2
 -24   4   5 2018.74 735.828   3
   4  20   8 2083.31 703.236   1
 -20  -4   8 1854.30 625.734   4
  20 -24   8 915.886 771.568   1
  20 -24   8 1678.77 557.961   4
  24 -20   8 2185.07 837.034   1
  -4  24   8 752.668 688.704   1
 -24   4   8 28.3973 640.527   3
 -20  -4   8 775.753 683.750   3
  20 -24   8 2662.36 724.641   2
  19 -24  -8 2303.47 834.995   2
 -19  -5  -8 3280.02 831.739   4
  19 -24  -8 1780.86 596.404   4
  24 -19  -8 2076.08 602.496   4
  19 -24  -5-113.784 497.589   2
 -24   5  -5 815.995 643.940   3
 -19  -5  -5 920.997 647.998   3
  24 -19  -5 914.395 677.205   2
 -19  -5  -5 1584.78 575.420   2
  19 -24  -5 1185.22 530.440   4
  24 -19  -5 1703.83 538.834   4
 -24   5  -2 1097.34 720.123   3
 -19  -5  -2 3612.54 889.846   3
  24 -19  -2 2637.91 676.557   2
  19 -24  -2 3754.02 704.133   4
  24 -19  -2 2848.95 623.397   4
 -19  -5   1 4685.39 864.817   3
  24 -19   1 3092.80 710.365   2
  24 -19   1 4146.98 630.491   1
   5  19   1 3856.34 663.457   1
  19 -24   1 3925.89 659.028   4
  24 -19   1 4835.90 759.560   4
  19 -24   1 5154.37 835.956   2
 -24   5   1 4802.38 977.541   3
  24 -19   4 4569.73 749.956   2
 -19  -5   4 1559.43 610.448   3
  -5  24   4 4068.33 747.388   1
  24 -19   4 3235.60 693.558   1
  19 -24   4 4697.75 709.339   4
  24 -19   4 3641.76 663.622   4
   5  19   4 3016.52 656.546   1
  19 -24   4 1916.35 643.695   2
 -24   5   4 3381.25 840.849   3
   5  19   7 3020.87 739.250   1
  -5  24   7 2547.07 712.521   1
  24 -19   7 3488.16 699.248   2
 -19  -5   7 3209.30 692.660   4
  19 -24   7 3245.48 835.153   1
  19 -24   7 3138.77 606.698   4
  24 -19   7 2077.24 784.254   1
 -24   5   7 2299.26 756.443   3
  19 -24   7 3264.36 761.528   2
 -19  -5   7 3602.80 831.398   3
  18 -24  -9 3880.02 918.200   2
 -18  -6  -9 5086.37 960.480   4
  18 -24  -9 4305.24 791.542   4
 -24   6  -6 5141.73 1138.12   3
 -18  -6  -6 5951.37 963.999   4
 -18  -6  -6 7135.56 827.457   2
  18 -24  -6 6099.73 891.367   4
  24 -18  -6 4828.27 761.065   4
  18 -24  -6 6085.21 997.849   2
  18 -24  -3 3399.35 754.416   2
 -24   6  -3 2645.88 829.670   3
 -18  -6  -3 3477.16 817.019   3
  24 -18  -3 438.710 488.226   2
 -18  -6  -3 1899.02 664.325   2
  18 -24  -3 1948.30 532.116   4
  24 -18  -3 2112.80 603.290   4
 -18  -6   0 8920.77 1129.82   3
  24 -18   0 8169.23 998.624   2
  24 -18   0 7779.65 738.593   1
  18 -24   0 9388.26 984.007   4
  24 -18   0 7777.71 894.955   4
  18 -24   0 7067.47 981.840   2
   6  18   0 8369.01 853.141   1
 -24   6   0 5953.65 1010.92   3
 -24   6   3 2767.39 716.929   3
 -18  -6   3 3829.89 751.909   3
   6  18   3 3051.98 647.077   1
  24 -18   3 2618.19 682.609   2
  -6  24   3 2452.97 578.182   1
  24 -18   3 3535.87 689.869   1
  18 -24   3 3979.15 659.036   4
  24 -18   3 4087.69 698.276   4
  -6  24   3 2904.29 400.509   3
  18 -24   3 2508.07 662.430   2
  24 -18   6 7352.67 866.401   2
   6  18   6 8873.25 1062.86   1
 -18  -6   6 7900.00 987.623   4
  18 -24   6 7997.02 1084.46   1
  24 -18   6 8210.71 1075.67   1
  18 -24   6 7567.45 863.930   4
  18 -24   6 7380.81 1028.56   2
  -6  24   6 5861.13 897.855   1
 -24   6   6 6892.89 1098.23   3
 -18  -6   6 5718.85 991.831   3
 -18  -6   9 3654.92 1133.54   2
  18 -24   9 538.268 673.575   1
   6  18   9 992.390 688.534   1
  24 -18   9 963.108 802.745   1
  -6  24   9 1345.03 682.320   1
 -24   6   9 2552.34 901.830   3
 -18  -6   9 1437.36 770.167   3
  17 -24  -7 2179.62 731.977   2
 -24   7  -7 3825.24 1093.70   3
 -17  -7  -7 3013.95 758.549   4
  17 -24  -7 3443.93 698.391   4
  24 -17  -7 3189.02 687.394   4
  17 -24  -4 2947.93 719.239   2
 -24   7  -4 999.737 692.231   3
 -17  -7  -4 3411.76 820.236   3
  24 -17  -4 2676.01 759.906   2
 -17  -7  -4 1804.69 602.133   4
 -17  -7  -4 2378.27 665.793   2
  17 -24  -4 3070.18 638.618   4
  24 -17  -4 2876.01 602.874   4
 -24   7  -1 91.5894 538.334   3
  24 -17  -1 696.955 409.268   2
  24 -17  -1 761.522 322.624   1
  17 -24  -1 1391.87 569.475   4
  24 -17  -1 1082.10 511.492   4
  17 -24  -1 163.536 435.194   2
 -24   7   2 643.722 606.687   3
 -17  -7   2 486.755 504.111   3
  24 -17   2 202.403 411.813   2
   7  17   2 966.452 461.949   1
  24 -17   2 70.7890 380.670   1
  17 -24   2 667.500 423.094   4
  24 -17   2-121.900 369.363   4
  -7  24   2 529.541 223.289   3
  17 -24   2 593.410 526.937   2
 -17  -7   5 4403.81 833.735   3
  24 -17   5 4708.01 747.113   2
   7  17   5 4064.97 726.131   1
 -17  -7   5 4961.85 793.567   4
  17 -24   5 3446.60 643.239   4
  24 -17   5 3805.11 772.727   1
  -7  24   5 3377.93 591.601   3
  -7  24   5 3051.32 667.782   1
 -24   7   5 4725.87 941.698   3
  17 -24   5 3675.82 793.659   2
  -7  24   8 2658.77 701.465   1
 -17  -7   8 1852.43 592.026   4
 -17  -7   8 2711.60 1002.81   2
  17 -24   8 2384.82 809.915   1
  17 -24   8 2154.47 523.459   4
   7  17   8 2089.08 721.889   1
  -7  24   8 2660.99 753.409   3
  24 -17   8 2171.50 804.766   1
  17 -24   8 2107.42 720.006   2
 -24   7   8 934.389 705.318   3
 -17  -7   8 678.718 618.260   3
 -16  -8  -8 3518.77 842.710   4
  16 -24  -8 2441.79 746.986   2
  16 -24  -8 2561.18 702.921   4
  16 -24  -5 1370.37 586.643   2
 -24   8  -5 1825.25 726.418   3
 -16  -8  -5 1749.59 732.406   3
 -16  -8  -5 2411.55 665.761   4
  16 -24  -5 2729.06 642.582   4
 -16  -8  -5 2410.26 600.490   2
  24 -16  -5 2474.11 562.400   4
 -16  -8  -2 5758.16 928.789   3
  24 -16  -2 6230.34 927.597   2
 -24   8  -2 4342.84 968.189   3
  24 -16  -2 4825.39 476.350   1
 -16  -8  -2 6596.45 942.197   4
  24 -16  -2 6431.39 535.695   1
 -16  -8  -2 5452.29 862.781   2
  16 -24  -2 8319.19 910.446   4
  24 -16  -2 7096.08 862.954   4
  16 -24  -2 7560.81 1029.29   2
   8  16   1 4217.52 597.870   1
 -24   8   1 4470.90 881.573   3
 -16  -8   1 3274.52 753.043   3
  24 -16   1 2770.38 625.905   2
  24 -16   1 3615.33 576.789   1
  16 -24   1 3127.34 652.838   4
  24 -16   1 2424.17 539.161   4
  16 -24   1 3551.74 761.166   2
  24 -16   4 7554.86 920.799   2
   8  16   4 7637.22 868.688   1
 -16  -8   4 6023.61 846.886   4
  24 -16   4 6220.02 841.198   1
  -8  24   4 7187.61 893.976   1
  16 -24   4 7869.17 895.676   4
  -8  24   4 6987.01 672.735   3
  16 -24   4 8953.86 1078.56   2
 -24   8   4 5772.31 981.119   3
 -16  -8   4 7342.57 970.089   3
  24 -16   7 570.735 430.167   2
  -8  24   7 1079.21 551.348   1
 -16  -8   7 1458.65 526.441   4
 -16  -8   7 2985.32 964.284   2
  16 -24   7 2585.01 792.340   1
  16 -24   7 1199.14 483.363   4
   8  16   7 1227.91 600.084   1
  -8  24   7 1094.84 529.504   3
  24 -16   7 746.868 599.941   1
  16 -24   7 1227.15 575.969   2
 -24   8   7 930.949 702.486   3
 -16  -8   7 449.775 583.076   3
  15 -24  -9 3624.70 864.171   2
 -15  -9  -9 1938.96 686.753   4
  15 -24  -9 3440.91 730.843   4
 -24   9  -6 6570.61 1295.32   3
 -15  -9  -6 9113.62 1104.63   4
 -15  -9  -6 8155.08 885.636   2
  15 -24  -6 8445.47 967.047   4
  15 -24  -6 9756.03 1098.97   2
 -24   9  -3 10971.0 1390.55   3
 -15  -9  -3 10837.4 1226.97   3
 -15  -9  -3 9353.53 1060.34   4
 -15  -9  -3 9989.10 1109.32   2
  24 -15  -3 6398.15 429.600   1
  15 -24  -3 9186.92 990.271   4
  24 -15  -3 9614.19 992.052   4
  15 -24  -3 7849.91 996.302   2
 -15  -9   0 7267.84 972.089   3
  24 -15   0 6912.61 961.396   2
 -15  -9   0 7990.83 973.716   4
 -15  -9   0 8291.89 1071.98   2
  24 -15   0 6928.94 653.302   1
   9  15   0 5783.61 674.614   1
  15 -24   0 7773.51 911.628   4
  24 -15   0 6549.52 831.854   4
  15 -24   0 7177.29 1016.61   2
 -24   9   0 5903.67 1023.25   3
 -15  -9   3 858.424 507.852   3
  24 -15   3 1315.24 494.396   2
 -15  -9   3 995.319 499.024   4
 -15  -9   3 742.986 566.336   2
   9  15   3 1485.52 432.543   1
  -9  24   3 1025.07 488.925   1
  15 -24   3 1534.79 509.609   4
  24 -15   3 1352.87 494.124   1
  -9  24   3 187.764 246.966   3
  15 -24   3 1104.37 506.623   2
 -24   9   3 1974.92 718.103   3
  24 -15   6 1831.72 521.919   2
 -15  -9   6 2236.30 615.326   4
 -15  -9   6 2737.68 876.305   2
 -15  -9   6 1986.22 424.434   1
  -9  24   6 1666.51 561.411   1
  15 -24   6 501.464 440.222   4
   9  15   6 2405.53 657.623   1
  -9  24   6 2245.72 601.477   3
  24 -15   6 2119.23 669.937   1
  15 -24   6 1351.39 579.698   2
 -24   9   6 1773.17 774.167   3
 -15  -9   6 1250.84 565.793   3
  -9  24   9 5179.21 906.345   1
 -15  -9   9 4434.42 1120.04   2
   9  15   9 5368.83 974.020   1
  15 -24   9 4305.11 1032.43   1
  -9  24   9 4890.08 980.796   3
  15 -24   9 4657.70 907.542   2
 -24   9   9 3036.78 898.257   3
  24 -15   9 3670.73 963.230   1
 -15  -9   9 3537.27 865.998   3
  14 -24  -7 1594.03 660.413   2
 -14 -10  -7 1553.16 658.341   4
  14 -24  -7 914.674 536.359   4
 -14 -10  -4 1401.08 554.950   4
 -24  10  -4 1707.67 798.285   3
 -14 -10  -4 2072.17 646.233   3
 -14 -10  -4 1854.97 567.751   2
  14 -24  -4 1957.52 575.625   4
  14 -24  -4 1630.12 581.231   2
 -24  10  -1 2721.23 788.721   3
 -14 -10  -1 1981.41 631.408   3
  24 -14  -1 2805.98 721.910   2
 -14 -10  -1 3341.40 733.518   4
  24 -14  -1 3120.23 401.069   1
  14 -24  -1 2955.98 617.136   4
  14 -24  -1 3192.26 719.549   2
  24 -14  -1 1698.83 317.896   1
 -14 -10  -1 3825.39 773.880   2
  24 -14   2 3687.72 723.053   2
 -10  24   2 4101.80 466.758   3
 -14 -10   2 4801.45 758.585   4
 -14 -10   2 3418.30 900.055   2
  24 -14   2 5690.35 703.631   1
  10  14   2 3830.89 608.326   1
  14 -24   2 4956.48 753.873   4
  14 -24   2 3728.39 822.215   2
 -10  24   2 3630.76 386.460   3
 -24  10   2 4336.97 936.832   3
 -14 -10   2 5370.70 838.176   3
 -14 -10   5 2819.66 670.398   3
 -10  24   5 1666.47 503.687   1
  24 -14   5 3220.64 652.790   2
 -14 -10   5 1883.25 582.518   4
 -14 -10   5 2485.12 856.620   2
  14 -24   5 1264.49 458.407   4
 -10  24   5 2049.29 495.987   3
  24 -14   5 2276.56 637.619   1
  14 -24   5 2234.76 674.981   2
  10  14   5 3923.24 788.593   1
 -24  10   5 2370.70 726.438   3
 -10  24   8 2274.72 711.082   1
 -14 -10   8 1873.27 572.600   4
 -14 -10   8 1642.19 777.065   2
  10  14   8 2441.93 771.651   1
  14 -24   8 885.716 711.314   1
  14 -24   8 587.142 395.513   4
 -10  24   8 1177.89 606.416   3
  14 -24   8 1905.37 689.000   2
 -24  10   8 873.302 679.025   3
  24 -14   8 2611.39 816.733   1
 -14 -10   8 1226.86 661.874   3
 -13 -11  -8 8051.72 1053.89   4
  13 -24  -8 5327.19 862.658   4
  13 -24  -8 5158.30 944.156   2
  13 -24  -5 3289.70 732.095   2
 -24  11  -5 733.745 608.435   3
 -13 -11  -5 1988.13 635.278   4
 -13 -11  -5 2856.88 574.949   2
  13 -24  -5 2489.71 638.198   4
  24 -13  -2 3972.78 323.367   1
 -13 -11  -2 5585.22 845.647   3
 -24  11  -2 4296.24 904.423   3
 -13 -11  -2 6676.21 882.946   4
 -13 -11  -2 4695.85 795.469   2
  24 -13  -2 4984.30 360.687   1
  13 -24  -2 6344.60 811.277   4
  13 -24  -2 4965.49 856.045   2
 -24  11   1 2551.70 685.452   3
 -13 -11   1 2951.75 682.015   3
 -11  24   1 2335.76 305.984   3
 -13 -11   1 4004.23 719.221   4
  24 -13   1 3694.18 535.772   1
  13 -24   1 4180.00 670.480   4
 -13 -11   1 3698.02 776.693   2
  13 -24   1 4311.46 801.699   2
  11  13   1 3521.33 552.701   1
 -11  24   1 2930.31 310.358   3
  11  13   4 3925.59 664.001   1
 -13 -11   4 3130.89 681.072   3
 -13 -11   4 3541.69 657.130   4
 -13 -11   4 4161.09 962.042   2
  13 -24   4 4185.62 714.575   4
  24 -13   4 4976.57 763.682   1
 -11  24   4 3301.72 646.154   1
 -11  24   4 4350.63 598.918   3
  13 -24   4 3740.63 779.345   2
 -24  11   4 4865.64 888.718   3
 -13 -11   7 454.380 389.721   4
 -13 -11   7 202.816 644.035   2
  11  13   7 1221.51 542.237   1
 -13 -11   7 954.676 421.152   1
 -11  24   7 245.619 432.089   1
  13 -24   7 328.686 367.765   4
 -11  24   7 792.983 580.950   3
  13 -24   7 773.149 572.296   2
 -24  11   7-81.3374 617.910   3
  24 -13   7 363.454 486.561   1
 -13 -11   7 849.191 555.754   3
  12 -24  -9 1815.47 695.342   2
 -12 -12  -9 2686.98 730.455   4
  12 -24  -9 1727.65 603.590   4
  12 -24  -6 2832.02 744.438   2
 -24  12  -6 3757.97 1071.73   3
 -12 -12  -6 3887.82 797.413   4
  12 -24  -6 1731.81 521.604   4
 -12 -12  -6 2055.10 503.291   2
 -24  12  -3 4329.76 934.111   3
 -12 -12  -3 5145.54 911.048   3
 -12 -12  -3 5272.43 848.572   4
 -12 -12  -3 6005.80 854.772   2
  12 -24  -3 5214.98 775.743   4
  12 -24  -3 4804.65 824.000   2
 -24  12   0 3118.31 768.496   3
  12  12   0 3136.47 487.658   1
 -12 -12   0 3036.56 625.061   3
 -12 -12   0 2131.53 600.473   4
 -12 -12   0 1586.94 613.424   2
  24 -12   0 2184.02 403.107   1
  12 -24   0 2669.76 585.974   4
  12 -24   0 1950.95 648.144   2
  12  12   3 5156.63 695.497   1
 -12 -12   3 5515.77 785.859   4
 -12 -12   3 6723.84 1029.18   2
  12 -24   3 5729.28 765.432   4
  24 -12   3 5495.72 738.627   1
  12 -24   3 6535.10 966.380   2
 -12  24   3 6283.93 601.397   3
 -24  12   3 6218.48 959.627   3
 -12 -12   3 4744.50 756.056   3
 -12  24   6 2344.04 593.281   1
 -12 -12   6 4379.01 693.020   4
 -12 -12   6 2213.48 807.850   2
  12  12   6 3303.43 693.939   1
  12 -24   6 2762.52 577.410   4
  12 -24   6 3368.30 762.106   2
 -12  24   6 3226.21 660.483   3
 -24  12   6 1262.15 681.854   3
  24 -12   6 3039.87 738.378   1
 -12 -12   6 3227.83 679.900   3
  24 -12   9 1203.52 863.774   1
  12  12   9 748.411 622.182   1
 -12  24   9 2716.68 751.500   1
 -12 -12   9 2150.68 872.529   2
  12 -24   9 1738.44 700.650   1
 -12  24   9 2810.78 882.606   3
  12 -24   9 2054.78 752.579   2
 -24  12   9 1606.08 824.613   3
 -12 -12   9 1530.03 680.657   3
  11 -24  -7 749.366 502.112   2
 -24  13  -7 914.278 740.354   3
 -11 -13  -7 85.4020 452.589   4
  11 -24  -7-673.453 509.411   4
 -24  13  -4 5045.74 1065.92   3
 -11 -13  -4 4904.75 771.742   4
 -11 -13  -4 3927.36 735.044   2
  11 -24  -4 5647.02 786.089   4
  11 -24  -4 4655.33 878.914   2
 -24  13  -1 3965.01 759.563   3
 -11 -13  -1 4592.21 746.694   3
 -11 -13  -1 4051.17 761.080   4
 -11 -13  -1 3481.29 753.954   2
  11 -24  -1 3870.95 670.480   4
  24 -11  -1 2749.01 315.310   1
  13  11  -1 3928.70 520.842   1
  11 -24  -1 2921.28 671.636   2
 -11 -13   2 6471.78 816.798   3
  13  11   2 7169.41 748.186   1
 -11 -13   2 6873.83 904.940   4
 -11 -13   2 6669.84 1026.70   2
  11 -24   2 5861.57 749.849   4
  24 -11   2 5878.37 663.777   1
  11 -24   2 7674.44 1039.06   2
 -13  24   2 6092.70 538.800   3
 -24  13   2 4138.23 845.024   3
 -11 -13   5 1643.00 528.109   3
 -13  24   5 1454.23 517.456   1
 -11 -13   5 929.967 462.063   4
 -11 -13   5 2260.17 719.396   2
  13  11   5 1531.26 495.182   1
  11 -24   5 2363.65 541.879   4
  11 -24   5 1927.08 672.962   2
 -13  24   5 2272.99 530.019   3
 -24  13   5 1993.42 755.816   3
  24 -11   5 2521.21 598.278   1
  24 -11   8 5277.71 957.151   1
  11 -24   8 5876.20 1082.38   1
 -11 -13   8 6585.53 822.101   4
 -11 -13   8 5956.55 1208.32   2
 -11 -13   8 4143.74 722.925   1
  11 -24   8 5947.91 733.886   4
  11 -24   8 6886.82 1082.03   2
  13  11   8 4995.46 909.744   1
 -13  24   8 5096.71 922.026   3
 -24  13   8 6432.81 1088.65   3
 -11 -13   8 6824.24 926.147   3
 -13  24   8 7389.18 991.541   1
  10 -24  -8 1504.03 635.015   2
 -10 -14  -8 1931.11 696.637   4
  10 -24  -8 1912.48 626.580   4
 -24  14  -5 1107.84 709.986   3
 -10 -14  -5 1326.76 517.262   4
  10 -24  -5 2556.25 614.924   4
 -10 -14  -5 2642.18 573.542   2
  10 -24  -5 2863.11 709.607   2
 -24  14  -2 5108.44 905.858   3
 -10 -14  -2 4299.39 741.666   3
 -10 -14  -2 6117.34 879.078   4
 -10 -14  -2 4283.44 800.589   2
  10 -24  -2 5168.18 773.300   4
  10 -24  -2 3554.17 732.891   2
 -24  14   1 4284.23 815.917   3
 -10 -14   1 3468.27 659.705   3
 -10 -14   1 3088.16 656.246   4
  14  10   1 3087.78 511.447   1
 -10 -14   1 1333.39 557.880   2
  10 -24   1 3868.74 671.820   4
  24 -10   1 3842.07 521.323   1
  10 -24   1 3248.06 778.392   2
 -14  24   1 2804.76 400.351   3
 -10 -14   4 2680.59 610.513   3
 -10 -14   4 2876.70 635.622   4
 -10 -14   4 1728.34 680.477   2
  14  10   4 2527.02 597.908   1
  10 -24   4 2072.17 531.707   4
  10 -24   4 2926.85 784.194   2
 -14  24   4 2063.25 470.594   3
 -24  14   4 1607.23 646.193   3
  24 -10   4 3070.65 599.509   1
  24 -10   7 1267.90 650.574   1
  14  10   7 642.223 468.785   1
 -10 -14   7 730.748 463.343   4
 -10 -14   7 1091.96 635.514   2
  10 -24   7 2077.02 497.936   4
  10 -24   7 1700.57 714.078   2
 -14  24   7 1817.00 600.900   3
 -24  14   7 232.645 568.542   3
 -10 -14   7 1393.91 507.198   3
 -14  24   7 1461.72 541.864   1
   9 -24  -9 2140.00 676.263   2
  -9 -15  -9 3146.31 756.275   4
   9 -24  -9 2062.76 648.687   4
 -24  15  -6 1216.77 764.392   3
  -9 -15  -6 1309.08 584.586   4
   9 -24  -6 2927.13 665.019   4
  -9 -15  -6 3175.73 629.576   2
   9 -24  -6 904.494 621.343   2
 -24  15  -3 2746.28 804.911   3
  -9 -15  -3 887.491 495.382   4
   9 -24  -3 2116.86 553.278   4
  -9 -15  -3 1997.14 613.930   2
   9 -24  -3 2638.21 685.375   2
  -9 -15   0 6506.41 755.526   3
  -9 -15   0 6965.87 862.804   4
  -9 -15   0 6553.89 950.814   2
   9 -24   0 6688.66 829.010   4
   9 -24   0 7123.54 963.664   2
  15   9   0 7359.12 660.018   1
  24  -9   0 7225.50 535.341   1
 -24  15   0 5973.01 951.173   3
 -15  24   0 6441.42 554.339   3
  -9 -15   3 7553.71 1105.64   2
  -9 -15   3 8104.31 908.430   4
   9 -24   3 9825.93 954.756   4
   9 -24   3 8549.71 1161.76   2
  24  -9   3 8278.29 830.126   1
 -15  24   3 8994.05 742.198   3
  15   9   3 9097.23 873.002   1
 -24  15   3 9755.60 1096.04   3
  -9 -15   3 7898.59 898.806   3
  -9 -15   6 6750.90 1174.10   2
  -9 -15   6 7630.57 869.721   4
   9 -24   6 8216.74 883.550   4
   9 -24   6 7292.77 1182.81   2
 -15  24   6 7512.62 869.860   1
  15   9   6 8001.61 967.790   1
 -15  24   6 8692.57 952.026   3
  24  -9   6 8598.00 1019.65   1
 -24  15   6 8263.26 1120.78   3
  -9 -15   6 7290.38 885.639   3
  15   9   9 5286.95 957.603   1
  24  -9   9 2868.58 893.914   1
  -9 -15   9 2565.51 944.145   2
   9 -24   9 4118.05 1036.74   1
 -15  24   9 3629.12 803.117   1
   9 -24   9 2833.56 887.389   2
 -15  24   9 2768.34 817.573   3
 -24  15   9 3841.55 1004.88   3
   8 -24  -7 814.940 528.817   2
  -8 -16  -7 706.019 478.907   4
   8 -24  -7-67.5297 452.991   4
  -8 -16  -7 832.156 479.668   2
 -24  16  -4 6133.50 1058.70   3
  -8 -16  -4 7471.27 937.184   4
  -8 -16  -4 7247.42 939.306   2
   8 -24  -4 6170.21 863.346   4
   8 -24  -4 8761.67 1047.76   2
 -16  24  -1 2076.78 370.561   3
 -24  16  -1 3872.58 803.421   3
  -8 -16  -1 1944.81 489.449   3
  24  -8  -1 2426.07 239.220   1
  -8 -16  -1 3232.78 675.922   4
   8 -24  -1 4855.51 754.158   4
  -8 -16  -1 3109.35 830.938   2
  16   8  -1 3037.42 444.541   1
   8 -24  -1 3515.47 797.020   2
  16   8   2 7998.32 772.344   1
  -8 -16   2 7068.11 798.879   3
  -8 -16   2 6460.89 831.737   4
   8 -24   2 9059.07 930.302   4
  -8 -16   2 5555.39 923.419   2
   8 -24   2 8897.75 1157.03   2
  24  -8   2 6812.57 680.021   1
 -16  24   2 6469.39 669.851   3
 -24  16   2 6749.23 957.831   3
  -8 -16   5 2029.67 544.639   3
  24  -8   5 932.936 521.686   1
  16   8   5 2277.52 677.903   1
  -8 -16   5 2442.30 608.211   4
  -8 -16   5 2169.74 747.441   2
   8 -24   5 2546.78 553.838   4
   8 -24   5 1225.49 627.876   2
 -16  24   5 2311.32 577.259   3
 -24  16   5 2073.05 681.433   3
 -16  24   8 2195.20 617.203   1
  24  -8   8 3042.71 829.148   1
   8 -24   8 3402.56 947.621   1
  -8 -16   8 3967.74 795.387   1
  -8 -16   8 2458.37 890.343   2
   8 -24   8 2996.20 596.101   4
   8 -24   8 4529.69 1066.60   2
 -16  24   8 3555.34 806.656   3
 -24  16   8 4090.48 920.590   3
  -8 -16   8 4058.02 730.864   3
  16   8   8 3507.38 840.722   1
   7 -24  -8 2056.66 641.930   2
   7 -24  -8 2202.69 643.481   4
 -24  17  -5 3294.38 825.411   3
  -7 -17  -5 3656.16 722.834   4
   7 -24  -5 4187.59 750.417   4
  -7 -17  -5 3774.33 747.286   2
   7 -24  -5 4716.87 835.483   2
 -24  17  -2 1429.04 620.924   3
 -17  24  -2 423.273 262.374   3
  -7 -17  -2 925.146 516.986   4
   7 -24  -2 1081.24 457.793   4
  -7 -17  -2 352.020 569.939   2
   7 -24  -2 1553.40 761.333   2
 -24  17   1 581.935 472.466   3
  -7 -17   1 806.643 421.975   3
  17   7   1 1146.94 359.336   1
  -7 -17   1 690.347 459.284   4
  -7 -17   1 1754.26 690.026   2
   7 -24   1 1282.89 419.799   4
   7 -24   1 1029.86 713.901   2
  24  -7   1 906.751 322.848   1
 -17  24   1 881.457 359.449   3
  -7 -17   4 2640.50 582.307   3
  24  -7   4 1837.64 454.499   1
  17   7   4 2293.50 570.249   1
  -7 -17   4 2531.45 571.544   4
  -7 -17   4 2042.46 699.954   2
   7 -24   4 2177.42 535.179   4
   7 -24   4 2661.32 706.347   2
 -17  24   4 1428.58 475.099   3
 -24  17   4 3097.37 751.202   3
 -17  24   7 2997.08 638.419   1
  24  -7   7 2552.70 722.573   1
  -7 -17   7 3330.55 640.200   4
  -7 -17   7 4429.37 985.836   2
   7 -24   7 2899.27 623.304   4
   7 -24   7 3153.27 812.552   2
 -17  24   7 2897.15 693.824   3
  -7 -17   7 2895.03 656.861   3
 -24  17   7 3636.36 905.619   3
  17   7   7 2377.55 703.400   1
  -6 -18  -9 1654.74 647.204   4
   6 -24  -9 3113.94 781.230   4
 -24  18  -6 5125.72 961.349   3
  -6 -18  -6 7851.11 1000.56   4
   6 -24  -6 6914.00 932.342   4
  -6 -18  -6 6414.95 895.583   2
   6 -24  -6 6538.32 909.099   2
 -24  18  -3 4709.80 952.702   3
 -18  24  -3 3782.92 491.748   3
  -6 -18  -3 2423.91 612.989   4
  -6 -18  -3 4930.47 873.594   2
   6 -24  -3 3416.90 686.442   4
   6 -24  -3 3710.04 761.221   2
  -6 -18   0 6717.17 695.212   3
  24  -6   0 8005.09 534.539   1
  -6 -18   0 8220.94 1007.09   4
  -6 -18   0 9287.50 1163.48   2
   6 -24   0 7976.68 949.087   4
  18   6   0 8445.48 678.889   1
   6 -24   0 6974.28 1120.34   2
 -24  18   0 6725.27 935.548   3
 -18  24   0 6093.95 660.068   3
  -6 -18   3 1965.30 485.337   3
  24  -6   3 2440.40 538.190   1
  18   6   3 2147.87 522.946   1
  -6 -18   3 2248.51 584.411   4
  -6 -18   3 1326.59 630.092   2
   6 -24   3 3158.31 620.691   4
   6 -24   3 2991.65 860.335   2
 -18  24   3 2521.39 525.296   3
 -24  18   3 1958.40 650.112   3
  -6 -18   6 8744.83 1288.91   2
  -6 -18   6 6954.49 872.792   4
   6 -24   6 9373.07 947.929   4
  18   6   6 6538.34 912.976   1
   6 -24   6 6158.57 1069.49   2
 -18  24   6 4633.51 813.434   3
 -24  18   6 7047.28 1076.71   3
  24  -6   6 7281.27 958.806   1
  -6 -18   6 7623.99 842.654   3
  24  -6   9 2080.49 791.552   1
  -6 -18   9 6424.21 1286.93   2
 -18  24   9 4090.26 762.415   1
   6 -24   9 5982.07 1141.23   1
  -6 -18   9 3653.58 862.487   1
   6 -24   9 2516.92 911.274   2
 -18  24   9 5441.48 1041.81   3
 -24  18   9 4008.52 964.082   3
  18   6   9 4218.06 955.815   1
  -5 -19  -7 3646.44 768.597   4
   5 -24  -7 4417.49 819.879   4
  -5 -19  -7 3413.62 654.743   2
   5 -24  -7 3185.98 700.294   2
 -24  19  -4 2871.32 800.047   3
  -5 -19  -4 4593.56 812.963   4
   5 -24  -4 3358.35 712.489   4
  -5 -19  -4 4358.74 810.245   2
   5 -24  -4 4283.74 816.315   2
  24  -5  -1 3015.63 246.972   1
 -19  24  -1 3334.00 575.019   3
 -24  19  -1 2872.70 720.469   3
  19   5  -1 3694.88 440.516   1
  -5 -19  -1 4301.29 847.346   4
   5 -24  -1 4025.35 748.422   4
  -5 -19  -1 4713.06 901.426   2
   5 -24  -1 3338.22 826.990   2
  24  -5   2 3911.72 540.601   1
  -5 -19   2 2848.53 459.484   3
  -5 -19   2 3312.56 630.988   4
   5 -24   2 4060.10 712.069   4
  -5 -19   2 3456.56 861.197   2
   5 -24   2 3920.60 897.020   2
  19   5   2 3253.22 515.030   1
 -19  24   2 3349.07 567.984   3
 -24  19   2 3253.79 712.987   3
  -5 -19   5 1547.82 431.389   3
  24  -5   5 2296.57 628.927   1
  -5 -19   5 1846.65 554.110   4
   5 -24   5 3233.77 658.825   4
  -5 -19   5 1210.39 711.852   2
   5 -24   5 2679.78 788.642   2
 -19  24   5 2746.08 640.283   3
 -24  19   5 2454.53 673.517   3
  19   5   5 2557.75 604.462   1
  24  -5   8 1434.08 668.865   1
  -5 -19   8 2331.68 882.397   2
 -19  24   8 2577.41 650.178   1
   5 -24   8 2483.53 906.748   2
 -19  24   8 1976.85 694.884   3
  19   5   8 2339.46 707.300   1
 -24  19   8 1795.17 818.505   3
   4 -24  -8 1257.96 591.088   2
  -4 -20  -8 2078.80 719.914   4
   4 -24  -8 179.885 508.261   4
 -24  20  -5 4773.81 893.783   3
  -4 -20  -5 4044.39 791.034   4
   4 -24  -5 3826.79 756.172   4
  -4 -20  -5 2857.09 700.560   2
   4 -24  -5 4311.60 814.818   2
 -24  20  -2-721.911 622.664   3
 -20  24  -2 1234.96 488.830   3
  -4 -20  -2 614.435 529.264   4
   4 -24  -2 797.018 496.878   4
  -4 -20  -2 1005.51 567.363   2
   4 -24  -2 1201.14 620.262   2
  20   4   1 6776.08 659.632   1
 -24  20   1 4339.63 782.288   3
  24  -4   1 6396.24 590.918   1
  -4 -20   1 6952.54 906.254   4
  -4 -20   1 7696.60 1180.29   2
   4 -24   1 7248.56 886.596   4
   4 -24   1 5701.25 1075.70   2
 -20  24   1 5284.10 689.916   3
  20   4   4 1618.98 501.165   1
  -4 -20   4 1940.69 588.827   4
  24  -4   4 1616.38 459.286   1
   4 -24   4 1335.70 457.980   4
  -4 -20   4 849.063 713.705   2
   4 -24   4 2119.55 729.234   2
 -20  24   4 1088.28 493.386   3
 -24  20   4 2882.44 686.119   3
  24  -4   7 2974.73 788.291   1
  -4 -20   7 2240.71 660.564   4
  -4 -20   7 2465.41 814.955   2
   4 -24   7 3395.85 656.080   4
   4 -24   7 2058.11 886.714   2
  20   4   7 2763.81 788.411   1
 -20  24   7 2980.96 782.086   3
 -24  20   7 1746.98 719.371   3
   3 -24  -6 5181.50 937.813   4
  -3 -21  -6 4087.24 809.097   4
  -3 -21  -6 3634.53 757.400   2
   3 -24  -6 3749.87 772.538   2
 -24  21  -3 2286.50 747.365   3
 -21  24  -3 1070.18 459.332   3
  -3 -21  -3 2410.96 638.048   4
   3 -24  -3 814.174 470.829   4
  -3 -21  -3 1559.30 619.785   2
   3 -24  -3 867.923 561.944   2
  21   3   0 8764.01 658.608   1
  -3 -21   0 9592.22 1053.73   4
   3 -24   0 8566.99 1028.32   4
  -3 -21   0 8682.67 1176.21   2
   3 -24   0 9551.31 1231.40   2
  24  -3   0 9685.43 603.391   1
 -24  21   0 8654.20 1024.37   3
 -21  24   0 8063.34 912.522   3
  21   3   3 1500.77 412.069   1
  -3 -21   3 890.899 445.398   4
   3 -24   3 1953.30 541.058   4
  -3 -21   3 1163.23 621.516   2
  24  -3   3 1571.25 481.145   1
   3 -24   3 1882.16 789.661   2
 -21  24   3 234.758 392.670   3
 -24  21   3 421.339 438.826   3
  24  -3   6 10006.7 1142.43   1
  21   3   6 9629.28 1138.41   1
  -3 -21   6 12114.1 1108.18   4
  -3 -21   6 11559.0 1476.47   2
   3 -24   6 12328.0 1110.35   4
   3 -24   6 10463.5 1440.05   2
 -21  24   6 10321.1 1184.14   3
 -24  21   6 10512.2 1229.45   3
  -2 -22  -7 2967.27 718.425   4
   2 -24  -7 2727.46 693.161   4
  -2 -22  -7 3004.59 715.563   2
   2 -24  -7 2742.30 694.319   2
 -24  22  -4 1838.92 626.301   3
 -22  24  -4 2254.47 615.066   3
  -2 -22  -4 1472.04 595.884   4
   2 -24  -4 1132.22 575.395   4
  -2 -22  -4 1861.62 702.944   2
   2 -24  -4 1581.99 630.917   2
  22   2  -1 3889.05 395.878   1
 -24  22  -1 2695.31 761.441   3
 -22  24  -1 3778.47 707.319   3
  -2 -22  -1 3332.58 731.482   4
   2 -24  -1 4128.88 760.408   4
  -2 -22  -1 4254.21 871.471   2
   2 -24  -1 4033.78 891.615   2
  24  -2  -1 3266.21 284.263   1
 -24  22   2 412.077 458.100   3
  24  -2   2 2737.74 487.942   1
  -2 -22   2 2184.32 660.999   4
   2 -24   2 2322.67 595.002   4
  -2 -22   2 4440.34 946.625   2
   2 -24   2 1406.30 623.804   2
  22   2   2 2847.69 512.431   1
 -22  24   2 2816.13 592.697   3
  -2 -22   5 1689.12 581.553   4
   2 -24   5 1791.33 590.676   4
  -2 -22   5 1070.56 773.434   2
  24  -2   5 1513.72 561.374   1
   2 -24   5 1632.13 735.720   2
  22   2   5 1936.59 559.121   1
 -22  24   5 639.949 524.096   3
 -24  22   5 1048.19 581.218   3
  24  -2   8 1842.94 726.092   1
  -2 -22   8 3444.09 1048.62   2
   2 -24   8 1556.23 873.661   2
  22   2   8 1774.50 742.399   1
 -22  24   8 1472.23 765.975   3
 -24  22   8 1793.20 784.239   3
  -1 -23  -8 1849.75 690.244   4
   1 -24  -8-296.881 519.613   4
 -24  23  -5 1793.96 679.475   3
  -1 -23  -5 2628.86 792.324   4
   1 -24  -5 1819.82 698.377   4
  -1 -23  -5 2132.94 741.749   2
   1 -24  -5 1581.33 629.395   2
 -24  23  -2 1420.52 672.857   3
 -23  24  -2 1127.85 563.885   3
  -1 -23  -2 1365.73 589.822   4
   1 -24  -2 2052.74 676.852   4
  -1 -23  -2 2948.18 823.636   2
   1 -24  -2 2230.50 733.798   2
 -23  24   1 1196.06 550.840   3
 -24  23   1 1390.44 553.862   3
  24  -1   1 798.053 324.270   1
  -1 -23   1 590.179 477.352   4
   1 -24   1 955.920 486.214   4
  23   1   1 1469.02 395.058   1
  -1 -23   1 621.075 701.758   2
   1 -24   1 1349.46 651.076   2
  -1 -23   4 975.067 513.017   4
   1 -24   4 1220.45 563.582   4
  -1 -23   4 1513.77 699.457   2
   1 -24   4 98.7862 605.151   2
  24  -1   4 134.767 395.538   1
  23   1   4 714.617 455.587   1
 -23  24   4 190.604 482.330   3
 -24  23   4 45.2492 475.263   3
  -1 -23   7 1851.55 619.252   4
   1 -24   7 1276.55 556.748   4
  -1 -23   7 1766.01 877.134   2
   1 -24   7 2710.54 899.955   2
  24  -1   7 2731.65 851.145   1
  23   1   7 2018.98 715.916   1
 -23  24   7 1348.49 720.003   3
 -24  23   7 709.664 625.725   3
   0 -24  -6 8551.46 1133.48   4
   0 -24  -6 7628.30 1042.97   2
 -24  24  -3 86.7974 523.634   3
   0 -24  -3 425.285 553.979   4
   0 -24  -3-383.911 577.912   2
  24   0   0 14238.0 779.663   1
   0 -24   0 16419.1 1404.83   4
   0 -24   0 15792.9 1573.78   2
 -24  24   0 11809.9 1150.21   3
   0 -24   3 948.477 583.909   4
   0 -24   3 1525.13 743.687   2
  24   0   3 591.576 420.164   1
 -24  24   3 877.787 529.575   3
   0 -24   6 2997.84 723.622   4
  24   0   6 1868.08 609.256   1
 -24  24   6 2553.46 807.167   3
  25 -25  -7 360.531 653.032   2
 -25   0  -7 1303.15 938.734   3
  25 -25  -7-309.288 496.885   4
  25 -25  -4 3993.22 905.744   2
 -25   0  -4 3200.81 942.651   3
  25 -25  -4 3240.32 760.054   4
  25 -25  -1 906.494 617.532   2
 -25   0  -1-117.475 621.146   3
  25 -25  -1-337.702 477.210   4
 -25   0   2 2773.35 881.569   3
  25 -25   2 4114.85 845.245   2
   0  25   2 3791.27 704.353   1
  25 -25   2 4471.04 796.821   4
 -25   0   5 343.047 632.236   3
  25 -25   5 1279.48 609.157   2
  25 -25   5 554.450 634.172   1
   0  25   5 4.89826 445.074   1
  25 -25   5 217.700 455.268   4
  24 -25  -5 2097.36 691.870   2
  25 -24  -5 4570.67 964.022   2
 -25   1  -5 3431.47 991.128   3
 -24  -1  -5 1673.45 913.065   3
  24 -25  -5 1439.73 601.270   4
  25 -24  -5 2850.81 689.021   4
  24 -25  -2 3485.10 842.741   2
 -25   1  -2 2552.22 865.915   3
  25 -24  -2 4055.28 859.496   2
 -24  -1  -2 5426.31 1115.14   3
  25 -24  -2 3961.29 769.257   4
  24 -25  -2 4029.55 736.865   4
  24 -25   1 4279.40 877.289   2
 -25   1   1 3337.71 872.122   3
  25 -24   1 5998.18 873.591   4
  24 -25   1 3304.56 705.710   4
  25 -24   1 5881.13 965.729   2
 -24  -1   1 6074.96 1134.63   3
 -25   1   4 1649.54 738.890   3
 -24  -1   4 1034.66 721.389   3
  -1  25   4 1414.46 654.039   1
  24 -25   4 818.746 565.076   2
  25 -24   4 787.024 553.638   2
  24 -25   4 1441.91 604.046   1
  25 -24   4 878.541 557.773   1
  24 -25   4 1249.26 543.082   4
  25 -24   4 940.669 477.977   4
   1  24   4 1099.22 549.081   1
   1  24   7 670.559 645.343   1
  24 -25   7 533.965 564.109   2
  25 -24   7 1151.64 650.196   2
  -1  25   7 1127.99 679.409   1
  24 -25   7 217.735 607.244   1
  25 -24   7 254.048 623.461   1
  24 -25   7 1240.92 587.615   4
  25 -24   7 1377.35 580.095   4
 -25   1   7 925.674 768.277   3
 -24  -1   7 602.066 742.873   3
  23 -25  -6 316.117 684.665   2
  25 -23  -6-219.457 611.433   2
 -25   2  -6 28.1620 743.057   3
 -23  -2  -6 647.059 776.443   3
  23 -25  -6 834.223 551.941   4
  25 -23  -6 469.091 535.014   4
  25 -23  -3 6514.47 1071.35   2
 -23  -2  -3 6638.70 1256.14   3
 -25   2  -3 5781.23 1151.71   3
  23 -25  -3 4729.95 814.031   4
  25 -23  -3 8488.94 983.784   4
  23 -25  -3 5548.77 1003.27   2
  23 -25   0 2741.12 796.543   2
 -25   2   0 2799.04 956.518   3
 -23  -2   0 2716.04 861.868   3
  25 -23   0 3403.65 783.813   2
  23 -25   0 3636.98 728.822   4
  25 -23   0 3494.23 695.390   4
   2  23   3 7386.56 925.244   1
  25 -23   3 6332.08 905.453   1
  -2  25   3 7071.77 918.684   1
  23 -25   3 8196.61 990.677   4
  25 -23   3 6985.68 932.707   4
  23 -25   3 6602.05 995.658   2
 -25   2   3 5235.94 1055.95   3
  25 -23   3 7020.25 1005.76   2
 -23  -2   3 5848.07 1073.68   3
  23 -25   6 3209.20 786.211   2
   2  23   6 1747.56 646.581   1
  25 -23   6 2716.56 753.997   2
  -2  25   6 2981.82 767.102   1
  23 -25   6 2336.88 797.656   1
  25 -23   6 2977.84 866.650   1
  23 -25   6 2084.25 590.655   4
  25 -23   6 1845.22 600.035   4
 -25   2   6 1556.17 842.276   3
 -23  -2   6 2498.05 840.355   3
  22 -25  -7 267.801 549.991   2
 -22  -3  -7-993.404 718.534   4
  22 -25  -7 161.754 544.870   4
  25 -22  -7-77.8110 447.529   4
  22 -25  -4 1508.11 674.730   2
 -25   3  -4 3803.17 1022.18   3
  25 -22  -4 3728.75 844.778   2
 -22  -3  -4 2143.84 756.165   3
  22 -25  -4 3179.42 701.554   4
  25 -22  -4 3167.57 684.512   4
  22 -25  -1 1746.34 676.363   2
 -25   3  -1 740.535 635.426   3
 -22  -3  -1-157.427 660.253   3
  25 -22  -1 969.120 522.400   2
  22 -25  -1 968.943 536.326   4
  25 -22  -1 82.6297 399.846   4
  22 -25   2 3997.88 828.781   2
 -25   3   2 2356.81 788.102   3
 -22  -3   2 3040.90 869.633   3
  25 -22   2 3133.82 681.420   1
   3  22   2 3412.04 671.676   1
  -3  25   2 2250.70 607.183   1
  22 -25   2 3711.12 724.118   4
  25 -22   2 3097.11 704.988   4
  25 -22   2 4062.29 810.309   2
 -22  -3   5 1022.96 627.972   3
  22 -25   5 1675.95 628.938   2
   3  22   5 967.767 565.621   1
  25 -22   5 362.932 508.672   2
  22 -25   5 934.844 546.437   1
  25 -22   5 506.038 561.685   1
  22 -25   5 1016.48 512.252   4
  25 -22   5 1467.37 573.793   4
  -3  25   5 1224.68 604.520   1
 -25   3   5 345.809 645.579   3
  22 -25   8 2121.95 727.405   2
  -3  25   8 2049.15 726.569   1
   3  22   8 2334.90 791.070   1
  22 -25   8 1795.86 845.101   1
  22 -25   8 2243.13 650.194   4
  25 -22   8 2134.82 851.843   1
 -25   3   8 3486.07 989.351   3
 -22  -3   8 1884.36 863.886   3
  21 -25  -8 2488.09 866.377   2
 -21  -4  -8 2429.00 796.500   4
  21 -25  -8 2057.36 637.138   4
  25 -21  -8 1337.78 624.357   4
  21 -25  -5 3750.05 878.850   2
 -25   4  -5 2792.05 874.046   3
  25 -21  -5 3496.27 927.256   2
 -21  -4  -5 3147.42 749.047   2
  25 -21  -5 4032.15 781.507   4
  21 -25  -5 4455.75 767.376   4
  21 -25  -2 2755.20 734.981   2
 -25   4  -2 1914.79 897.845   3
 -21  -4  -2 935.057 690.149   3
  25 -21  -2 1920.17 633.576   2
  21 -25  -2 1719.06 564.694   4
  25 -21  -2 3139.14 698.000   4
 -21  -4   1 6552.38 1080.38   3
  25 -21   1 4972.03 833.917   2
  25 -21   1 5576.49 831.615   4
  21 -25   1 3699.84 691.421   4
   4  21   1 7312.14 887.159   1
  21 -25   1 5470.46 939.820   2
 -25   4   1 5755.37 1041.63   3
 -25   4   4 2626.40 892.836   3
  -4  25   4 3722.55 692.110   1
   4  21   4 4180.91 716.282   1
  25 -21   4 4389.99 820.798   1
  21 -25   4 4188.36 761.885   4
  25 -21   4 3703.94 731.805   4
  21 -25   4 4645.92 877.318   2
 -21  -4   4 4991.21 1009.94   3
  25 -21   4 4666.74 820.241   2
  25 -21   7 2412.03 675.512   2
  -4  25   7 3639.82 734.995   1
   4  21   7 2442.79 779.802   1
  21 -25   7 3058.55 888.065   1
  25 -21   7 2589.07 866.045   1
  21 -25   7 2174.02 614.328   4
 -25   4   7 3772.19 980.464   3
 -21  -4   7 1485.12 746.035   3
  21 -25   7 2571.88 756.160   2
  20 -25  -6 1321.75 628.951   2
 -25   5  -6 1653.50 861.192   3
 -20  -5  -6 2030.74 756.022   3
 -20  -5  -6 1127.07 719.805   4
 -20  -5  -6 2206.93 615.125   2
  20 -25  -6 1298.49 585.980   4
  25 -20  -6 1693.44 554.662   4
 -25   5  -3 9554.81 1414.03   3
  25 -20  -3 11834.0 1279.06   2
 -20  -5  -3 11324.8 1359.81   3
 -20  -5  -3 11787.7 1248.88   2
  20 -25  -3 11538.9 1131.13   4
  25 -20  -3 11201.0 1096.95   4
  20 -25  -3 11794.3 1292.39   2
  20 -25   0 2183.25 690.559   2
 -25   5   0 198.602 561.496   3
 -20  -5   0 386.978 634.143   3
  25 -20   0 1698.04 610.414   2
  20 -25   0 910.469 438.411   4
  25 -20   0 1176.26 555.377   4
  25 -20   3 7654.46 1020.73   2
  25 -20   3 8488.44 972.099   1
  20 -25   3 10078.7 1050.30   4
  25 -20   3 9881.19 1060.16   4
  -5  25   3 8965.07 675.017   3
  -5  25   3 8521.36 981.021   1
  20 -25   3 8566.14 1075.72   2
   5  20   3 10444.1 1042.78   1
 -25   5   3 10163.0 1297.45   3
 -20  -5   3 10600.5 1235.27   3
  25 -20   6 2433.23 659.075   2
   5  20   6 3458.76 786.920   1
  20 -25   6 2920.69 764.229   1
  -5  25   6 2578.95 695.767   1
  25 -20   6 2505.52 792.156   1
  20 -25   6 2986.34 654.782   4
  20 -25   6 3057.89 807.308   2
 -25   5   6 4903.07 1060.58   3
 -20  -5   6 3108.40 877.527   3
  19 -25  -7-59.2575 573.900   2
 -25   6  -7 771.490 877.801   3
 -19  -6  -7 350.426 567.060   4
  19 -25  -7 60.2623 474.073   4
  25 -19  -7 288.827 409.776   4
 -19  -6  -4 6563.66 1116.85   3
 -25   6  -4 4810.93 1050.89   3
  25 -19  -4 4627.37 926.430   2
 -19  -6  -4 6347.96 949.390   2
  19 -25  -4 5654.32 858.331   4
  25 -19  -4 6081.44 883.374   4
  19 -25  -4 5537.46 925.104   2
  19 -25  -1-104.267 439.696   2
 -25   6  -1 1732.83 788.525   3
 -19  -6  -1 2506.26 767.252   3
  25 -19  -1 871.506 489.434   2
  19 -25  -1 854.951 421.041   4
  25 -19  -1 2070.29 588.056   4
 -19  -6   2 765.852 702.233   3
  25 -19   2-442.558 437.832   2
  25 -19   2 167.258 360.557   1
  19 -25   2 667.376 447.526   4
  25 -19   2 241.922 423.191   4
   6  19   2 5.72480 345.128   1
  -6  25   2 222.458 174.075   3
  19 -25   2 212.385 486.047   2
 -19  -6   5 1983.28 766.441   3
  25 -19   5 2436.34 592.786   2
   6  19   5 906.995 484.936   1
  19 -25   5 2988.05 641.547   4
  25 -19   5 2454.39 735.637   1
  -6  25   5 1789.99 495.949   3
  -6  25   5 2527.80 641.859   1
  19 -25   5 1973.48 709.769   2
 -25   6   5 1492.63 736.547   3
  -6  25   8 3488.66 805.442   1
 -19  -6   8 2810.45 683.400   4
  19 -25   8 1592.61 783.653   1
  19 -25   8 1313.62 504.617   4
  25 -19   8 1399.89 778.416   1
 -25   6   8 1923.82 828.450   3
   6  19   8 2281.20 730.438   1
  19 -25   8 2323.08 751.300   2
 -19  -6   8 4585.70 1034.72   3
  18 -25  -8 1430.40 704.536   2
 -18  -7  -8 3239.92 844.328   4
  18 -25  -8 2010.86 652.211   4
  18 -25  -5 3622.59 775.158   2
 -25   7  -5 2566.63 922.680   3
 -18  -7  -5 1840.69 805.115   3
 -18  -7  -5 2296.55 689.936   4
 -18  -7  -5 4530.29 762.422   2
  18 -25  -5 2781.24 716.784   4
  25 -18  -5 3404.45 692.726   4
  18 -25  -2 4233.59 808.124   2
 -25   7  -2 3361.42 885.042   3
 -18  -7  -2 2458.78 783.909   3
  25 -18  -2 4350.90 804.170   2
 -18  -7  -2 2905.36 760.057   2
  18 -25  -2 3242.52 650.947   4
  25 -18  -2 3880.05 752.378   4
 -18  -7   1 9952.05 1204.43   3
  25 -18   1 11580.2 1179.77   2
   7  18   1 13178.6 1049.32   1
  25 -18   1 11805.4 961.103   1
  18 -25   1 12898.5 1159.49   4
  25 -18   1 12407.2 1148.54   4
  18 -25   1 13967.3 1365.29   2
 -25   7   1 11234.8 1319.68   3
 -18  -7   4 1086.50 594.591   3
  25 -18   4 1121.96 532.689   2
  -7  25   4 1323.60 534.337   1
  18 -25   4 1418.08 512.361   4
  25 -18   4 1582.70 603.046   1
   7  18   4 1565.68 531.893   1
  -7  25   4 1026.48 377.542   3
  18 -25   4 1664.80 640.238   2
 -25   7   4 2933.34 824.432   3
  25 -18   7 3101.67 653.042   2
 -18  -7   7 5604.13 863.853   4
  18 -25   7 3661.03 928.581   1
  18 -25   7 4771.39 746.850   4
  -7  25   7 4487.06 795.048   3
  18 -25   7 5984.73 979.479   2
  -7  25   7 7109.21 959.187   1
  25 -18   7 4591.08 952.191   1
 -25   7   7 3125.82 884.973   3
   7  18   7 4678.29 836.571   1
 -18  -7   7 3763.16 844.682   3
  17 -25  -9 3469.92 874.782   2
 -17  -8  -9 5399.60 972.658   4
  17 -25  -9 3848.76 792.423   4
  17 -25  -6 2034.83 757.688   2
 -25   8  -6 851.750 779.612   3
 -17  -8  -6 295.059 504.291   4
 -17  -8  -6 534.812 471.282   2
  17 -25  -6 330.408 460.790   4
  25 -17  -6 183.072 402.009   4
 -25   8  -3 13666.6 1587.57   3
 -17  -8  -3 14697.5 1433.96   3
  25 -17  -3 15512.8 1412.54   2
 -17  -8  -3 16595.4 1478.11   4
 -17  -8  -3 14926.4 1350.52   2
  17 -25  -3 14512.6 1230.86   4
  25 -17  -3 17683.5 1339.79   4
  17 -25  -3 18991.0 1548.08   2
 -25   8   0 1196.54 696.378   3
 -17  -8   0 1442.81 629.838   3
  25 -17   0 1627.26 577.761   2
 -17  -8   0 1524.51 740.548   2
  25 -17   0 1183.99 403.515   1
  17 -25   0 2198.57 558.544   4
  25 -17   0 1908.30 521.664   4
   8  17   0 1469.46 502.916   1
  17 -25   0 1448.92 606.169   2
 -25   8   3 3977.57 896.755   3
  25 -17   3 8007.59 955.639   2
 -17  -8   3 7519.16 996.795   4
  25 -17   3 7820.87 908.355   1
   8  17   3 8104.36 889.032   1
  17 -25   3 7107.06 867.030   4
  -8  25   3 6910.44 867.630   1
  -8  25   3 6505.27 568.619   3
  17 -25   3 6786.48 963.334   2
 -17  -8   3 5468.69 942.145   3
 -17  -8   6 2841.88 950.551   2
  25 -17   6 1659.51 532.463   2
 -17  -8   6 2164.05 597.906   4
  17 -25   6 3102.49 624.995   4
  -8  25   6 1986.08 608.091   1
  -8  25   6 3009.05 640.318   3
  25 -17   6 1810.34 682.066   1
  17 -25   6 1938.53 622.324   2
 -25   8   6 2337.58 796.730   3
   8  17   6 2210.20 715.544   1
 -17  -8   6 2145.58 741.980   3
  -8  25   9 2983.25 825.959   1
 -17  -8   9 3707.30 1090.27   2
  17 -25   9 5483.51 1099.30   1
   8  17   9 3286.34 881.866   1
  -8  25   9 3821.01 863.795   3
  25 -17   9 3597.24 1022.97   1
  17 -25   9 3703.45 905.737   2
 -25   8   9 3326.28 991.191   3
 -17  -8   9 3978.70 979.691   3
  16 -25  -7 1125.91 640.818   2
 -25   9  -7-309.214 704.057   3
 -16  -9  -7 1369.66 611.081   4
  16 -25  -7 510.954 487.836   4
  16 -25  -4 1599.05 645.852   2
 -25   9  -4 844.151 610.410   3
 -16  -9  -4 676.001 525.823   3
 -16  -9  -4 2417.14 740.660   4
 -16  -9  -4-284.917 509.185   2
  16 -25  -4 1320.53 567.943   4
  25 -16  -4 1635.29 519.513   4
 -25   9  -1 1129.30 629.325   3
 -16  -9  -1 987.848 566.903   3
  25 -16  -1 2338.86 712.821   2
 -16  -9  -1 319.379 407.453   4
 -16  -9  -1 505.540 545.395   2
  25 -16  -1 833.258 322.732   1
  16 -25  -1 1315.67 461.551   4
  25 -16  -1 1145.00 445.895   4
  16 -25  -1 1547.71 651.757   2
 -25   9   2 3709.44 827.013   3
 -16  -9   2 2605.49 624.743   3
  25 -16   2 3555.54 698.543   2
   9  16   2 3540.89 595.188   1
 -16  -9   2 4064.96 962.409   2
 -16  -9   2 2934.10 655.327   4
  16 -25   2 2197.58 528.928   4
  25 -16   2 2382.58 547.436   1
  -9  25   2 1932.87 289.791   3
  16 -25   2 3159.49 783.660   2
 -16  -9   5 1686.70 620.991   3
   9  16   5 1065.32 488.946   1
  25 -16   5 1707.76 563.533   2
  -9  25   5 859.314 495.949   1
 -16  -9   5 1612.42 568.112   4
 -16  -9   5 2178.55 831.513   2
  16 -25   5 618.641 449.895   4
  25 -16   5 2078.53 675.321   1
  -9  25   5 1798.42 489.746   3
  16 -25   5 736.958 584.677   2
 -25   9   5 1003.58 679.436   3
  -9  25   8 1814.62 643.427   1
 -16  -9   8 843.163 518.477   4
 -16  -9   8 1188.13 864.344   2
  16 -25   8 3255.71 918.180   1
   9  16   8 743.663 643.859   1
  16 -25   8 797.426 452.548   4
  -9  25   8 2172.48 667.891   3
  16 -25   8 98.6707 540.764   2
  25 -16   8 1176.78 672.527   1
 -25   9   8 2521.78 829.594   3
 -16  -9   8 463.041 582.214   3
  15 -25  -8 705.586 588.757   2
 -15 -10  -8 960.380 681.358   4
  15 -25  -8 1391.94 574.616   4
 -25  10  -5 5676.36 1112.76   3
 -15 -10  -5 7950.01 1040.20   4
 -15 -10  -5 6938.48 874.068   2
  15 -25  -5 7775.42 952.690   4
  15 -25  -5 7333.75 1005.19   2
 -25  10  -2 4611.32 1021.50   3
 -15 -10  -2 2369.88 608.141   3
 -15 -10  -2 2590.60 645.159   4
  25 -15  -2 3720.59 394.016   1
  15 -25  -2 4562.13 754.302   4
  25 -15  -2 6143.90 814.160   4
  15 -25  -2 4453.17 823.643   2
 -15 -10  -2 3148.16 742.950   2
 -25  10   1 997.029 578.636   3
 -10  25   1 1078.22 185.180   3
 -15 -10   1 1806.74 624.062   3
  25 -15   1 2276.14 612.002   2
 -15 -10   1 2614.98 634.816   4
 -15 -10   1 907.888 587.052   2
  15 -25   1 1111.42 485.606   4
  10  15   1 1784.58 468.559   1
  25 -15   1 2187.18 473.848   1
  15 -25   1 2059.03 700.129   2
 -10  25   1 1324.64 183.326   3
 -15 -10   4 4249.63 810.858   3
  10  15   4 3275.81 621.637   1
  25 -15   4 2167.44 578.354   2
 -15 -10   4 4784.72 803.850   4
 -15 -10   4 4001.52 952.327   2
  25 -15   4 4597.51 742.933   1
 -10  25   4 3241.85 628.571   1
  15 -25   4 3895.45 660.597   4
 -10  25   4 4795.33 592.059   3
  15 -25   4 2845.27 731.601   2
 -25  10   4 5376.74 970.751   3
  15 -25   7 5459.96 994.641   1
 -15 -10   7 6018.37 866.145   4
 -15 -10   7 3794.70 1035.46   2
  15 -25   7 4729.69 722.089   4
  25 -15   7 5070.21 997.924   1
  10  15   7 4008.77 834.473   1
  15 -25   7 5961.21 996.669   2
 -10  25   7 4772.65 800.969   3
 -15 -10   7 5831.46 929.004   3
 -10  25   7 5280.68 910.280   1
 -25  10   7 2914.34 846.228   3
  14 -25  -9 4298.33 924.962   2
 -14 -11  -9 4735.84 916.284   4
  14 -25  -9 5386.26 906.432   4
  14 -25  -6 2128.45 709.348   2
 -25  11  -6 342.450 637.368   3
 -14 -11  -6 2586.07 689.742   4
  14 -25  -6 1279.70 525.435   4
 -14 -11  -6 1886.74 581.474   2
 -25  11  -3 5735.40 1098.96   3
 -14 -11  -3 6452.44 961.813   3
 -14 -11  -3 5879.63 884.616   4
 -14 -11  -3 5696.52 888.733   2
  14 -25  -3 5429.99 823.356   4
  14 -25  -3 4729.39 839.055   2
 -14 -11   0 2789.36 726.489   3
 -14 -11   0 4284.10 834.143   2
 -14 -11   0 2577.00 690.155   4
  25 -14   0 4224.24 522.439   1
  11  14   0 2630.04 514.443   1
  14 -25   0 3185.72 645.706   4
  14 -25   0 2279.54 657.263   2
 -25  11   0 4393.40 971.488   3
 -14 -11   3 2496.86 692.511   3
  25 -14   3 2385.64 648.520   2
 -14 -11   3 4145.13 796.811   4
 -14 -11   3 3073.14 823.550   2
  11  14   3 2492.22 536.439   1
  14 -25   3 3138.95 622.765   4
 -11  25   3 2660.18 433.715   3
  25 -14   3 2722.22 601.489   1
  14 -25   3 3636.60 758.249   2
 -25  11   3 3892.89 882.475   3
 -11  25   6 2947.12 719.460   1
 -14 -11   6 3413.02 701.289   4
 -14 -11   6 2889.99 957.088   2
  14 -25   6 4180.15 693.748   4
  11  14   6 3440.77 729.286   1
 -11  25   6 3407.78 667.310   3
  14 -25   6 3780.39 837.575   2
  25 -14   6 2477.63 686.138   1
 -25  11   6 2176.13 797.841   3
 -14 -11   6 3699.75 749.381   3
  25 -14   9 3303.97 899.246   1
 -14 -11   9 2967.18 1059.58   2
  11  14   9 4930.59 1015.69   1
  14 -25   9 5124.53 1120.84   1
 -11  25   9 4739.29 901.421   1
 -11  25   9 4353.57 937.959   3
  14 -25   9 4847.25 978.072   2
 -14 -11   9 5256.70 1028.90   3
 -25  11   9 3750.04 1036.83   3
  13 -25  -7 1442.90 624.150   2
 -25  12  -7 1800.44 809.957   3
 -13 -12  -7 1148.79 548.516   4
  13 -25  -7 1304.43 553.261   4
 -25  12  -4 736.947 695.325   3
 -13 -12  -4 1812.66 655.806   3
 -13 -12  -4 988.558 575.210   4
 -13 -12  -4 2004.08 626.400   2
  13 -25  -4 1743.70 568.959   4
  13 -25  -4 2352.38 717.255   2
 -25  12  -1 2114.31 784.777   3
 -13 -12  -1 2348.37 607.794   3
 -13 -12  -1 2073.66 642.198   4
  25 -13  -1 2002.27 313.732   1
 -13 -12  -1 3732.78 798.780   2
  25 -13  -1 2452.56 364.866   1
  13 -25  -1 2702.34 645.066   4
  13 -25  -1 2168.51 684.230   2
 -13 -12   2 6369.41 903.658   3
 -13 -12   2 6845.37 889.801   4
 -13 -12   2 7608.01 1093.28   2
  12  13   2 7107.22 779.119   1
  13 -25   2 7744.31 899.901   4
  25 -13   2 7597.24 779.205   1
  13 -25   2 6147.70 958.125   2
 -12  25   2 6539.96 527.754   3
 -25  12   2 8088.28 1055.85   3
 -13 -12   5 737.656 497.224   3
 -13 -12   5 1443.65 577.275   4
 -13 -12   5 396.093 655.944   2
  13 -25   5 1076.23 446.520   4
  12  13   5-37.5613 455.766   1
  13 -25   5 1036.76 532.052   2
 -12  25   5 1613.97 505.307   3
  25 -13   5 716.958 505.868   1
 -25  12   5-101.611 600.537   3
 -12  25   5 437.567 450.015   1
  25 -13   8 1556.59 723.397   1
  12  13   8 693.747 565.050   1
 -13 -12   8 1066.27 735.221   2
  13 -25   8 169.238 593.228   1
 -12  25   8 2134.00 696.508   1
  13 -25   8 397.613 427.337   4
 -12  25   8 22.4938 549.157   3
  13 -25   8 149.357 577.561   2
 -25  12   8 236.120 647.369   3
 -13 -12   8 962.780 577.187   3
  12 -25  -8 529.947 573.369   2
 -12 -13  -8 703.916 569.830   4
  12 -25  -8 1606.67 619.744   4
 -25  13  -5 844.568 694.172   3
 -12 -13  -5 839.669 497.431   4
  12 -25  -5 363.478 398.868   4
 -12 -13  -5 1314.37 545.338   2
  12 -25  -5 1476.95 619.121   2
 -25  13  -2 3624.67 850.486   3
 -12 -13  -2 7763.69 970.026   3
 -12 -13  -2 6342.37 900.968   4
 -12 -13  -2 8225.31 1073.41   2
  12 -25  -2 5505.68 809.433   4
  12 -25  -2 5889.75 941.509   2
 -12 -13   1 3431.31 761.609   3
 -25  13   1 1467.74 591.381   3
 -12 -13   1 3248.36 679.469   4
 -12 -13   1 2906.97 747.894   2
  12 -25   1 2521.01 640.866   4
  25 -12   1 3049.58 486.475   1
  13  12   1 2994.53 534.955   1
  12 -25   1 2476.29 631.777   2
 -13  25   1 2353.18 340.522   3
 -12 -13   4 949.388 517.910   3
 -12 -13   4 1225.81 542.962   4
 -12 -13   4 2261.02 792.239   2
  12 -25   4 2403.69 532.424   4
  13  12   4 2111.41 550.783   1
  12 -25   4 2287.01 699.270   2
 -13  25   4 1594.28 436.206   3
  25 -12   4 1647.00 465.967   1
 -25  13   4 2918.75 738.490   3
  25 -12   7 2645.67 755.122   1
  13  12   7 2681.73 693.843   1
 -12 -13   7 1895.61 598.578   4
 -12 -13   7 1946.89 883.752   2
 -12 -13   7 1606.30 545.983   1
  12 -25   7 1831.97 557.454   4
  12 -25   7 1692.83 731.339   2
 -13  25   7 1529.74 593.296   3
 -25  13   7 1596.42 805.889   3
 -13  25   7 1488.74 561.558   1
 -12 -13   7 2829.62 721.898   3
  11 -25  -9 4494.84 917.198   2
 -11 -14  -9 2555.21 769.675   4
  11 -25  -9 4049.00 773.630   4
  11 -25  -6 3436.98 760.800   2
 -25  14  -6 3600.46 996.354   3
 -11 -14  -6 3548.31 779.543   4
  11 -25  -6 4847.54 806.228   4
 -11 -14  -6 3825.82 701.418   2
 -25  14  -3 3416.33 894.721   3
 -11 -14  -3 2810.00 713.287   3
 -11 -14  -3 3752.89 751.268   4
 -11 -14  -3 2428.38 668.413   2
  11 -25  -3 2330.66 619.467   4
  11 -25  -3 3848.05 793.560   2
 -14  25   0 2623.68 305.673   3
  14  11   0 4278.30 568.738   1
 -25  14   0 4342.30 853.917   3
 -11 -14   0 4953.59 817.648   3
 -11 -14   0 5373.32 825.187   4
 -11 -14   0 2907.68 728.026   2
  11 -25   0 4564.45 742.841   4
  25 -11   0 3098.25 393.105   1
  11 -25   0 3608.15 806.757   2
  14  11   3 7240.44 805.027   1
 -11 -14   3 8637.34 967.512   4
 -11 -14   3 6260.29 1112.33   2
  11 -25   3 8626.71 924.804   4
  11 -25   3 7297.28 1119.65   2
  25 -11   3 7610.09 828.276   1
 -14  25   3 6730.15 670.913   3
 -25  14   3 5526.53 939.077   3
 -11 -14   3 6405.90 854.477   3
 -11 -14   6 1856.82 579.963   3
  25 -11   6 1182.80 604.622   1
  14  11   6 2000.33 675.032   1
 -11 -14   6 1843.66 544.157   4
 -11 -14   6 3727.25 935.196   2
  11 -25   6 2052.46 572.269   4
  11 -25   6 1046.12 659.859   2
 -14  25   6 1664.64 532.857   1
 -14  25   6 1556.00 531.623   3
 -25  14   6 1534.02 686.008   3
  25 -11   9 2968.57 854.224   1
  14  11   9 4337.10 951.265   1
 -11 -14   9 3550.16 1028.96   2
  11 -25   9 3820.27 1053.71   1
  11 -25   9 4386.10 1014.30   2
 -14  25   9 3811.30 913.107   3
 -25  14   9 3689.36 1045.87   3
 -14  25   9 6341.59 954.853   1
 -11 -14   9 3907.17 858.101   3
  10 -25  -7 2283.36 659.237   2
 -25  15  -7 2757.85 961.791   3
 -10 -15  -7 3538.00 779.483   4
  10 -25  -7 3989.30 789.381   4
 -25  15  -4 4421.23 1072.50   3
 -10 -15  -4 5233.16 837.507   4
 -10 -15  -4 5911.36 882.807   2
  10 -25  -4 3951.82 714.155   4
  10 -25  -4 4450.17 834.754   2
 -25  15  -1 2385.84 760.326   3
 -10 -15  -1 2189.81 547.038   3
 -10 -15  -1 1839.54 602.196   4
  25 -10  -1 1303.60 213.690   1
 -10 -15  -1 2282.54 736.617   2
  10 -25  -1 2291.51 593.535   4
  15  10  -1 1728.57 437.793   1
  10 -25  -1 1101.53 566.522   2
 -10 -15   2 3998.08 697.653   3
  15  10   2 3819.69 599.459   1
 -10 -15   2 2694.23 663.772   4
 -10 -15   2 4263.25 895.792   2
  10 -25   2 5464.07 790.171   4
  10 -25   2 5771.35 960.639   2
  25 -10   2 4111.24 578.175   1
 -15  25   2 3191.09 462.458   3
 -25  15   2 5255.86 909.649   3
 -10 -15   5 8086.85 1219.74   2
 -10 -15   5 9064.37 987.210   4
  10 -25   5 6492.43 838.447   4
  10 -25   5 6758.40 1126.56   2
  25 -10   5 6607.44 900.550   1
  15  10   5 6867.03 878.015   1
 -15  25   5 5575.19 769.486   3
 -15  25   5 5180.13 724.862   1
 -25  15   5 5582.66 1025.86   3
 -10 -15   5 4342.21 782.267   3
 -15  25   8 864.437 541.418   1
  25 -10   8 732.782 703.413   1
  15  10   8 1136.20 669.282   1
  10 -25   8-241.122 611.411   1
 -10 -15   8 792.254 784.609   2
 -10 -15   8 2046.63 649.900   1
  10 -25   8 1630.83 515.212   4
  10 -25   8 1039.90 704.426   2
 -15  25   8 1326.47 651.398   3
 -25  15   8 1422.69 748.420   3
 -10 -15   8 1361.22 626.324   3
   9 -25  -8 1075.60 605.620   2
  -9 -16  -8 1839.14 659.468   4
   9 -25  -8 2192.28 685.044   4
 -25  16  -5 1536.04 789.604   3
  -9 -16  -5 1798.05 618.453   4
   9 -25  -5 1213.76 588.426   4
  -9 -16  -5 2074.49 613.684   2
   9 -25  -5 1046.79 573.020   2
 -25  16  -2 2074.14 707.076   3
  -9 -16  -2 1899.67 597.264   3
  -9 -16  -2 2487.40 636.845   4
   9 -25  -2 2424.29 624.487   4
  -9 -16  -2 2976.01 803.772   2
   9 -25  -2 2826.20 702.855   2
 -16  25   1 1845.25 396.296   3
 -25  16   1 1046.03 552.287   3
  25  -9   1 1044.67 331.519   1
  -9 -16   1 883.564 448.624   3
  -9 -16   1 1228.57 604.073   4
  -9 -16   1 592.778 545.207   2
   9 -25   1 1172.37 471.618   4
  16   9   1 1148.02 388.172   1
   9 -25   1 1182.57 578.305   2
  -9 -16   4 1648.41 552.472   3
  25  -9   4 1063.77 464.337   1
  -9 -16   4 1218.33 510.192   4
  -9 -16   4 1300.47 690.135   2
  16   9   4 1848.47 530.125   1
   9 -25   4 1790.28 538.469   4
   9 -25   4 1849.60 711.295   2
 -16  25   4 683.621 371.410   3
 -25  16   4 1953.22 707.259   3
  25  -9   7 2183.78 723.550   1
  16   9   7 121.653 484.436   1
  -9 -16   7 610.461 430.341   4
  -9 -16   7 2517.47 901.337   2
   9 -25   7 670.434 438.997   4
   9 -25   7 813.853 631.919   2
 -16  25   7 1354.33 591.024   3
 -16  25   7 1842.50 564.417   1
 -25  16   7-51.6061 572.380   3
  -9 -16   7 344.763 472.459   3
  -8 -17  -9 3011.67 778.984   4
   8 -25  -9 3654.92 788.507   4
 -25  17  -6 1886.32 722.355   3
  -8 -17  -6 2617.95 737.587   4
   8 -25  -6 2575.55 707.192   4
  -8 -17  -6 962.296 554.131   2
   8 -25  -6 2401.42 707.512   2
 -25  17  -3 5281.56 965.983   3
  -8 -17  -3 5348.09 879.579   4
  -8 -17  -3 5997.22 937.301   2
   8 -25  -3 6201.63 845.535   4
   8 -25  -3 7229.81 1021.41   2
 -25  17   0 3204.16 803.172   3
 -17  25   0 657.244 332.851   3
  -8 -17   0 2245.05 521.416   3
  17   8   0 1341.96 365.368   1
  -8 -17   0 729.620 525.460   4
  25  -8   0 1256.85 270.889   1
  -8 -17   0 2192.41 734.324   2
   8 -25   0 1439.11 545.629   4
   8 -25   0 1293.11 642.451   2
  -8 -17   3 15387.0 1124.40   3
  -8 -17   3 18274.7 1375.99   4
  -8 -17   3 18650.5 1695.73   2
   8 -25   3 15940.5 1237.44   4
   8 -25   3 14778.7 1514.63   2
 -17  25   3 15604.7 1025.40   3
  17   8   3 15998.3 1108.40   1
  25  -8   3 16597.5 1121.98   1
 -25  17   3 15961.0 1412.92   3
  -8 -17   6 41.3285 424.744   3
  17   8   6 459.543 508.352   1
  25  -8   6 184.354 575.376   1
  -8 -17   6 313.548 411.832   4
  -8 -17   6-389.475 649.374   2
   8 -25   6 485.012 403.325   4
   8 -25   6 279.841 601.476   2
 -17  25   6 801.690 552.853   3
 -25  17   6 1116.72 650.671   3
  17   8   9 5250.60 976.455   1
 -17  25   9 4796.14 847.452   1
  25  -8   9 4249.01 992.215   1
   8 -25   9 3967.97 1020.08   1
  -8 -17   9 4506.31 1097.55   2
   8 -25   9 2359.42 919.057   2
 -17  25   9 3706.75 869.886   3
 -25  17   9 3467.41 1035.95   3
  -7 -18  -7 5390.42 930.157   4
   7 -25  -7 5484.52 885.401   4
  -7 -18  -7 4341.69 718.866   2
   7 -25  -7 3597.98 769.546   2
 -25  18  -4 780.390 641.167   3
  -7 -18  -4 879.181 513.343   4
   7 -25  -4 1996.44 578.274   4
  -7 -18  -4 1935.03 629.418   2
   7 -25  -4 1448.16 613.443   2
 -25  18  -1 12404.1 1299.94   3
 -18  25  -1 11009.7 825.208   3
  -7 -18  -1 13056.4 1263.04   4
  -7 -18  -1 15655.9 1468.85   2
   7 -25  -1 13375.3 1205.29   4
  18   7  -1 12063.4 769.949   1
   7 -25  -1 13733.9 1396.57   2
  25  -7  -1 10277.7 416.608   1
 -25  18   2 2402.36 714.295   3
  -7 -18   2 3758.56 586.474   3
  -7 -18   2 3171.70 701.425   4
  -7 -18   2 3308.83 905.267   2
   7 -25   2 2103.27 566.164   4
   7 -25   2 3072.96 815.703   2
 -18  25   2 2440.91 498.849   3
  25  -7   2 3480.26 537.875   1
  18   7   2 3136.61 540.747   1
  -7 -18   5 2022.06 559.056   3
  -7 -18   5 5289.19 1098.80   2
  -7 -18   5 3879.94 701.734   4
   7 -25   5 2997.53 622.771   4
  18   7   5 4507.34 720.609   1
   7 -25   5 3173.35 856.310   2
 -18  25   5 3620.19 673.686   3
  25  -7   5 4601.05 764.643   1
 -25  18   5 3299.74 825.294   3
 -18  25   8 1656.14 575.888   1
  25  -7   8 1792.79 757.284   1
  -7 -18   8 1404.55 694.174   1
  -7 -18   8 2414.44 1016.54   2
   7 -25   8 1152.79 810.611   2
 -18  25   8 1487.17 663.589   3
 -25  18   8 1181.69 765.303   3
  18   7   8 1759.57 801.531   1
   6 -25  -8 2358.47 704.235   2
  -6 -19  -8 1539.90 648.814   4
   6 -25  -8 1517.96 622.999   4
 -25  19  -5 2508.13 840.804   3
  -6 -19  -5 3500.48 782.849   4
   6 -25  -5 2859.89 666.490   4
  -6 -19  -5 1924.28 626.439   2
   6 -25  -5 2339.17 707.631   2
 -25  19  -2 352.464 522.051   3
 -19  25  -2 335.027 344.549   3
  -6 -19  -2 665.886 516.084   4
   6 -25  -2 93.0913 421.247   4
  -6 -19  -2-298.684 479.680   2
   6 -25  -2 602.428 573.047   2
 -19  25   1 1448.70 469.031   3
 -25  19   1 2257.96 671.987   3
  19   6   1 1397.85 415.813   1
  -6 -19   1 1975.77 473.710   3
  -6 -19   1 1158.40 527.664   4
   6 -25   1 1424.27 499.500   4
  -6 -19   1-302.431 579.440   2
  25  -6   1 1546.14 357.029   1
   6 -25   1 1503.45 734.694   2
  -6 -19   4 4688.75 634.910   3
  19   6   4 3908.74 653.273   1
  -6 -19   4 5262.98 783.153   4
  -6 -19   4 7166.65 1169.09   2
   6 -25   4 5227.80 799.149   4
   6 -25   4 6208.50 1084.97   2
 -19  25   4 5021.10 728.340   3
 -25  19   4 4451.33 859.173   3
  25  -6   4 4858.80 728.422   1
  25  -6   7 850.097 662.573   1
  -6 -19   7 134.543 457.808   4
  -6 -19   7-93.6066 606.627   2
   6 -25   7 298.502 475.364   4
   6 -25   7 593.796 713.003   2
 -19  25   7-77.0000 546.688   3
 -25  19   7 191.888 575.076   3
  19   6   7-120.489 505.119   1
 -25  20  -6 1715.45 749.872   3
  -5 -20  -6 2198.36 700.602   4
   5 -25  -6 2960.16 710.832   4
  -5 -20  -6 2544.95 728.658   2
   5 -25  -6 2335.62 706.393   2
 -25  20  -3 9722.11 1232.24   3
 -20  25  -3 6998.21 725.843   3
  -5 -20  -3 10727.7 1147.08   4
   5 -25  -3 10327.6 1108.98   4
  -5 -20  -3 9895.49 1198.99   2
   5 -25  -3 10910.0 1249.58   2
  20   5   0 1583.07 367.035   1
  25  -5   0 1268.52 281.348   1
 -25  20   0 405.275 498.370   3
 -20  25   0 1211.79 460.413   3
  -5 -20   0 1118.80 522.427   4
   5 -25   0 2178.60 603.575   4
  -5 -20   0 1004.94 741.824   2
   5 -25   0 1477.88 676.660   2
  25  -5   3 10587.9 900.586   1
  -5 -20   3 8514.83 677.763   3
  -5 -20   3 10132.5 1056.56   4
  -5 -20   3 10752.7 1396.37   2
   5 -25   3 12232.2 1143.42   4
   5 -25   3 12311.0 1466.98   2
  20   5   3 11249.7 933.741   1
 -20  25   3 11067.8 986.035   3
 -25  20   3 8040.50 1105.62   3
  25  -5   6 2812.85 728.422   1
  -5 -20   6 1786.93 569.960   4
  -5 -20   6 1521.47 840.087   2
   5 -25   6 2016.75 555.958   4
   5 -25   6 2381.82 881.848   2
 -20  25   6 2665.76 671.671   3
 -25  20   6 1631.19 675.106   3
  20   5   6 2409.67 690.725   1
  -4 -21  -7 2383.78 695.039   4
   4 -25  -7 2002.09 648.978   4
  -4 -21  -7 1864.10 623.022   2
   4 -25  -7 2959.74 739.987   2
 -25  21  -4 4210.29 947.631   3
  -4 -21  -4 5204.26 846.573   4
   4 -25  -4 2825.24 698.156   4
   4 -25  -4 5289.25 916.474   2
  -4 -21  -4 4348.74 858.341   2
 -25  21  -1 5031.62 965.719   3
 -21  25  -1 5677.88 762.401   3
  21   4  -1 5688.29 495.783   1
  -4 -21  -1 6628.50 992.913   4
   4 -25  -1 4889.87 828.405   4
  -4 -21  -1 5186.40 958.016   2
   4 -25  -1 5294.74 960.832   2
 -25  21   2 2079.36 655.020   3
  -4 -21   2 845.252 274.739   3
  -4 -21   2 342.741 472.943   4
   4 -25   2 2085.91 601.917   4
  -4 -21   2 1732.48 693.482   2
  21   4   2 1335.54 424.420   1
   4 -25   2 1714.66 711.432   2
  25  -4   2 1543.36 411.402   1
 -21  25   2 1510.71 550.218   3
  25  -4   5 3903.12 764.015   1
  -4 -21   5 3822.98 756.621   4
   4 -25   5 3434.65 676.974   4
  -4 -21   5 4191.60 989.766   2
   4 -25   5 4790.09 1039.84   2
 -21  25   5 2316.48 654.801   3
 -25  21   5 4897.84 882.311   3
  21   4   5 3184.72 679.658   1
  25  -4   8 3055.47 882.524   1
  -4 -21   8 2326.48 952.969   2
   4 -25   8 2992.25 1038.69   2
 -21  25   8 1298.49 673.320   3
  21   4   8 3020.32 800.242   1
 -25  21   8 2681.93 887.011   3
  -3 -22  -8 1613.95 684.956   4
   3 -25  -8 3597.45 831.039   4
 -25  22  -5 1492.64 687.027   3
  -3 -22  -5 1491.77 745.574   4
   3 -25  -5 401.122 565.790   4
  -3 -22  -5 1006.94 604.580   2
   3 -25  -5 1003.56 614.619   2
 -25  22  -2 1520.94 585.075   3
 -22  25  -2 3408.84 659.166   3
  -3 -22  -2 3501.20 744.696   4
   3 -25  -2 3131.25 715.180   4
  -3 -22  -2 3781.74 843.921   2
   3 -25  -2 3575.54 859.035   2
 -22  25   1 971.808 493.481   3
 -25  22   1 286.017 497.238   3
  25  -3   1 644.292 313.473   1
  -3 -22   1 145.704 429.899   4
   3 -25   1 409.945 448.253   4
  -3 -22   1-198.950 656.278   2
   3 -25   1 871.024 705.628   2
  22   3   1 534.971 325.170   1
  25  -3   4 4230.31 679.561   1
  -3 -22   4 4032.28 764.867   4
   3 -25   4 3103.42 628.463   4
   3 -25   4 6698.58 1133.33   2
  22   3   4 4207.60 673.103   1
  -3 -22   4 3829.21 921.078   2
 -22  25   4 3660.50 718.296   3
 -25  22   4 3224.92 754.061   3
  -3 -22   7 277.357 514.512   4
  25  -3   7 156.362 522.592   1
   3 -25   7 717.109 515.192   4
  -3 -22   7-574.111 791.768   2
   3 -25   7 46.7413 683.694   2
  22   3   7 187.899 611.579   1
 -22  25   7 6.30518 524.930   3
 -25  22   7-727.242 724.747   3
  -2 -23  -6 2420.32 696.447   4
   2 -25  -6 2649.85 744.315   4
  -2 -23  -6 2048.82 729.644   2
   2 -25  -6 2862.02 751.660   2
 -25  23  -3 5665.70 947.045   3
 -23  25  -3 5923.90 828.124   3
  -2 -23  -3 7236.84 1045.73   4
   2 -25  -3 6063.49 1011.09   4
  -2 -23  -3 6806.22 1108.72   2
   2 -25  -3 8799.07 1185.27   2
 -25  23   0 3924.09 811.954   3
 -23  25   0 2160.26 641.487   3
  23   2   0 2912.21 429.818   1
  -2 -23   0 4601.85 827.708   4
   2 -25   0 4132.35 794.592   4
  -2 -23   0 1839.66 722.690   2
   2 -25   0 4914.04 959.223   2
  25  -2   0 2818.88 379.806   1
  25  -2   3 6212.70 706.291   1
  -2 -23   3 7301.02 964.335   4
   2 -25   3 6424.81 882.968   4
   2 -25   3 6697.49 1144.28   2
  -2 -23   3 4679.21 1084.78   2
  23   2   3 7417.83 801.430   1
 -23  25   3 5885.30 865.437   3
 -25  23   3 4440.56 825.760   3
  -2 -23   6 576.910 506.303   4
   2 -25   6-78.3770 428.311   4
  -2 -23   6 634.489 767.911   2
   2 -25   6 598.863 838.643   2
  25  -2   6 424.129 527.321   1
  23   2   6 110.995 504.854   1
 -23  25   6-345.740 532.662   3
 -25  23   6-267.637 572.421   3
  -1 -24  -7 2573.93 809.245   4
   1 -25  -7 616.833 606.544   4
  -1 -24  -7 1292.32 663.648   2
   1 -25  -7 1097.89 587.474   2
 -25  24  -4 1141.92 659.199   3
 -24  25  -4 658.529 528.825   3
  -1 -24  -4 1193.89 593.838   4
   1 -25  -4 1637.92 642.762   4
  -1 -24  -4 640.965 592.516   2
   1 -25  -4 714.568 615.392   2
 -25  24  -1 3614.78 831.428   3
 -24  25  -1 3565.55 805.878   3
   1 -25  -1 4963.02 849.776   4
  -1 -24  -1 3650.01 774.818   4
   1 -25  -1 5395.37 1057.56   2
  -1 -24  -1 4463.93 906.343   2
 -24  25   2 2478.54 668.112   3
 -25  24   2 3651.79 792.293   3
  24   1   2 2762.99 495.774   1
   1 -25   2 5209.79 863.242   4
  -1 -24   2 3792.49 765.131   4
  25  -1   2 4427.73 604.986   1
  -1 -24   2 3063.29 886.257   2
   1 -25   2 3458.75 886.073   2
  25  -1   5 4364.85 755.763   1
  -1 -24   5 4472.22 843.906   4
   1 -25   5 4148.33 772.269   4
   1 -25   5 6057.91 1294.89   2
  -1 -24   5 3015.27 916.321   2
  24   1   5 3761.35 708.111   1
 -24  25   5 2912.07 762.213   3
 -25  24   5 3444.70 809.842   3
 -25  25  -5 123.659 550.667   3
   0 -25  -5 400.915 648.431   4
   0 -25  -5-808.068 639.713   2
 -25  25  -2 4184.74 869.072   3
   0 -25  -2 4000.30 857.101   4
   0 -25  -2 4811.26 1009.43   2
 -25  25   1 794.173 578.354   3
   0 -25   1-87.6116 559.553   4
  25   0   1 401.933 335.125   1
   0 -25   1-94.1744 628.273   2
   0 -25   4 2257.73 661.735   4
   0 -25   4 3463.24 1005.75   2
  25   0   4 3809.19 670.633   1
 -25  25   4 3447.86 859.674   3
   0 -25   7 376.244 561.072   4
   0 -25   7 917.029 892.902   2
  25   0   7-416.882 576.024   1
 -25  25   7 1487.67 748.068   3
  26 -26  -5-341.475 662.773   2
 -26   0  -5 332.483 779.310   3
  26 -26  -5-121.342 518.943   4
  26 -26  -2 10461.0 1275.27   2
 -26   0  -2 8710.72 1420.20   3
  26 -26  -2 12184.8 1251.06   4
 -26   0   1-251.832 660.335   3
  26 -26   1 122.840 547.996   2
  26 -26   1-49.4388 412.825   4
 -26   0   4 631.969 684.300   3
  26 -26   4 2359.26 744.820   2
   0  26   4 1890.15 679.947   1
  26 -26   4 1699.12 656.090   1
  26 -26   4 2819.39 720.595   4
  25 -26  -6 1930.58 781.759   2
  26 -25  -6 2415.26 820.827   2
 -26   1  -6 1987.13 1004.74   3
 -25  -1  -6 3898.73 1153.23   3
  25 -26  -6 2901.38 789.446   4
  26 -25  -6 2066.79 692.839   4
  25 -26  -3 7051.38 1163.03   2
  26 -25  -3 6325.35 1047.60   2
 -26   1  -3 7464.63 1312.10   3
 -25  -1  -3 7800.79 1346.22   3
  25 -26  -3 6098.52 907.536   4
  26 -25  -3 5962.72 955.687   4
  25 -26   0 366.611 532.622   2
 -26   1   0 722.526 620.673   3
 -25  -1   0 612.313 705.506   3
  26 -25   0 725.477 587.331   2
  25 -26   0 780.459 571.897   4
  26 -25   0 1739.83 572.125   4
 -26   1   3 3754.36 954.961   3
 -25  -1   3 3810.47 991.294   3
  -1  26   3 3965.31 755.962   1
  26 -25   3 2845.10 740.548   1
   1  25   3 4627.31 845.604   1
  25 -26   3 5635.89 901.654   4
  26 -25   3 5653.53 921.165   4
  25 -26   3 5835.05 980.276   2
  26 -25   3 5428.89 950.018   2
 -26   1   6 1137.54 789.901   3
 -25  -1   6 44.4936 681.685   3
  25 -26   6 2582.37 760.200   2
  26 -25   6 2356.37 750.416   2
   1  25   6 1724.93 692.836   1
  -1  26   6 3217.45 799.065   1
  25 -26   6 2307.57 798.463   1
  26 -25   6 1278.35 686.834   1
  25 -26   6 3204.31 737.797   4
  26 -25   6 1493.00 618.812   4
  24 -26  -7 289.887 670.804   2
  26 -24  -7 1545.33 779.802   2
 -26   2  -7 895.202 978.333   3
  24 -26  -7 1180.42 600.193   4
  26 -24  -7 711.759 529.271   4
  24 -26  -4-186.369 612.033   2
  26 -24  -4 670.745 560.128   2
 -26   2  -4 1000.26 739.003   3
 -24  -2  -4 1857.77 878.750   3
  24 -26  -4 669.431 499.511   4
  26 -24  -4 899.305 577.835   4
  24 -26  -1 1542.01 673.592   2
 -26   2  -1 871.278 744.456   3
 -24  -2  -1-647.508 849.658   3
  26 -24  -1 1390.82 609.418   2
  24 -26  -1 1151.36 578.179   4
  26 -24  -1 1569.45 575.770   4
  24 -26   2 3434.16 870.302   2
 -26   2   2 2193.56 844.087   3
 -24  -2   2 3716.08 961.800   3
  26 -24   2 2475.66 679.508   1
   2  24   2 2411.28 650.852   1
  24 -26   2 3058.68 728.881   4
  26 -24   2 2541.20 665.668   4
  26 -24   2 4949.63 914.529   2
 -26   2   5 661.143 641.790   3
 -24  -2   5 253.636 647.585   3
  24 -26   5 891.667 552.026   2
  26 -24   5 301.683 461.890   2
   2  24   5 360.100 542.693   1
  24 -26   5 275.591 649.690   1
  26 -24   5-268.817 553.172   1
  24 -26   5 928.989 516.931   4
  26 -24   5 1043.49 587.222   4
  -2  26   5 391.093 483.355   1
  23 -26  -5-451.418 572.448   2
 -26   3  -5 256.316 710.041   3
  26 -23  -5 1056.40 662.611   2
 -23  -3  -5 1017.42 798.153   3
 -23  -3  -5 1363.70 683.713   2
  23 -26  -5 1160.43 564.008   4
  26 -23  -5 414.516 446.446   4
  26 -23  -2 11244.4 1309.40   2
 -26   3  -2 8228.96 1334.17   3
 -23  -3  -2 10852.7 1397.80   3
  23 -26  -2 11903.5 1233.79   4
  26 -23  -2 11661.1 1181.79   4
  23 -26  -2 9319.99 1251.52   2
  23 -26   1 784.974 600.266   2
 -26   3   1 697.044 670.494   3
 -23  -3   1 846.585 725.427   3
  26 -23   1 957.320 583.397   2
   3  23   1 1066.61 491.942   1
  23 -26   1 217.762 422.689   4
  26 -23   1 1461.49 557.665   4
 -26   3   4 5375.24 1032.21   3
 -23  -3   4 5152.57 1033.35   3
  26 -23   4 6737.74 1016.50   1
  -3  26   4 6244.43 911.910   1
  23 -26   4 7839.35 1007.84   4
  26 -23   4 6169.33 903.256   4
  23 -26   4 7207.35 1063.85   2
   3  23   4 6852.73 917.283   1
  26 -23   4 7787.01 1058.02   2
  23 -26   7 944.732 613.690   2
  26 -23   7 2713.64 754.135   2
  -3  26   7 1884.95 726.415   1
  23 -26   7 322.867 684.023   1
  26 -23   7 1836.45 860.500   1
  23 -26   7 1586.99 610.063   4
   3  23   7 483.923 552.919   1
 -26   3   7-818.056 856.992   3
 -23  -3   7 196.211 629.127   3
  22 -26  -6 5104.51 984.839   2
 -26   4  -6 2995.49 1043.33   3
 -22  -4  -6 5482.00 1162.09   3
  26 -22  -6 5505.56 1076.29   2
  26 -22  -6 6600.32 968.790   4
  22 -26  -6 3283.43 744.784   4
  26 -22  -3 5310.10 988.737   2
 -22  -4  -3 5172.39 1092.01   3
 -26   4  -3 4571.44 1058.64   3
  22 -26  -3 4615.70 820.202   4
  26 -22  -3 5444.94 898.610   4
  22 -26  -3 5579.20 979.767   2
  22 -26   0 2534.23 718.119   2
 -26   4   0 764.682 675.774   3
 -22  -4   0 1498.30 768.520   3
  26 -22   0 1029.23 557.719   2
  22 -26   0 1338.63 482.934   4
  26 -22   0 1256.25 532.231   4
  26 -22   3 5612.75 909.215   2
 -26   4   3 3366.50 879.786   3
  26 -22   3 4129.24 767.776   1
  22 -26   3 4944.84 793.709   4
  26 -22   3 4636.92 817.586   4
  -4  26   3 4217.79 495.545   3
  -4  26   3 3925.38 749.455   1
   4  22   3 3881.67 742.128   1
  22 -26   3 4737.40 910.668   2
 -22  -4   3 6016.78 1074.53   3
 -22  -4   6 1478.38 783.496   3
  22 -26   6 997.158 636.814   2
  26 -22   6 1352.31 608.046   2
  22 -26   6 1016.34 631.894   1
  -4  26   6 1055.36 521.497   1
  26 -22   6-55.1627 621.781   1
  22 -26   6 1305.59 592.595   4
   4  22   6 854.096 582.833   1
 -26   4   6 664.826 754.751   3
  21 -26  -7 909.291 783.351   2
 -26   5  -7 825.655 872.357   3
 -21  -5  -7 2079.32 814.747   4
  21 -26  -7 943.821 546.935   4
  26 -21  -7 1448.81 608.241   4
  21 -26  -4 933.332 631.142   2
 -26   5  -4 826.100 757.786   3
 -21  -5  -4 612.057 686.241   3
  26 -21  -4 49.1082 572.951   2
 -21  -5  -4 1293.61 665.632   2
  21 -26  -4 993.450 577.590   4
  26 -21  -4 431.462 453.300   4
  21 -26  -1 2286.18 753.657   2
 -26   5  -1 341.753 638.384   3
 -21  -5  -1 1687.86 838.049   3
  26 -21  -1 1835.26 669.368   2
  21 -26  -1 1701.51 551.602   4
  26 -21  -1 1270.91 529.106   4
 -26   5   2 1633.58 780.990   3
 -21  -5   2 2402.95 795.776   3
  26 -21   2 887.307 571.169   2
   5  21   2 835.161 513.670   1
  26 -21   2 3415.96 700.470   1
  21 -26   2 200.935 368.056   4
  26 -21   2 1222.56 517.556   4
  21 -26   2 1848.91 692.496   2
   5  21   5 1700.24 599.180   1
 -21  -5   5 3680.04 847.892   3
  26 -21   5 2458.31 684.618   2
  26 -21   5 1068.72 654.149   1
  21 -26   5 2922.64 648.094   4
  26 -21   5 2277.04 640.520   4
  21 -26   5 2780.61 780.446   2
 -26   5   5 2943.05 915.044   3
  -5  26   5 2947.22 720.960   1
  -5  26   8 1798.12 781.999   1
   5  21   8 1550.33 699.208   1
  21 -26   8 558.315 688.228   1
  21 -26   8 804.952 539.413   4
  26 -21   8 2466.66 1007.40   1
 -26   5   8 2740.30 935.951   3
 -21  -5   8 2010.80 843.923   3
  21 -26   8 1532.80 703.503   2
  20 -26  -8 3851.48 980.089   2
 -20  -6  -8 4074.75 976.108   4
  20 -26  -8 3018.58 785.670   4
  26 -20  -8 2735.99 698.044   4
 -20  -6  -5 2030.70 667.772   2
  20 -26  -5 3322.10 820.873   2
 -26   6  -5 1464.07 854.079   3
 -20  -6  -5 2451.97 885.013   3
  26 -20  -5 2287.86 764.947   2
 -20  -6  -5 2609.72 766.598   4
  20 -26  -5 2802.21 704.855   4
  26 -20  -5 2077.16 611.634   4
 -26   6  -2 6429.27 1182.96   3
 -20  -6  -2 5888.48 1042.03   3
  26 -20  -2 5484.84 909.006   2
  20 -26  -2 6809.78 903.150   4
  26 -20  -2 5714.81 840.105   4
  20 -26  -2 6265.38 1000.27   2
 -26   6   1 3563.89 942.774   3
   6  20   1 1984.61 527.605   1
 -20  -6   1 2570.99 789.758   3
  26 -20   1 2324.96 640.239   2
  26 -20   1 3975.93 652.485   1
  20 -26   1 4883.92 780.100   4
  26 -20   1 3410.44 705.704   4
  20 -26   1 3955.28 875.618   2
  26 -20   4 6801.58 949.660   2
  26 -20   4 7464.56 972.637   1
  -6  26   4 8196.88 962.455   1
  20 -26   4 7635.64 941.238   4
   6  20   4 7881.55 987.770   1
  26 -20   4 7683.07 977.598   4
  -6  26   4 7465.14 715.670   3
  20 -26   4 9318.39 1176.65   2
 -26   6   4 7423.53 1124.92   3
 -20  -6   4 6622.29 1072.83   3
   6  20   7 1630.15 647.580   1
  26 -20   7 1990.86 643.912   2
 -20  -6   7 1621.36 697.384   4
  -6  26   7 2715.14 793.605   1
  20 -26   7 3869.17 918.162   1
  20 -26   7 1697.73 573.557   4
  -6  26   7 898.652 559.432   3
  26 -20   7 591.585 666.820   1
  20 -26   7 3554.12 840.952   2
 -26   6   7 2355.37 891.374   3
 -20  -6   7 2119.86 793.784   3
  19 -26  -6 2074.15 717.032   2
 -26   7  -6 2764.83 986.554   3
 -19  -7  -6 2583.44 752.898   4
 -19  -7  -6 1963.66 571.595   2
  19 -26  -6 2441.67 670.813   4
  26 -19  -6 1928.87 603.011   4
  19 -26  -3 4552.13 905.100   2
 -26   7  -3 2732.98 901.605   3
 -19  -7  -3 2977.62 829.378   3
  26 -19  -3 2312.04 751.264   2
 -19  -7  -3 4652.71 953.947   2
  19 -26  -3 4493.77 834.765   4
  26 -19  -3 4391.33 776.380   4
 -19  -7   0 12396.3 1340.26   3
  26 -19   0 11250.6 1219.69   2
  26 -19   0 7855.76 779.788   1
  19 -26   0 11175.8 1116.57   4
  26 -19   0 10003.9 1058.45   4
  19 -26   0 10979.3 1273.38   2
 -26   7   0 7108.67 1169.10   3
 -26   7   3 3840.35 948.513   3
 -19  -7   3 3920.27 888.528   3
  26 -19   3 4769.04 794.225   2
  -7  26   3 4695.76 798.813   1
  26 -19   3 5188.24 785.319   1
  19 -26   3 5540.46 809.061   4
  26 -19   3 5752.71 836.947   4
   7  19   3 6371.64 810.918   1
  -7  26   3 4303.38 460.231   3
  19 -26   3 7000.29 1042.45   2
 -19  -7   6 3372.17 892.772   3
  26 -19   6 4739.61 817.627   2
   7  19   6 2809.50 746.535   1
 -19  -7   6 2742.58 709.669   4
  19 -26   6 3976.12 887.064   1
  19 -26   6 3942.86 713.022   4
  26 -19   6 3830.98 844.072   1
  -7  26   6 3015.28 643.276   3
  -7  26   6 3166.46 717.076   1
  19 -26   6 3612.17 855.855   2
 -26   7   6 2869.81 984.929   3
  18 -26  -7 1862.13 689.413   2
 -26   8  -7 3512.19 1076.45   3
 -18  -8  -7 2805.86 783.638   4
  18 -26  -7 2790.13 717.618   4
  18 -26  -4 1237.74 561.837   2
 -26   8  -4 1838.86 935.036   3
 -18  -8  -4 2364.56 804.208   3
 -18  -8  -4 2303.69 724.674   4
 -18  -8  -4 1017.63 591.271   2
  18 -26  -4 1592.59 559.011   4
  26 -18  -4 725.291 473.676   4
 -26   8  -1 7949.87 1198.69   3
  26 -18  -1 7536.15 1079.68   2
 -18  -8  -1 6128.45 1002.64   3
 -18  -8  -1 6072.12 1057.56   2
  26 -18  -1 5185.28 594.600   1
  18 -26  -1 5318.66 809.740   4
  26 -18  -1 6337.58 888.905   4
  18 -26  -1 6055.32 1012.51   2
 -26   8   2 866.377 681.567   3
 -18  -8   2 1910.63 717.557   3
  26 -18   2 530.214 498.200   2
   8  18   2 892.687 455.429   1
  26 -18   2 1215.49 476.397   1
  18 -26   2 2091.86 650.282   4
  26 -18   2 2130.42 634.687   4
  -8  26   2 1005.33 223.017   3
  18 -26   2 918.427 557.598   2
 -18  -8   5 3576.19 857.881   3
  26 -18   5 2408.58 648.434   2
 -18  -8   5 3775.27 783.050   4
  -8  26   5 1645.80 554.626   1
   8  18   5 2784.80 660.343   1
  18 -26   5 4077.87 726.036   4
  26 -18   5 3870.68 785.985   1
  -8  26   5 2240.20 537.456   3
  18 -26   5 2998.07 757.248   2
 -26   8   5 2273.79 864.487   3
 -18  -8   8 2307.28 989.516   2
  -8  26   8 145.390 547.906   1
  18 -26   8 35.6438 643.354   1
  18 -26   8 580.079 464.998   4
  -8  26   8 473.016 572.921   3
  26 -18   8 314.510 783.466   1
   8  18   8 319.953 531.091   1
  18 -26   8 871.933 714.829   2
 -26   8   8 670.177 728.829   3
 -18  -8   8-419.157 649.633   3
  17 -26  -8 957.529 683.334   2
 -17  -9  -8 1598.51 737.796   4
  17 -26  -8 1411.53 660.314   4
 -26   9  -5 6221.00 1234.68   3
 -17  -9  -5 4385.48 961.308   3
 -17  -9  -5 5786.20 1000.81   4
 -17  -9  -5 5778.61 856.389   2
  17 -26  -5 5327.92 837.472   4
  26 -17  -5 5493.99 832.239   4
  17 -26  -5 5138.28 914.483   2
 -26   9  -2 2365.16 924.393   3
 -17  -9  -2 3542.75 845.604   3
  26 -17  -2 3789.75 823.400   2
 -17  -9  -2 3415.04 778.960   4
  26 -17  -2 2999.35 407.756   1
 -17  -9  -2 2866.62 778.352   2
  17 -26  -2 3636.13 688.551   4
  26 -17  -2 3893.10 730.485   4
  17 -26  -2 3440.37 790.585   2
 -26   9   1 4209.85 956.920   3
  26 -17   1 6633.39 1002.89   2
 -17  -9   1 4962.05 944.921   3
   9  17   1 5223.98 702.247   1
 -17  -9   1 7194.68 1053.19   4
 -17  -9   1 3792.28 934.071   2
  26 -17   1 6746.02 753.608   1
  17 -26   1 5069.13 751.571   4
  26 -17   1 6612.86 909.566   4
  17 -26   1 5642.49 956.316   2
 -17  -9   4 409.028 616.620   3
  26 -17   4 844.534 527.115   2
 -17  -9   4 504.533 524.103   4
 -17  -9   4 898.592 767.377   2
   9  17   4 253.345 443.441   1
  -9  26   4 33.5707 377.353   1
  17 -26   4 639.369 461.932   4
  26 -17   4 268.068 436.375   1
  -9  26   4-17.3730 288.228   3
  17 -26   4 748.553 581.689   2
 -26   9   4 330.902 627.309   3
   9  17   7 4723.57 890.904   1
 -17  -9   7 7153.52 1368.91   2
 -17  -9   7 4471.82 777.494   4
  17 -26   7 3536.13 959.864   1
  17 -26   7 3758.65 697.087   4
  -9  26   7 3846.79 796.443   1
  -9  26   7 2834.72 700.159   3
  26 -17   7 3759.32 885.384   1
  17 -26   7 4013.56 881.047   2
 -26   9   7 3946.68 957.563   3
 -17  -9   7 2722.70 776.661   3
 -26  10  -6 8186.71 1402.61   3
 -16 -10  -6 8213.56 1118.59   4
 -16 -10  -6 8047.10 913.600   2
  16 -26  -6 10396.7 1139.69   4
  16 -26  -6 7425.01 1094.66   2
 -26  10  -3 2226.87 834.788   3
 -16 -10  -3 2777.97 736.801   3
 -16 -10  -3 3569.38 782.344   4
  26 -16  -3 1528.35 245.688   1
 -16 -10  -3 4052.08 823.164   2
  16 -26  -3 2842.25 621.952   4
  26 -16  -3 3566.27 691.919   4
  16 -26  -3 3097.73 817.557   2
 -16 -10   0 10141.9 1212.19   3
  26 -16   0 8982.12 1110.49   2
 -16 -10   0 10386.9 1142.81   4
 -16 -10   0 10584.7 1311.32   2
  26 -16   0 8117.62 717.234   1
  16 -26   0 8129.81 1000.25   4
  10  16   0 7769.18 794.525   1
  16 -26   0 8946.13 1139.42   2
 -26  10   0 7636.66 1158.33   3
 -26  10   3 2187.54 796.436   3
  26 -16   3 1648.69 593.540   2
 -16 -10   3 4129.04 816.125   4
 -16 -10   3 1006.20 682.229   2
  16 -26   3 3371.18 648.665   4
  26 -16   3 2077.85 532.757   1
 -10  26   3 2407.40 409.319   3
  10  16   3 2777.38 609.980   1
  16 -26   3 2783.15 840.164   2
 -16 -10   3 3991.47 915.522   3
  10  16   6 11290.1 1183.21   1
 -10  26   6 9970.87 1098.46   1
 -16 -10   6 13571.2 1701.23   2
 -16 -10   6 13280.2 1214.87   4
  26 -16   6 10358.7 1181.80   1
  16 -26   6 10657.4 1057.52   4
  16 -26   6 11268.8 1327.13   2
 -10  26   6 11072.1 1028.89   3
 -26  10   6 6384.77 1140.62   3
 -16 -10   6 8196.97 1130.93   3
  15 -26  -7 2197.10 695.993   2
 -26  11  -7 2753.24 1025.10   3
 -15 -11  -7 2984.45 812.345   4
  15 -26  -7 1565.62 610.721   4
  15 -26  -4 1183.64 585.870   2
 -26  11  -4-47.1903 685.657   3
 -15 -11  -4-73.3187 522.828   3
 -15 -11  -4 181.814 519.176   4
 -15 -11  -4 215.459 451.294   2
  15 -26  -4 634.401 494.586   4
 -26  11  -1 6918.67 1105.09   3
 -15 -11  -1 5487.73 934.181   3
 -15 -11  -1 6488.12 928.149   4
 -15 -11  -1 6016.37 994.871   2
  26 -15  -1 5517.59 529.800   1
  15 -26  -1 5818.07 836.045   4
  15 -26  -1 5334.94 925.036   2
 -26  11   2 930.709 664.560   3
 -15 -11   2 1820.46 653.486   3
  11  15   2 714.906 389.824   1
  26 -15   2 1589.03 592.845   2
 -15 -11   2 1076.94 491.634   4
 -15 -11   2 1122.08 640.130   2
  15 -26   2 1440.11 491.261   4
  26 -15   2 1494.20 441.798   1
  15 -26   2 1737.23 668.876   2
 -11  26   2 1136.06 280.219   3
 -11  26   5 2264.93 622.714   1
 -15 -11   5 1364.80 616.082   3
 -15 -11   5 2500.83 649.254   4
 -15 -11   5 3100.41 936.174   2
  15 -26   5 1671.80 511.939   4
 -11  26   5 1828.10 486.715   3
  15 -26   5 1070.60 610.345   2
  26 -15   5 1725.08 639.936   1
  11  15   5 2277.03 620.246   1
 -26  11   5 2310.35 841.862   3
 -15 -11   8-397.514 777.269   2
  15 -26   8 79.9108 690.267   1
  11  15   8 1493.23 693.305   1
 -11  26   8 605.331 543.279   1
  15 -26   8 69.3447 396.554   4
 -11  26   8 115.602 518.096   3
  15 -26   8 750.739 697.149   2
 -26  11   8 694.207 739.140   3
  26 -15   8 319.439 674.615   1
 -15 -11   8 195.908 569.138   3
  14 -26  -8 1025.69 629.098   2
 -14 -12  -8 595.630 618.086   4
  14 -26  -8 1354.99 624.513   4
 -26  12  -5 7009.85 1245.84   3
 -14 -12  -5 6515.87 1043.32   4
 -14 -12  -5 7777.80 953.280   2
  14 -26  -5 6762.95 926.454   4
  14 -26  -5 7127.04 1027.53   2
 -26  12  -2 610.180 571.732   3
 -14 -12  -2 1633.07 585.707   3
 -14 -12  -2 1286.55 574.907   4
 -14 -12  -2 1732.04 656.187   2
  14 -26  -2 1230.56 481.784   4
  26 -14  -2 921.104 202.692   1
  14 -26  -2 1143.68 645.829   2
 -26  12   1 3953.67 837.409   3
 -14 -12   1 4165.16 772.436   3
 -14 -12   1 3395.45 696.349   4
 -14 -12   1 4736.47 931.454   2
  14 -26   1 5713.98 840.577   4
  26 -14   1 3239.68 508.887   1
  14 -26   1 5398.06 918.575   2
  12  14   1 4470.56 622.423   1
 -12  26   1 3066.50 290.212   3
  12  14   4-91.0226 419.423   1
 -14 -12   4-523.299 532.762   3
 -14 -12   4-210.104 459.118   4
 -14 -12   4 107.714 652.988   2
  14 -26   4 49.9463 396.122   4
  14 -26   4 166.033 657.787   2
 -12  26   4 102.517 316.237   3
  26 -14   4-326.344 471.177   1
 -26  12   4 1070.74 629.328   3
 -14 -12   7 2909.70 683.199   4
 -14 -12   7 4417.28 1124.68   2
  12  14   7 4445.73 851.927   1
  14 -26   7 3480.75 651.855   4
 -12  26   7 2705.36 665.477   3
  14 -26   7 4169.28 967.841   2
 -26  12   7 2660.26 832.926   3
  26 -14   7 4337.21 933.894   1
 -12  26   7 3335.78 721.675   1
 -14 -12   7 2219.93 686.761   3
 -26  13  -6 6711.03 1270.77   3
 -13 -13  -6 11376.0 1246.76   4
 -13 -13  -6 11049.5 1065.33   2
  13 -26  -6 9945.86 1112.74   4
  13 -26  -6 10460.1 1182.13   2
 -26  13  -3 647.358 632.914   3
 -13 -13  -3 1211.88 595.361   3
 -13 -13  -3 652.848 467.939   4
 -13 -13  -3 1076.26 569.827   2
  13 -26  -3-98.1205 403.279   4
  13 -26  -3 861.325 515.888   2
 -13 -13   0 12232.4 1191.89   3
 -13 -13   0 8922.26 1046.09   4
  13  13   0 9971.25 865.430   1
 -13 -13   0 11320.4 1298.42   2
  13 -26   0 11043.7 1072.52   4
  26 -13   0 9634.47 704.583   1
  13 -26   0 10358.0 1235.83   2
 -26  13   0 8215.05 1179.77   3
 -26  13   3 1491.72 667.608   3
 -13 -13   3 1833.58 690.275   3
  13  13   3 1183.66 467.830   1
 -13 -13   3 347.417 450.503   4
 -13 -13   3 797.338 673.414   2
  13 -26   3 667.315 438.983   4
  13 -26   3 1256.38 633.087   2
 -13  26   3 1219.99 367.524   3
  26 -13   3 425.347 381.012   1
 -13 -13   6 9039.96 1440.75   2
 -13 -13   6 9288.25 1018.53   4
 -13  26   6 8393.29 984.336   1
  13 -26   6 8723.27 942.862   4
  13 -26   6 9739.32 1240.70   2
  26 -13   6 9789.66 1142.92   1
 -13  26   6 8914.92 936.030   3
  13  13   6 10642.5 1100.31   1
 -26  13   6 7795.00 1214.57   3
 -13 -13   6 10263.7 1156.75   3
  12 -26  -7 1601.79 656.519   2
 -26  14  -7 2658.59 974.062   3
 -12 -14  -7 4020.66 863.091   4
  12 -26  -7 3383.89 772.081   4
 -26  14  -4-389.541 698.964   3
 -12 -14  -4 471.614 460.863   4
 -12 -14  -4 946.786 560.593   2
  12 -26  -4 557.626 480.559   4
  12 -26  -4 630.609 597.994   2
 -26  14  -1 3927.10 913.571   3
 -12 -14  -1 5469.65 828.616   3
 -12 -14  -1 3875.38 770.096   4
 -12 -14  -1 3815.62 788.021   2
  12 -26  -1 5178.85 830.761   4
  26 -12  -1 2745.86 322.224   1
  12 -26  -1 4587.99 883.928   2
 -26  14   2 1452.03 731.663   3
 -12 -14   2 2381.38 697.807   3
 -12 -14   2 1431.93 516.579   4
 -12 -14   2 1259.24 680.616   2
  12 -26   2 1927.04 584.352   4
  14  12   2 1298.97 440.806   1
  12 -26   2 3015.70 780.847   2
 -14  26   2 2233.63 386.320   3
  26 -12   2 2429.44 484.952   1
 -14  26   5 6644.44 877.970   1
 -12 -14   5 5781.95 1069.36   2
 -12 -14   5 6974.99 900.287   4
  12 -26   5 7757.19 929.442   4
  12 -26   5 7047.25 1099.13   2
  26 -12   5 5785.45 882.583   1
 -14  26   5 6918.24 778.791   3
  14  12   5 6544.84 876.541   1
 -26  14   5 7413.78 1120.92   3
 -12 -14   5 5257.63 862.036   3
 -14  26   8 973.471 598.728   1
  26 -12   8 1345.75 743.187   1
  14  12   8 1460.11 650.481   1
  12 -26   8 1350.19 743.431   1
 -12 -14   8 333.012 709.890   2
  12 -26   8 1616.08 534.632   4
  12 -26   8 963.621 726.753   2
 -14  26   8 843.978 588.948   3
 -26  14   8 2308.72 895.132   3
 -12 -14   8 1508.63 679.520   3
  11 -26  -8-434.550 642.447   2
 -11 -15  -8 326.143 496.916   4
  11 -26  -8 400.021 545.876   4
 -26  15  -5 1969.56 930.487   3
 -11 -15  -5 2216.33 693.503   4
  11 -26  -5 1871.78 642.498   4
 -11 -15  -5 2561.97 630.080   2
  11 -26  -5 1870.57 645.204   2
 -26  15  -2 700.235 650.075   3
 -11 -15  -2 1555.65 602.012   3
 -11 -15  -2 663.356 496.697   4
 -11 -15  -2 825.549 529.988   2
  11 -26  -2 1874.74 553.934   4
  11 -26  -2 2034.19 679.852   2
 -11 -15   1 6549.75 842.278   3
 -11 -15   1 7176.46 951.328   4
 -11 -15   1 5597.28 993.483   2
  11 -26   1 6555.95 872.396   4
  15  11   1 6118.07 690.626   1
  11 -26   1 6198.86 1005.43   2
  26 -11   1 7087.73 636.877   1
 -15  26   1 6331.28 547.905   3
 -26  15   1 5829.69 989.620   3
  26 -11   4 930.952 491.236   1
 -11 -15   4-5.86840 452.487   3
 -11 -15   4-59.9243 441.159   4
 -11 -15   4 1050.45 719.327   2
  11 -26   4 705.887 420.408   4
  15  11   4 543.889 425.269   1
  11 -26   4-380.592 710.374   2
 -15  26   4 80.5207 325.612   3
 -26  15   4-283.914 636.202   3
  26 -11   7 3373.07 858.911   1
  15  11   7 2437.13 720.559   1
 -11 -15   7 1007.81 528.118   4
 -11 -15   7 2422.10 845.552   2
  11 -26   7 3137.75 635.864   4
 -15  26   7 2220.52 652.986   1
  11 -26   7 3257.02 952.398   2
 -15  26   7 2942.46 692.197   3
 -26  15   7 2470.78 832.885   3
 -11 -15   7 2327.66 647.414   3
 -26  16  -6 10059.3 1530.57   3
 -10 -16  -6 10917.9 1187.89   4
  10 -26  -6 10396.4 1158.96   4
 -10 -16  -6 10999.5 1117.64   2
  10 -26  -6 9368.04 1142.89   2
 -26  16  -3 2999.40 863.801   3
 -10 -16  -3 3085.01 757.361   4
  10 -26  -3 3317.26 679.271   4
 -10 -16  -3 2975.52 731.863   2
  10 -26  -3 1362.13 612.776   2
 -16  26   0 7760.51 581.647   3
 -10 -16   0 9853.30 976.000   3
 -10 -16   0 11395.1 1170.61   4
 -10 -16   0 11711.9 1294.85   2
  10 -26   0 10313.7 1071.26   4
  10 -26   0 9736.70 1206.58   2
  26 -10   0 9721.81 623.471   1
 -26  16   0 8797.37 1177.73   3
  16  10   0 10848.0 837.349   1
  26 -10   3 2586.64 546.697   1
 -10 -16   3 3002.57 658.503   3
 -10 -16   3 3720.14 709.318   4
 -10 -16   3 3157.14 807.546   2
  10 -26   3 3218.20 704.951   4
  10 -26   3 1908.24 689.081   2
  16  10   3 3060.59 574.447   1
 -16  26   3 2566.54 489.273   3
 -26  16   3 1851.74 665.748   3
 -10 -16   6 8856.83 1354.35   2
 -10 -16   6 8321.73 976.262   4
  10 -26   6 10419.3 1049.79   4
  10 -26   6 9635.76 1326.76   2
  16  10   6 7979.85 999.844   1
 -16  26   6 7918.56 940.745   3
  26 -10   6 8278.55 1059.70   1
 -26  16   6 8859.34 1213.94   3
 -10 -16   6 7530.56 985.236   3
 -16  26   6 8865.33 981.370   1
   9 -26  -7 3260.39 809.945   2
  -9 -17  -7 4306.95 842.680   4
   9 -26  -7 4002.17 807.774   4
 -26  17  -4 799.605 754.735   3
  -9 -17  -4 888.310 546.008   4
   9 -26  -4 1345.69 555.252   4
  -9 -17  -4 1337.09 664.875   2
   9 -26  -4 43.8477 505.359   2
 -26  17  -1 5715.66 1000.03   3
 -17  26  -1 3727.25 397.040   3
  -9 -17  -1 4166.87 678.147   3
  -9 -17  -1 6751.38 935.738   4
  26  -9  -1 4489.37 305.491   1
   9 -26  -1 6429.02 899.634   4
  -9 -17  -1 5025.57 875.026   2
   9 -26  -1 6057.65 991.778   2
  17   9  -1 5474.93 587.488   1
 -26  17   2 3577.25 862.053   3
  -9 -17   2 4472.88 722.377   3
  17   9   2 4501.81 671.976   1
  -9 -17   2 3376.74 707.220   4
   9 -26   2 5045.93 757.274   4
  -9 -17   2 4520.19 995.913   2
   9 -26   2 5733.33 1042.20   2
 -17  26   2 3227.24 518.722   3
  26  -9   2 5205.11 663.221   1
  -9 -17   5 5229.62 1089.27   2
  -9 -17   5 7807.03 960.887   4
   9 -26   5 6294.61 844.213   4
   9 -26   5 6635.25 1131.32   2
  17   9   5 6876.31 872.011   1
 -17  26   5 5608.22 762.320   3
  26  -9   5 4395.50 808.470   1
 -26  17   5 3636.74 908.971   3
  -9 -17   5 4678.09 755.106   3
  17   9   8 1703.15 669.514   1
  26  -9   8 981.873 707.109   1
  -9 -17   8 1327.78 655.596   1
  -9 -17   8 2153.68 976.152   2
   9 -26   8 1638.73 871.427   2
 -17  26   8 1626.32 688.936   3
 -17  26   8 626.688 550.007   1
 -26  17   8 178.489 741.619   3
   8 -26  -8 168.555 520.687   2
  -8 -18  -8 462.537 579.411   4
   8 -26  -8 464.198 539.878   4
 -26  18  -5 1644.98 801.418   3
  -8 -18  -5 3469.46 776.872   4
   8 -26  -5 3609.06 755.833   4
  -8 -18  -5 3272.97 752.759   2
   8 -26  -5 3201.33 803.201   2
 -26  18  -2 1080.07 622.132   3
 -18  26  -2 1346.19 305.462   3
  -8 -18  -2 1958.72 636.928   4
   8 -26  -2 2060.22 561.465   4
  -8 -18  -2 2383.05 724.575   2
   8 -26  -2 927.347 609.010   2
  26  -8   1 6016.48 588.648   1
  -8 -18   1 6478.93 763.510   3
  -8 -18   1 5801.20 856.062   4
  -8 -18   1 6603.91 1089.13   2
  18   8   1 5922.48 674.708   1
   8 -26   1 5986.98 872.283   4
   8 -26   1 6400.17 1037.96   2
 -18  26   1 4739.80 589.891   3
 -26  18   1 4925.85 929.837   3
  -8 -18   4 845.938 494.632   3
  26  -8   4 1411.20 535.673   1
  -8 -18   4 1590.51 545.331   4
  18   8   4 241.955 404.284   1
  -8 -18   4 942.343 735.603   2
   8 -26   4 1930.39 558.930   4
   8 -26   4 765.177 691.295   2
 -18  26   4 1721.55 503.119   3
 -26  18   4 972.314 586.359   3
  18   8   7 2489.26 736.647   1
  26  -8   7 2810.69 758.535   1
  -8 -18   7 2438.63 658.792   4
 -18  26   7 2446.01 689.987   1
  -8 -18   7 2391.17 981.542   2
   8 -26   7 3239.92 697.153   4
   8 -26   7 2331.77 920.773   2
 -18  26   7 2021.01 664.256   3
 -26  18   7 4022.30 983.433   3
 -26  19  -6 3345.42 999.099   3
  -7 -19  -6 2774.38 720.192   4
   7 -26  -6 3467.25 764.228   4
  -7 -19  -6 4123.09 824.891   2
   7 -26  -6 1916.31 717.618   2
 -26  19  -3 5428.71 1106.50   3
  -7 -19  -3 4860.80 914.873   4
   7 -26  -3 5558.53 907.695   4
  -7 -19  -3 5023.90 936.676   2
   7 -26  -3 5101.16 967.119   2
  -7 -19   0 9243.91 842.301   3
  26  -7   0 9586.11 583.583   1
  -7 -19   0 11032.8 1157.68   4
  -7 -19   0 8817.13 1189.12   2
   7 -26   0 11717.9 1156.39   4
   7 -26   0 11188.3 1317.43   2
  19   7   0 10744.6 795.134   1
 -26  19   0 6876.52 1040.59   3
 -19  26   0 7412.37 749.891   3
  -7 -19   3 3106.62 579.156   3
  -7 -19   3 5270.46 812.972   4
  -7 -19   3 5864.63 1120.87   2
   7 -26   3 4704.51 763.427   4
   7 -26   3 3567.96 898.768   2
  19   7   3 4143.08 672.391   1
 -19  26   3 3080.71 593.135   3
  26  -7   3 4427.71 649.899   1
 -26  19   3 2950.72 751.229   3
  19   7   6 2527.55 641.033   1
  26  -7   6 1539.98 609.955   1
  -7 -19   6 3765.96 718.540   4
  -7 -19   6 3227.85 1030.57   2
   7 -26   6 3848.21 693.262   4
   7 -26   6 4123.67 986.927   2
 -19  26   6 2087.52 617.218   3
 -26  19   6 1510.74 779.437   3
  -6 -20  -7 1813.48 711.689   4
   6 -26  -7 564.682 478.833   4
   6 -26  -7 1510.14 621.895   2
 -26  20  -4 6474.37 1091.36   3
  -6 -20  -4 9448.39 1129.51   4
   6 -26  -4 6458.43 950.283   4
  -6 -20  -4 9144.85 1098.86   2
   6 -26  -4 7361.59 1094.61   2
 -26  20  -1 2544.33 777.206   3
 -20  26  -1 2723.52 534.332   3
  -6 -20  -1 3559.32 808.418   4
  -6 -20  -1 5001.14 939.619   2
   6 -26  -1 5817.10 858.891   4
  20   6  -1 3719.09 462.053   1
   6 -26  -1 5635.46 1027.13   2
  26  -6   2 5716.85 651.932   1
  -6 -20   2 4670.24 555.690   3
  -6 -20   2 6674.88 890.562   4
  -6 -20   2 6880.02 1129.96   2
   6 -26   2 7483.78 933.855   4
   6 -26   2 5885.81 1035.32   2
 -20  26   2 4277.26 666.183   3
 -26  20   2 6244.44 980.121   3
  20   6   2 6017.08 702.059   1
  20   6   5 1037.36 509.428   1
  26  -6   5 2461.73 631.544   1
  -6 -20   5 2662.21 628.043   4
  -6 -20   5 1735.33 772.158   2
   6 -26   5 3332.05 657.852   4
   6 -26   5 3199.32 956.658   2
 -20  26   5 2583.63 624.908   3
 -26  20   5 1141.32 656.246   3
  -6 -20   8 3327.64 1019.90   2
   6 -26   8 4521.02 1161.53   2
 -20  26   8 3078.79 803.734   3
 -26  20   8 3682.75 1002.58   3
  20   6   8 5043.83 944.850   1
  26  -6   8 6395.69 1082.36   1
   5 -26  -8 530.563 552.381   2
  -5 -21  -8 774.901 648.740   4
   5 -26  -8 1249.33 689.407   4
 -26  21  -5 1047.14 666.517   3
  -5 -21  -5 2445.39 718.915   4
   5 -26  -5 2699.19 728.061   4
  -5 -21  -5 971.915 582.157   2
   5 -26  -5 2571.14 743.430   2
 -26  21  -2 1322.97 612.429   3
 -21  26  -2 996.658 404.052   3
  -5 -21  -2 2099.40 675.987   4
   5 -26  -2 1578.23 613.173   4
  -5 -21  -2 847.596 698.154   2
   5 -26  -2 1867.20 675.038   2
 -21  26   1 647.341 488.726   3
 -26  21   1 2322.22 761.581   3
  21   5   1 1504.51 401.860   1
  -5 -21   1 2074.86 584.555   4
   5 -26   1 1818.25 616.228   4
  -5 -21   1 953.915 689.656   2
   5 -26   1 2566.18 817.328   2
  26  -5   1 1380.25 345.384   1
  21   5   4 1105.10 515.778   1
  -5 -21   4 1486.98 609.754   4
  26  -5   4 1461.93 496.606   1
   5 -26   4 914.615 470.215   4
  -5 -21   4 783.270 671.759   2
   5 -26   4 475.497 590.272   2
 -21  26   4 300.332 453.138   3
 -26  21   4 2013.16 762.992   3
  26  -5   7 739.443 673.039   1
  -5 -21   7 1334.11 584.136   4
  -5 -21   7 1498.02 862.854   2
   5 -26   7 1341.26 568.169   4
   5 -26   7 1183.20 807.695   2
 -21  26   7 1109.26 656.964   3
 -26  21   7 1306.89 735.061   3
  21   5   7 1425.03 602.042   1
 -26  22  -6 1592.79 738.147   3
  -4 -22  -6 1295.88 578.805   4
   4 -26  -6 707.616 625.004   4
  -4 -22  -6 1256.69 674.711   2
   4 -26  -6 1454.83 690.596   2
 -26  22  -3 6204.76 1069.46   3
 -22  26  -3 3759.72 647.286   3
  -4 -22  -3 6174.85 969.077   4
   4 -26  -3 3830.86 801.119   4
  -4 -22  -3 4751.24 962.268   2
   4 -26  -3 4012.94 902.726   2
 -26  22   0 1572.33 650.175   3
  22   4   0 771.823 330.096   1
 -22  26   0 907.184 502.939   3
  -4 -22   0 2126.37 657.242   4
  26  -4   0 1036.46 267.091   1
   4 -26   0 776.624 537.422   4
  -4 -22   0 714.071 625.321   2
   4 -26   0 2293.38 832.636   2
  26  -4   3 4751.55 661.928   1
  -4 -22   3 4631.92 778.358   4
   4 -26   3 5171.04 838.407   4
  -4 -22   3 4753.11 1031.34   2
   4 -26   3 5656.64 1092.80   2
  22   4   3 6138.10 767.505   1
 -22  26   3 4292.07 762.776   3
 -26  22   3 5699.90 1000.98   3
  26  -4   6 5269.62 901.116   1
  -4 -22   6 5460.98 829.202   4
   4 -26   6 6491.30 918.098   4
  -4 -22   6 4699.46 1109.33   2
   4 -26   6 4719.32 1143.66   2
 -22  26   6 4681.71 864.476   3
 -26  22   6 4430.20 1004.67   3
  22   4   6 4348.95 800.021   1
  -3 -23  -7 1559.83 583.651   4
   3 -26  -7 1076.20 646.574   4
  -3 -23  -7 1540.07 691.256   2
   3 -26  -7 647.389 588.786   2
 -23  26  -4 4320.89 723.389   3
 -26  23  -4 4216.73 916.083   3
  -3 -23  -4 7866.02 1102.95   4
   3 -26  -4 6531.93 1001.25   4
  -3 -23  -4 8593.37 1202.46   2
   3 -26  -4 10598.4 1266.45   2
 -26  23  -1 380.092 526.142   3
 -23  26  -1 1071.24 505.115   3
  -3 -23  -1 386.481 464.135   4
   3 -26  -1 1861.04 660.205   4
  23   3  -1 1126.00 281.682   1
  -3 -23  -1 725.363 617.192   2
   3 -26  -1 670.353 645.551   2
  -3 -23   2 11263.5 1176.90   4
  26  -3   2 10934.1 845.026   1
   3 -26   2 11161.5 1213.09   4
  -3 -23   2 10601.9 1362.06   2
   3 -26   2 11026.1 1408.80   2
  23   3   2 10800.4 895.112   1
 -23  26   2 8941.20 984.940   3
 -26  23   2 8277.21 1074.75   3
  23   3   5-76.1904 424.491   1
  -3 -23   5 1292.07 584.123   4
   3 -26   5 979.207 575.323   4
  -3 -23   5 284.209 650.812   2
  26  -3   5 1039.54 569.543   1
   3 -26   5 1126.58 737.960   2
 -23  26   5 826.009 604.047   3
 -26  23   5 1587.36 681.368   3
 -26  24  -5 1107.70 780.084   3
  -2 -24  -5-568.760 526.440   4
   2 -26  -5 122.523 559.639   4
  -2 -24  -5 113.604 587.587   2
   2 -26  -5-168.825 571.843   2
 -26  24  -2 4169.16 894.173   3
 -24  26  -2 2668.98 677.675   3
  -2 -24  -2 4735.25 912.448   4
   2 -26  -2 3556.48 823.556   4
  -2 -24  -2 3685.26 950.915   2
   2 -26  -2 4532.05 997.127   2
 -24  26   1 593.894 454.473   3
 -26  24   1 166.445 576.565   3
  26  -2   1 548.744 345.141   1
  -2 -24   1 293.084 444.890   4
   2 -26   1 1722.08 633.636   4
  -2 -24   1 790.803 671.385   2
   2 -26   1 469.815 834.977   2
  24   2   1 679.031 371.185   1
  24   2   4 1533.77 537.905   1
  -2 -24   4 1250.34 594.434   4
   2 -26   4 1207.68 553.070   4
  -2 -24   4 944.951 755.892   2
   2 -26   4 2492.53 810.213   2
  26  -2   4 1190.89 502.783   1
 -24  26   4 1375.75 595.749   3
 -26  24   4 720.312 581.287   3
  -2 -24   7 90.2918 484.191   4
   2 -26   7-553.436 533.943   4
  -2 -24   7 2415.24 994.254   2
   2 -26   7 2023.26 985.527   2
  26  -2   7-47.9913 532.319   1
  24   2   7 1355.12 664.203   1
 -24  26   7 1022.07 690.743   3
 -26  24   7 33.3527 726.730   3
  -1 -25  -6 1519.40 659.904   4
  -1 -25  -6 1478.83 668.280   2
   1 -26  -6 2599.02 807.071   2
 -26  25  -3 5547.09 974.183   3
 -25  26  -3 3709.56 801.820   3
  -1 -25  -3 6702.97 1061.78   4
   1 -26  -3 5011.72 906.697   4
  -1 -25  -3 4034.79 995.250   2
   1 -26  -3 3897.56 921.247   2
 -26  25   0 323.361 517.901   3
 -25  26   0 451.194 532.101   3
  -1 -25   0 1036.90 753.251   4
   1 -26   0 1055.00 528.845   4
  -1 -25   0 1842.91 768.635   2
   1 -26   0 964.755 701.356   2
  25   1   0 513.698 267.627   1
  -1 -25   3 6804.20 958.951   4
   1 -26   3 6188.28 924.232   4
  -1 -25   3 8419.62 1371.78   2
  26  -1   3 4826.11 707.433   1
   1 -26   3 8510.76 1371.80   2
  25   1   3 6725.22 786.280   1
 -25  26   3 5121.36 903.700   3
 -26  25   3 4887.72 905.783   3
  -1 -25   6 1680.62 676.281   4
   1 -26   6 1096.13 531.861   4
  -1 -25   6 1342.77 901.937   2
   1 -26   6 1038.60 778.850   2
  26  -1   6 303.734 532.746   1
  25   1   6 1706.57 658.498   1
 -25  26   6 1894.87 726.213   3
 -26  25   6-24.2489 636.871   3
 -26  26  -4 1623.95 710.275   3
   0 -26  -4 2274.39 727.557   4
   0 -26  -4 2143.90 800.353   2
 -26  26  -1 574.671 582.590   3
   0 -26  -1 1205.54 603.635   4
   0 -26  -1 507.529 668.267   2
   0 -26   2 9271.71 1360.78   2
  26   0   2 7836.73 750.813   1
 -26  26   2 8173.45 1083.16   3
   0 -26   5-161.953 515.050   4
   0 -26   5-930.178 799.458   2
  26   0   5-183.725 461.749   1
 -26  26   5 266.092 578.423   3
  27 -27  -6 3676.64 1013.07   2
 -27   0  -6 3595.52 1208.89   3
  27 -27  -6 3863.48 899.772   4
  27 -27  -3-207.961 547.942   2
 -27   0  -3 314.490 828.971   3
  27 -27  -3-757.051 538.132   4
 -27   0   0 2357.74 979.676   3
  27 -27   0 3305.94 902.396   2
  27 -27   0 3905.82 819.280   4
 -27   0   3 1074.05 850.570   3
  27 -27   3-272.656 547.768   2
  27 -27   3 242.619 523.500   1
  27 -27   3-382.806 530.658   4
   0  27   3-203.099 575.798   1
 -27   0   6 4546.75 1200.18   3
  27 -27   6 3458.25 897.141   2
  27 -27   6 2907.17 881.993   1
  27 -27   6 2649.91 772.965   4
   0  27   6 2370.54 798.838   1
  26 -27  -4 1025.98 726.533   2
  27 -26  -4-15.6203 552.446   2
 -27   1  -4 1212.95 858.443   3
 -26  -1  -4 496.331 767.712   3
  26 -27  -4-149.760 511.539   4
  27 -26  -4-17.2487 499.302   4
  26 -27  -1 3658.84 913.791   2
 -27   1  -1 1918.87 817.107   3
 -26  -1  -1 1826.98 922.834   3
  27 -26  -1 4596.85 975.167   2
  26 -27  -1 2528.89 722.288   4
  27 -26  -1 3651.26 776.356   4
 -27   1   2 1728.61 916.118   3
 -26  -1   2 1289.22 862.380   3
  26 -27   2 819.760 516.603   2
  27 -26   2 57.7061 553.086   2
  26 -27   2 753.462 529.065   4
  27 -26   2 1037.35 646.884   4
   1  26   2 1059.73 546.251   1
 -27   1   5 2566.99 967.359   3
 -26  -1   5-740.081 746.756   3
  -1  27   5 845.867 645.678   1
  26 -27   5 1125.37 658.278   2
  27 -26   5 873.489 629.276   2
  26 -27   5 1368.40 772.406   1
  27 -26   5 2373.30 812.199   1
  26 -27   5-367.739 544.432   4
  27 -26   5 977.050 530.501   4
   1  26   5 289.981 533.508   1
  25 -27  -5 5256.15 1051.82   2
  27 -25  -5 4559.42 1022.39   2
 -27   2  -5 4570.19 1218.28   3
 -25  -2  -5 4720.05 1149.30   3
 -25  -2  -5 4899.47 981.089   2
  25 -27  -5 6050.61 966.193   4
  27 -25  -5 3228.65 764.936   4
  25 -27  -2 304.411 592.768   2
 -27   2  -2 2219.84 930.396   3
  27 -25  -2 1662.06 660.746   2
 -25  -2  -2 1733.81 897.566   3
  25 -27  -2 1292.79 568.751   4
  27 -25  -2 1817.26 693.059   4
  25 -27   1 3790.26 977.463   2
 -27   2   1 2704.35 964.757   3
 -25  -2   1 4008.78 1022.34   3
  25 -27   1 3018.30 707.325   4
  27 -25   1 3924.27 824.621   4
 -27   2   4 1398.84 803.361   3
 -25  -2   4 650.436 759.562   3
  25 -27   4 1428.79 675.837   2
  27 -25   4 249.828 556.869   2
  25 -27   4 737.874 592.277   1
  27 -25   4 54.4364 502.648   1
  25 -27   4 1580.24 683.760   4
  -2  27   4 2096.84 701.289   1
  27 -25   4 193.844 462.327   4
   2  25   4 198.987 460.613   1
  24 -27  -6 3123.75 908.190   2
 -27   3  -6 3920.62 1168.92   3
  27 -24  -6 3322.96 987.311   2
 -24  -3  -6 5094.37 1266.51   3
  24 -27  -6 5036.83 892.149   4
  27 -24  -6 3526.53 808.251   4
  24 -27  -3 1016.24 700.474   2
 -27   3  -3 1343.26 809.597   3
  27 -24  -3 1281.26 709.586   2
 -24  -3  -3 2086.83 885.306   3
  24 -27  -3-350.080 475.339   4
  27 -24  -3 169.039 472.913   4
 -24  -3   0 4920.88 1173.46   3
 -27   3   0 5504.37 1165.34   3
  27 -24   0 4309.30 893.925   2
  24 -27   0 6927.37 1026.31   4
  27 -24   0 8247.70 1024.03   4
  24 -27   0 6279.94 1066.52   2
  24 -27   3 1051.60 637.856   2
 -27   3   3 1546.37 829.221   3
 -24  -3   3 1582.98 750.759   3
  -3  27   3 1664.02 584.005   1
  27 -24   3 2271.81 743.319   2
   3  24   3 1369.64 592.826   1
  27 -24   3 647.070 628.509   1
  24 -27   3 2025.39 630.885   4
  27 -24   3 581.819 485.302   4
 -27   3   6 6130.13 1217.20   3
  27 -24   6 6378.41 1016.63   2
 -24  -3   6 2919.57 976.202   3
  24 -27   6 5518.37 1072.64   1
  27 -24   6 6573.94 1115.85   1
  24 -27   6 6799.61 957.971   4
   3  24   6 7406.59 1084.05   1
  27 -24   6 6098.48 944.587   4
  24 -27   6 6052.92 1027.03   2
  -3  27   6 6227.09 1025.31   1
  23 -27  -7 2583.39 827.511   2
 -27   4  -7 676.606 894.758   3
 -23  -4  -7-94.8571 627.164   4
  23 -27  -7 766.395 594.495   4
  27 -23  -7 472.447 560.083   4
  23 -27  -4-215.881 551.796   2
 -27   4  -4-138.538 711.606   3
 -23  -4  -4 1215.93 722.687   3
  27 -23  -4 446.267 661.769   2
 -23  -4  -4 203.379 583.974   2
  23 -27  -4 666.069 531.764   4
  27 -23  -4 891.186 536.686   4
  23 -27  -1 877.725 599.963   2
 -27   4  -1 1773.95 769.133   3
 -23  -4  -1 849.495 761.091   3
  27 -23  -1 2191.91 726.897   2
  23 -27  -1 1150.06 538.903   4
  27 -23  -1 1778.53 579.833   4
  23 -27   2 1149.03 662.186   2
 -27   4   2 461.837 765.180   3
 -23  -4   2 1431.88 751.912   3
  27 -23   2-736.134 597.277   2
  27 -23   2-477.093 479.810   1
  23 -27   2 1291.47 617.286   4
  27 -23   2 738.435 548.040   4
   4  23   2 572.415 433.592   1
 -27   4   5 803.659 773.423   3
  23 -27   5 1811.11 705.140   2
 -23  -4   5 2646.65 826.460   3
  -4  27   5 1316.90 585.427   1
  27 -23   5 1722.86 676.511   2
   4  23   5 1330.17 611.162   1
  23 -27   5 1562.15 760.090   1
  27 -23   5 2292.16 740.957   1
  23 -27   5 1890.20 601.633   4
  27 -23   5 2015.66 642.893   4
  22 -27  -5 3527.62 848.083   2
 -27   5  -5 1787.10 839.074   3
 -22  -5  -5 2558.03 856.699   3
  27 -22  -5 2299.47 848.680   2
 -22  -5  -5 3927.76 854.410   2
  22 -27  -5 3342.37 741.971   4
  27 -22  -5 2755.90 740.555   4
  22 -27  -2 3846.23 895.391   2
 -27   5  -2 2134.34 916.310   3
 -22  -5  -2 4471.55 1066.96   3
  27 -22  -2 3354.31 916.383   2
  22 -27  -2 3765.97 734.049   4
  27 -22  -2 4458.24 818.178   4
  27 -22   1 6343.74 995.743   2
 -27   5   1 3365.51 1013.02   3
 -22  -5   1 5084.12 1065.36   3
  27 -22   1 7120.94 883.708   1
  22 -27   1 5726.50 859.964   4
  27 -22   1 4931.70 861.419   4
  22 -27   1 5852.87 1024.17   2
   5  22   1 5035.17 754.520   1
  -5  27   4 2796.40 695.181   1
 -27   5   4 2912.46 971.056   3
 -22  -5   4 2180.91 772.893   3
  27 -22   4 2176.84 651.533   2
   5  22   4 1235.30 538.320   1
  27 -22   4 1276.34 623.435   1
  22 -27   4 1412.34 570.015   4
  27 -22   4 1819.68 581.868   4
  -5  27   4 1955.20 468.239   3
  22 -27   4 2461.92 736.600   2
  22 -27   7 809.718 610.950   2
  27 -22   7 2177.07 679.644   2
 -22  -5   7 1845.39 770.426   4
  22 -27   7 3750.95 996.496   1
  -5  27   7 2609.80 739.851   1
   5  22   7 2682.85 762.585   1
  22 -27   7 3459.46 726.043   4
  27 -22   7 3189.88 900.889   1
 -27   5   7 3295.43 1017.37   3
 -22  -5   7 2080.42 961.427   3
  21 -27  -6 3798.86 944.738   2
 -27   6  -6 2543.14 1033.14   3
 -21  -6  -6 1671.87 873.487   3
 -21  -6  -6 4225.28 1038.13   4
  21 -27  -6 2920.26 736.700   4
  27 -21  -6 2653.75 748.134   4
  21 -27  -3 3529.09 865.437   2
 -27   6  -3 2643.12 955.703   3
 -21  -6  -3 3621.10 940.545   3
  27 -21  -3 3710.43 869.107   2
 -21  -6  -3 3078.54 860.360   2
  21 -27  -3 4619.05 843.501   4
  27 -21  -3 2146.88 604.866   4
 -27   6   0 10144.5 1392.95   3
 -21  -6   0 13069.5 1487.92   3
  27 -21   0 13367.7 1382.87   2
  27 -21   0 13900.4 1066.43   1
  21 -27   0 13826.8 1262.90   4
  27 -21   0 14786.0 1316.69   4
  21 -27   0 12699.6 1406.66   2
 -27   6   3 1575.84 718.438   3
 -21  -6   3 1425.60 716.957   3
  27 -21   3 2910.17 718.857   2
  -6  27   3 1408.49 551.203   1
  27 -21   3 2314.93 621.612   1
   6  21   3 2152.43 585.795   1
  21 -27   3 2030.32 606.412   4
  27 -21   3 1940.46 629.223   4
  21 -27   3 1593.77 682.142   2
 -21  -6   6 3965.26 975.089   3
  27 -21   6 4190.50 803.688   2
 -21  -6   6 5820.82 1008.79   4
  21 -27   6 5020.30 1040.94   1
   6  21   6 3777.13 803.374   1
  21 -27   6 4225.58 785.063   4
  27 -21   6 4735.22 968.830   1
  -6  27   6 4261.29 729.064   3
  -6  27   6 3957.49 865.600   1
  21 -27   6 3702.36 836.745   2
 -27   6   6 3996.42 999.520   3
  20 -27  -7-290.195 566.134   2
 -27   7  -7 294.823 859.197   3
 -20  -7  -7 1290.92 695.052   4
  20 -27  -7 177.780 482.177   4
  27 -20  -7 58.7707 499.557   4
  20 -27  -4 364.034 580.413   2
 -27   7  -4 834.349 922.585   3
 -20  -7  -4 460.825 591.860   3
  27 -20  -4 1059.72 707.660   2
 -20  -7  -4 1425.90 767.392   4
 -20  -7  -4 478.255 598.658   2
  20 -27  -4 536.830 606.175   4
  27 -20  -4 748.637 518.354   4
  20 -27  -1 1769.92 731.817   2
 -27   7  -1 2966.83 865.351   3
 -20  -7  -1 3957.62 933.339   3
  27 -20  -1 2560.03 730.346   2
  27 -20  -1 3145.49 544.192   1
 -20  -7  -1 3888.82 884.578   2
  20 -27  -1 2003.18 580.180   4
  27 -20  -1 3143.55 695.609   4
 -27   7   2 524.132 624.212   3
 -20  -7   2 255.466 646.879   3
  27 -20   2 165.622 510.208   2
  27 -20   2 1528.40 526.641   1
  20 -27   2 1018.27 557.910   4
  27 -20   2 1255.51 552.525   4
  20 -27   2 762.992 480.276   2
   7  20   2 1053.05 487.375   1
 -20  -7   5 1949.34 709.546   3
  27 -20   5 1705.20 675.589   2
 -20  -7   5 2105.73 764.428   4
  -7  27   5 468.836 500.994   1
  20 -27   5 2938.41 719.792   4
  27 -20   5 1902.07 742.987   1
  -7  27   5 1933.98 543.375   3
   7  20   5 2102.63 605.435   1
  20 -27   5 1569.82 638.487   2
 -27   7   5 1809.17 895.652   3
  19 -27  -8 638.817 685.594   2
 -19  -8  -8 997.953 689.287   4
  19 -27  -8 2142.07 714.051   4
  19 -27  -5 497.815 599.269   2
 -27   8  -5 1910.55 933.296   3
 -19  -8  -5 1972.55 754.123   3
 -19  -8  -5 756.021 651.543   4
 -19  -8  -5 1259.02 593.924   2
  19 -27  -5 1867.81 626.312   4
  27 -19  -5 1900.14 605.129   4
  19 -27  -2 853.253 597.117   2
 -27   8  -2 2470.45 821.780   3
 -19  -8  -2 2038.99 815.962   3
  27 -19  -2 1397.14 659.721   2
 -19  -8  -2 1203.13 588.669   4
 -19  -8  -2 2828.17 799.986   2
  27 -19  -2 2280.28 426.484   1
  19 -27  -2 723.285 505.749   4
  27 -19  -2 2192.95 552.091   4
 -27   8   1 3080.31 888.193   3
 -19  -8   1 3763.12 901.862   3
  27 -19   1 3266.77 742.247   2
   8  19   1 4823.45 692.430   1
  27 -19   1 2375.16 530.029   1
  19 -27   1 3917.87 776.028   4
  27 -19   1 4045.34 765.757   4
  19 -27   1 3306.27 824.482   2
 -27   8   4 4925.99 1046.15   3
   8  19   4 4020.60 742.390   1
 -19  -8   4 3292.71 893.977   3
  27 -19   4 5276.95 886.804   2
 -19  -8   4 5661.04 891.277   4
  27 -19   4 4069.96 801.115   1
  19 -27   4 3342.72 683.285   4
  -8  27   4 3657.69 541.024   3
  19 -27   4 4852.42 1016.82   2
  -8  27   4 4354.70 782.862   1
   8  19   7 3000.95 818.178   1
 -19  -8   7 2974.15 737.731   4
 -19  -8   7 3745.79 1255.97   2
  19 -27   7 1161.12 744.185   1
  19 -27   7 2949.16 648.390   4
  -8  27   7 3735.93 820.218   1
  -8  27   7 1449.65 606.147   3
  27 -19   7 2722.86 851.382   1
  19 -27   7 2235.55 778.449   2
 -27   8   7 3382.21 987.907   3
 -19  -8   7 2259.09 853.692   3
  18 -27  -6 4847.06 936.873   2
 -27   9  -6 4260.11 1139.94   3
 -18  -9  -6 7275.96 1133.75   4
 -18  -9  -6 5761.55 830.049   2
  18 -27  -6 4297.85 808.795   4
 -27   9  -3 5208.55 1149.99   3
 -18  -9  -3 5205.62 1011.60   3
  27 -18  -3 5492.98 1009.05   2
 -18  -9  -3 8553.36 1137.67   4
 -18  -9  -3 7332.80 1041.71   2
  18 -27  -3 6652.88 907.111   4
  27 -18  -3 7332.56 955.842   4
  18 -27  -3 5291.74 940.708   2
 -27   9   0 2900.88 888.761   3
 -18  -9   0 4761.90 999.869   3
  27 -18   0 4343.21 844.641   2
 -18  -9   0 4460.04 960.510   4
 -18  -9   0 3733.09 870.846   2
  27 -18   0 3935.45 563.786   1
  18 -27   0 3804.49 750.141   4
  27 -18   0 4756.82 834.451   4
   9  18   0 5181.83 726.518   1
  18 -27   0 4684.26 987.971   2
 -27   9   3 3093.18 879.596   3
 -18  -9   3 3369.53 910.007   3
  27 -18   3 3445.09 765.013   2
   9  18   3 2773.80 644.701   1
 -18  -9   3 3428.04 783.374   4
 -18  -9   3 3654.41 1008.87   2
  18 -27   3 2679.41 660.699   4
  27 -18   3 3343.25 662.795   1
  -9  27   3 2704.99 403.255   3
  18 -27   3 3418.96 870.095   2
 -18  -9   6 2931.91 827.970   3
   9  18   6 2807.68 734.625   1
  -9  27   6 1855.90 637.621   1
  27 -18   6 2692.45 711.603   2
 -18  -9   6 1669.14 619.728   4
 -18  -9   6 2168.61 920.373   2
  18 -27   6 3451.64 725.403   4
  27 -18   6 3341.87 830.958   1
  18 -27   6 1962.81 731.909   2
 -27   9   6 733.635 679.232   3
  17 -27  -7 763.644 685.864   2
 -27  10  -7 756.522 812.270   3
 -17 -10  -7 1616.00 742.568   4
  17 -27  -7 1538.22 674.955   4
 -27  10  -4 2733.86 974.433   3
 -17 -10  -4 3306.95 890.287   3
 -17 -10  -4 3694.69 801.452   4
 -17 -10  -4 1876.73 643.631   2
  17 -27  -4 4500.41 804.731   4
  17 -27  -4 5301.89 937.126   2
 -27  10  -1 1383.88 686.298   3
  27 -17  -1 1501.99 595.968   2
 -17 -10  -1 1571.88 626.792   4
 -17 -10  -1 2530.25 820.723   2
  17 -27  -1 2341.73 616.092   4
  27 -17  -1 2346.14 440.586   1
  27 -17  -1 2756.51 644.475   4
  17 -27  -1 1786.76 707.135   2
 -27  10   2-336.070 612.088   3
 -17 -10   2 1286.61 681.933   3
  27 -17   2 686.494 571.226   2
 -17 -10   2 316.459 468.429   4
 -17 -10   2 345.055 657.039   2
  10  17   2 588.750 459.878   1
  17 -27   2 666.422 455.991   4
  27 -17   2 1066.84 502.825   1
  17 -27   2 1044.29 668.373   2
 -10  27   2 791.805 224.790   3
 -17 -10   5 307.861 572.548   3
 -10  27   5 288.558 427.044   1
  27 -17   5 1288.56 597.666   2
  10  17   5 1044.71 505.220   1
 -17 -10   5 478.775 699.797   2
  17 -27   5 1519.23 549.789   4
 -17 -10   5 441.886 504.005   4
  27 -17   5 871.983 566.587   1
 -10  27   5 399.944 387.310   3
  17 -27   5 506.595 637.616   2
 -27  10   5 293.847 683.530   3
 -17 -10   8 2634.93 1066.76   2
  17 -27   8 1541.01 800.249   1
 -10  27   8 1475.33 687.816   1
  17 -27   8 508.262 436.732   4
 -10  27   8 1815.12 782.263   3
  10  17   8 1412.58 668.136   1
  17 -27   8 2349.62 781.509   2
  27 -17   8 1708.09 802.427   1
 -27  10   8 2107.74 892.741   3
 -17 -10   8 1769.27 778.281   3
  16 -27  -8 955.888 699.068   2
 -16 -11  -8 927.602 662.630   4
  16 -27  -8 1281.87 642.020   4
  16 -27  -5 1988.47 717.912   2
 -27  11  -5 1833.23 864.281   3
 -16 -11  -5 595.521 523.106   4
 -16 -11  -5 1423.72 641.812   2
  16 -27  -5 847.925 509.729   4
 -27  11  -2 715.740 705.585   3
 -16 -11  -2 2940.40 772.023   3
 -16 -11  -2 2458.89 677.771   4
 -16 -11  -2 2335.66 766.038   2
  16 -27  -2 2482.02 643.964   4
  27 -16  -2 1632.58 291.130   1
  16 -27  -2 1478.94 605.572   2
 -27  11   1 2366.19 818.701   3
 -16 -11   1 2083.18 664.648   3
  27 -16   1 2233.58 693.094   2
 -16 -11   1 3363.48 732.295   4
 -16 -11   1 1875.23 781.259   2
  16 -27   1 2000.45 573.755   4
  27 -16   1 1661.41 443.278   1
  16 -27   1 1899.10 669.463   2
  11  16   1 1951.79 560.889   1
 -16 -11   4 3156.41 809.325   3
  27 -16   4 3385.56 732.004   2
 -16 -11   4 3311.69 708.477   4
 -16 -11   4 2327.53 828.418   2
 -11  27   4 2721.16 645.460   1
  11  16   4 3218.94 674.297   1
  16 -27   4 2497.52 632.712   4
  27 -16   4 2262.56 648.618   1
 -11  27   4 3032.11 480.419   3
  16 -27   4 2623.53 776.259   2
 -27  11   4 2160.89 852.989   3
 -11  27   7 4009.07 815.875   1
 -16 -11   7 2267.29 685.155   4
 -16 -11   7 1304.85 931.495   2
  16 -27   7 1071.22 705.541   1
  16 -27   7 1358.37 547.057   4
  11  16   7 1261.69 656.008   1
 -11  27   7 1428.89 643.144   3
  16 -27   7 1901.59 797.877   2
  27 -16   7 2403.99 775.784   1
 -27  11   7 3045.06 1018.46   3
 -16 -11   7 1927.26 767.583   3
  15 -27  -6 456.244 607.531   2
 -27  12  -6 403.966 719.494   3
 -15 -12  -6 1067.72 615.607   4
 -15 -12  -6 1085.57 555.521   2
  15 -27  -6 270.703 431.671   4
 -15 -12  -3 5212.20 926.789   3
 -27  12  -3 2845.10 932.133   3
 -15 -12  -3 4149.92 821.700   4
 -15 -12  -3 3097.21 768.051   2
  15 -27  -3 4290.41 795.638   4
  15 -27  -3 3436.95 821.919   2
 -27  12   0 2237.41 739.701   3
 -15 -12   0 1890.25 762.791   3
 -15 -12   0 2032.83 649.834   4
 -15 -12   0 1594.79 913.092   2
  15 -27   0 2249.81 585.245   4
  27 -15   0 1505.59 382.804   1
  15 -27   0 2035.31 645.492   2
  12  15   0 1045.22 414.237   1
 -27  12   3 2678.59 833.801   3
 -15 -12   3 2106.44 685.060   3
 -15 -12   3 3614.79 791.079   4
 -15 -12   3 1698.06 839.778   2
  15 -27   3 2957.04 663.456   4
  12  15   3 2145.58 538.276   1
  27 -15   3 2616.85 623.080   1
  15 -27   3 2976.11 736.470   2
 -12  27   3 1969.68 399.923   3
 -15 -12   6 3994.45 862.293   3
 -15 -12   6 3961.25 746.576   4
 -15 -12   6 2709.44 979.593   2
  15 -27   6 4177.74 741.837   4
  15 -27   6 6041.53 1047.74   2
 -12  27   6 3365.31 733.583   1
 -12  27   6 4821.93 779.548   3
  12  15   6 3597.45 746.847   1
  27 -15   6 5213.54 877.245   1
 -27  12   6 4257.65 962.946   3
  14 -27  -7-270.129 624.210   2
 -27  13  -7 363.674 848.909   3
 -14 -13  -7 345.660 497.516   4
  14 -27  -7 631.427 658.151   4
 -27  13  -4 2864.97 954.509   3
 -14 -13  -4 2920.36 749.541   3
 -14 -13  -4 3990.80 855.186   4
 -14 -13  -4 3879.63 850.422   2
  14 -27  -4 3549.80 721.123   4
  14 -27  -4 2696.42 749.585   2
 -27  13  -1 4645.11 980.970   3
 -14 -13  -1 4330.22 837.680   3
 -14 -13  -1 4840.51 826.293   4
 -14 -13  -1 3618.08 844.094   2
  14 -27  -1 4123.40 782.082   4
  27 -14  -1 4172.74 434.272   1
  14 -27  -1 4529.11 944.951   2
  13  14   2 3334.09 610.387   1
 -14 -13   2 3838.65 871.685   3
 -14 -13   2 4110.76 825.500   4
 -14 -13   2 3241.85 851.511   2
  14 -27   2 3260.03 650.145   4
  27 -14   2 2737.93 588.565   1
  14 -27   2 2300.67 747.003   2
 -13  27   2 2685.62 381.091   3
 -27  13   2 3630.53 1001.44   3
 -14 -13   5 1768.35 659.550   3
 -14 -13   5 1202.44 579.589   4
 -14 -13   5 2011.29 816.077   2
 -13  27   5 1948.42 577.260   1
  14 -27   5 2689.67 647.411   4
  14 -27   5 2772.90 844.709   2
 -13  27   5 1089.45 478.843   3
  13  14   5 2015.46 572.141   1
  27 -14   5 1879.82 622.283   1
 -27  13   5 456.110 759.191   3
  27 -14   8 2628.20 953.773   1
 -13  27   8 2913.30 809.102   1
 -14 -13   8 3402.06 1073.26   2
  14 -27   8 2858.99 929.864   1
  13  14   8 2269.08 749.345   1
 -13  27   8 2260.65 749.623   3
  14 -27   8 3115.07 991.520   2
 -27  13   8 1217.82 833.054   3
 -14 -13   8 1898.08 720.353   3
  13 -27  -8 3304.41 828.519   2
 -13 -14  -8 1634.78 666.171   4
  13 -27  -8 3014.51 788.873   4
 -27  14  -5 1419.48 814.192   3
 -13 -14  -5 1706.58 669.464   4
  13 -27  -5 2858.85 677.888   4
 -13 -14  -5 1843.67 624.477   2
  13 -27  -5 1550.23 643.455   2
 -27  14  -2 3344.45 872.669   3
 -13 -14  -2 2964.94 737.721   3
 -13 -14  -2 2697.33 731.628   4
 -13 -14  -2 4454.27 916.465   2
  13 -27  -2 2976.06 640.073   4
  13 -27  -2 4935.73 902.261   2
 -27  14   1 4003.31 872.427   3
 -13 -14   1 6743.64 987.332   3
 -13 -14   1 3900.75 768.270   4
 -13 -14   1 4139.54 914.425   2
  13 -27   1 3014.94 694.676   4
  27 -13   1 3832.09 567.665   1
  13 -27   1 5922.41 984.798   2
  14  13   1 4646.65 629.935   1
 -14  27   1 2472.22 340.780   3
 -13 -14   4 3276.84 765.723   3
 -13 -14   4 4535.92 803.633   4
 -13 -14   4 3771.78 975.484   2
  13 -27   4 4103.67 735.699   4
  13 -27   4 5022.04 967.947   2
  27 -13   4 4327.60 749.158   1
 -14  27   4 3469.61 552.116   3
  14  13   4 3064.25 642.338   1
 -27  14   4 1869.85 838.245   3
 -13 -14   7 336.610 553.013   3
  27 -13   7 177.297 585.345   1
 -13 -14   7 264.793 438.649   4
 -13 -14   7-146.413 809.026   2
  14  13   7-12.2245 542.363   1
  13 -27   7-318.734 404.191   4
 -14  27   7 1019.01 550.077   1
  13 -27   7 644.486 646.490   2
 -14  27   7-109.257 430.178   3
 -27  14   7-363.888 671.035   3
  12 -27  -6 3659.41 845.361   2
 -27  15  -6 4159.59 1147.66   3
  12 -27  -6 3507.95 740.729   4
 -12 -15  -6 4119.98 769.900   2
 -12 -15  -6 3999.40 864.550   4
 -27  15  -3 3900.59 971.513   3
 -12 -15  -3 3277.71 714.747   3
 -12 -15  -3 2890.87 720.293   4
  12 -27  -3 3874.62 817.020   4
 -12 -15  -3 1999.97 741.259   2
  12 -27  -3 2826.50 781.945   2
 -27  15   0 1859.68 756.034   3
  27 -12   0 1045.81 303.183   1
  15  12   0 1645.00 460.664   1
 -12 -15   0 1586.43 603.841   3
 -12 -15   0 1976.39 655.693   4
 -12 -15   0 2586.14 757.926   2
  12 -27   0 1223.30 515.938   4
  12 -27   0 2481.52 760.111   2
 -27  15   3 2801.28 866.612   3
  27 -12   3 2914.17 595.483   1
 -12 -15   3 3960.71 777.801   3
  15  12   3 2587.91 580.049   1
 -12 -15   3 5197.07 828.532   4
 -12 -15   3 4053.06 941.635   2
  12 -27   3 5358.44 805.520   4
  12 -27   3 4648.77 991.423   2
 -15  27   3 2744.34 475.044   3
 -12 -15   6 564.988 559.209   3
  27 -12   6-443.994 524.522   1
 -15  27   6 713.048 437.480   1
 -12 -15   6 42.1330 444.846   4
 -12 -15   6 722.131 814.508   2
  15  12   6 1334.52 577.947   1
  12 -27   6 2072.60 611.081   4
  12 -27   6 497.476 761.160   2
 -15  27   6 410.903 498.077   3
 -27  15   6 400.980 637.520   3
  11 -27  -7 3125.32 800.830   2
 -27  16  -7 753.194 836.710   3
 -11 -16  -7 1077.54 609.240   4
  11 -27  -7 2397.47 677.554   4
 -27  16  -4 2465.22 998.364   3
 -11 -16  -4 3142.61 765.587   4
  11 -27  -4 2557.40 635.104   4
 -11 -16  -4 2538.61 699.149   2
  11 -27  -4 1345.11 615.238   2
 -27  16  -1 1430.81 717.392   3
 -11 -16  -1 610.797 440.025   3
 -11 -16  -1 1466.27 558.152   4
 -11 -16  -1 974.546 628.973   2
  27 -11  -1 939.371 207.339   1
  11 -27  -1 1748.75 573.808   4
  11 -27  -1 853.664 638.655   2
 -27  16   2 1790.83 721.004   3
  27 -11   2 1832.96 492.158   1
 -11 -16   2 2128.76 612.609   3
 -11 -16   2 2024.39 666.516   4
 -11 -16   2 2405.59 746.926   2
  16  11   2 2225.30 525.905   1
  11 -27   2 1167.94 474.045   4
  11 -27   2 3882.72 900.855   2
 -16  27   2 1649.50 412.681   3
 -11 -16   5 1273.19 617.256   3
  27 -11   5 1084.23 581.487   1
 -11 -16   5 2228.44 653.027   4
 -11 -16   5 1227.18 788.636   2
  11 -27   5 1719.01 579.901   4
  16  11   5 367.857 415.667   1
  11 -27   5 276.095 576.525   2
 -16  27   5 1264.21 506.730   3
 -27  16   5 204.810 574.376   3
  27 -11   8 1603.29 820.558   1
  16  11   8-574.625 687.937   1
  11 -27   8 948.852 794.685   1
 -11 -16   8 1209.13 864.885   2
  11 -27   8 607.554 752.438   2
 -16  27   8 1262.85 568.960   1
 -16  27   8 2569.76 775.434   3
 -27  16   8 1958.61 864.112   3
  10 -27  -8 2124.98 729.596   2
 -10 -17  -8 2411.64 838.237   4
  10 -27  -8 1328.96 642.811   4
 -27  17  -5-106.709 671.358   3
 -10 -17  -5 1363.18 709.413   4
  10 -27  -5 407.168 466.538   4
 -10 -17  -5 832.624 571.811   2
  10 -27  -5 386.489 623.525   2
 -27  17  -2 2254.50 756.428   3
 -10 -17  -2 528.101 475.425   3
 -10 -17  -2 1075.42 630.620   4
  10 -27  -2 1532.60 584.398   4
 -10 -17  -2 1260.97 567.012   2
  10 -27  -2 592.986 519.764   2
 -17  27   1 2531.96 439.290   3
 -27  17   1 2334.33 739.174   3
  17  10   1 2631.13 512.847   1
 -10 -17   1 2387.27 569.861   3
  27 -10   1 1941.97 397.864   1
 -10 -17   1 2030.43 632.587   4
 -10 -17   1 1104.15 635.148   2
  10 -27   1 2856.83 677.308   4
  10 -27   1 2805.69 704.458   2
 -10 -17   4 3265.32 739.594   3
  27 -10   4 1399.53 498.211   1
 -10 -17   4 3781.52 713.404   4
 -10 -17   4 2748.40 886.884   2
  10 -27   4 2284.44 584.101   4
  17  10   4 3297.44 633.480   1
  10 -27   4 3858.34 913.771   2
 -17  27   4 2579.79 568.970   3
 -27  17   4 2419.38 796.014   3
  27 -10   7 1637.90 701.403   1
 -17  27   7 1076.01 532.206   1
  17  10   7 1062.00 655.798   1
 -10 -17   7 930.543 473.653   4
 -10 -17   7 618.170 838.515   2
  10 -27   7 823.926 492.252   4
  10 -27   7 1293.59 816.093   2
 -17  27   7 1531.45 609.574   3
 -27  17   7 1717.92 838.555   3
 -27  18  -6 2470.48 935.017   3
  -9 -18  -6 2353.17 744.198   4
   9 -27  -6 2822.44 704.855   4
  -9 -18  -6 1086.42 595.941   2
   9 -27  -6 1294.47 660.296   2
 -27  18  -3 3293.07 955.241   3
  -9 -18  -3 3612.43 830.647   4
   9 -27  -3 1700.47 550.580   4
  -9 -18  -3 4131.97 883.190   2
   9 -27  -3 2426.99 744.509   2
 -27  18   0 3276.56 844.609   3
 -18  27   0 2376.68 435.947   3
  27  -9   0 4106.28 418.174   1
  -9 -18   0 4348.93 640.036   3
  -9 -18   0 5278.14 934.924   4
   9 -27   0 4900.31 799.437   4
  -9 -18   0 3805.51 967.843   2
   9 -27   0 5262.01 977.892   2
  18   9   0 4735.94 573.112   1
  18   9   3 7845.97 854.713   1
  -9 -18   3 7052.21 847.892   3
  -9 -18   3 8024.81 987.354   4
  -9 -18   3 8301.31 1265.17   2
   9 -27   3 7267.74 895.955   4
   9 -27   3 6497.21 1098.30   2
 -18  27   3 5069.80 681.820   3
  27  -9   3 5382.77 711.594   1
 -27  18   3 5384.73 1008.00   3
  -9 -18   6 6802.70 922.779   4
  -9 -18   6 5308.49 1051.88   2
   9 -27   6 7534.56 930.067   4
  18   9   6 5344.60 883.465   1
   9 -27   6 5352.48 1051.79   2
 -18  27   6 5083.97 831.763   3
  27  -9   6 6599.61 985.165   1
 -27  18   6 3527.66 938.917   3
  -8 -19  -7 2206.97 700.899   4
   8 -27  -7 2476.47 720.856   4
   8 -27  -7 2191.05 691.465   2
 -27  19  -4 2807.78 933.663   3
  -8 -19  -4 3681.41 845.631   4
   8 -27  -4 4611.87 850.523   4
  -8 -19  -4 4586.49 914.021   2
   8 -27  -4 5117.27 931.503   2
 -27  19  -1 4212.76 973.029   3
 -19  27  -1 2274.48 436.166   3
  -8 -19  -1 4021.79 790.036   4
   8 -27  -1 4249.01 794.002   4
  -8 -19  -1 3170.87 807.847   2
   8 -27  -1 3570.66 856.943   2
  19   8  -1 2178.61 426.383   1
  27  -8   2 2489.54 509.540   1
 -27  19   2 2974.96 839.554   3
  19   8   2 2639.47 561.682   1
  -8 -19   2 1634.81 520.823   3
  -8 -19   2 2275.02 581.372   4
  -8 -19   2 3286.35 1012.83   2
   8 -27   2 3143.75 662.119   4
   8 -27   2 3008.54 845.190   2
 -19  27   2 1719.72 484.972   3
  27  -8   5 2506.46 710.681   1
  19   8   5 1700.73 586.047   1
  -8 -19   5 1511.52 604.740   4
  -8 -19   5 724.508 631.572   2
   8 -27   5 2479.74 622.350   4
   8 -27   5 2390.32 844.799   2
 -19  27   5 1242.61 531.498   3
 -27  19   5 1096.90 709.259   3
  19   8   8 1778.51 660.296   1
  27  -8   8 1801.21 826.893   1
  -8 -19   8 1109.33 664.419   1
  -8 -19   8-280.234 807.767   2
   8 -27   8 350.158 748.086   2
 -19  27   8 1689.79 792.749   3
 -27  19   8 648.249 766.467   3
 -27  20  -5 2205.89 841.855   3
  -7 -20  -5 1540.50 720.585   4
   7 -27  -5 2577.27 716.444   4
  -7 -20  -5 2246.54 770.302   2
   7 -27  -5 3042.76 788.839   2
 -27  20  -2 1561.34 687.834   3
 -20  27  -2 899.845 348.191   3
  -7 -20  -2 565.208 472.381   4
   7 -27  -2 1110.48 579.007   4
  -7 -20  -2 424.587 530.467   2
   7 -27  -2 698.029 567.939   2
 -20  27   1 2268.84 533.606   3
 -27  20   1 1968.71 711.153   3
  -7 -20   1 2582.91 510.124   3
  20   7   1 3147.06 520.670   1
  -7 -20   1 3518.08 727.906   4
   7 -27   1 1925.44 651.285   4
  -7 -20   1 1798.91 709.803   2
  27  -7   1 1402.05 350.735   1
   7 -27   1 3451.72 996.174   2
  27  -7   4 909.960 516.368   1
  -7 -20   4 1848.00 602.080   4
  20   7   4 344.015 437.943   1
  -7 -20   4 1463.39 743.474   2
   7 -27   4 1191.09 532.132   4
   7 -27   4 2260.57 791.213   2
 -20  27   4 561.862 445.509   3
 -27  20   4-79.0654 677.477   3
  20   7   7 539.131 589.995   1
  27  -7   7 520.623 612.647   1
  -7 -20   7 521.997 520.351   4
  -7 -20   7-591.267 791.977   2
   7 -27   7 189.328 468.499   4
   7 -27   7 133.095 750.627   2
 -20  27   7 115.777 585.872   3
 -27  20   7-70.4559 677.180   3
 -27  21  -6 1819.73 798.845   3
  -6 -21  -6 3734.88 862.860   4
   6 -27  -6 5578.98 973.417   4
  -6 -21  -6 3790.44 842.118   2
   6 -27  -6 4031.04 865.458   2
 -27  21  -3 976.200 634.754   3
  -6 -21  -3 1411.48 627.005   4
   6 -27  -3 2106.73 660.543   4
  -6 -21  -3 1623.40 668.581   2
   6 -27  -3 1677.62 726.332   2
  -6 -21   0 12713.3 1257.01   4
  -6 -21   0 13938.5 1479.62   2
   6 -27   0 14166.3 1311.06   4
   6 -27   0 13158.5 1542.03   2
  27  -6   0 13958.9 693.728   1
  21   6   0 14703.5 926.818   1
 -27  21   0 9580.11 1206.05   3
 -21  27   0 11022.9 963.397   3
  -6 -21   3 6547.49 947.026   4
  -6 -21   3 5318.97 1175.40   2
   6 -27   3 4699.20 814.059   4
  27  -6   3 3380.86 600.532   1
   6 -27   3 4344.60 1022.05   2
  21   6   3 4367.21 687.291   1
 -21  27   3 3629.41 698.148   3
 -27  21   3 4318.68 906.756   3
  21   6   6 3984.07 780.641   1
  -6 -21   6 4235.56 819.353   4
  27  -6   6 3260.12 747.280   1
  -6 -21   6 1682.42 824.428   2
   6 -27   6 1882.62 635.190   4
   6 -27   6 4371.51 1080.26   2
 -21  27   6 3044.04 735.995   3
 -27  21   6 1914.69 726.232   3
  -5 -22  -7 3659.15 885.130   4
   5 -27  -7 1878.50 697.808   4
   5 -27  -7 2599.12 778.910   2
 -27  22  -4 1011.97 707.854   3
  -5 -22  -4 2152.61 712.319   4
   5 -27  -4 439.447 496.536   4
  -5 -22  -4 1813.68 758.275   2
   5 -27  -4 2815.79 837.008   2
 -27  22  -1 5618.03 992.598   3
 -22  27  -1 4828.33 758.048   3
  -5 -22  -1 3753.09 822.119   4
   5 -27  -1 4727.20 887.323   4
  -5 -22  -1 4645.01 976.712   2
   5 -27  -1 5542.03 1140.26   2
  22   5  -1 5689.29 521.304   1
 -22  27   2 2615.74 635.257   3
 -27  22   2 4346.09 905.612   3
  27  -5   2 3677.61 544.001   1
  -5 -22   2 3784.10 789.839   4
   5 -27   2 4630.49 796.116   4
  -5 -22   2 5055.80 1044.07   2
   5 -27   2 2875.95 891.310   2
  22   5   2 3096.49 555.033   1
  22   5   5 3726.82 739.111   1
  -5 -22   5 2775.66 689.255   4
   5 -27   5 3255.70 722.077   4
  27  -5   5 1736.79 640.981   1
  -5 -22   5 4593.48 1118.91   2
   5 -27   5 3633.40 1021.42   2
 -22  27   5 2244.73 680.096   3
 -27  22   5 2763.25 839.902   3
 -27  23  -5 1247.00 747.295   3
  -4 -23  -5 1973.20 773.736   4
   4 -27  -5 225.501 580.040   4
  -4 -23  -5 2087.38 740.610   2
   4 -27  -5 1203.45 686.692   2
 -27  23  -2-412.868 646.737   3
 -23  27  -2 249.983 442.902   3
  -4 -23  -2 99.2564 583.402   4
   4 -27  -2 603.971 568.300   4
  -4 -23  -2 414.389 525.699   2
   4 -27  -2 1239.72 743.500   2
 -23  27   1 704.787 506.856   3
 -27  23   1 1702.88 716.115   3
  27  -4   1 1374.91 360.491   1
  23   4   1 1707.03 447.400   1
  -4 -23   1 2701.21 716.864   4
   4 -27   1 2147.86 658.611   4
  -4 -23   1 2192.52 859.807   2
   4 -27   1 2374.00 880.779   2
  23   4   4 425.330 452.497   1
  -4 -23   4 1487.69 594.443   4
   4 -27   4 672.400 506.428   4
  -4 -23   4 229.595 686.466   2
  27  -4   4 983.882 504.489   1
   4 -27   4 961.930 680.969   2
 -23  27   4-337.187 516.131   3
 -27  23   4 592.766 628.253   3
  -4 -23   7 601.885 546.673   4
   4 -27   7 213.733 463.510   4
  27  -4   7 456.475 659.554   1
  -4 -23   7-389.867 781.783   2
   4 -27   7-417.676 709.556   2
 -23  27   7 462.902 701.801   3
 -27  23   7 832.403 753.678   3
  23   4   7 152.126 585.656   1
  -3 -24  -6 7319.07 1113.41   4
   3 -27  -6 8554.91 1175.14   4
  -3 -24  -6 5963.32 1025.34   2
   3 -27  -6 5468.53 1004.19   2
 -27  24  -3 1362.93 668.634   3
 -24  27  -3 699.820 471.310   3
  -3 -24  -3 1255.76 728.983   4
   3 -27  -3 2724.17 738.113   4
  -3 -24  -3 2009.84 814.851   2
   3 -27  -3 2478.04 829.444   2
 -24  27   0 4526.79 757.425   3
  -3 -24   0 5803.74 988.321   4
   3 -27   0 4947.21 891.537   4
  -3 -24   0 4651.91 1001.40   2
  24   3   0 4407.04 501.041   1
   3 -27   0 5790.80 1080.66   2
 -27  24   0 4853.44 1015.50   3
  24   3   3 496.907 395.301   1
  -3 -24   3 1258.86 627.346   4
   3 -27   3 1190.33 591.952   4
  -3 -24   3-371.075 773.595   2
   3 -27   3 2046.14 850.149   2
  27  -3   3-179.864 357.743   1
 -24  27   3 444.387 518.642   3
 -27  24   3 725.049 651.030   3
  -3 -24   6 6921.98 1358.06   2
   3 -27   6 5621.55 903.492   4
  -3 -24   6 4690.79 841.988   4
  24   3   6 4912.69 886.124   1
   3 -27   6 6750.24 1318.34   2
  27  -3   6 3432.92 798.297   1
 -24  27   6 3542.01 840.325   3
 -27  24   6 2285.15 867.221   3
 -27  25  -4 1170.75 710.740   3
  -2 -25  -4 980.513 680.935   4
   2 -27  -4 432.371 540.443   4
  -2 -25  -4 524.239 686.208   2
   2 -27  -4 829.364 690.789   2
 -27  25  -1 1286.80 695.379   3
 -25  27  -1 2270.51 686.716   3
  -2 -25  -1 4230.45 887.319   4
   2 -27  -1 5371.76 1009.77   4
  -2 -25  -1 2882.80 836.858   2
   2 -27  -1 4722.26 1025.51   2
 -25  27   2 509.930 566.842   3
 -27  25   2 510.148 614.008   3
  27  -2   2 768.466 388.829   1
  -2 -25   2 846.800 549.412   4
   2 -27   2 1202.68 604.750   4
  -2 -25   2 1358.07 742.641   2
  25   2   2 1982.72 512.755   1
   2 -27   2 1793.08 865.871   2
  -2 -25   5 4573.88 888.993   4
   2 -27   5 5356.48 884.031   4
  25   2   5 4739.95 814.931   1
   2 -27   5 3931.70 1098.48   2
  27  -2   5 2851.25 682.578   1
 -25  27   5 3055.13 806.520   3
 -27  25   5 2977.56 834.769   3
 -27  26  -5 212.925 634.294   3
  -1 -26  -5 2125.67 759.330   4
   1 -27  -5 1045.54 673.362   4
  -1 -26  -5 1601.01 846.525   2
   1 -27  -5 2042.69 780.479   2
 -27  26  -2 254.431 612.920   3
 -26  27  -2 997.236 610.331   3
  -1 -26  -2 851.927 634.658   4
   1 -27  -2 925.226 563.654   4
  -1 -26  -2 1084.18 643.507   2
   1 -27  -2-251.924 744.880   2
 -26  27   1 2612.56 716.841   3
 -27  26   1 3391.90 843.201   3
  -1 -26   1 4941.23 934.135   4
   1 -27   1 5031.73 916.531   4
  -1 -26   1 5222.09 1177.28   2
   1 -27   1 3042.75 983.529   2
  26   1   1 2534.43 483.775   1
  26   1   4 1022.34 529.591   1
  -1 -26   4 134.674 503.259   4
   1 -27   4 709.443 566.115   4
  -1 -26   4-242.720 703.248   2
   1 -27   4 1340.66 822.758   2
  27  -1   4 523.726 440.478   1
 -26  27   4-10.2431 568.309   3
 -27  26   4 649.258 636.373   3
   0 -27  -6 1881.34 794.094   4
   0 -27  -6 1669.38 735.809   2
 -27  27  -3 654.335 610.267   3
   0 -27  -3 346.401 522.868   4
   0 -27  -3 51.9614 626.215   2
 -27  27   0 2697.39 810.830   3
   0 -27   0 3351.46 786.015   4
   0 -27   0 3175.25 947.327   2
 -27  27   3-269.469 538.565   3
  27   0   3 487.820 377.133   1
   0 -27   3 380.520 538.400   4
   0 -27   3 1001.60 845.086   2
   0 -27   6 3335.77 754.966   4
   0 -27   6 2750.46 1090.94   2
  27   0   6 1964.79 759.529   1
 -27  27   6 3137.06 983.686   3
  28 -28  -4 4064.55 1058.18   2
 -28   0  -4 2260.71 994.536   3
  28 -28  -4 4091.61 902.091   4
 -28   0  -1-837.802 899.300   3
  28 -28  -1 594.715 646.844   2
  28 -28  -1-342.387 479.818   4
 -28   0   2 1380.94 859.136   3
  28 -28   2 1666.71 800.229   2
  28 -28   2 48.6864 558.647   4
 -28   0   5-386.504 722.070   3
  28 -28   5 546.046 604.120   2
   0  28   5-345.607 592.001   1
  28 -28   5 278.669 653.363   1
  28 -28   5 696.932 581.235   4
  27 -28  -5 2140.75 847.065   2
  28 -27  -5 4130.74 1032.13   2
 -28   1  -5 4102.99 1216.52   3
 -27  -1  -5 1392.42 1024.97   3
 -27  -1  -5 2373.26 883.925   2
  27 -28  -5 2935.62 795.048   4
  28 -27  -5 2257.11 738.019   4
  27 -28  -2 1105.83 752.096   2
 -28   1  -2 750.183 809.481   3
  28 -27  -2 1167.82 678.340   2
 -27  -1  -2 1192.36 876.769   3
  27 -28  -2 1805.67 715.027   4
  28 -27  -2 1426.15 623.372   4
 -28   1   1 1807.54 905.339   3
 -27  -1   1 2317.31 955.921   3
  27 -28   1 1177.25 674.285   2
  28 -27   1 2477.02 915.603   2
  27 -28   1 1646.60 634.372   4
  28 -27   1 1670.09 614.968   4
 -28   1   4 2112.19 854.726   3
 -27  -1   4 1009.95 780.396   3
  -1  28   4 238.429 532.732   1
  27 -28   4 413.720 636.878   2
  28 -27   4 1195.54 672.373   2
  27 -28   4 1171.24 710.745   1
  28 -27   4 1207.59 655.538   1
   1  27   4 858.170 590.014   1
  27 -28   4 962.424 637.634   4
  28 -27   4 624.471 585.324   4
  26 -28  -6 1202.29 862.235   2
  28 -26  -6 382.070 715.472   2
 -28   2  -6-80.6475 852.332   3
 -26  -2  -6 111.052 831.025   3
  26 -28  -6 774.951 597.605   4
  28 -26  -6 893.104 667.499   4
 -26  -2  -3 6709.01 1318.24   3
  26 -28  -3 4164.92 980.256   2
 -28   2  -3 6356.10 1261.83   3
  28 -26  -3 4549.89 955.232   2
  26 -28  -3 4591.58 882.437   4
  28 -26  -3 4115.23 840.057   4
  26 -28   0 1236.70 635.417   2
 -28   2   0 2257.71 870.739   3
 -26  -2   0 2606.79 992.011   3
  28 -26   0 3474.39 874.777   2
  26 -28   0 3138.76 729.770   4
  28 -26   0 1359.03 582.808   4
 -28   2   3 4459.55 1147.80   3
 -26  -2   3 3418.73 1009.53   3
  26 -28   3 4862.79 953.560   2
   2  26   3 4173.13 801.732   1
  28 -26   3 4193.91 955.953   2
  -2  28   3 3316.70 767.506   1
  28 -26   3 3655.03 809.201   1
  26 -28   3 4602.98 880.478   4
  28 -26   3 5681.21 1047.89   4
 -28   2   6 2521.83 956.617   3
 -26  -2   6 42.1348 707.800   3
   2  26   6-269.119 585.725   1
  26 -28   6 663.417 574.990   4
  28 -26   6 1663.28 660.661   4
  -2  28   6-380.644 569.931   1
  25 -28  -4 1825.27 779.411   2
 -28   3  -4-191.517 755.677   3
  28 -25  -4 441.532 642.680   2
 -25  -3  -4 998.740 995.271   3
 -25  -3  -4-127.545 642.003   2
  25 -28  -4 755.383 589.061   4
  28 -25  -4 1833.93 702.768   4
  25 -28  -1 444.332 573.121   2
 -28   3  -1 1231.01 802.754   3
 -25  -3  -1 1181.92 879.110   3
  28 -25  -1-58.4701 523.512   2
  25 -28  -1 500.126 544.722   4
  28 -25  -1 1071.76 642.487   4
  25 -28   2 2321.85 746.862   2
 -28   3   2 2957.31 1033.48   3
 -25  -3   2 1691.45 814.773   3
   3  25   2 2657.80 670.054   1
  28 -25   2 1243.07 648.193   2
  28 -25   2 1610.05 624.028   1
  25 -28   2 1935.39 609.134   4
  28 -25   2 1857.45 653.377   4
 -28   3   5 1720.22 843.586   3
 -25  -3   5-146.816 708.426   3
  25 -28   5 1262.46 660.839   2
  28 -25   5 341.754 600.501   2
  -3  28   5 2392.17 761.384   1
  25 -28   5 874.632 762.157   1
  28 -25   5 527.938 707.476   1
   3  25   5 1512.31 643.821   1
  25 -28   5 1210.80 592.022   4
  28 -25   5 880.584 560.236   4
  24 -28  -5 3962.91 910.550   2
 -28   4  -5 5621.60 1272.94   3
 -24  -4  -5 2940.31 1030.51   3
  28 -24  -5 2792.63 906.733   2
 -24  -4  -5 3522.22 937.885   2
  24 -28  -5 3321.23 790.071   4
  28 -24  -5 4427.91 866.242   4
  24 -28  -2 1960.54 763.642   2
 -28   4  -2 1521.90 817.293   3
 -24  -4  -2 3484.34 1087.51   3
  28 -24  -2 2332.67 715.548   2
  24 -28  -2 1910.54 667.230   4
  28 -24  -2 2223.14 672.808   4
  28 -24   1 4747.71 901.318   2
  24 -28   1 2261.08 735.741   2
 -28   4   1 2999.70 1041.74   3
 -24  -4   1 3033.20 922.459   3
  28 -24   1 3744.05 751.676   1
  24 -28   1 4115.53 818.996   4
  28 -24   1 3042.19 798.483   4
  24 -28   4 2288.15 796.210   2
 -28   4   4 3477.70 1029.81   3
 -24  -4   4 2417.76 905.475   3
  28 -24   4 4279.41 898.611   2
  -4  28   4 3966.92 819.054   1
  28 -24   4 2856.72 804.469   1
  24 -28   4 3997.08 797.828   4
  28 -24   4 3690.06 791.933   4
   4  24   4 3206.47 759.230   1
  23 -28  -6 3164.47 876.017   2
 -28   5  -6 2586.40 1148.13   3
 -23  -5  -6 2268.18 1010.79   3
 -23  -5  -6 3148.32 954.209   4
  23 -28  -6 1479.66 644.627   4
  28 -23  -6 1914.57 695.983   4
  28 -23  -3 7221.15 1153.89   2
 -23  -5  -3 7247.94 1276.54   3
 -28   5  -3 5800.36 1225.08   3
 -23  -5  -3 6475.28 1144.63   2
  23 -28  -3 7054.94 1002.30   4
  28 -23  -3 6942.89 993.600   4
  23 -28  -3 9968.96 1321.87   2
  23 -28   0 4054.93 874.997   2
 -28   5   0 1128.25 801.391   3
 -23  -5   0 1281.64 844.742   3
  28 -23   0 3345.45 858.712   2
  28 -23   0 4187.33 704.385   1
  23 -28   0 3410.60 762.635   4
  28 -23   0 4227.41 810.212   4
  28 -23   3 10114.9 1251.71   2
   5  23   3 8857.76 1065.79   1
  28 -23   3 9201.72 1089.08   1
  23 -28   3 9874.66 1132.86   4
  28 -23   3 11952.9 1234.56   4
  23 -28   3 8032.01 1200.07   2
 -28   5   3 8470.37 1331.41   3
 -23  -5   3 9968.17 1371.14   3
  23 -28   6 3530.60 955.024   2
 -23  -5   6 5784.92 1168.02   3
  28 -23   6 4721.73 931.836   2
  -5  28   6 4274.12 866.434   1
   5  23   6 3463.51 819.008   1
  23 -28   6 3852.36 952.802   1
  23 -28   6 4865.21 831.615   4
  28 -23   6 4343.96 975.758   1
 -28   5   6 4053.54 1146.06   3
  22 -28  -7-803.502 667.512   2
 -28   6  -7 187.253 944.019   3
 -22  -6  -7 224.477 760.703   4
  22 -28  -7 638.453 609.734   4
  28 -22  -7 777.449 537.698   4
  22 -28  -4 304.571 586.151   2
 -28   6  -4 2073.81 953.899   3
 -22  -6  -4-220.334 648.065   3
  28 -22  -4 378.265 600.332   2
 -22  -6  -4-55.0603 594.204   2
  22 -28  -4 859.624 513.356   4
  28 -22  -4 476.719 535.526   4
  22 -28  -1 355.623 587.036   2
 -28   6  -1 517.416 725.993   3
 -22  -6  -1 1031.48 753.219   3
  28 -22  -1-250.149 542.215   2
  28 -22  -1 1017.79 447.237   1
  22 -28  -1 1583.57 628.991   4
  28 -22  -1 1182.05 579.521   4
 -28   6   2 2108.13 907.608   3
 -22  -6   2 3604.58 913.002   3
  28 -22   2 2066.24 659.776   2
  28 -22   2 2878.67 678.368   1
   6  22   2 1125.86 510.467   1
  22 -28   2 2545.00 687.264   4
  28 -22   2 2532.42 697.043   4
  22 -28   2 3133.95 802.461   2
 -28   6   5 1770.47 864.158   3
 -22  -6   5-637.622 671.185   3
   6  22   5-145.355 555.811   1
  28 -22   5 1035.77 568.036   2
  -6  28   5 559.934 596.615   1
  28 -22   5 1109.28 636.892   1
  22 -28   5 715.848 502.352   4
  22 -28   5 734.043 587.166   2
  21 -28  -5 3369.48 878.658   2
 -28   7  -5 1803.31 996.106   3
 -21  -7  -5-123.677 713.905   3
 -21  -7  -5 3815.49 959.155   4
 -21  -7  -5 3072.35 819.317   2
  21 -28  -5 2908.44 735.363   4
  28 -21  -5 1849.79 642.927   4
  28 -21  -2 6333.31 1051.80   2
 -28   7  -2 3473.93 1063.19   3
 -21  -7  -2 4841.54 1027.53   3
  28 -21  -2 3608.12 559.917   1
 -21  -7  -2 8324.95 1237.05   2
  21 -28  -2 5992.29 1010.71   4
  28 -21  -2 4599.08 851.795   4
  21 -28  -2 4773.58 990.198   2
 -28   7   1 2844.87 947.193   3
 -21  -7   1 3472.70 996.280   3
  28 -21   1 3189.64 800.554   2
  28 -21   1 3343.26 637.523   1
  21 -28   1 4105.41 801.734   4
  28 -21   1 4877.86 874.547   4
   7  21   1 4782.48 777.989   1
  21 -28   1 5391.78 984.532   2
  -7  28   4 3448.02 713.440   1
 -28   7   4 3505.80 947.111   3
 -21  -7   4 3054.55 859.975   3
  28 -21   4 3001.44 751.980   2
   7  21   4 2321.17 660.084   1
 -21  -7   4 3501.45 802.674   4
  28 -21   4 2240.73 688.336   1
  21 -28   4 2101.63 637.185   4
  21 -28   4 2602.70 774.534   2
 -21  -7   7 2455.85 898.266   3
 -21  -7   7 3768.42 922.370   4
 -21  -7   7 5945.99 1395.83   2
  21 -28   7 1622.81 868.808   1
   7  21   7 2438.47 737.705   1
  21 -28   7 1113.60 591.946   4
  -7  28   7 1446.42 616.688   3
  28 -21   7 1091.51 710.361   1
  -7  28   7 1832.88 675.732   1
  21 -28   7 3162.17 911.329   2
 -28   7   7 4146.08 1109.27   3
  20 -28  -6 2733.27 851.612   2
 -28   8  -6 3067.78 1179.67   3
 -20  -8  -6 2885.99 909.464   4
  20 -28  -6 2354.64 720.810   4
  28 -20  -6 2009.06 632.430   4
 -28   8  -3 7799.83 1434.10   3
 -20  -8  -3 8457.51 1238.96   3
  28 -20  -3 8427.81 1194.09   2
 -20  -8  -3 9491.93 1275.47   4
 -20  -8  -3 12236.8 1405.04   2
  20 -28  -3 9233.91 1134.79   4
  28 -20  -3 9392.59 1093.17   4
  20 -28  -3 10126.2 1302.25   2
 -28   8   0 2862.66 973.195   3
 -20  -8   0 3952.42 1024.59   3
  28 -20   0 3855.51 828.908   2
 -20  -8   0 2583.56 839.243   2
  28 -20   0 2567.29 561.104   1
  20 -28   0 4022.75 786.127   4
  28 -20   0 2442.84 642.668   4
  20 -28   0 2725.27 837.020   2
  28 -20   3 6474.80 933.996   2
 -20  -8   3 6245.22 1029.42   4
  28 -20   3 7835.20 965.103   1
  20 -28   3 7744.10 996.050   4
  20 -28   3 6985.46 1073.49   2
   8  20   3 5442.53 802.598   1
 -28   8   3 7084.63 1250.32   3
 -20  -8   3 8048.66 1253.06   3
 -20  -8   6 2343.58 897.126   3
  28 -20   6 2052.22 714.812   2
 -20  -8   6 1318.79 600.672   4
 -20  -8   6 2666.30 988.472   2
  -8  28   6 1803.47 655.068   1
  20 -28   6 1900.67 782.814   1
   8  20   6 2828.47 743.340   1
  20 -28   6 1711.22 607.214   4
  28 -20   6 2133.06 807.574   1
  -8  28   6 1902.80 601.724   3
  20 -28   6 1702.52 806.045   2
 -28   8   6 2222.24 915.329   3
  19 -28  -7 784.025 648.843   2
 -28   9  -7 1136.31 962.459   3
 -19  -9  -7 277.778 596.612   4
  19 -28  -7-176.969 615.524   4
  19 -28  -4 585.224 583.984   2
 -28   9  -4 811.052 813.174   3
 -19  -9  -4 1135.71 806.695   3
 -19  -9  -4 2130.73 719.630   4
 -19  -9  -4 1775.86 683.398   2
  19 -28  -4 1442.04 562.050   4
  28 -19  -4 1713.58 580.605   4
 -28   9  -1 943.060 741.252   3
 -19  -9  -1 1230.64 678.154   3
  28 -19  -1 2134.15 781.735   2
 -19  -9  -1 2271.49 721.964   4
 -19  -9  -1 1658.58 749.757   2
  28 -19  -1 702.681 358.442   1
  19 -28  -1 487.333 450.719   4
  28 -19  -1 472.739 454.037   4
  19 -28  -1 2157.92 736.302   2
 -28   9   2 1919.65 823.331   3
 -19  -9   2 3240.31 839.908   3
  28 -19   2 1269.32 616.039   2
 -19  -9   2 1789.56 624.137   4
 -19  -9   2 1121.51 736.722   2
  19 -28   2 3072.75 701.545   4
  28 -19   2 1869.68 543.882   1
   9  19   2 2645.36 621.754   1
  19 -28   2 1251.56 672.025   2
 -19  -9   5 428.416 610.882   3
  -9  28   5 799.271 541.572   1
  28 -19   5 844.918 604.639   2
 -19  -9   5 609.356 549.911   4
 -19  -9   5 1410.91 923.750   2
  19 -28   5 853.212 524.104   4
   9  19   5 1787.46 614.401   1
  28 -19   5 272.667 529.136   1
  -9  28   5 1028.58 456.983   3
  19 -28   5 508.916 599.323   2
 -28   9   5 836.390 763.299   3
  18 -28  -5 3801.90 874.718   2
 -28  10  -5 5029.96 1202.19   3
 -18 -10  -5 3788.06 1005.16   3
 -18 -10  -5 3515.34 829.969   4
 -18 -10  -5 4772.28 895.927   2
  18 -28  -5 2940.44 726.652   4
 -28  10  -2 2466.87 918.201   3
 -18 -10  -2 3174.09 840.427   3
 -18 -10  -2 4974.35 923.972   4
  28 -18  -2 2794.35 413.748   1
 -18 -10  -2 3705.55 871.692   2
  18 -28  -2 3431.30 733.170   4
  28 -18  -2 2728.02 686.376   4
  18 -28  -2 5851.80 1042.64   2
 -18 -10   1 8716.01 1229.63   3
  28 -18   1 7277.85 1047.93   2
 -18 -10   1 7954.64 1090.07   4
 -18 -10   1 5958.78 1128.89   2
  10  18   1 7028.70 896.619   1
  28 -18   1 6755.27 753.121   1
  18 -28   1 6732.81 922.284   4
  18 -28   1 8924.34 1241.99   2
 -28  10   1 6759.71 1155.38   3
 -28  10   4 6038.20 1124.70   3
  28 -18   4 4098.93 813.652   2
 -18 -10   4 6529.80 1014.75   4
 -18 -10   4 3838.83 1081.28   2
  10  18   4 7274.38 939.587   1
  18 -28   4 6216.34 915.753   4
 -10  28   4 4844.04 598.945   3
  28 -18   4 4539.01 789.019   1
  18 -28   4 4025.32 906.509   2
 -18 -10   4 5816.61 1035.66   3
 -18 -10   7 1931.08 861.382   3
  10  18   7 2264.14 727.723   1
 -10  28   7 2447.38 693.899   1
 -18 -10   7 1757.76 639.069   4
 -18 -10   7 3374.98 1141.42   2
  18 -28   7 3110.78 913.242   1
  18 -28   7 1790.02 588.072   4
 -10  28   7 3560.40 764.501   3
  28 -18   7 1601.30 732.686   1
  18 -28   7 3159.77 850.059   2
 -28  10   7 2602.81 950.330   3
  17 -28  -6 1928.22 738.819   2
 -17 -11  -6 2151.55 788.840   4
 -28  11  -6 282.516 788.976   3
  17 -28  -6 1675.15 620.259   4
 -17 -11  -3 6387.75 1111.17   3
 -28  11  -3 5545.88 1181.92   3
 -17 -11  -3 6890.07 1040.16   4
 -17 -11  -3 8448.03 1149.54   2
  17 -28  -3 9417.45 1096.00   4
  17 -28  -3 7592.45 1123.50   2
 -28  11   0 1652.18 815.174   3
  11  17   0 2145.19 593.653   1
 -17 -11   0 2870.21 808.113   3
  28 -17   0 1271.81 591.222   2
 -17 -11   0 2512.66 724.434   4
 -17 -11   0 3228.91 939.311   2
  17 -28   0 3566.79 725.249   4
  28 -17   0 2191.31 438.903   1
  17 -28   0 2704.30 813.903   2
 -28  11   3 1576.78 799.332   3
 -17 -11   3 3160.74 798.233   3
  11  17   3 4342.91 720.105   1
  28 -17   3 3077.92 722.825   2
 -17 -11   3 4057.35 814.038   4
 -17 -11   3 4147.95 1042.94   2
  17 -28   3 4184.61 739.377   4
  28 -17   3 2804.76 664.303   1
 -11  28   3 3346.46 456.094   3
  17 -28   3 3802.59 861.573   2
 -17 -11   6 1459.28 787.588   3
  11  17   6 1570.57 616.654   1
 -17 -11   6 3214.79 756.177   4
 -17 -11   6 2848.46 1048.32   2
  17 -28   6 3674.21 744.476   4
 -11  28   6 2269.32 625.703   3
 -11  28   6 1110.91 570.121   1
  28 -17   6 2664.14 788.316   1
  17 -28   6 1394.13 673.167   2
 -28  11   6 661.468 797.095   3
  16 -28  -7 157.121 583.610   2
 -28  12  -7 1681.56 940.003   3
 -16 -12  -7 294.877 552.584   4
  16 -28  -7 510.320 611.870   4
  16 -28  -4 3505.13 884.017   2
 -28  12  -4 1566.21 895.094   3
 -16 -12  -4 2574.26 862.902   3
 -16 -12  -4 2277.42 774.441   4
 -16 -12  -4 3942.61 847.570   2
  16 -28  -4 4611.28 811.157   4
 -28  12  -1 1328.49 745.753   3
 -16 -12  -1-172.583 538.501   3
 -16 -12  -1 36.5757 484.753   4
 -16 -12  -1 1801.08 708.431   2
  16 -28  -1 485.199 487.100   4
  28 -16  -1 126.868 268.173   1
  16 -28  -1 457.001 533.393   2
 -28  12   2 3628.79 918.327   3
 -16 -12   2 2139.66 730.648   3
 -16 -12   2 3113.31 701.933   4
 -16 -12   2 4506.02 994.977   2
  16 -28   2 3592.86 698.598   4
  16 -28   2 4490.72 956.501   2
  12  16   2 3292.66 669.125   1
  28 -16   2 2162.24 543.641   1
 -16 -12   5 51.8918 583.771   3
  12  16   5 55.5230 442.855   1
 -16 -12   5 516.426 500.378   4
 -16 -12   5 550.003 777.939   2
 -12  28   5 717.829 470.452   1
  16 -28   5 952.154 491.955   4
 -12  28   5 747.851 448.492   3
  16 -28   5 817.156 645.599   2
  28 -16   5 241.532 506.890   1
 -28  12   5 1404.57 757.354   3
  15 -28  -5 684.906 546.695   2
 -28  13  -5 2136.42 847.997   3
 -15 -13  -5 1961.61 770.542   4
 -15 -13  -5 686.429 561.764   2
  15 -28  -5 2772.37 735.600   4
 -15 -13  -2 5794.95 970.938   3
 -28  13  -2 5613.88 1166.76   3
 -15 -13  -2 6066.85 962.172   4
 -15 -13  -2 4970.81 950.341   2
  15 -28  -2 4468.54 794.432   4
  15 -28  -2 7098.46 1094.47   2
 -28  13   1 98.9183 575.938   3
 -15 -13   1 1631.04 666.827   3
 -15 -13   1 1735.22 659.662   4
 -15 -13   1 1265.73 645.134   2
  15 -28   1 1608.34 558.921   4
  13  15   1 2363.59 549.771   1
  28 -15   1 2314.46 517.168   1
  15 -28   1 2608.41 738.450   2
  13  15   4 7179.06 918.796   1
 -15 -13   4 7677.09 1030.89   4
 -15 -13   4 6686.19 1223.76   2
  15 -28   4 6281.23 910.713   4
  28 -15   4 5671.18 879.410   1
  15 -28   4 6570.22 1075.53   2
 -13  28   4 6001.32 675.157   3
 -28  13   4 7480.89 1184.97   3
 -15 -13   4 7586.98 1066.02   3
 -15 -13   7 1628.24 687.456   3
 -15 -13   7 3652.61 798.182   4
 -15 -13   7 2993.90 1031.13   2
  15 -28   7 2712.85 656.590   4
 -13  28   7 3237.64 758.820   1
  13  15   7 3156.30 786.794   1
 -13  28   7 1816.08 656.899   3
  15 -28   7 4363.42 958.851   2
 -28  13   7 1635.03 865.438   3
  28 -15   7 3597.16 921.272   1
  14 -28  -6 4494.85 902.551   2
 -28  14  -6 2826.12 1051.26   3
 -14 -14  -6 3421.75 843.397   4
  14 -28  -6 4267.57 844.722   4
 -14 -14  -6 3092.95 754.620   2
 -28  14  -3 1384.20 788.996   3
 -14 -14  -3 4406.99 885.008   3
 -14 -14  -3 2531.57 747.368   4
 -14 -14  -3 3606.32 862.826   2
  14 -28  -3 2426.31 692.096   4
  14 -28  -3 4480.67 938.539   2
 -28  14   0 1895.53 815.834   3
 -14 -14   0 3322.35 804.398   3
 -14 -14   0 2942.62 723.868   4
 -14 -14   0 1628.47 710.128   2
  14 -28   0 3734.41 771.250   4
  14  14   0 2526.40 559.176   1
  14 -28   0 1984.64 729.382   2
  28 -14   0 1899.10 405.549   1
 -28  14   3 1717.84 772.483   3
 -14 -14   3 2988.77 746.996   3
 -14 -14   3 4136.14 807.119   4
 -14 -14   3 4219.21 1059.79   2
  14 -28   3 4257.85 777.691   4
  14  14   3 2748.75 615.106   1
  14 -28   3 2352.97 770.133   2
 -14  28   3 3002.83 477.883   3
  28 -14   3 3474.84 640.551   1
 -14 -14   6 2968.61 845.008   3
 -14 -14   6 4962.28 837.500   4
 -14 -14   6 4832.03 1171.13   2
  14 -28   6 5332.13 825.712   4
  28 -14   6 4626.48 892.018   1
  14  14   6 4274.71 802.263   1
  14 -28   6 3907.65 933.622   2
 -14  28   6 3885.12 719.412   3
 -14  28   6 5226.13 866.455   1
 -28  14   6 2463.37 898.680   3
  13 -28  -7 2518.66 761.800   2
 -28  15  -7 3233.82 1201.32   3
 -13 -15  -7 3096.38 806.591   4
  13 -28  -7 4257.51 902.471   4
 -28  15  -4 4848.63 1168.82   3
 -13 -15  -4 6633.63 1040.11   4
 -13 -15  -4 7473.00 1066.57   2
  13 -28  -4 6310.84 911.646   4
  13 -28  -4 7721.29 1133.73   2
 -28  15  -1 767.906 716.583   3
 -13 -15  -1 2601.63 677.866   3
 -13 -15  -1 2830.56 719.750   4
 -13 -15  -1 2472.77 798.158   2
  13 -28  -1 1368.52 636.561   4
  13 -28  -1 2609.27 784.890   2
 -28  15   2 2810.12 864.575   3
 -13 -15   2 5067.79 873.058   3
 -13 -15   2 5294.34 865.908   4
 -13 -15   2 4107.38 985.536   2
  13 -28   2 5949.33 888.398   4
  15  13   2 6098.73 771.040   1
  28 -13   2 4180.71 623.016   1
  13 -28   2 3677.63 889.341   2
 -15  28   2 3510.91 467.781   3
  28 -13   5 1440.09 629.853   1
 -13 -15   5 2142.44 687.723   3
 -13 -15   5 1776.62 618.523   4
 -13 -15   5 2751.09 942.898   2
  13 -28   5 1464.99 539.704   4
  13 -28   5 2382.15 805.330   2
  15  13   5 1589.97 564.707   1
 -15  28   5 776.694 444.189   3
 -28  15   5 1214.76 724.169   3
 -28  16  -5 418.954 711.634   3
 -12 -16  -5 1512.01 631.459   4
  12 -28  -5-768.660 517.330   4
 -12 -16  -5 1032.28 614.334   2
  12 -28  -5 522.605 627.585   2
 -28  16  -2 1657.43 766.388   3
 -12 -16  -2 3179.43 798.920   3
 -12 -16  -2 4046.51 852.785   4
 -12 -16  -2 3405.21 863.987   2
  12 -28  -2 2784.24 685.039   4
  12 -28  -2 3844.07 877.091   2
 -28  16   1-34.7255 541.408   3
  28 -12   1 535.854 360.885   1
 -12 -16   1 386.764 498.841   3
 -12 -16   1 1123.96 570.477   4
  16  12   1 417.982 327.389   1
 -12 -16   1-295.925 561.091   2
  12 -28   1-123.191 414.554   4
  12 -28   1 245.563 665.833   2
  28 -12   4 1864.58 592.481   1
 -12 -16   4 2365.65 707.823   3
 -12 -16   4 3264.79 711.878   4
 -12 -16   4 4350.90 997.238   2
  12 -28   4 3370.84 679.194   4
  12 -28   4 4175.80 1013.79   2
 -16  28   4 4093.09 636.579   3
  16  12   4 3305.64 641.985   1
 -28  16   4 1366.05 791.619   3
 -16  28   7 695.086 567.735   1
  28 -12   7-60.4061 562.303   1
 -12 -16   7-99.0045 465.569   4
 -12 -16   7 452.244 698.323   2
  16  12   7 334.203 562.468   1
  12 -28   7 375.292 437.667   4
  12 -28   7 555.034 678.406   2
 -16  28   7 588.281 534.413   3
 -28  16   7 946.167 743.398   3
 -28  17  -6 1730.96 1008.27   3
 -11 -17  -6 1366.70 662.480   4
  11 -28  -6 3004.26 759.195   4
 -11 -17  -6 905.660 561.258   2
  11 -28  -6 2160.26 733.991   2
 -28  17  -3 3195.42 1017.23   3
 -11 -17  -3 3105.55 732.493   4
  11 -28  -3 3540.92 758.878   4
 -11 -17  -3 4426.78 871.298   2
  11 -28  -3 4203.07 913.717   2
 -28  17   0 4064.42 1003.21   3
  17  11   0 2390.11 462.920   1
 -11 -17   0 2098.63 618.066   3
 -11 -17   0 3154.30 708.103   4
 -11 -17   0 3271.22 854.923   2
  11 -28   0 2415.67 632.809   4
  11 -28   0 3358.15 857.412   2
  28 -11   0 2519.67 364.491   1
 -11 -17   3 6879.33 965.504   3
  17  11   3 7143.75 851.245   1
 -11 -17   3 7675.23 1048.68   4
 -11 -17   3 10540.4 1405.52   2
  11 -28   3 7985.01 1010.69   4
  11 -28   3 8893.37 1325.10   2
  28 -11   3 8520.54 844.511   1
 -17  28   3 7478.52 766.776   3
 -28  17   3 9650.04 1258.88   3
  28 -11   6 580.803 530.402   1
 -11 -17   6 2541.97 706.338   4
 -11 -17   6 3217.42 1059.56   2
  17  11   6 1862.53 656.481   1
  11 -28   6 1531.96 512.578   4
  11 -28   6 1537.52 785.235   2
 -17  28   6 2118.70 612.183   3
 -28  17   6 1851.07 776.047   3
  10 -28  -7 2561.65 812.678   2
 -28  18  -7 2376.33 1075.32   3
 -10 -18  -7 2934.06 784.191   4
  10 -28  -7 3172.87 789.012   4
 -28  18  -4 4252.56 1087.63   3
 -10 -18  -4 4197.42 854.487   4
 -10 -18  -4 5108.39 930.713   2
  10 -28  -4 4719.32 867.083   4
  10 -28  -4 4845.74 941.831   2
 -28  18  -1 4625.33 1012.24   3
 -10 -18  -1 7361.37 897.367   3
 -10 -18  -1 7023.32 1008.07   4
 -10 -18  -1 5752.90 1019.84   2
  10 -28  -1 8053.22 1028.30   4
  10 -28  -1 6867.60 1104.57   2
 -28  18   2 3904.29 907.087   3
 -10 -18   2 3442.77 685.336   3
  18  10   2 4669.86 674.974   1
 -10 -18   2 3632.49 780.254   4
  10 -28   2 3797.76 780.436   4
 -10 -18   2 4870.58 1024.76   2
  10 -28   2 2758.70 869.545   2
  28 -10   2 3834.12 589.537   1
 -18  28   2 2463.20 493.028   3
 -10 -18   5 5075.92 852.595   4
 -10 -18   5 3508.23 884.985   2
  10 -28   5 3688.83 714.846   4
  18  10   5 3838.42 741.748   1
  10 -28   5 3555.17 998.908   2
 -18  28   5 4007.19 699.743   3
  28 -10   5 5230.55 833.510   1
 -28  18   5 4583.43 1032.53   3
 -28  19  -5-347.089 720.966   3
  -9 -19  -5 1509.23 649.137   4
   9 -28  -5 741.311 544.127   4
  -9 -19  -5 1268.40 638.823   2
   9 -28  -5 478.318 590.131   2
 -28  19  -2 1852.50 713.700   3
  -9 -19  -2 1374.30 610.659   4
   9 -28  -2 2540.07 707.957   4
  -9 -19  -2 1672.57 726.415   2
   9 -28  -2 1707.60 738.395   2
 -19  28   1 1450.22 435.834   3
 -28  19   1 1317.34 692.196   3
  19   9   1 1450.37 433.871   1
  -9 -19   1 619.052 433.564   3
  -9 -19   1 1947.21 706.116   4
  28  -9   1-1.65040 278.077   1
  -9 -19   1 901.410 739.217   2
   9 -28   1 1522.16 562.867   4
   9 -28   1 2102.94 764.777   2
  28  -9   4 384.575 429.591   1
  -9 -19   4 910.951 562.440   4
  -9 -19   4 1234.87 810.514   2
   9 -28   4 955.763 484.366   4
  19   9   4 1317.96 532.011   1
   9 -28   4 1028.94 736.989   2
 -19  28   4 886.345 474.106   3
 -28  19   4 849.758 720.545   3
  28  -9   7-196.432 594.372   1
  19   9   7 399.231 536.648   1
  -9 -19   7 168.206 482.420   4
  -9 -19   7 1118.60 871.591   2
   9 -28   7 527.694 531.762   4
   9 -28   7 2050.83 935.085   2
 -19  28   7 941.162 563.495   3
 -28  19   7 536.037 731.382   3
 -28  20  -6 1896.19 860.026   3
  -8 -20  -6 1661.24 686.780   4
   8 -28  -6 3417.72 831.264   4
  -8 -20  -6 1430.06 697.954   2
 -28  20  -3 5016.04 1104.84   3
  -8 -20  -3 9204.57 1131.55   4
   8 -28  -3 7530.87 1028.32   4
  -8 -20  -3 6793.86 1064.04   2
   8 -28  -3 6084.64 1044.29   2
 -28  20   0 1461.20 655.445   3
 -20  28   0 2948.38 564.361   3
  -8 -20   0 2111.91 538.200   3
  -8 -20   0 2774.87 737.989   4
   8 -28   0 4386.28 809.384   4
  -8 -20   0 2196.62 811.894   2
   8 -28   0 3116.05 892.197   2
  20   8   0 3482.85 531.118   1
  20   8   3 10573.4 978.582   1
  28  -8   3 11326.2 972.963   1
  -8 -20   3 11479.4 1205.65   4
  -8 -20   3 13141.1 1581.76   2
   8 -28   3 10919.5 1152.77   4
   8 -28   3 10314.4 1464.75   2
 -20  28   3 8477.24 892.114   3
 -28  20   3 7484.85 1202.44   3
  20   8   6 3299.83 763.223   1
  28  -8   6 1584.29 682.589   1
  -8 -20   6 3400.56 730.398   4
  -8 -20   6 1946.84 831.750   2
   8 -28   6 2728.54 706.040   4
   8 -28   6 2714.17 988.339   2
 -20  28   6 3111.56 750.007   3
 -28  20   6 533.928 695.763   3
  -7 -21  -7 823.402 615.380   4
   7 -28  -7 1739.97 734.567   4
   7 -28  -7 1482.70 682.222   2
 -28  21  -4 2142.16 854.840   3
  -7 -21  -4 2468.50 750.641   4
   7 -28  -4 1467.44 649.727   4
  -7 -21  -4 1775.13 738.402   2
   7 -28  -4 2902.48 807.119   2
 -28  21  -1 2783.41 828.329   3
  -7 -21  -1 5907.95 978.176   4
   7 -28  -1 4567.80 838.805   4
  -7 -21  -1 4519.55 959.484   2
   7 -28  -1 3680.26 945.362   2
 -28  21   2 3517.66 867.900   3
  21   7   2 5432.21 718.843   1
  28  -7   2 5756.30 662.166   1
  -7 -21   2 3709.89 752.585   4
   7 -28   2 5133.97 881.161   4
  -7 -21   2 5518.17 1121.26   2
   7 -28   2 6334.89 1166.33   2
 -21  28   2 2730.15 607.992   3
  21   7   5 3164.99 771.800   1
  28  -7   5 1934.01 603.093   1
  -7 -21   5 2013.43 647.810   4
  -7 -21   5 2548.64 974.879   2
   7 -28   5 3773.98 754.188   4
   7 -28   5 3951.27 1015.98   2
 -21  28   5 2042.55 613.354   3
 -28  21   5 2377.71 849.185   3
 -28  22  -5 615.594 707.535   3
  -6 -22  -5 1091.52 643.403   4
   6 -28  -5 1814.18 731.446   4
  -6 -22  -5 989.236 708.655   2
   6 -28  -5 1938.93 677.634   2
 -28  22  -2 1412.78 794.145   3
  -6 -22  -2 2338.19 708.804   4
   6 -28  -2 1442.18 589.350   4
  -6 -22  -2 1694.04 803.087   2
   6 -28  -2 664.013 668.700   2
 -22  28   1 1122.86 501.709   3
 -28  22   1 1192.92 662.115   3
  -6 -22   1 2012.46 670.095   4
   6 -28   1 714.470 557.368   4
  -6 -22   1 324.930 619.632   2
   6 -28   1 787.492 618.597   2
  22   6   1 1926.25 471.198   1
  28  -6   1 708.764 330.236   1
  -6 -22   4 1081.48 601.784   4
  22   6   4 1189.19 539.914   1
   6 -28   4 1635.36 593.702   4
  28  -6   4 293.873 440.793   1
  -6 -22   4 1810.70 1038.60   2
   6 -28   4 111.676 663.747   2
 -22  28   4 17.8326 452.847   3
 -28  22   4 549.243 567.582   3
  22   6   7-44.7555 542.545   1
  -6 -22   7 667.719 577.137   4
  28  -6   7 374.172 591.153   1
  -6 -22   7 1208.29 882.175   2
   6 -28   7 405.080 511.980   4
   6 -28   7-105.013 719.513   2
 -22  28   7 468.388 625.674   3
 -28  22   7-268.056 702.694   3
 -28  23  -6 3323.72 1087.43   3
  -5 -23  -6 4525.80 916.530   4
   5 -28  -6 4957.04 962.138   4
  -5 -23  -6 4964.67 962.067   2
   5 -28  -6 4197.11 965.903   2
 -28  23  -3 7162.66 1186.10   3
  -5 -23  -3 10812.3 1249.81   4
   5 -28  -3 10001.2 1246.52   4
  -5 -23  -3 13038.0 1454.05   2
   5 -28  -3 9115.90 1296.34   2
 -28  23   0 2311.60 803.457   3
 -23  28   0 2237.11 606.629   3
  -5 -23   0 2999.78 712.950   4
  23   5   0 2804.80 465.818   1
   5 -28   0 4205.90 869.278   4
  -5 -23   0 4028.09 1000.17   2
   5 -28   0 4402.50 1036.29   2
  28  -5   3 6756.50 788.888   1
  -5 -23   3 7468.05 1006.58   4
  -5 -23   3 8262.55 1348.97   2
   5 -28   3 8541.10 1050.68   4
   5 -28   3 8659.59 1344.10   2
  23   5   3 7569.62 851.845   1
 -23  28   3 7368.63 958.602   3
 -28  23   3 5938.33 1067.12   3
  23   5   6 2610.30 756.561   1
  -5 -23   6 1725.45 670.672   4
   5 -28   6 2441.47 689.488   4
  28  -5   6 2693.00 733.905   1
  -5 -23   6 1903.33 953.331   2
   5 -28   6 1685.02 912.595   2
 -23  28   6 1936.90 689.892   3
 -28  23   6 667.824 763.789   3
 -28  24  -4 1720.33 804.640   3
  -4 -24  -4 3697.74 810.937   4
   4 -28  -4 2776.65 827.064   4
  -4 -24  -4 3319.05 903.213   2
   4 -28  -4 3347.30 958.481   2
 -28  24  -1 2016.68 763.662   3
 -24  28  -1 1693.10 638.926   3
  -4 -24  -1 4964.81 930.782   4
   4 -28  -1 4237.56 868.490   4
  -4 -24  -1 4018.17 942.778   2
   4 -28  -1 3698.99 975.981   2
 -24  28   2 1390.85 598.281   3
 -28  24   2 2128.33 751.152   3
  -4 -24   2 3502.60 783.157   4
   4 -28   2 1462.38 632.414   4
  -4 -24   2 1736.67 834.998   2
   4 -28   2 1845.14 880.587   2
  24   4   2 1660.64 483.710   1
  28  -4   2 1155.78 462.582   1
  24   4   5 3276.78 748.176   1
  -4 -24   5 3478.96 757.994   4
   4 -28   5 3965.31 805.319   4
  -4 -24   5 3899.27 1037.05   2
  28  -4   5 2690.96 648.898   1
   4 -28   5 4421.32 1131.80   2
 -24  28   5 2293.63 765.237   3
 -28  24   5 2781.90 855.982   3
 -28  25  -5 885.969 766.789   3
  -3 -25  -5 1188.32 637.898   4
   3 -28  -5 59.4088 579.826   4
  -3 -25  -5 1412.48 806.357   2
   3 -28  -5 390.199 724.185   2
 -28  25  -2 1516.61 674.960   3
 -25  28  -2 1969.26 701.236   3
  -3 -25  -2 1995.56 761.864   4
   3 -28  -2 1090.39 605.238   4
  -3 -25  -2 2753.72 897.387   2
   3 -28  -2 2293.64 791.184   2
 -25  28   1-374.472 526.050   3
 -28  25   1-941.584 670.880   3
  25   3   1-138.318 338.585   1
  -3 -25   1 479.608 670.650   4
   3 -28   1 451.532 498.656   4
  -3 -25   1 510.809 771.462   2
   3 -28   1 91.6595 642.529   2
  25   3   4 775.939 472.987   1
  -3 -25   4 996.255 584.736   4
   3 -28   4 817.369 493.697   4
  -3 -25   4 1304.23 850.953   2
   3 -28   4 496.582 743.303   2
  28  -3   4 1504.15 547.498   1
 -25  28   4 1073.61 635.258   3
 -28  25   4 1748.03 732.894   3
  -2 -26  -6 991.415 787.044   4
   2 -28  -6 1333.45 701.913   4
  -2 -26  -6 1270.95 754.432   2
   2 -28  -6 1398.56 787.167   2
 -28  26  -3 2886.52 822.150   3
   2 -28  -3 6211.51 1060.65   4
  -2 -26  -3 3971.95 852.409   4
  -2 -26  -3 4414.04 1012.31   2
   2 -28  -3 4030.47 982.876   2
 -28  26   0 1284.87 712.353   3
 -26  28   0 934.882 586.192   3
  -2 -26   0 2466.24 746.049   4
   2 -28   0 1792.68 637.724   4
  -2 -26   0 2603.07 944.545   2
   2 -28   0 3365.19 1051.86   2
 -28  26   3 3539.58 906.197   3
  -2 -26   3 6197.23 1002.63   4
   2 -28   3 4920.02 890.838   4
  28  -2   3 5850.71 751.630   1
  -2 -26   3 5257.78 1160.03   2
   2 -28   3 6233.77 1224.93   2
  26   2   3 4870.28 717.280   1
 -26  28   3 7650.82 1030.40   3
  -2 -26   6 640.059 530.173   4
   2 -28   6 314.356 509.096   4
  -2 -26   6 1104.27 942.532   2
   2 -28   6 1080.72 866.776   2
 -26  28   6-437.518 659.140   3
 -28  26   6-114.905 656.006   3
 -28  27  -4 845.974 706.959   3
  -1 -27  -4 2283.74 821.191   4
   1 -28  -4 1413.26 712.139   4
  -1 -27  -4 1492.00 743.758   2
   1 -28  -4 1316.22 791.975   2
 -28  27  -1 1091.23 690.717   3
 -27  28  -1 1500.67 681.453   3
  -1 -27  -1 2018.46 793.479   4
   1 -28  -1 2637.70 768.559   4
  -1 -27  -1 3835.63 1014.23   2
   1 -28  -1 1986.07 861.462   2
 -27  28   2 1170.01 699.313   3
 -28  27   2 1798.50 718.364   3
  -1 -27   2 1375.00 580.819   4
   1 -28   2 1154.24 584.869   4
  -1 -27   2 654.109 756.019   2
   1 -28   2 2497.48 1004.50   2
  27   1   2 1287.09 485.764   1
  27   1   5 2622.35 691.882   1
  -1 -27   5 2320.07 744.030   4
   1 -28   5 2376.69 708.323   4
  -1 -27   5 1765.65 920.126   2
   1 -28   5 2158.13 1042.78   2
  28  -1   5 2112.09 676.499   1
 -27  28   5 2190.33 819.331   3
 -28  27   5 1907.16 800.680   3
   0 -28  -5 223.340 610.739   4
   0 -28  -5 930.272 702.286   2
 -28  28  -2 391.820 629.901   3
   0 -28  -2 660.826 664.984   4
   0 -28  -2 1699.51 864.551   2
 -28  28   1 411.337 621.677   3
   0 -28   1 333.635 645.283   4
   0 -28   4 4032.72 883.274   4
  28   0   4 4016.31 744.379   1
   0 -28   4 2166.97 1050.11   2
 -28  28   4 2420.99 863.416   3
  29 -29  -2 4899.81 1082.15   2
 -29   0  -2 4540.06 1218.96   3
  29 -29  -2 5565.88 1011.87   4
 -29   0   1 742.654 773.520   3
  29 -29   1 605.080 594.398   2
  29 -29   1 1021.25 680.410   4
  28 -29  -3 3427.77 927.402   2
  29 -28  -3 2444.59 842.903   2
 -29   1  -3 1734.06 1014.94   3
 -28  -1  -3 2702.70 1058.44   3
  28 -29  -3 1173.68 651.669   4
  29 -28  -3 3552.85 856.949   4
 -29   1   0 315.231 745.117   3
 -28  -1   0 1306.63 876.160   3
  28 -29   0-563.476 666.683   2
  29 -28   0 810.785 689.831   2
  28 -29   0 1034.34 627.938   4
  29 -28   0 342.299 558.001   4
 -29   1   3 1305.84 1067.88   3
 -28  -1   3 2312.08 1018.51   3
  28 -29   3 943.432 724.963   2
  29 -28   3 118.122 588.943   2
  28 -29   3 1127.17 661.579   1
   1  28   3 1268.63 652.265   1
  29 -28   3 31.2388 576.263   1
  28 -29   3 166.035 556.049   4
  29 -28   3 631.998 567.989   4
  27 -29  -4 1030.43 788.930   2
 -29   2  -4 1235.47 887.404   3
  29 -27  -4-464.434 643.015   2
 -27  -2  -4 1056.27 962.957   3
  27 -29  -4 1.12269 533.161   4
  29 -27  -4-382.223 586.708   4
  27 -29  -1 3872.37 951.059   2
 -29   2  -1 2786.35 1084.76   3
 -27  -2  -1 3450.74 1099.38   3
  29 -27  -1 2660.06 809.576   2
  27 -29  -1 3905.76 879.431   4
  29 -27  -1 1127.71 570.040   4
 -29   2   2-579.746 774.631   3
  27 -29   2 281.989 611.272   2
 -27  -2   2 958.315 852.149   3
  29 -27   2-483.723 611.958   2
  29 -27   2 653.351 566.613   1
  27 -29   2 588.067 594.094   4
  29 -27   2 69.2148 616.282   4
 -29   2   5 779.799 900.329   3
   2  27   5 1497.75 715.555   1
 -27  -2   5 1334.78 851.830   3
  27 -29   5 1790.64 761.691   2
  29 -27   5 432.045 615.648   2
  27 -29   5 1735.45 760.196   1
  29 -27   5 2241.16 862.462   1
  27 -29   5 1712.62 696.534   4
  -2  29   5 348.565 606.746   1
  29 -27   5 500.566 540.183   4
  26 -29  -5 839.588 727.721   2
 -29   3  -5 345.433 874.697   3
  29 -26  -5-1615.22 835.303   2
 -26  -3  -5-257.819 825.900   3
  26 -29  -5-150.889 606.313   4
  29 -26  -5 636.392 639.531   4
  26 -29  -2 2837.54 913.947   2
 -29   3  -2 2631.51 949.261   3
 -26  -3  -2 2874.13 1011.99   3
  29 -26  -2 4060.42 991.213   2
  26 -29  -2 3128.09 758.272   4
  29 -26  -2 1820.95 700.516   4
  26 -29   1 1153.92 775.866   2
 -29   3   1 1903.60 808.112   3
 -26  -3   1 1774.76 859.176   3
  29 -26   1 702.217 668.184   2
  29 -26   1 994.187 601.465   1
  26 -29   1 1047.44 603.804   4
  29 -26   1-514.424 535.271   4
  29 -26   4 5242.18 1014.60   2
 -29   3   4 4887.40 1179.63   3
 -26  -3   4 4638.05 1086.29   3
   3  26   4 3965.41 902.629   1
  26 -29   4 4775.84 1002.38   1
  29 -26   4 3721.01 883.611   1
  26 -29   4 4468.04 854.112   4
  29 -26   4 4532.93 885.970   4
  26 -29   4 6247.34 1091.38   2
  -3  29   4 3651.90 844.881   1
  25 -29  -3 3056.42 960.374   2
 -29   4  -3 4549.76 1180.17   3
 -25  -4  -3 1835.88 853.030   3
  29 -25  -3 871.606 659.960   2
  25 -29  -3 2882.42 773.002   4
  29 -25  -3 2533.05 776.414   4
  25 -29   0 1342.60 628.372   2
 -29   4   0 732.861 735.639   3
 -25  -4   0 1042.12 764.050   3
  29 -25   0 653.431 621.815   2
  25 -29   0 924.720 622.987   4
  29 -25   0 578.628 479.330   4
  25 -29   3 3201.81 894.874   2
 -29   4   3 1982.95 916.173   3
 -25  -4   3 2371.15 937.188   3
  29 -25   3 3616.95 906.363   2
  29 -25   3 2604.31 802.435   1
  25 -29   3 5293.44 949.068   4
   4  25   3 3992.11 810.255   1
  29 -25   3 3919.93 845.548   4
  24 -29  -4 272.105 623.397   2
 -29   5  -4 1641.12 953.604   3
 -24  -5  -4 573.839 846.419   3
  29 -24  -4 1945.96 833.800   2
 -24  -5  -4 533.251 701.516   2
  24 -29  -4-343.980 506.384   4
  29 -24  -4 1013.94 610.759   4
  24 -29  -1 352.631 625.716   2
 -29   5  -1-386.479 663.104   3
 -24  -5  -1 630.735 767.282   3
  29 -24  -1 1377.69 762.345   2
  24 -29  -1 535.599 450.840   4
  29 -24  -1 772.150 536.821   4
  24 -29   2 2282.06 779.014   2
 -29   5   2 1821.85 908.454   3
 -24  -5   2 3148.43 912.029   3
  29 -24   2 967.352 533.095   2
   5  24   2 1004.99 519.233   1
  29 -24   2 1541.00 585.206   1
  24 -29   2 1033.87 620.006   4
  29 -24   2 2334.31 684.140   4
 -29   5   5 1013.79 875.075   3
  24 -29   5 438.800 710.187   2
 -24  -5   5 542.385 767.408   3
  29 -24   5 434.189 572.820   2
  24 -29   5 671.322 654.612   1
   5  24   5 126.769 597.153   1
  29 -24   5-965.263 663.356   1
  24 -29   5-164.172 482.600   4
  -5  29   5 574.771 607.337   1
  23 -29  -5 2388.01 890.420   2
 -29   6  -5 183.339 924.863   3
 -23  -6  -5 2180.68 993.797   3
  29 -23  -5 2745.87 978.627   2
 -23  -6  -5 4704.56 1089.15   4
 -23  -6  -5 2100.84 784.318   2
  23 -29  -5 3495.49 866.703   4
  29 -23  -5 2587.36 752.624   4
 -29   6  -2 1647.94 936.594   3
 -23  -6  -2 3735.69 984.147   3
  29 -23  -2 4266.38 941.921   2
 -23  -6  -2 4160.75 1018.72   2
  23 -29  -2 6209.48 956.882   4
  29 -23  -2 3243.83 811.197   4
  23 -29  -2 5982.11 1107.94   2
  23 -29   1 2742.28 815.596   2
 -29   6   1 3721.47 1039.23   3
 -23  -6   1 2740.66 924.341   3
  29 -23   1 2427.05 752.652   2
  29 -23   1 2113.30 570.320   1
  23 -29   1 1955.74 677.759   4
  29 -23   1 2041.68 625.268   4
  23 -29   4 4757.72 1006.00   2
 -29   6   4 2968.45 1024.74   3
 -23  -6   4 5131.98 1132.29   3
  29 -23   4 3664.92 827.782   2
  23 -29   4 4901.01 860.547   4
  29 -23   4 3458.33 843.645   1
  29 -23   4 4036.32 842.502   4
   6  23   4 4996.92 896.146   1
  -6  29   4 5807.68 948.560   1
  22 -29  -6 2840.98 886.851   2
 -29   7  -6 1164.64 1020.92   3
 -22  -7  -6 3365.12 1007.83   3
 -22  -7  -6 2935.53 931.107   4
  22 -29  -6 2871.80 782.722   4
  29 -22  -6 4321.88 885.424   4
  22 -29  -3 4503.38 1051.08   2
 -29   7  -3 4108.31 1134.33   3
 -22  -7  -3 3353.99 969.300   3
  29 -22  -3 3691.65 932.402   2
 -22  -7  -3 5236.60 1009.75   4
 -22  -7  -3 5250.47 1088.75   2
  22 -29  -3 4100.19 847.350   4
  29 -22  -3 3828.67 775.412   4
  22 -29   0 3572.65 865.219   2
 -29   7   0 2609.72 886.195   3
 -22  -7   0 3426.69 1070.54   3
  29 -22   0 2681.77 776.009   2
  29 -22   0 2889.60 623.118   1
  22 -29   0 3494.85 787.487   4
  29 -22   0 2119.94 646.373   4
 -29   7   3 3873.66 1136.60   3
  29 -22   3 4233.06 866.259   2
  29 -22   3 4719.19 843.175   1
  22 -29   3 7916.73 1060.27   4
  29 -22   3 4660.77 816.848   4
  22 -29   3 5915.65 1060.59   2
   7  22   3 3911.70 772.275   1
 -22  -7   3 6530.44 1146.60   3
 -22  -7   6 1580.89 842.752   3
  29 -22   6 2107.17 727.194   2
 -22  -7   6 2666.58 840.080   4
  22 -29   6 888.265 694.354   1
  -7  29   6 2560.27 796.188   1
  22 -29   6 2462.21 707.649   4
  29 -22   6 2497.31 837.353   1
  22 -29   6 2040.68 787.932   2
 -29   7   6 3476.50 1076.76   3
   7  22   6 2486.08 768.534   1
  21 -29  -4 457.438 702.114   2
 -29   8  -4 1891.92 1023.80   3
 -21  -8  -4 625.187 787.773   3
 -21  -8  -4 989.617 756.243   4
 -21  -8  -4 573.896 636.255   2
  21 -29  -4 971.492 545.793   4
  29 -21  -4 821.358 505.928   4
  21 -29  -1 477.691 622.526   2
 -29   8  -1 344.376 701.731   3
 -21  -8  -1 206.108 611.161   3
  29 -21  -1 2742.25 782.911   2
 -21  -8  -1 647.847 626.859   4
 -21  -8  -1 550.886 771.162   2
  29 -21  -1 399.022 368.015   1
  21 -29  -1 857.887 472.068   4
  29 -21  -1 1042.41 570.404   4
 -29   8   2-395.901 694.477   3
 -21  -8   2 60.6802 655.109   3
  29 -21   2 1444.65 676.888   2
 -21  -8   2-802.084 714.667   4
   8  21   2-257.315 440.338   1
  29 -21   2 626.184 517.970   1
  21 -29   2 866.799 537.159   4
  29 -21   2-677.556 494.584   4
  21 -29   2 611.173 561.966   2
 -29   8   5-214.089 664.487   3
 -21  -8   5 152.849 604.120   3
   8  21   5 576.991 537.836   1
  29 -21   5 332.493 556.412   2
 -21  -8   5 15.9522 553.335   4
 -21  -8   5 2076.98 935.196   2
  -8  29   5 34.4349 512.611   1
  21 -29   5 325.059 461.111   4
  29 -21   5-54.1545 525.246   1
  21 -29   5 1215.13 664.996   2
  20 -29  -5 3846.17 906.293   2
 -29   9  -5 2524.24 1033.41   3
 -20  -9  -5 2115.17 1015.29   3
 -20  -9  -5 3753.21 941.921   4
 -20  -9  -5 2315.68 778.093   2
  20 -29  -5 4640.35 864.651   4
  29 -20  -5 3663.91 765.712   4
  20 -29  -2 5592.16 1008.70   2
 -29   9  -2 3845.64 1063.48   3
 -20  -9  -2 4940.97 1033.47   3
  29 -20  -2 4579.63 965.649   2
 -20  -9  -2 6896.00 1090.89   4
 -20  -9  -2 5307.02 1057.05   2
  20 -29  -2 5638.93 892.835   4
  29 -20  -2 5881.58 908.290   4
 -29   9   1 1961.88 864.018   3
 -20  -9   1 5312.38 1047.27   3
  29 -20   1 3705.31 807.993   2
 -20  -9   1 3138.98 826.267   4
   9  20   1 3530.38 689.106   1
 -20  -9   1 3282.00 939.491   2
  20 -29   1 3837.56 777.517   4
  29 -20   1 3209.09 607.248   1
  29 -20   1 2517.92 710.406   4
  20 -29   1 4289.21 898.918   2
 -29   9   4-121.788 645.174   3
 -20  -9   4 423.230 640.045   3
   9  20   4 1860.63 636.906   1
  29 -20   4 1464.96 637.583   2
 -20  -9   4 1552.18 712.883   4
 -20  -9   4 75.5994 744.633   2
  20 -29   4 2332.87 671.289   4
  29 -20   4 2385.36 732.373   1
  20 -29   4 1409.67 687.926   2
 -20  -9   7 1704.48 850.155   3
  -9  29   7 940.625 715.146   1
 -20  -9   7 2013.05 719.760   4
 -20  -9   7 2686.94 1183.22   2
   9  20   7 2215.19 747.335   1
  20 -29   7 1084.30 816.155   1
  20 -29   7 2657.39 706.503   4
  20 -29   7 2968.80 941.150   2
 -29   9   7 950.866 842.930   3
  19 -29  -6 1984.66 788.810   2
 -29  10  -6 3700.42 1158.80   3
 -19 -10  -6 2615.91 841.581   4
  19 -29  -6 3275.55 829.409   4
  19 -29  -3 3801.24 863.881   2
 -29  10  -3 1189.50 926.948   3
 -19 -10  -3 1749.88 802.756   3
 -19 -10  -3 1502.36 695.545   4
 -19 -10  -3 2641.13 797.700   2
  19 -29  -3 3947.62 796.756   4
 -29  10   0 4487.37 1108.27   3
 -19 -10   0 3420.06 889.286   3
  29 -19   0 3472.55 841.971   2
 -19 -10   0 5000.43 929.334   4
 -19 -10   0 6059.77 1162.55   2
  19 -29   0 5255.87 910.311   4
  29 -19   0 3263.24 562.221   1
  19 -29   0 6466.51 1091.16   2
 -29  10   3 1031.63 766.441   3
 -19 -10   3 1656.32 730.598   3
  29 -19   3 1985.28 740.712   2
 -19 -10   3 1977.90 738.625   4
  10  19   3 1507.28 577.862   1
  19 -29   3 2668.66 707.897   4
  29 -19   3 956.209 518.052   1
  19 -29   3 3023.46 828.610   2
 -19 -10   6 3036.29 883.141   3
 -19 -10   6 4178.02 903.407   4
 -19 -10   6 2831.84 1115.30   2
  10  19   6 1572.97 745.614   1
  19 -29   6 3541.40 742.525   4
  29 -19   6 2966.31 857.414   1
  19 -29   6 4743.26 1042.54   2
 -10  29   6 2692.84 711.410   1
 -29  10   6 2841.85 967.231   3
  18 -29  -7-27.2068 655.856   2
 -29  11  -7 736.268 990.354   3
 -18 -11  -7 1131.46 836.165   4
  18 -29  -7 1426.75 647.182   4
  18 -29  -4-187.396 574.219   2
 -29  11  -4 386.581 728.392   3
 -18 -11  -4-140.097 637.039   3
 -18 -11  -4-290.383 610.614   4
 -18 -11  -4 1261.06 700.812   2
  18 -29  -4-64.8141 471.922   4
 -29  11  -1 2139.52 868.045   3
 -18 -11  -1 404.943 632.015   3
 -18 -11  -1 1649.50 698.767   4
 -18 -11  -1 839.683 708.236   2
  18 -29  -1 1419.77 621.513   4
  29 -18  -1 705.006 327.826   1
  18 -29  -1 397.341 579.687   2
 -29  11   2 1459.25 787.414   3
 -18 -11   2 1360.92 697.041   3
  29 -18   2 320.181 480.072   2
 -18 -11   2-20.4035 563.567   4
 -18 -11   2-267.036 712.720   2
  18 -29   2 922.398 540.554   4
  11  18   2 14.1258 391.779   1
  29 -18   2-422.054 439.868   1
  18 -29   2 531.789 624.541   2
 -18 -11   5 511.125 635.296   3
 -18 -11   5 86.8972 490.149   4
 -18 -11   5 1337.16 850.245   2
  11  18   5 77.8343 572.836   1
  18 -29   5 428.015 562.102   4
 -11  29   5-208.291 470.307   1
 -11  29   5-118.701 374.869   3
  29 -18   5-157.950 534.662   1
  18 -29   5-500.846 651.168   2
 -29  11   5-503.200 694.815   3
  17 -29  -5 4190.25 1022.92   2
 -29  12  -5 3124.36 1057.35   3
 -17 -12  -5 5304.44 1002.36   4
 -17 -12  -5 4472.88 868.263   2
  17 -29  -5 2921.47 755.427   4
 -29  12  -2 203.027 713.971   3
 -17 -12  -2 1755.37 766.459   3
 -17 -12  -2 254.102 599.269   4
 -17 -12  -2 759.995 684.372   2
  17 -29  -2 108.600 453.203   4
  17 -29  -2 1010.98 687.722   2
 -29  12   1 4313.95 1009.00   3
 -17 -12   1 4937.19 969.825   3
  12  17   1 2991.89 637.680   1
 -17 -12   1 3499.93 813.645   4
 -17 -12   1 3333.19 994.900   2
  17 -29   1 3085.17 675.616   4
  29 -17   1 2716.14 546.245   1
  17 -29   1 3543.30 872.207   2
 -29  12   4 1855.78 896.504   3
 -17 -12   4 952.166 625.447   3
 -17 -12   4 1370.51 630.490   4
 -17 -12   4 75.6206 645.974   2
  17 -29   4 843.338 556.777   4
  12  17   4 124.874 456.674   1
  29 -17   4 1744.27 591.200   1
  17 -29   4 1948.51 703.974   2
 -17 -12   7 3370.90 940.381   3
 -17 -12   7 2627.85 752.350   4
 -17 -12   7 5356.25 1351.64   2
  17 -29   7 4115.96 981.539   1
  17 -29   7 5576.08 891.905   4
  17 -29   7 7178.58 1181.77   2
 -12  29   7 5249.41 899.313   3
 -12  29   7 3432.22 794.920   1
  29 -17   7 4003.67 968.205   1
  12  17   7 3627.12 870.932   1
 -29  12   7 3422.08 1100.96   3
 -29  13  -6 5066.27 1255.80   3
 -16 -13  -6 8961.38 1274.34   4
  16 -29  -6 9636.01 1179.43   4
  16 -29  -6 7912.96 1161.85   2
 -29  13  -3 1802.94 860.337   3
 -16 -13  -3 416.794 746.893   3
 -16 -13  -3 482.051 549.295   4
 -16 -13  -3 987.084 714.842   2
  16 -29  -3 1281.23 568.670   4
  16 -29  -3 310.011 587.731   2
 -16 -13   0 6460.83 1033.03   3
 -16 -13   0 8187.92 1109.88   4
 -16 -13   0 8283.79 1223.77   2
  16 -29   0 7958.68 1006.31   4
  29 -16   0 7542.84 689.602   1
  16 -29   0 6225.72 1021.19   2
  13  16   0 7976.98 858.718   1
 -29  13   0 9006.89 1355.11   3
 -29  13   3 110.037 629.921   3
  13  16   3 451.134 436.228   1
 -16 -13   3 92.5996 587.633   3
 -16 -13   3 56.5738 458.124   4
 -16 -13   3 413.428 742.084   2
  16 -29   3-430.445 479.459   4
  16 -29   3 446.261 618.838   2
  29 -16   3 97.0553 410.315   1
 -16 -13   6 5464.93 1017.69   3
  13  16   6 5784.07 964.861   1
 -16 -13   6 5700.55 927.443   4
 -16 -13   6 4887.81 1255.60   2
  16 -29   6 6202.71 926.643   4
  29 -16   6 5988.29 993.361   1
 -13  29   6 4562.39 752.726   3
 -13  29   6 7230.80 1017.01   1
  16 -29   6 5310.55 1090.58   2
 -29  13   6 4048.72 1077.49   3
  15 -29  -7 1083.67 682.175   2
 -29  14  -7 2890.56 1066.94   3
 -15 -14  -7 1994.77 852.151   4
  15 -29  -7 2697.91 795.437   4
 -29  14  -4 1117.97 856.144   3
 -15 -14  -4 1281.62 668.745   4
 -15 -14  -4 143.450 513.333   2
  15 -29  -4 188.759 482.513   4
  15 -29  -4 1005.05 617.063   2
 -29  14  -1 6463.79 1213.59   3
 -15 -14  -1 6981.22 1059.50   3
 -15 -14  -1 7435.25 1074.58   4
 -15 -14  -1 7028.43 1144.71   2
  15 -29  -1 7403.78 972.166   4
  15 -29  -1 8216.77 1177.04   2
 -29  14   2-140.436 648.606   3
 -15 -14   2-477.052 588.474   3
  14  15   2 171.118 387.421   1
 -15 -14   2 830.099 608.694   4
 -15 -14   2-73.3486 589.897   2
  15 -29   2-617.351 494.640   4
  15 -29   2-228.929 547.667   2
  29 -15   2-478.881 369.336   1
 -15 -14   5 304.446 631.227   3
  14  15   5 2125.31 679.164   1
 -15 -14   5 1566.54 612.086   4
 -15 -14   5-94.0494 826.993   2
  15 -29   5 916.928 522.826   4
  15 -29   5 1501.78 676.924   2
 -14  29   5 1361.92 484.972   3
  29 -15   5 964.348 628.172   1
 -29  14   5 798.991 768.010   3
 -29  15  -5 2566.48 974.420   3
 -14 -15  -5 982.241 691.169   4
  14 -29  -5 2448.01 763.571   4
 -14 -15  -5 1978.05 687.906   2
  14 -29  -5 1009.95 650.187   2
 -29  15  -2 936.847 749.668   3
 -14 -15  -2-11.3051 476.220   3
 -14 -15  -2 355.106 547.178   4
 -14 -15  -2-254.492 532.746   2
  14 -29  -2-52.5185 463.078   4
  14 -29  -2 411.067 595.693   2
 -14 -15   1 5115.75 915.676   3
 -14 -15   1 7926.09 1051.64   4
 -14 -15   1 6655.90 1170.26   2
  14 -29   1 5308.16 853.155   4
  14 -29   1 7210.36 1203.07   2
  29 -14   1 6330.51 680.279   1
 -29  15   1 6599.51 1194.42   3
  15  14   1 5703.94 733.236   1
 -14 -15   4 829.211 615.074   3
  15  14   4 407.630 449.246   1
 -14 -15   4 613.613 580.695   4
 -14 -15   4-60.6067 707.030   2
  14 -29   4 89.4895 453.952   4
  14 -29   4 1095.52 652.064   2
 -15  29   4 1551.61 470.055   3
  29 -14   4 672.329 488.642   1
 -29  15   4 913.386 838.066   3
  29 -14   7 1203.45 688.081   1
 -14 -15   7 1821.46 717.867   4
 -14 -15   7 3096.73 1034.75   2
  14 -29   7 3870.66 767.164   4
  15  14   7 1626.67 718.632   1
  14 -29   7 1850.98 772.797   2
 -15  29   7 758.097 576.179   3
 -29  15   7 1935.67 915.034   3
 -15  29   7 2597.09 732.902   1
 -29  16  -6 5878.02 1251.45   3
 -13 -16  -6 5565.35 1029.53   4
 -13 -16  -6 5996.20 977.643   2
  13 -29  -6 6836.49 1048.67   4
  13 -29  -6 5445.38 1052.91   2
 -29  16  -3-213.792 674.024   3
 -13 -16  -3 563.388 544.266   3
 -13 -16  -3 505.286 555.020   4
 -13 -16  -3-119.661 570.274   2
  13 -29  -3-508.183 469.005   4
  13 -29  -3 351.369 615.712   2
 -13 -16   0 7522.19 1029.63   3
 -13 -16   0 7276.56 1053.96   4
 -13 -16   0 9047.10 1302.45   2
  16  13   0 6440.45 763.105   1
  13 -29   0 8919.32 1062.84   4
  13 -29   0 7333.50 1135.84   2
  29 -13   0 6328.17 554.097   1
 -29  16   3 302.423 739.494   3
  29 -13   3 286.400 412.286   1
 -13 -16   3-109.678 548.616   3
 -13 -16   3 330.136 507.912   4
 -13 -16   3 564.041 736.158   2
  16  13   3 195.536 415.262   1
  13 -29   3 866.029 509.225   4
  13 -29   3 590.211 599.183   2
 -16  29   3 480.485 346.885   3
 -13 -16   6 7605.31 1359.94   2
 -13 -16   6 6144.80 954.092   4
  13 -29   6 8094.77 1002.74   4
  13 -29   6 9360.70 1295.05   2
 -16  29   6 7162.20 950.863   3
  29 -13   6 7681.13 1083.47   1
  16  13   6 7479.15 1014.53   1
 -13 -16   6 6241.43 1053.36   3
 -29  16   6 4851.82 1140.55   3
  12 -29  -7 3344.83 858.303   2
 -29  17  -7 3770.56 1191.32   3
 -12 -17  -7 4164.54 917.180   4
  12 -29  -7 6485.63 1101.13   4
 -29  17  -4 1481.77 904.990   3
 -12 -17  -4 887.379 618.323   4
  12 -29  -4 717.361 529.338   4
 -12 -17  -4 185.016 563.143   2
  12 -29  -4 994.715 629.664   2
 -29  17  -1 2878.28 940.290   3
 -12 -17  -1 2038.21 635.646   3
 -12 -17  -1 3386.18 769.043   4
 -12 -17  -1 1721.60 701.554   2
  12 -29  -1 3128.58 738.823   4
  12 -29  -1 2611.67 813.494   2
 -29  17   2 452.701 592.747   3
  29 -12   2 914.384 401.428   1
 -12 -17   2 649.465 561.453   3
 -12 -17   2 2041.58 641.258   4
 -12 -17   2 1139.18 629.035   2
  12 -29   2 1355.60 554.591   4
  12 -29   2 1764.34 686.572   2
  17  12   2 519.188 418.990   1
 -12 -17   5 3180.22 812.331   3
 -12 -17   5 4491.13 789.328   4
 -12 -17   5 3782.50 1040.29   2
  12 -29   5 4401.63 776.180   4
  12 -29   5 3643.71 1028.84   2
  29 -12   5 6317.17 954.025   1
 -17  29   5 3331.62 662.855   3
  17  12   5 5798.31 918.646   1
 -29  17   5 4836.33 1063.94   3
 -29  18  -5 332.533 679.724   3
 -11 -18  -5 83.0795 530.531   4
  11 -29  -5 543.735 590.858   4
 -11 -18  -5 1080.34 650.713   2
  11 -29  -5 1929.11 750.354   2
 -29  18  -2-795.172 741.497   3
 -11 -18  -2 522.235 594.991   4
  11 -29  -2 490.213 520.663   4
 -11 -18  -2 554.938 598.992   2
  11 -29  -2-742.791 632.275   2
 -29  18   1 28.5683 618.985   3
 -11 -18   1 936.769 517.456   3
  29 -11   1 661.025 347.627   1
  18  11   1 494.720 368.983   1
 -11 -18   1 1323.56 606.432   4
 -11 -18   1 490.753 684.676   2
  11 -29   1 902.400 492.701   4
  11 -29   1 1477.56 759.643   2
 -11 -18   4 2.67668 555.428   3
  29 -11   4-110.138 435.414   1
 -11 -18   4 530.098 521.831   4
 -11 -18   4-141.715 585.182   2
  11 -29   4 1454.28 583.491   4
  11 -29   4 644.670 723.684   2
  18  11   4 1022.25 500.063   1
 -18  29   4 14.1939 399.869   3
 -29  18   4 333.651 623.717   3
  29 -11   7 1617.32 744.690   1
 -11 -18   7 778.056 586.841   4
  18  11   7 461.464 630.462   1
 -11 -18   7 2612.52 1012.94   2
  11 -29   7 1610.05 600.519   4
  11 -29   7 820.249 731.313   2
 -18  29   7 308.463 568.988   3
 -29  18   7 290.750 723.610   3
 -29  19  -6 3192.82 1069.01   3
 -10 -19  -6 3568.86 876.923   4
  10 -29  -6 2351.68 752.674   4
 -10 -19  -6 2514.66 785.403   2
  10 -29  -6 2516.82 803.951   2
 -29  19  -3 1198.88 840.341   3
 -10 -19  -3 2135.16 753.674   4
  10 -29  -3 1894.03 694.284   4
 -10 -19  -3 633.212 633.695   2
 -29  19   0 4576.07 1084.27   3
  19  10   0 4266.80 611.078   1
 -10 -19   0 3529.80 711.085   3
 -10 -19   0 5455.50 1109.50   2
 -10 -19   0 4827.31 842.401   4
  10 -29   0 5489.84 957.638   4
  10 -29   0 3734.63 901.901   2
 -29  19   3 3501.07 896.051   3
  19  10   3 2308.71 574.487   1
 -10 -19   3 1162.68 576.984   3
  29 -10   3 2121.91 540.300   1
 -10 -19   3 2687.71 683.570   4
 -10 -19   3 2316.59 911.793   2
  10 -29   3 2349.05 633.705   4
  10 -29   3 2825.39 942.713   2
 -19  29   3 1289.15 495.311   3
  29 -10   6 2595.55 791.085   1
 -10 -19   6 2641.52 688.506   4
 -10 -19   6 2691.72 999.403   2
  19  10   6 2889.86 753.544   1
  10 -29   6 2636.39 729.373   4
  10 -29   6 2778.74 914.655   2
 -19  29   6 1901.03 643.373   3
 -29  19   6 1753.17 794.303   3
   9 -29  -7 1383.65 692.583   2
  -9 -20  -7 2399.66 880.319   4
   9 -29  -7 2313.21 750.153   4
 -29  20  -4 1058.68 796.220   3
  -9 -20  -4 1691.24 647.821   4
   9 -29  -4 2280.75 722.668   4
  -9 -20  -4 1570.49 736.972   2
   9 -29  -4 3160.46 850.151   2
 -29  20  -1 2469.14 837.437   3
  -9 -20  -1 2257.23 682.015   4
   9 -29  -1 3663.44 799.197   4
  -9 -20  -1 3883.25 998.791   2
   9 -29  -1 4230.09 952.444   2
  29  -9   2 5659.06 676.523   1
  -9 -20   2 7981.00 1042.00   4
  -9 -20   2 7428.59 1296.61   2
   9 -29   2 6986.25 957.399   4
  20   9   2 4267.20 640.044   1
   9 -29   2 7691.19 1281.63   2
 -20  29   2 3907.76 638.166   3
 -29  20   2 3666.07 1103.52   3
  29  -9   5 3945.11 775.854   1
  -9 -20   5 4267.67 823.939   4
  -9 -20   5 3891.15 1101.30   2
   9 -29   5 3355.70 716.566   4
  20   9   5 3896.62 737.433   1
   9 -29   5 2626.54 968.617   2
 -20  29   5 2109.63 635.842   3
 -29  20   5 4030.12 988.696   3
 -29  21  -5 6.68642 653.761   3
  -8 -21  -5-299.334 601.492   4
   8 -29  -5-120.090 503.001   4
  -8 -21  -5 1225.89 671.104   2
   8 -29  -5 849.473 710.987   2
 -29  21  -2 358.049 650.713   3
  -8 -21  -2 604.435 655.530   4
   8 -29  -2-167.792 497.431   4
  -8 -21  -2 612.333 609.856   2
   8 -29  -2-438.455 623.569   2
 -21  29   1 146.914 388.014   3
 -29  21   1-186.018 579.052   3
  21   8   1 1510.86 456.078   1
  -8 -21   1 1101.98 620.177   4
   8 -29   1 474.520 431.004   4
  -8 -21   1 1619.19 819.277   2
   8 -29   1 470.372 669.199   2
  29  -8   4 211.555 479.120   1
  -8 -21   4 1497.95 647.216   4
  -8 -21   4 22.8271 720.626   2
   8 -29   4 1345.00 576.008   4
  21   8   4 952.189 540.245   1
   8 -29   4 1149.58 842.821   2
 -21  29   4 655.527 478.238   3
 -29  21   4 1086.67 675.027   3
 -29  22  -6 2542.72 992.360   3
  -7 -22  -6 2879.66 821.655   4
   7 -29  -6 2498.65 788.386   4
  -7 -22  -6 1242.39 673.287   2
   7 -29  -6 3749.53 933.761   2
 -29  22  -3 3915.84 971.185   3
  -7 -22  -3 4943.68 1016.33   4
   7 -29  -3 6435.34 1019.70   4
  -7 -22  -3 4500.73 991.998   2
   7 -29  -3 2894.13 791.802   2
  22   7   0 3860.75 566.029   1
 -29  22   0 2347.59 810.784   3
  -7 -22   0 3452.49 778.208   4
   7 -29   0 4218.64 862.112   4
  -7 -22   0 2039.54 817.126   2
   7 -29   0 2999.51 936.764   2
  22   7   3 3965.96 697.747   1
 -29  22   3 3088.66 878.510   3
  29  -7   3 3264.02 622.917   1
  -7 -22   3 5273.35 881.014   4
   7 -29   3 4674.04 864.723   4
  -7 -22   3 3711.97 1048.10   2
   7 -29   3 5499.23 1227.81   2
 -22  29   3 3826.28 691.335   3
  22   7   6 3176.61 824.810   1
  29  -7   6 2154.34 691.095   1
  -7 -22   6 2340.71 734.030   4
  -7 -22   6 3223.09 1033.10   2
   7 -29   6 2760.72 733.969   4
   7 -29   6 1720.38 886.501   2
 -22  29   6 2734.44 785.782   3
 -29  22   6 3469.91 1014.65   3
 -29  23  -4 4788.45 1105.10   3
  -6 -23  -4 4109.22 928.037   4
   6 -29  -4 4585.03 929.359   4
  -6 -23  -4 4597.41 979.499   2
   6 -29  -4 4367.77 957.315   2
 -29  23  -1 1983.05 796.747   3
  -6 -23  -1 1864.50 695.214   4
   6 -29  -1 3111.96 772.545   4
  -6 -23  -1 2396.43 844.306   2
   6 -29  -1 2630.09 845.280   2
 -23  29   2 2713.03 666.089   3
 -29  23   2 2522.47 838.403   3
  23   6   2 4187.32 645.700   1
  29  -6   2 4437.42 615.433   1
  -6 -23   2 5492.33 963.637   4
   6 -29   2 4229.41 840.450   4
  -6 -23   2 3558.17 1082.97   2
   6 -29   2 5152.12 1144.99   2
  23   6   5 2947.38 695.069   1
  -6 -23   5 3402.98 785.982   4
   6 -29   5 3159.81 736.218   4
  -6 -23   5 1578.53 920.664   2
  29  -6   5 3516.29 749.093   1
   6 -29   5 3729.69 1058.21   2
 -23  29   5 1979.44 670.055   3
 -29  23   5 1740.10 822.735   3
 -29  24  -5 101.658 685.781   3
  -5 -24  -5 184.092 609.211   4
   5 -29  -5 293.857 516.414   4
  -5 -24  -5 17.2560 608.140   2
   5 -29  -5 359.582 642.637   2
 -29  24  -2 891.723 717.557   3
  -5 -24  -2 703.900 594.850   4
   5 -29  -2 1934.15 726.845   4
  -5 -24  -2 1827.01 756.506   2
   5 -29  -2 2710.93 836.926   2
 -24  29   1-35.6449 475.772   3
 -29  24   1 1129.24 733.741   3
  -5 -24   1 1335.06 635.359   4
   5 -29   1 1907.24 681.884   4
  -5 -24   1 1330.14 810.125   2
   5 -29   1 252.572 738.772   2
  24   5   1 201.559 344.184   1
  -5 -24   4 680.010 534.115   4
  24   5   4-375.150 456.291   1
   5 -29   4 470.353 543.544   4
  -5 -24   4 738.867 760.437   2
   5 -29   4 2371.55 986.702   2
  29  -5   4 615.548 494.885   1
 -24  29   4 845.016 555.397   3
 -29  24   4 364.992 616.188   3
 -29  25  -3 3685.41 981.518   3
  -4 -25  -3 4149.32 989.674   4
   4 -29  -3 4171.54 948.710   4
  -4 -25  -3 4441.65 1085.37   2
   4 -29  -3 3815.16 966.736   2
 -29  25   0-726.036 753.834   3
 -25  29   0 225.114 503.540   3
  -4 -25   0 905.822 512.560   4
   4 -29   0 80.3973 565.773   4
  -4 -25   0 985.382 738.986   2
   4 -29   0 578.567 670.502   2
 -29  25   3 1120.62 698.056   3
  -4 -25   3 3011.83 708.599   4
   4 -29   3 3541.48 800.736   4
  -4 -25   3 2137.39 940.723   2
  25   4   3 1797.62 529.064   1
   4 -29   3 4593.65 1240.37   2
  29  -4   3 2410.52 561.056   1
 -25  29   3 1791.54 695.012   3
 -29  26  -4 5433.32 1038.31   3
   3 -29  -4 5461.51 1040.93   4
  -3 -26  -4 3896.80 1007.92   4
  -3 -26  -4 5295.95 1100.80   2
   3 -29  -4 5846.54 1075.10   2
 -29  26  -1 37.8964 625.090   3
  -3 -26  -1 1882.48 672.197   4
   3 -29  -1 1527.71 727.697   4
  -3 -26  -1 527.538 777.317   2
   3 -29  -1-111.609 701.805   2
 -26  29   2 2016.12 693.980   3
 -29  26   2 1355.73 707.133   3
  26   3   2 4235.81 642.820   1
  -3 -26   2 3735.55 892.338   4
   3 -29   2 2069.21 716.403   4
  -3 -26   2 2098.01 913.016   2
   3 -29   2 1371.47 909.470   2
  26   3   5 165.813 474.035   1
  -3 -26   5 325.190 678.789   4
   3 -29   5 401.408 526.062   4
  -3 -26   5 358.203 766.059   2
   3 -29   5 121.760 787.453   2
  29  -3   5 788.782 630.125   1
 -26  29   5 499.552 623.450   3
 -29  26   5-241.210 638.596   3
  -2 -27  -5 1598.84 761.570   4
   2 -29  -5 831.640 699.502   4
  -2 -27  -5 1425.01 801.419   2
   2 -29  -5 1694.43 780.868   2
 -29  27  -2-714.968 725.130   3
  -2 -27  -2 265.431 575.098   4
   2 -29  -2 182.003 569.518   4
  -2 -27  -2 574.856 722.172   2
   2 -29  -2-318.557 641.833   2
 -29  27   1 2723.99 844.254   3
 -27  29   1 2524.95 711.521   3
  -2 -27   1 1625.92 631.015   4
   2 -29   1 2921.04 751.076   4
  -2 -27   1 4289.01 1060.58   2
   2 -29   1 2692.12 945.860   2
  27   2   4 610.966 506.813   1
  -2 -27   4 654.282 577.674   4
   2 -29   4 643.220 566.434   4
  -2 -27   4 562.599 751.115   2
   2 -29   4 569.749 920.757   2
 -27  29   4 694.004 716.100   3
  29  -2   4-77.1181 458.004   1
 -29  27   4-426.675 725.730   3
  -1 -28  -3 1285.49 703.604   4
   1 -29  -3 2202.16 838.206   4
  -1 -28  -3 1688.75 926.868   2
   1 -29  -3 127.119 707.256   2
 -29  28   0-54.0979 606.355   3
 -28  29   0-1085.92 647.578   3
  -1 -28   0 639.548 636.039   4
   1 -29   0 844.351 667.214   4
  -1 -28   0 273.708 776.698   2
   1 -29   0 695.099 805.953   2
 -28  29   3 2414.15 838.615   3
 -29  28   3 1145.96 768.852   3
  28   1   3 1398.16 542.808   1
  -1 -28   3 2369.51 787.408   4
   1 -29   3 2951.62 807.226   4
  -1 -28   3 761.638 886.422   2
   1 -29   3 4017.80 1168.89   2
 -29  29  -1 441.387 694.063   3
   0 -29  -1-403.039 595.590   4
   0 -29  -1-396.889 759.482   2
 -29  29   2 2161.86 808.404   3
   0 -29   2 4918.09 1000.53   4
   0 -29   2 6267.93 1312.20   2
 -30   0   0 1574.61 955.924   3
  30 -30   0 2649.84 973.884   2
  30 -30   0 2357.01 751.343   4
  29 -30  -1 2067.63 947.514   2
 -30   1  -1 1462.80 1015.35   3
 -29  -1  -1 3008.45 1116.87   3
  30 -29  -1 2723.30 911.716   2
  29 -30  -1 992.809 642.269   4
  30 -29  -1 2869.66 853.563   4
 -30   1   2 2012.65 1003.54   3
 -29  -1   2 1325.57 974.506   3
  29 -30   2 1195.82 808.310   2
  30 -29   2 1272.35 774.630   2
  30 -29   2 899.910 670.138   1
  29 -30   2 695.579 658.917   4
  30 -29   2 914.355 629.884   4
  28 -30  -2 591.179 785.197   2
 -30   2  -2 341.738 776.169   3
 -28  -2  -2 2474.16 1145.06   3
  30 -28  -2 891.926 706.329   2
  28 -30  -2 612.354 618.561   4
  30 -28  -2 467.434 563.918   4
 -30   2   1 2863.29 999.133   3
  28 -30   1 3935.88 991.274   2
 -28  -2   1 2737.83 1129.62   3
  30 -28   1 2259.79 876.329   2
  30 -28   1 3686.40 814.903   1
  28 -30   1 3542.72 844.566   4
  30 -28   1 3259.89 838.835   4
  27 -30  -3 515.869 762.435   2
 -30   3  -3 694.414 943.424   3
 -27  -3  -3 231.910 892.325   3
  30 -27  -3 1422.59 797.574   2
  27 -30  -3 1348.93 724.144   4
  30 -27  -3-851.928 626.432   4
  27 -30   0 4101.29 1041.39   2
 -30   3   0 1166.55 860.511   3
 -27  -3   0 1243.19 1075.22   3
  30 -27   0 3455.05 917.124   2
  27 -30   0 2666.04 787.110   4
  30 -27   0 2084.28 742.021   4
 -30   3   3 162.938 762.116   3
 -27  -3   3 690.198 872.192   3
  27 -30   3 1418.12 720.547   2
  30 -27   3 294.856 595.880   2
  30 -27   3 984.062 653.386   1
  27 -30   3-181.821 487.622   4
  30 -27   3-166.757 583.533   4
   3  27   3 841.383 578.370   1
  26 -30  -4 771.140 681.235   2
 -26  -4  -4-848.532 817.867   3
  30 -26  -4 722.548 684.832   2
 -26  -4  -4-123.774 697.837   2
  26 -30  -4 713.606 641.282   4
  30 -26  -4 187.916 547.674   4
  26 -30  -1 3538.92 991.264   2
 -30   4  -1 972.495 918.467   3
 -26  -4  -1 1322.11 932.414   3
  30 -26  -1 4429.28 963.881   2
  26 -30  -1 1745.00 713.567   4
  30 -26  -1 3040.50 795.383   4
  26 -30   2 1257.09 829.348   2
 -30   4   2 500.612 860.904   3
 -26  -4   2 1654.57 870.549   3
  30 -26   2-103.566 528.740   2
   4  26   2 904.611 623.588   1
  30 -26   2 238.578 507.942   1
  26 -30   2 2114.50 689.944   4
  30 -26   2 938.247 610.906   4
  25 -30  -5 2022.66 820.190   2
 -30   5  -5-46.5305 937.218   3
 -25  -5  -5-240.812 845.781   3
  30 -25  -5 720.750 821.827   2
 -25  -5  -5 2738.72 988.595   4
  25 -30  -5 1716.30 744.352   4
  30 -25  -5 1632.99 672.029   4
  25 -30  -2 851.287 729.924   2
 -30   5  -2 1126.65 897.809   3
 -25  -5  -2 511.371 770.465   3
  30 -25  -2 580.100 633.864   2
  25 -30  -2 1886.68 687.652   4
  30 -25  -2 935.349 593.098   4
  25 -30   1 2504.69 865.118   2
 -30   5   1 2426.67 991.516   3
 -25  -5   1 1683.11 857.554   3
  30 -25   1 2981.63 824.330   2
  30 -25   1 1994.59 650.429   1
  25 -30   1 3648.05 891.195   4
  30 -25   1 1625.18 689.992   4
   5  25   4 809.282 551.710   1
  25 -30   4 955.470 648.847   2
 -30   5   4 1456.57 877.777   3
 -25  -5   4 1269.95 878.126   3
  30 -25   4 2092.51 778.123   2
  30 -25   4 2105.26 749.578   1
  -5  30   4 754.663 625.075   1
  25 -30   4 3916.53 853.370   4
  30 -25   4 1345.08 625.141   4
  24 -30  -3 1103.73 717.261   2
 -30   6  -3-75.6488 824.765   3
 -24  -6  -3 1541.15 917.800   3
  30 -24  -3 967.350 762.653   2
 -24  -6  -3 2407.65 909.085   2
  24 -30  -3 1819.75 714.933   4
  30 -24  -3 874.156 607.381   4
  24 -30   0 2826.23 876.551   2
 -30   6   0 4230.69 1160.07   3
 -24  -6   0 622.716 690.248   3
  30 -24   0 3482.33 914.913   2
  30 -24   0 2156.81 585.555   1
  24 -30   0 2477.60 755.081   4
  30 -24   0 3945.90 846.560   4
  24 -30   3 1551.11 730.610   2
 -30   6   3 731.873 875.758   3
 -24  -6   3 2367.71 964.620   3
  30 -24   3 295.488 554.787   2
   6  24   3-221.402 473.784   1
  30 -24   3 2068.28 702.617   1
  24 -30   3 1709.91 647.163   4
  30 -24   3 189.471 487.918   4
  23 -30  -4-641.557 652.435   2
 -30   7  -4 631.442 850.499   3
 -23  -7  -4 1271.50 838.583   3
  30 -23  -4 1912.28 842.585   2
 -23  -7  -4 752.839 666.282   4
 -23  -7  -4 67.9940 650.965   2
  23 -30  -4 721.896 592.707   4
  30 -23  -4 688.153 607.354   4
  23 -30  -1 900.857 661.829   2
 -30   7  -1 231.152 764.637   3
 -23  -7  -1 1758.27 936.926   3
  30 -23  -1 526.047 606.062   2
 -23  -7  -1-456.386 680.196   2
  30 -23  -1 765.975 427.498   1
  23 -30  -1 209.473 514.459   4
  30 -23  -1 43.2987 452.307   4
  23 -30   2 1617.63 859.560   2
   7  23   2-9.99340 484.179   1
 -30   7   2 171.855 726.780   3
 -23  -7   2 737.028 777.200   3
  30 -23   2 1304.18 598.521   2
  30 -23   2 1229.85 610.656   1
  23 -30   2 1036.68 564.332   4
  30 -23   2-1047.94 554.099   4
 -30   7   5 357.453 720.854   3
 -23  -7   5 499.541 752.344   3
  30 -23   5 265.477 558.625   2
 -23  -7   5 74.6088 604.435   4
   7  23   5 47.3031 542.344   1
  23 -30   5 1584.52 637.785   4
  30 -23   5 681.859 641.398   1
  -7  30   5-255.911 554.000   1
  23 -30   5 2853.65 881.061   2
  22 -30  -5 4384.30 973.899   2
 -30   8  -5 3836.11 1288.56   3
 -22  -8  -5 2746.89 977.936   3
 -22  -8  -5 4223.41 1003.80   4
 -22  -8  -5 4751.74 997.618   2
  22 -30  -5 4038.65 903.053   4
  30 -22  -5 4230.62 860.643   4
  22 -30  -2 1073.36 676.265   2
 -30   8  -2 2027.20 1074.50   3
 -22  -8  -2 1312.00 844.184   3
  30 -22  -2 1540.25 747.277   2
 -22  -8  -2 1205.69 710.195   4
 -22  -8  -2 616.249 753.469   2
  22 -30  -2 459.204 494.671   4
  30 -22  -2 338.201 497.427   4
 -30   8   1 3131.22 1064.78   3
  30 -22   1 5775.15 1029.12   2
 -22  -8   1 5481.26 1154.52   3
 -22  -8   1 3436.80 907.633   4
 -22  -8   1 3455.25 1005.54   2
  22 -30   1 3992.44 830.749   4
  30 -22   1 3140.19 620.219   1
   8  22   1 3144.97 700.582   1
  30 -22   1 3286.03 772.282   4
  22 -30   1 3374.92 850.032   2
 -30   8   4-13.9621 732.214   3
 -22  -8   4 1715.22 781.838   3
  30 -22   4 1665.03 704.324   2
 -22  -8   4 1483.35 710.923   4
 -22  -8   4 3234.41 1103.12   2
   8  22   4 1729.41 611.329   1
  22 -30   4 1898.01 673.721   4
  30 -22   4 2020.64 772.042   1
  22 -30   4 2684.38 901.311   2
  21 -30  -6 2438.33 937.888   2
 -30   9  -6 2334.82 1054.95   3
 -21  -9  -6 2306.24 906.055   4
  21 -30  -6 2756.98 841.817   4
  21 -30  -3 2870.38 883.414   2
 -30   9  -3 959.797 1005.04   3
 -21  -9  -3 504.657 694.716   3
 -21  -9  -3 1673.97 733.144   4
 -21  -9  -3 1315.81 709.404   2
  21 -30  -3 1562.93 665.003   4
  30 -21  -3 1773.33 706.599   4
 -30   9   0 3320.43 1030.41   3
  30 -21   0 5812.52 1038.77   2
 -21  -9   0 3427.43 985.478   3
 -21  -9   0 4295.57 943.448   4
 -21  -9   0 3804.42 1036.60   2
  21 -30   0 4298.62 895.299   4
  30 -21   0 2787.34 599.428   1
  30 -21   0 4485.68 871.035   4
  21 -30   0 5785.57 1082.66   2
 -30   9   3 2692.59 1015.72   3
 -21  -9   3 4210.33 980.515   3
  30 -21   3 2891.76 801.032   2
 -21  -9   3 3769.52 995.091   4
 -21  -9   3 2503.52 1026.25   2
  21 -30   3 2325.61 697.750   4
  30 -21   3 1610.94 572.309   1
   9  21   3 2051.27 611.472   1
  21 -30   3 1736.83 706.928   2
 -21  -9   6 522.553 730.627   3
  -9  30   6 2132.02 686.687   1
  30 -21   6 2392.82 762.202   2
 -21  -9   6 4654.99 968.997   4
 -21  -9   6 2672.30 1066.56   2
  21 -30   6 2224.49 668.726   4
  30 -21   6 2579.66 882.795   1
   9  21   6 2752.91 756.391   1
  21 -30   6 2361.57 856.994   2
 -30   9   6 3093.49 1023.20   3
  20 -30  -4 1516.98 687.273   2
 -30  10  -4 2675.95 1085.80   3
 -20 -10  -4 1203.72 753.261   3
 -20 -10  -4 2015.64 757.939   4
 -20 -10  -4 2693.71 844.206   2
  20 -30  -4 2939.36 762.534   4
 -30  10  -1-795.565 782.170   3
 -20 -10  -1 606.259 672.987   3
  30 -20  -1 164.076 509.215   2
 -20 -10  -1-82.6237 535.833   4
 -20 -10  -1-85.4175 666.613   2
  20 -30  -1-150.573 447.611   4
  20 -30  -1 1026.54 687.737   2
 -30  10   2 678.802 660.366   3
  10  20   2 547.055 433.984   1
 -20 -10   2 1071.82 714.967   3
  30 -20   2 622.979 579.318   2
 -20 -10   2 1033.62 717.719   4
 -20 -10   2 2137.70 933.752   2
  20 -30   2 872.557 490.472   4
  30 -20   2 2240.60 626.298   1
  20 -30   2 1394.69 719.076   2
 -30  10   5 319.622 685.506   3
 -20 -10   5 988.491 807.119   3
  30 -20   5 1078.81 661.419   2
 -20 -10   5 22.7891 561.900   4
 -20 -10   5 813.085 837.135   2
 -10  30   5 348.514 626.981   1
  20 -30   5 334.644 507.573   4
  30 -20   5 1278.64 711.266   1
  10  20   5 1176.23 617.212   1
  20 -30   5 527.375 655.647   2
  19 -30  -5 2344.74 880.073   2
 -30  11  -5 3300.61 1097.00   3
 -19 -11  -5 3681.15 1006.03   3
 -19 -11  -5 3641.47 920.835   4
 -19 -11  -5 4182.58 935.744   2
  19 -30  -5 3452.93 810.804   4
 -30  11  -2 1488.64 879.846   3
 -19 -11  -2 433.051 671.078   3
 -19 -11  -2 1753.82 696.043   4
 -19 -11  -2 1291.67 754.663   2
  19 -30  -2 1289.48 575.619   4
  19 -30  -2 1291.88 679.057   2
 -30  11   1 4215.87 1027.13   3
 -19 -11   1 4194.00 961.481   3
  30 -19   1 4637.06 974.253   2
 -19 -11   1 6367.87 1019.35   4
 -19 -11   1 5650.97 1264.07   2
  30 -19   1 4343.79 661.001   1
  19 -30   1 7666.24 1022.60   4
  19 -30   1 5281.27 1041.88   2
  11  19   1 4121.74 699.410   1
 -30  11   4 4763.65 1146.44   3
 -19 -11   4 4622.59 1048.78   3
  30 -19   4 4693.52 897.177   2
 -19 -11   4 7469.80 1421.00   2
 -19 -11   4 4046.72 866.360   4
  30 -19   4 5376.27 888.173   1
  19 -30   4 4513.24 857.175   4
  11  19   4 4661.41 876.250   1
  19 -30   4 6244.15 1133.79   2
  18 -30  -6 472.164 682.774   2
 -30  12  -6 464.520 929.934   3
 -18 -12  -6 407.192 638.391   4
  18 -30  -6 637.475 589.936   4
 -30  12  -3 6022.92 1272.99   3
 -18 -12  -3 4404.07 973.357   3
 -18 -12  -3 6185.96 1071.43   2
 -18 -12  -3 3599.35 864.284   4
  18 -30  -3 5722.41 969.563   4
  18 -30  -3 5434.12 1030.40   2
 -30  12   0 1522.87 888.866   3
 -18 -12   0 3146.67 919.919   3
 -18 -12   0 3419.84 820.491   4
 -18 -12   0 1057.48 713.559   2
  18 -30   0 2265.06 648.847   4
  30 -18   0 2388.26 469.744   1
  18 -30   0 4557.95 1069.02   2
 -30  12   3 5181.85 1126.61   3
 -18 -12   3 2581.02 801.246   3
 -18 -12   3 7440.51 1078.85   4
  12  18   3 3386.68 703.398   1
 -18 -12   3 5164.61 1120.37   2
  30 -18   3 4941.48 787.056   1
  18 -30   3 4642.61 813.950   4
  18 -30   3 6573.90 1136.43   2
 -18 -12   6 1435.89 742.726   3
 -12  30   6 2890.74 773.608   1
  12  18   6 1590.35 663.332   1
 -18 -12   6 1749.49 705.934   4
 -18 -12   6 862.794 905.513   2
  18 -30   6 1660.50 649.432   4
  18 -30   6 827.835 744.720   2
  30 -18   6 1478.10 702.703   1
 -30  12   6 3348.84 1058.57   3
  17 -30  -4 2839.00 844.865   2
 -30  13  -4 2073.02 1063.99   3
 -17 -13  -4 1372.70 794.345   3
 -17 -13  -4 2457.69 766.998   4
 -17 -13  -4 1946.95 732.274   2
  17 -30  -4 2445.91 795.764   4
 -30  13  -1 3226.82 936.783   3
 -17 -13  -1 3696.20 918.197   3
 -17 -13  -1 2683.01 840.734   4
 -17 -13  -1 2555.31 858.969   2
  17 -30  -1 4269.33 839.986   4
  17 -30  -1 2639.41 835.447   2
 -30  13   2 4747.74 1065.15   3
 -17 -13   2 5160.71 996.766   3
 -17 -13   2 5678.84 981.728   4
 -17 -13   2 5414.87 1201.69   2
  17 -30   2 5273.46 886.593   4
  30 -17   2 3865.67 662.188   1
  17 -30   2 3425.84 925.211   2
  13  17   2 3700.55 712.913   1
 -17 -13   5 560.249 768.109   3
 -17 -13   5 681.679 629.129   4
 -17 -13   5 1583.98 859.968   2
  13  17   5-77.7040 488.469   1
  17 -30   5 1184.84 604.092   4
  17 -30   5 248.157 653.814   2
  30 -17   5 1291.38 698.109   1
 -30  13   5 1749.18 830.428   3
  16 -30  -5 1435.17 658.422   2
 -30  14  -5 1274.97 886.546   3
 -16 -14  -5 603.703 596.896   4
 -16 -14  -5 1149.69 650.260   2
  16 -30  -5 444.656 590.429   4
 -30  14  -2 3144.65 1069.88   3
 -16 -14  -2 4754.78 984.386   3
 -16 -14  -2 3460.62 837.317   4
 -16 -14  -2 2812.76 893.291   2
  16 -30  -2 3007.85 765.862   4
  16 -30  -2 2397.72 806.894   2
 -30  14   1 773.970 724.087   3
  14  16   1 745.803 479.178   1
 -16 -14   1 1799.45 719.052   3
 -16 -14   1 1132.81 645.358   4
 -16 -14   1 1259.65 771.514   2
  16 -30   1 1019.73 537.420   4
  16 -30   1 1949.70 755.253   2
  30 -16   1 1235.76 446.155   1
 -30  14   4 3148.31 1000.69   3
 -16 -14   4 2320.96 845.560   3
 -16 -14   4 4502.03 904.941   4
 -16 -14   4 3970.72 1105.17   2
  16 -30   4 6075.05 940.088   4
  14  16   4 4362.01 770.631   1
  30 -16   4 4974.84 857.174   1
  16 -30   4 5433.98 1107.97   2
  15 -30  -6 2375.52 792.053   2
 -30  15  -6 185.618 881.088   3
 -15 -15  -6 689.881 671.048   4
  15 -30  -6 1331.04 669.328   4
 -30  15  -3 7957.23 1395.74   3
 -15 -15  -3 4845.40 1017.95   3
 -15 -15  -3 10025.6 1248.27   4
 -15 -15  -3 7535.94 1202.30   2
  15 -30  -3 7928.75 1075.83   4
  15 -30  -3 5850.48 1089.60   2
 -30  15   0 2892.56 963.355   3
 -15 -15   0 1303.84 670.436   3
 -15 -15   0 673.817 594.424   4
 -15 -15   0 1203.06 785.775   2
  15 -30   0 1780.25 600.237   4
  15  15   0 640.132 442.141   1
  15 -30   0 2775.86 890.232   2
 -15 -15   3 6903.59 1128.00   3
 -15 -15   3 8208.22 1124.86   4
 -15 -15   3 6580.89 1239.59   2
  15  15   3 5297.42 816.835   1
  15 -30   3 7175.16 984.066   4
  15 -30   3 8462.39 1246.24   2
  30 -15   3 4053.80 741.220   1
 -30  15   3 6214.85 1224.55   3
  30 -15   6 706.241 609.875   1
 -15 -15   6 1672.83 742.005   3
 -15 -15   6 236.101 505.693   4
 -15 -15   6 445.313 739.822   2
  15 -30   6 1327.92 616.756   4
  15 -30   6-62.5301 600.392   2
 -15  30   6 462.440 510.388   3
  15  15   6 1380.60 674.689   1
 -30  15   6 905.388 827.850   3
 -30  16  -4 2570.44 996.820   3
 -14 -16  -4 3530.10 892.143   4
 -14 -16  -4 5457.79 1050.27   2
  14 -30  -4 6612.05 985.101   4
  14 -30  -4 5010.86 1072.07   2
 -30  16  -1 737.983 729.941   3
 -14 -16  -1 1420.56 660.167   3
 -14 -16  -1 829.247 593.603   4
 -14 -16  -1 464.177 693.416   2
  14 -30  -1 941.594 517.610   4
  14 -30  -1 569.348 710.734   2
 -30  16   2 3828.22 972.475   3
  30 -14   2 1442.36 481.941   1
 -14 -16   2 2577.83 744.807   3
  16  14   2 1940.49 559.089   1
 -14 -16   2 3194.11 767.032   4
 -14 -16   2 2303.25 847.266   2
  14 -30   2 2340.19 607.543   4
  14 -30   2 2231.69 793.976   2
  16  14   5 946.346 596.857   1
  30 -14   5 1029.36 625.507   1
 -14 -16   5 283.192 672.617   3
 -14 -16   5 625.750 568.208   4
 -14 -16   5 2404.28 969.425   2
  14 -30   5 1067.26 501.658   4
  14 -30   5 766.544 652.409   2
 -16  30   5 479.718 440.010   3
 -30  16   5-194.751 812.223   3
 -30  17  -5-451.323 730.355   3
 -13 -17  -5 975.962 580.554   4
  13 -30  -5 1796.77 667.115   4
 -13 -17  -5 1825.72 778.282   2
  13 -30  -5 393.254 580.642   2
 -30  17  -2 1861.98 848.759   3
 -13 -17  -2 3030.82 769.691   3
 -13 -17  -2 3644.20 817.010   4
 -13 -17  -2 5040.90 1043.77   2
  13 -30  -2 4683.65 840.931   4
  13 -30  -2 4137.84 954.225   2
 -30  17   1 2994.03 953.110   3
  30 -13   1 2478.89 456.874   1
 -13 -17   1 2836.68 759.402   3
 -13 -17   1 3012.61 844.066   4
 -13 -17   1 2011.22 852.867   2
  13 -30   1 3560.95 717.939   4
  17  13   1 2451.88 570.203   1
  13 -30   1 3004.46 935.970   2
 -30  17   4 1573.88 931.646   3
  30 -13   4 1638.02 584.707   1
 -13 -17   4 1696.34 814.194   3
  17  13   4 2681.01 664.569   1
 -13 -17   4 1094.91 598.852   4
 -13 -17   4 1422.26 812.747   2
  13 -30   4 820.188 476.833   4
  13 -30   4 2537.69 843.076   2
  12 -30  -6 1043.85 658.609   2
 -30  18  -6 1499.42 932.864   3
 -12 -18  -6 2067.02 841.064   4
  12 -30  -6 2784.62 802.293   4
 -30  18  -3 2104.77 913.960   3
 -12 -18  -3 4012.15 856.563   4
  12 -30  -3 4491.36 841.483   4
 -12 -18  -3 4906.03 971.686   2
  12 -30  -3 3210.60 821.159   2
 -30  18   0 2529.02 943.678   3
 -12 -18   0 4656.16 764.466   3
 -12 -18   0 2556.87 661.150   4
  18  12   0 3599.50 620.092   1
 -12 -18   0 3791.46 1060.85   2
  12 -30   0 4603.81 851.086   4
  12 -30   0 3593.67 934.579   2
 -30  18   3 3319.93 884.177   3
 -12 -18   3 3299.36 759.428   3
 -12 -18   3 3985.08 858.713   4
 -12 -18   3 3769.56 1041.30   2
  18  12   3 4131.57 719.656   1
  12 -30   3 5166.58 915.067   4
  12 -30   3 5651.32 1133.18   2
  30 -12   3 4619.81 710.730   1
  30 -12   6 1152.51 614.669   1
 -12 -18   6 0.99057 532.987   4
 -12 -18   6 974.870 869.953   2
  12 -30   6 1180.49 586.449   4
  18  12   6 410.098 632.939   1
  12 -30   6 1429.95 801.691   2
 -18  30   6 574.061 523.728   3
 -30  18   6 2060.56 926.802   3
 -30  19  -4 2857.46 1006.62   3
 -11 -19  -4 4086.02 919.784   4
 -11 -19  -4 5969.08 1067.33   2
  11 -30  -4 4375.10 859.513   4
  11 -30  -4 3534.10 915.861   2
 -30  19  -1 2188.38 862.105   3
 -11 -19  -1 4513.48 827.615   3
 -11 -19  -1 5819.87 958.968   4
  11 -30  -1 5405.90 889.345   4
 -11 -19  -1 4952.22 1068.22   2
  11 -30  -1 5553.73 1033.85   2
 -30  19   2 463.253 762.302   3
 -11 -19   2 1191.90 649.761   3
  30 -11   2 932.817 375.017   1
 -11 -19   2 1101.65 587.401   4
 -11 -19   2 758.536 678.402   2
  11 -30   2 2010.80 653.047   4
  11 -30   2 604.208 677.496   2
  19  11   2 1291.52 524.981   1
  30 -11   5 3048.27 703.434   1
 -11 -19   5 4197.94 814.556   4
 -11 -19   5 3381.92 1053.09   2
  11 -30   5 4396.48 814.709   4
  19  11   5 2557.58 691.796   1
  11 -30   5 3127.03 947.092   2
 -19  30   5 2661.24 648.747   3
 -30  19   5 858.511 792.093   3
 -30  20  -5-43.0097 730.107   3
 -10 -20  -5 764.057 601.491   4
  10 -30  -5-217.705 552.771   4
 -10 -20  -5-552.612 678.541   2
  10 -30  -5-470.955 739.888   2
 -30  20  -2-415.857 701.983   3
 -10 -20  -2 1002.04 639.964   4
  10 -30  -2-130.141 476.251   4
  10 -30  -2 416.828 564.055   2
 -30  20   1 1230.96 694.379   3
 -10 -20   1 247.273 450.802   3
  20  10   1 341.371 410.650   1
 -10 -20   1-164.797 537.089   4
 -10 -20   1-297.458 656.785   2
  10 -30   1-94.2507 465.669   4
  10 -30   1 928.847 723.401   2
  30 -10   4 1344.74 552.525   1
 -10 -20   4 1499.05 617.849   4
 -10 -20   4 694.745 796.247   2
  10 -30   4 2653.22 727.897   4
  10 -30   4 1475.62 847.094   2
  20  10   4 1577.34 542.673   1
 -20  30   4 2104.08 599.502   3
 -30  20   4 2548.69 934.499   3
 -30  21  -6 1600.81 972.174   3
  -9 -21  -6 4627.04 1021.12   4
   9 -30  -6 1038.26 687.498   4
  -9 -21  -6 3837.02 933.462   2
   9 -30  -6 2358.27 845.850   2
 -30  21  -3 2377.62 998.873   3
  -9 -21  -3 1100.98 633.172   4
   9 -30  -3 1641.41 714.649   4
  -9 -21  -3 341.710 679.997   2
   9 -30  -3 2836.06 844.737   2
 -30  21   0 2840.61 886.095   3
  21   9   0 2818.35 560.218   1
  -9 -21   0 4593.26 896.459   4
   9 -30   0 3195.79 751.386   4
  -9 -21   0 4122.49 962.417   2
   9 -30   0 2462.08 811.018   2
 -30  21   3 2862.25 905.838   3
  21   9   3 1556.39 576.240   1
  -9 -21   3 1750.11 617.627   4
  30  -9   3 2681.76 598.199   1
  -9 -21   3 2258.14 936.827   2
   9 -30   3 1324.43 560.954   4
   9 -30   3 2186.72 906.593   2
 -21  30   3 2240.76 597.501   3
  30  -9   6 3737.58 850.944   1
  -9 -21   6 1869.27 688.018   4
  21   9   6 2858.96 779.146   1
  -9 -21   6 2781.78 1028.31   2
   9 -30   6 2680.18 803.404   4
   9 -30   6 3774.83 1113.52   2
 -21  30   6 2248.81 757.679   3
 -30  21   6 3220.31 1032.63   3
 -30  22  -4 1591.99 912.166   3
  -8 -22  -4 1421.08 640.042   4
   8 -30  -4 2177.18 741.352   4
  -8 -22  -4 2082.83 834.510   2
   8 -30  -4 1419.60 708.379   2
 -30  22  -1 1223.84 767.091   3
  -8 -22  -1 2871.43 840.217   4
   8 -30  -1 3403.22 861.452   4
  -8 -22  -1 3344.44 911.775   2
   8 -30  -1 4441.20 1062.36   2
 -30  22   2 1592.65 697.176   3
  -8 -22   2 465.496 554.918   4
  22   8   2 600.606 427.669   1
   8 -30   2 1402.51 660.544   4
  -8 -22   2 1398.23 919.496   2
  30  -8   2 499.102 396.459   1
   8 -30   2-335.854 654.327   2
  30  -8   5 5052.40 888.114   1
  -8 -22   5 3598.47 879.004   4
  -8 -22   5 4148.55 1136.72   2
   8 -30   5 4711.61 852.415   4
   8 -30   5 5221.97 1240.86   2
  22   8   5 5466.63 911.900   1
 -22  30   5 2337.34 705.358   3
 -30  22   5 3468.75 1049.73   3
 -30  23  -5 144.693 756.458   3
  -7 -23  -5-120.290 625.534   4
   7 -30  -5 1133.63 621.038   4
  -7 -23  -5 880.378 717.163   2
   7 -30  -5 627.566 728.598   2
 -30  23  -2-1498.85 825.682   3
  -7 -23  -2-325.418 590.758   4
   7 -30  -2 15.8929 548.555   4
  -7 -23  -2 98.8112 638.713   2
   7 -30  -2 892.744 659.790   2
 -30  23   1 813.061 715.296   3
  23   7   1 1475.34 437.466   1
  -7 -23   1 1272.99 676.839   4
   7 -30   1 1143.25 587.106   4
  -7 -23   1 1021.70 727.004   2
   7 -30   1 174.411 668.737   2
  -7 -23   4 998.536 645.725   4
   7 -30   4 925.746 600.140   4
  -7 -23   4 432.054 765.549   2
  30  -7   4 928.510 502.844   1
  23   7   4 456.954 495.346   1
   7 -30   4 251.880 823.939   2
 -23  30   4 80.9483 523.193   3
 -30  23   4 757.732 695.236   3
 -30  24  -3 451.981 726.793   3
  -6 -24  -3 1735.79 799.128   4
   6 -30  -3 952.761 604.610   4
  -6 -24  -3 929.472 716.513   2
   6 -30  -3 868.006 778.383   2
 -30  24   0 3040.86 984.367   3
  -6 -24   0 2800.02 803.049   4
   6 -30   0 2362.57 745.972   4
  -6 -24   0 1360.26 795.223   2
   6 -30   0 2910.98 958.297   2
 -30  24   3 2204.28 855.782   3
  -6 -24   3 2202.72 692.180   4
   6 -30   3 1016.51 554.265   4
  -6 -24   3 776.365 750.645   2
   6 -30   3 1309.70 832.280   2
  30  -6   3 1396.77 496.659   1
  24   6   3 317.720 404.234   1
 -24  30   3 2116.20 693.758   3
 -30  25  -4 826.828 788.251   3
  -5 -25  -4 1465.88 733.198   4
   5 -30  -4 1098.81 673.975   4
  -5 -25  -4 129.107 695.580   2
   5 -30  -4 943.584 827.153   2
 -30  25  -1 1225.57 775.876   3
  -5 -25  -1 1711.19 787.189   4
   5 -30  -1 2202.48 749.639   4
  -5 -25  -1 3047.48 933.805   2
   5 -30  -1 3697.33 1051.72   2
 -25  30   2 798.849 569.178   3
 -30  25   2 926.964 756.908   3
  25   5   2 473.336 453.359   1
  -5 -25   2 823.628 577.063   4
   5 -30   2-155.883 604.734   4
  -5 -25   2 1774.39 858.687   2
   5 -30   2 1396.72 973.055   2
  25   5   5 1055.47 626.458   1
  -5 -25   5 695.928 541.509   4
   5 -30   5 505.271 537.584   4
  -5 -25   5 600.127 746.391   2
   5 -30   5 531.734 849.148   2
  30  -5   5 1210.83 574.256   1
 -25  30   5 719.318 648.071   3
 -30  25   5 612.975 819.806   3
 -30  26  -2 1209.40 788.560   3
  -4 -26  -2 2486.38 820.298   4
   4 -30  -2 715.733 635.924   4
  -4 -26  -2 1433.46 834.381   2
   4 -30  -2 869.679 768.287   2
 -30  26   1 3494.65 1009.66   3
   4 -30   1 5127.28 973.465   4
  -4 -26   1 3236.86 836.086   4
  -4 -26   1 2243.25 937.476   2
   4 -30   1 2892.45 963.446   2
  -4 -26   4-1.10027 537.237   4
  26   4   4 863.740 566.960   1
   4 -30   4 844.171 615.602   4
  -4 -26   4 105.473 921.203   2
   4 -30   4 418.772 813.825   2
  30  -4   4 715.253 470.203   1
 -26  30   4 574.160 630.122   3
 -30  26   4 932.486 721.672   3
 -30  27  -3 506.856 694.932   3
  -3 -27  -3 688.350 680.067   4
   3 -30  -3 322.531 643.835   4
  -3 -27  -3 690.054 770.714   2
   3 -30  -3 276.457 649.067   2
 -30  27   0 1216.80 733.919   3
  -3 -27   0 3202.85 904.176   4
   3 -30   0 3135.93 836.377   4
  -3 -27   0 1112.46 969.169   2
   3 -30   0 1286.75 807.923   2
 -27  30   3-247.305 590.798   3
 -30  27   3 1164.32 727.176   3
  -3 -27   3 1173.04 626.107   4
   3 -30   3 1261.77 606.694   4
  -3 -27   3-158.056 865.618   2
   3 -30   3 287.690 779.001   2
  27   3   3 332.501 437.678   1
 -30  28  -1 2384.65 840.973   3
  -2 -28  -1 4464.03 986.677   4
   2 -30  -1 4331.66 954.723   4
  -2 -28  -1 1622.12 885.373   2
   2 -30  -1 3423.31 1046.14   2
 -28  30   2 319.988 621.026   3
 -30  28   2 606.795 700.808   3
  -2 -28   2 1117.65 683.778   4
   2 -30   2 3229.07 754.052   4
  -2 -28   2 860.916 988.881   2
   2 -30   2-105.325 732.290   2
  -1 -29  -2 1515.35 785.354   4
   1 -30  -2-100.857 637.355   4
  -1 -29  -2 1170.44 876.398   2
   1 -30  -2 2324.94 1080.49   2
 -30  29   1 2176.46 820.789   3
 -29  30   1 584.626 680.832   3
  -1 -29   1 2560.94 851.872   4
   1 -30   1 4682.41 977.594   4
  -1 -29   1 2763.87 1070.09   2
   1 -30   1 595.154 749.870   2
   0 -30   0 878.751 611.317   4
   0 -30   0 661.947 848.521   2
 -31   2   0 1129.14 812.421   3
  29 -31   0 1559.10 882.280   2
 -29  -2   0 1586.89 970.429   3
  31 -29   0 737.735 703.309   2
  29 -31   0 4183.29 952.722   4
  31 -29   0 2206.51 761.100   4
  28 -31  -1 574.514 796.419   2
 -31   3  -1 383.869 1016.37   3
 -28  -3  -1 1866.68 986.631   3
  31 -28  -1 1382.83 773.313   2
  28 -31  -1 756.794 664.232   4
  31 -28  -1-827.789 672.384   4
 -31   3   2 3482.97 1249.85   3
  28 -31   2 1397.07 749.214   2
 -28  -3   2 2609.93 1074.35   3
  31 -28   2 4038.95 1018.26   2
  31 -28   2 1926.60 758.854   1
  28 -31   2 2646.51 724.334   4
  31 -28   2 4015.58 948.076   4
  27 -31  -2 2350.20 929.681   2
 -31   4  -2 1725.67 999.564   3
 -27  -4  -2 1049.01 867.888   3
  31 -27  -2 2143.70 846.248   2
  27 -31  -2 740.897 638.343   4
  31 -27  -2 2209.93 760.363   4
  27 -31   1 425.584 651.850   2
 -31   4   1 2186.49 1118.98   3
 -27  -4   1 1609.87 1011.68   3
  31 -27   1 2224.49 810.958   2
  31 -27   1 1751.77 704.289   1
  27 -31   1 1330.85 649.524   4
  31 -27   1 1322.38 685.196   4
  26 -31  -3 3787.01 1027.21   2
 -31   5  -3 2129.62 998.509   3
  31 -26  -3 3435.52 973.327   2
 -26  -5  -3 3656.23 1099.96   2
  31 -26  -3 4689.20 1008.22   4
  26 -31  -3 3807.30 916.022   4
  26 -31   0 1532.42 761.765   2
 -31   5   0 1830.06 969.946   3
 -26  -5   0 1040.45 967.043   3
  31 -26   0 2856.42 920.421   2
  31 -26   0 2058.00 670.010   1
  26 -31   0 2847.82 783.840   4
  31 -26   0 4030.91 869.193   4
  26 -31   3 2501.30 848.556   2
 -31   5   3 1965.52 975.949   3
 -26  -5   3 2063.77 1011.38   3
   5  26   3 1961.19 698.049   1
  31 -26   3 3395.37 888.055   2
  31 -26   3 2152.47 790.099   1
  26 -31   3 2727.35 725.756   4
  31 -26   3 2269.46 699.407   4
  25 -31  -4-422.700 686.992   2
 -31   6  -4 1331.73 964.358   3
 -25  -6  -4 409.122 871.093   3
  31 -25  -4 1373.30 797.368   2
 -25  -6  -4 1201.27 806.319   4
 -25  -6  -4 2257.65 947.602   2
  25 -31  -4 1416.46 728.772   4
  31 -25  -4 1121.32 708.733   4
  25 -31  -1 924.975 626.059   2
 -31   6  -1 1675.73 938.424   3
 -25  -6  -1 67.8681 804.992   3
  31 -25  -1 716.667 799.025   2
 -25  -6  -1 110.362 743.205   2
  25 -31  -1 1859.59 652.720   4
  31 -25  -1 1992.44 708.444   4
  25 -31   2 236.045 617.039   2
 -31   6   2 772.471 786.139   3
 -25  -6   2 632.158 838.395   3
  31 -25   2 533.257 549.260   2
   6  25   2 445.509 563.382   1
  31 -25   2 787.276 576.405   1
  25 -31   2 906.391 590.646   4
  31 -25   2 828.167 660.437   4
  24 -31  -2 3677.63 1003.82   2
 -31   7  -2 3254.54 1145.13   3
 -24  -7  -2 3124.73 1024.61   3
  31 -24  -2 3741.07 985.765   2
 -24  -7  -2 3149.35 882.331   4
 -24  -7  -2 2406.07 937.026   2
  24 -31  -2 2619.36 770.351   4
  31 -24  -2 3209.60 752.247   4
  24 -31   1 1269.89 749.982   2
 -31   7   1 171.176 797.700   3
 -24  -7   1-68.7537 755.243   3
  31 -24   1 722.545 615.642   2
  31 -24   1 860.671 519.976   1
  24 -31   1 1491.13 618.584   4
  31 -24   1 1490.14 625.061   4
  24 -31   4 3454.52 950.777   2
 -31   7   4 4593.62 1174.45   3
 -24  -7   4 1845.89 880.019   3
  31 -24   4 4555.07 963.728   2
 -24  -7   4 2613.96 873.977   4
  24 -31   4 4532.28 927.760   4
  31 -24   4 1492.25 704.110   1
   7  24   4 3300.47 834.095   1
 -31   8  -3 3493.38 1228.61   3
 -23  -8  -3 2217.05 888.703   3
  31 -23  -3 4223.92 1016.92   2
 -23  -8  -3 3296.85 936.297   4
 -23  -8  -3 2625.75 884.937   2
  23 -31  -3 2672.02 786.634   4
  31 -23  -3 4060.11 890.629   4
  23 -31  -3 5717.16 1165.51   2
  23 -31   0 2525.58 951.556   2
 -31   8   0 855.876 809.055   3
 -23  -8   0 2179.21 975.347   3
  31 -23   0 3374.90 896.383   2
 -23  -8   0 1825.45 763.767   4
 -23  -8   0 4094.87 1098.62   2
  31 -23   0 2377.85 616.637   1
  23 -31   0 4892.17 963.770   4
  31 -23   0 1819.96 679.712   4
 -31   8   3 2544.45 1028.51   3
 -23  -8   3 2015.96 898.922   3
   8  23   3 1649.80 603.926   1
  31 -23   3 1349.94 715.286   2
 -23  -8   3 2595.45 873.596   4
 -23  -8   3 2345.97 1066.91   2
  23 -31   3 2235.63 684.326   4
  31 -23   3 2475.95 744.137   1
  23 -31   3 2224.19 804.742   2
  22 -31  -4-525.355 712.172   2
 -31   9  -4 491.561 920.012   3
 -22  -9  -4 278.127 726.321   3
 -22  -9  -4 343.634 707.937   4
 -22  -9  -4-17.4082 671.908   2
  22 -31  -4 593.701 579.190   4
  31 -22  -4 1002.26 610.177   4
  22 -31  -1 661.708 700.718   2
 -31   9  -1 1547.29 964.290   3
 -22  -9  -1 586.147 712.800   3
  31 -22  -1 1959.07 779.909   2
 -22  -9  -1-138.194 641.604   4
 -22  -9  -1 1757.12 877.624   2
  22 -31  -1 527.651 595.593   4
  31 -22  -1 482.996 495.106   4
 -31   9   2 1968.17 968.584   3
 -22  -9   2 105.442 684.898   3
  31 -22   2 121.815 683.540   2
 -22  -9   2 855.241 675.441   4
 -22  -9   2 666.236 823.172   2
  22 -31   2 809.820 538.262   4
  31 -22   2-23.7384 471.200   1
   9  22   2 701.062 531.539   1
  22 -31   2-257.225 642.705   2
 -31   9   5 176.817 782.590   3
 -22  -9   5 1264.50 885.425   3
   9  22   5 1360.47 722.331   1
  31 -22   5 679.994 600.519   2
 -22  -9   5 1003.88 749.912   4
 -22  -9   5 558.270 838.320   2
  -9  31   5-364.134 558.450   1
  22 -31   5 75.0868 511.354   4
  31 -22   5 765.796 666.419   1
  22 -31   5 1003.12 743.501   2
  21 -31  -5 1307.58 766.798   2
 -31  10  -5 1645.40 1020.13   3
 -21 -10  -5 1522.02 1009.25   3
 -21 -10  -5 2052.69 895.589   4
 -21 -10  -5 1145.12 731.117   2
  21 -31  -5 2482.14 767.976   4
  21 -31  -2 4181.37 1045.04   2
 -31  10  -2 4374.99 1151.23   3
 -21 -10  -2 3172.11 957.313   3
 -21 -10  -2 6260.01 1236.32   2
 -21 -10  -2 4468.25 960.219   4
  21 -31  -2 4493.42 901.489   4
  10  21   1 2030.15 571.518   1
 -31  10   1 1802.23 956.460   3
 -21 -10   1 4027.78 1020.93   3
  31 -21   1 1876.77 830.585   2
 -21 -10   1 1904.01 833.604   4
 -21 -10   1 2216.99 925.733   2
  21 -31   1 1989.75 688.108   4
  31 -21   1 1394.92 551.981   1
  21 -31   1 2628.77 933.611   2
 -31  10   4 4150.46 1132.70   3
 -21 -10   4 3393.90 1033.45   3
  31 -21   4 5509.78 1015.93   2
 -21 -10   4 5400.41 1055.75   4
 -21 -10   4 5958.77 1396.26   2
  10  21   4 3567.86 817.714   1
  21 -31   4 6843.90 1019.39   4
  31 -21   4 4337.75 874.752   1
  21 -31   4 5324.82 1085.34   2
  20 -31  -3 4015.65 1000.47   2
 -31  11  -3 4866.31 1275.59   3
 -20 -11  -3 1808.89 777.629   3
 -20 -11  -3 3544.15 931.986   4
 -20 -11  -3 4075.90 1045.88   2
  20 -31  -3 3546.99 820.935   4
 -31  11   0 2405.22 967.047   3
 -20 -11   0 3527.14 969.710   3
 -20 -11   0 2242.12 774.897   4
 -20 -11   0 2695.11 935.225   2
  20 -31   0 2386.83 700.762   4
  20 -31   0 5571.44 1092.04   2
 -31  11   3 1273.52 826.924   3
 -20 -11   3 3732.11 1013.39   3
  31 -20   3 2765.62 837.616   2
 -20 -11   3 3964.34 945.067   4
 -20 -11   3 3598.33 1045.32   2
  11  20   3 2574.42 698.580   1
  20 -31   3 2946.44 753.252   4
  31 -20   3 3226.62 751.477   1
  20 -31   3 4277.81 1096.60   2
  19 -31  -4 1009.53 752.306   2
 -31  12  -4 2793.61 1032.08   3
 -19 -12  -4-346.576 743.722   3
 -19 -12  -4 1198.21 707.175   4
 -19 -12  -4 710.950 702.790   2
  19 -31  -4 2081.97 746.104   4
 -31  12  -1 1483.70 830.331   3
 -19 -12  -1 1336.22 779.248   3
 -19 -12  -1 216.927 562.799   4
 -19 -12  -1-683.572 693.306   2
  19 -31  -1 305.151 477.317   4
  19 -31  -1 694.627 733.073   2
 -31  12   2 3024.19 960.246   3
 -19 -12   2 3011.62 904.705   3
 -19 -12   2 766.170 606.241   4
 -19 -12   2 1375.08 852.005   2
  19 -31   2 550.085 487.898   4
  31 -19   2 791.079 491.246   1
  19 -31   2 1753.29 765.735   2
  12  19   2 1126.85 555.077   1
 -31  12   5 207.573 749.615   3
 -19 -12   5 601.569 722.791   3
 -19 -12   5 1309.85 664.578   4
 -19 -12   5-1298.06 996.752   2
  19 -31   5-216.851 510.336   4
  31 -19   5 915.157 655.074   1
  12  19   5-3.02935 530.071   1
  19 -31   5 762.533 724.026   2
  18 -31  -5 251.464 597.584   2
 -31  13  -5 775.533 948.629   3
 -18 -13  -5 1835.08 799.516   4
 -18 -13  -5 1123.01 762.709   2
  18 -31  -5 1609.57 718.897   4
 -31  13  -2 5825.69 1254.42   3
 -18 -13  -2 5924.30 1101.84   3
 -18 -13  -2 7286.15 1127.82   4
 -18 -13  -2 6987.51 1215.80   2
  18 -31  -2 5081.61 945.035   4
  18 -31  -2 7984.48 1262.87   2
 -31  13   1 2445.51 918.730   3
 -18 -13   1 3163.53 998.462   3
 -18 -13   1 2343.45 761.917   4
 -18 -13   1 3433.93 991.876   2
  13  18   1 3934.57 718.164   1
  18 -31   1 3611.35 805.342   4
  31 -18   1 2028.46 543.796   1
  18 -31   1 4066.99 991.660   2
 -31  13   4 2080.57 972.740   3
  13  18   4 2287.02 667.882   1
 -18 -13   4 4742.15 1082.41   3
 -18 -13   4 3509.88 854.937   4
 -18 -13   4 5397.74 1255.08   2
  18 -31   4 5849.56 942.501   4
  31 -18   4 4025.55 802.052   1
  18 -31   4 3109.84 927.104   2
  17 -31  -6 2298.16 843.032   2
 -31  14  -6 2025.74 1105.34   3
 -17 -14  -6 2471.41 940.630   4
  17 -31  -6 921.735 652.107   4
 -31  14  -3 2324.35 1060.90   3
 -17 -14  -3 1209.80 704.405   3
 -17 -14  -3 2025.09 762.939   4
 -17 -14  -3 3936.70 961.588   2
  17 -31  -3 2253.54 778.882   4
  17 -31  -3 2887.87 856.008   2
 -31  14   0 2582.55 902.621   3
 -17 -14   0 5929.01 1050.63   3
 -17 -14   0 3315.95 856.686   4
 -17 -14   0 2360.36 817.291   2
  17 -31   0 5130.63 898.767   4
  17 -31   0 2833.14 867.411   2
 -31  14   3 5289.60 1192.43   3
 -17 -14   3 2400.07 915.783   3
  14  17   3 2382.81 700.177   1
 -17 -14   3 2853.92 799.653   4
 -17 -14   3 4925.49 1140.23   2
  17 -31   3 3340.69 771.564   4
  17 -31   3 3640.87 966.295   2
  31 -17   3 2326.33 582.829   1
 -17 -14   6 1958.33 842.020   3
  14  17   6 845.017 596.357   1
 -17 -14   6 874.582 628.784   4
 -17 -14   6 1199.65 966.337   2
  17 -31   6 703.023 568.393   4
  17 -31   6 652.516 678.152   2
  31 -17   6 916.497 670.617   1
 -31  14   6 869.879 839.632   3
 -31  15  -4 1976.19 1096.81   3
 -16 -15  -4 2964.17 884.055   4
  16 -31  -4 4342.09 908.182   4
 -16 -15  -4 2956.27 917.498   2
  16 -31  -4 4124.72 961.045   2
 -31  15  -1 257.080 777.120   3
 -16 -15  -1 864.568 593.439   3
 -16 -15  -1 334.419 620.600   4
 -16 -15  -1-134.916 662.039   2
  16 -31  -1 1102.49 651.128   4
  16 -31  -1 535.037 657.823   2
 -31  15   2 5162.34 1183.01   3
 -16 -15   2 4356.40 1014.43   3
 -16 -15   2 6315.57 1029.19   4
 -16 -15   2 3997.81 1053.30   2
  16 -31   2 5145.82 876.100   4
  15  16   2 4214.99 739.230   1
  31 -16   2 4601.44 706.492   1
  16 -31   2 4361.32 1036.09   2
  31 -16   5 371.634 592.139   1
 -16 -15   5-145.753 688.238   3
 -16 -15   5 1045.53 647.867   4
  15  16   5 415.262 524.624   1
 -16 -15   5-12.0015 747.033   2
  16 -31   5 106.745 518.085   4
  16 -31   5-181.084 670.557   2
 -31  15   5 697.358 926.483   3
  15 -31  -5 393.524 653.581   2
 -31  16  -5-759.192 821.285   3
 -15 -16  -5-347.247 597.452   4
  15 -31  -5 946.781 627.605   4
 -15 -16  -5 874.635 627.319   2
 -31  16  -2 2544.74 909.592   3
 -15 -16  -2 3461.62 838.335   3
 -15 -16  -2 3019.68 819.456   4
  15 -31  -2 3617.60 817.571   4
  15 -31  -2 5373.90 1048.96   2
 -31  16   1-348.181 777.662   3
  16  15   1 703.957 448.036   1
 -15 -16   1 883.615 623.934   3
 -15 -16   1 624.990 563.360   4
 -15 -16   1 707.945 682.165   2
  15 -31   1 638.402 528.645   4
  15 -31   1-103.276 584.966   2
 -31  16   4 2581.02 956.539   3
  31 -15   4 3552.81 756.309   1
 -15 -16   4 4529.58 991.468   3
  16  15   4 5131.76 859.681   1
 -15 -16   4 3107.98 829.008   4
 -15 -16   4 3516.60 1053.09   2
  15 -31   4 3741.02 787.141   4
  15 -31   4 3012.81 884.567   2
  14 -31  -6 842.683 687.888   2
 -31  17  -6 159.868 814.562   3
 -14 -17  -6 1266.93 707.448   4
  14 -31  -6 792.611 617.541   4
 -31  17  -3 2525.39 1133.24   3
 -14 -17  -3 3844.42 870.515   4
 -14 -17  -3 3598.81 943.680   2
  14 -31  -3 4796.21 902.417   4
  14 -31  -3 2731.98 893.018   2
 -31  17   0 4703.13 1126.68   3
 -14 -17   0 2932.49 813.912   3
 -14 -17   0 2581.23 807.911   4
 -14 -17   0 1965.85 776.352   2
  14 -31   0 4421.76 873.031   4
  17  14   0 2128.27 556.385   1
  14 -31   0 2688.59 871.510   2
 -31  17   3 1995.26 882.314   3
  31 -14   3 1882.15 582.683   1
 -14 -17   3 2211.81 741.471   3
 -14 -17   3 2319.30 743.526   4
 -14 -17   3 4430.59 1040.61   2
  14 -31   3 3325.01 783.551   4
  14 -31   3 2700.18 866.118   2
  17  14   3 2956.95 686.121   1
  31 -14   6 835.967 706.161   1
 -14 -17   6 1862.07 667.330   4
 -14 -17   6 2606.99 1050.64   2
  14 -31   6 1435.45 654.157   4
  14 -31   6 1305.57 881.184   2
  17  14   6 1646.81 692.960   1
 -31  17   6 1829.04 942.061   3
 -31  18  -4 3858.75 1125.95   3
 -13 -18  -4 4979.03 1004.45   4
  13 -31  -4 3986.37 892.089   4
 -13 -18  -4 5394.35 1023.52   2
  13 -31  -4 5082.31 1056.90   2
 -31  18  -1 1833.50 875.441   3
 -13 -18  -1 2033.30 691.161   3
 -13 -18  -1 2487.38 752.450   4
 -13 -18  -1 2073.46 845.617   2
  13 -31  -1 2746.19 711.329   4
  13 -31  -1 1806.88 794.855   2
 -31  18   2 4392.95 1090.78   3
 -13 -18   2 5989.62 1013.91   3
 -13 -18   2 4524.20 921.820   4
 -13 -18   2 6126.81 1195.49   2
  13 -31   2 5555.88 902.553   4
  18  13   2 5508.79 798.583   1
  13 -31   2 5683.96 1107.47   2
  31 -13   2 4932.11 680.346   1
  18  13   5 608.662 514.206   1
  31 -13   5 469.300 562.549   1
 -13 -18   5 237.965 551.622   4
 -13 -18   5 434.487 765.322   2
  13 -31   5 2136.61 741.466   4
  13 -31   5 1459.39 786.177   2
 -31  18   5 636.679 769.423   3
 -31  19  -5 244.448 755.948   3
 -12 -19  -5 1080.74 698.732   4
  12 -31  -5 203.262 505.010   4
 -12 -19  -5 670.771 616.465   2
  12 -31  -5-458.800 725.875   2
 -12 -19  -2 1145.48 661.609   4
  12 -31  -2 476.465 558.572   4
 -12 -19  -2 724.886 686.360   2
  12 -31  -2 168.585 707.145   2
 -31  19   1 1060.44 701.147   3
 -12 -19   1 627.300 506.900   3
 -12 -19   1 265.717 508.038   4
 -12 -19   1 204.112 780.946   2
  12 -31   1 303.136 539.799   4
  19  12   1-46.6282 399.171   1
  12 -31   1-61.3129 590.813   2
 -31  19   4 1145.55 889.285   3
  19  12   4 550.016 509.119   1
  31 -12   4 933.009 572.174   1
 -12 -19   4 1372.51 618.386   4
 -12 -19   4 1160.90 804.693   2
  12 -31   4 1094.84 583.382   4
  12 -31   4 592.581 752.933   2
 -31  20  -3 1675.15 983.094   3
 -11 -20  -3 1998.41 681.526   4
  11 -31  -3 2494.45 854.891   4
 -11 -20  -3 2089.84 792.426   2
  11 -31  -3 2258.31 857.950   2
 -31  20   0 1830.98 805.838   3
 -11 -20   0 3453.86 725.343   3
 -11 -20   0 2137.16 762.190   4
 -11 -20   0 1411.92 733.797   2
  11 -31   0 2171.84 739.308   4
  20  11   0 1483.68 453.957   1
  11 -31   0 2860.03 899.637   2
 -31  20   3 4139.97 1019.84   3
  31 -11   3 3491.73 658.613   1
 -11 -20   3 3150.88 769.445   4
  20  11   3 3303.48 689.894   1
 -11 -20   3 4156.58 1058.20   2
  11 -31   3 3525.79 816.805   4
  11 -31   3 3010.03 927.949   2
 -31  21  -4 4415.09 1056.03   3
 -10 -21  -4 6776.73 1140.80   4
  10 -31  -4 5515.28 1012.81   4
 -10 -21  -4 6100.67 1132.49   2
  10 -31  -4 4460.70 1049.27   2
 -31  21  -1 1233.35 897.441   3
 -10 -21  -1 2193.41 792.220   4
  10 -31  -1 1809.70 673.420   4
 -10 -21  -1 1931.65 926.616   2
  10 -31  -1 3210.07 1033.95   2
 -31  21   2 3508.24 1003.37   3
 -10 -21   2 2397.40 733.813   4
 -10 -21   2 2394.51 934.097   2
  10 -31   2 4310.92 837.919   4
  10 -31   2 4826.72 1180.62   2
  21  10   2 3614.21 658.275   1
  31 -10   5 2608.27 752.817   1
 -10 -21   5 820.264 625.760   4
 -10 -21   5 2958.69 1087.80   2
  10 -31   5 2318.46 743.888   4
  10 -31   5 1669.28 959.501   2
  21  10   5 2321.59 699.483   1
 -31  21   5 1118.55 854.514   3
 -31  22  -5 951.654 801.150   3
  -9 -22  -5-150.378 604.296   4
   9 -31  -5-106.635 614.076   4
  -9 -22  -5 1206.50 810.612   2
   9 -31  -5 483.092 667.218   2
 -31  22  -2 797.705 764.890   3
  -9 -22  -2 1127.47 654.683   4
   9 -31  -2 137.605 613.527   4
  -9 -22  -2 160.227 643.609   2
   9 -31  -2 986.127 784.472   2
 -31  22   1 1029.18 720.726   3
  22   9   1 406.108 390.056   1
  -9 -22   1-325.217 618.614   4
   9 -31   1 754.814 551.270   4
  -9 -22   1 616.166 686.686   2
   9 -31   1 1661.56 878.431   2
 -31  22   4 1096.66 767.134   3
  -9 -22   4-220.977 538.000   4
  31  -9   4 1614.43 595.403   1
  -9 -22   4 1240.33 942.227   2
   9 -31   4 651.097 614.587   4
   9 -31   4-463.684 750.324   2
  22   9   4-389.269 474.306   1
 -31  23  -3 675.516 810.558   3
  -8 -23  -3 2635.90 843.458   4
   8 -31  -3 2354.94 788.056   4
  -8 -23  -3 2207.76 857.740   2
   8 -31  -3 2931.69 853.699   2
 -31  23   0 3443.07 1004.85   3
  -8 -23   0 3539.63 875.149   4
   8 -31   0 1734.66 671.727   4
  -8 -23   0 2726.22 928.854   2
   8 -31   0 2598.91 876.991   2
 -31  23   3 3400.13 992.066   3
  23   8   3 3608.62 710.772   1
  -8 -23   3 4326.65 897.654   4
   8 -31   3 3481.86 824.895   4
  -8 -23   3 3595.32 1057.13   2
   8 -31   3 5436.98 1195.73   2
 -31  24  -4 2526.72 952.571   3
  -7 -24  -4 3934.99 1018.44   4
   7 -31  -4 3873.94 943.330   4
  -7 -24  -4 5196.41 1127.03   2
   7 -31  -4 3742.36 1031.16   2
 -31  24  -1 2585.90 960.574   3
  -7 -24  -1 207.372 538.895   4
   7 -31  -1 451.978 549.609   4
  -7 -24  -1 1526.09 890.365   2
   7 -31  -1 717.874 723.286   2
 -31  24   2 2929.05 976.710   3
  -7 -24   2 4056.81 914.944   4
   7 -31   2 3547.04 817.779   4
  -7 -24   2 5252.68 1190.66   2
  24   7   2 3806.91 660.926   1
   7 -31   2 4717.64 1179.34   2
 -31  25  -2 1991.61 895.862   3
  -6 -25  -2 50.3980 618.054   4
   6 -31  -2 863.824 664.333   4
  -6 -25  -2 109.808 672.968   2
   6 -31  -2-103.514 703.833   2
 -31  25   1 141.491 655.694   3
  -6 -25   1 1620.10 686.827   4
   6 -31   1 1401.03 585.954   4
  -6 -25   1 1402.17 812.374   2
   6 -31   1 838.217 818.932   2
 -31  25   4 481.947 658.132   3
  -6 -25   4 2262.79 805.488   4
   6 -31   4 854.519 656.257   4
  -6 -25   4 1273.49 933.136   2
   6 -31   4 2620.21 1093.50   2
  31  -6   4 1533.52 586.203   1
  25   6   4 1529.25 597.135   1
 -25  31   4 875.875 633.010   3
 -31  26  -3 1946.05 879.668   3
  -5 -26  -3 1992.91 847.219   4
   5 -31  -3 2091.05 793.944   4
  -5 -26  -3 3253.75 1026.68   2
   5 -31  -3 891.146 739.897   2
 -31  26   0 604.293 739.061   3
  -5 -26   0 2389.60 754.159   4
   5 -31   0 2559.77 852.573   4
  -5 -26   0 1927.49 836.238   2
   5 -31   0 2065.67 976.254   2
 -31  26   3 1735.88 858.077   3
  -5 -26   3 5336.67 948.968   4
   5 -31   3 3655.06 837.811   4
  -5 -26   3 4124.54 1173.15   2
   5 -31   3 2173.63 989.265   2
  26   5   3 3585.07 681.683   1
 -31  27  -1 1485.25 844.280   3
  -4 -27  -1 823.586 681.591   4
   4 -31  -1 2094.66 809.500   4
  -4 -27  -1 2412.44 1010.63   2
   4 -31  -1 2211.47 954.237   2
 -31  27   2 1705.40 830.476   3
  -4 -27   2 2741.13 848.780   4
   4 -31   2 2845.45 819.833   4
  -4 -27   2 2062.65 992.382   2
   4 -31   2 2023.55 964.220   2
 -31  28  -2 759.187 850.523   3
  -3 -28  -2 1436.94 718.225   4
   3 -31  -2 3549.99 937.585   4
  -3 -28  -2 3827.75 1065.67   2
   3 -31  -2 3114.44 1088.87   2
 -31  28   1 667.301 686.835   3
  -3 -28   1 749.812 643.790   4
   3 -31   1 813.125 670.551   4
  -3 -28   1-335.566 788.842   2
   3 -31   1 3.40278 780.202   2
 -31  29   0 1054.20 787.329   3
  -2 -29   0 1408.87 749.715   4
   2 -31   0 1801.05 707.865   4
  -2 -29   0 1329.62 811.469   2
   2 -31   0 3145.66 1067.70   2
  28 -32   0 801.071 676.539   2
 -32   4   0 100.415 849.418   3
 -28  -4   0 64.9327 799.810   3
  32 -28   0 1443.64 769.343   2
  32 -28   0 258.631 510.724   1
  28 -32   0 1270.58 700.613   4
  32 -28   0 281.830 608.430   4
  27 -32  -1 182.762 706.934   2
 -32   5  -1 1645.31 1081.06   3
 -27  -5  -1 178.032 860.841   3
  32 -27  -1 86.9144 664.656   2
  27 -32  -1 1167.12 677.463   4
  32 -27  -1 1543.60 664.901   4
  27 -32   2 387.440 707.194   2
 -32   5   2 866.859 918.694   3
 -27  -5   2 1412.84 1079.08   3
  32 -27   2 121.921 640.713   2
  32 -27   2 443.191 621.517   1
  27 -32   2 687.481 619.116   4
  32 -27   2 1862.80 738.096   4
  26 -32  -2 4028.41 1071.35   2
 -32   6  -2 1412.12 960.723   3
 -26  -6  -2 2913.42 1088.60   3
  32 -26  -2 3561.94 1050.24   2
 -26  -6  -2 4715.98 1159.75   2
  26 -32  -2 2901.60 826.034   4
  32 -26  -2 2022.85 771.826   4
  26 -32   1 2930.65 955.153   2
 -32   6   1-176.393 758.278   3
 -26  -6   1 833.181 908.709   3
  32 -26   1 450.539 666.913   2
  32 -26   1 1194.66 595.858   1
  26 -32   1 437.906 547.531   4
  32 -26   1 1527.26 696.240   4
  25 -32  -3 802.158 765.438   2
 -32   7  -3 822.813 1014.92   3
 -25  -7  -3 3940.83 1196.54   3
  32 -25  -3 1746.57 901.594   2
 -25  -7  -3 2755.25 988.558   4
 -25  -7  -3 2786.00 996.010   2
  25 -32  -3 2203.77 781.949   4
  32 -25  -3 2665.76 762.462   4
  25 -32   0 1947.64 848.196   2
 -32   7   0 1214.50 1042.65   3
 -25  -7   0 1268.25 889.489   3
  32 -25   0 1035.84 678.419   2
 -25  -7   0 749.160 872.153   2
  25 -32   0 574.376 583.062   4
  32 -25   0 1053.32 659.382   4
  25 -32   3 2516.13 920.968   2
 -32   7   3 2150.57 1050.27   3
 -25  -7   3 2023.81 964.726   3
  32 -25   3 2146.11 824.676   2
 -25  -7   3 4118.33 1011.95   4
  32 -25   3 2100.28 756.673   1
  25 -32   3 2776.00 783.032   4
   7  25   3 3796.50 847.949   1
  24 -32  -4-680.508 830.635   2
 -32   8  -4 376.329 844.149   3
 -24  -8  -4 1038.41 921.959   3
 -24  -8  -4 802.587 851.104   4
 -24  -8  -4 829.156 789.348   2
  24 -32  -4-714.990 682.373   4
  32 -24  -4 398.627 604.659   4
  24 -32  -1 707.332 709.244   2
 -32   8  -1 173.406 836.706   3
 -24  -8  -1 1638.94 988.330   3
  32 -24  -1 1324.76 757.923   2
 -24  -8  -1 597.883 735.716   4
 -24  -8  -1 237.084 839.937   2
  24 -32  -1 1737.13 719.826   4
  32 -24  -1 365.896 551.341   4
  24 -32   2 780.658 790.347   2
 -32   8   2 1313.71 937.939   3
 -24  -8   2 1022.20 842.338   3
  32 -24   2 1518.56 738.288   2
 -24  -8   2 1805.88 812.475   4
 -24  -8   2 76.5644 785.169   2
  32 -24   2 972.700 663.111   1
  24 -32   2 1438.41 660.913   4
   8  24   2 407.976 532.022   1
  23 -32  -2-640.324 732.191   2
 -32   9  -2 115.180 842.718   3
 -23  -9  -2 1565.66 911.638   3
  32 -23  -2 1706.86 801.443   2
 -23  -9  -2 1151.71 739.332   4
 -23  -9  -2 1532.35 854.261   2
  23 -32  -2 2823.10 824.592   4
  32 -23  -2 1309.53 619.163   4
  23 -32   1 3079.89 1002.97   2
 -32   9   1 2852.11 1042.49   3
 -23  -9   1 3148.97 1049.31   3
  32 -23   1 1783.44 779.700   2
 -23  -9   1 2901.87 893.127   4
 -23  -9   1 1381.15 951.543   2
  23 -32   1 1673.09 643.452   4
  32 -23   1 2119.14 628.255   1
 -32   9   4 2617.14 1006.67   3
 -23  -9   4 914.364 773.119   3
  32 -23   4 2962.62 855.611   2
 -23  -9   4 2178.01 889.248   4
 -23  -9   4 1731.18 1115.14   2
  23 -32   4 1925.31 719.024   4
  32 -23   4 1542.51 723.097   1
   9  23   4 2181.88 695.974   1
  23 -32   4 1649.72 805.783   2
  22 -32  -3 1711.21 864.225   2
 -32  10  -3-201.769 799.809   3
 -22 -10  -3 1721.76 840.331   4
 -22 -10  -3 2351.63 992.311   2
  22 -32  -3 1806.82 694.276   4
 -32  10   0 4437.38 1242.39   3
 -22 -10   0 5477.66 1229.28   3
  32 -22   0 2354.61 930.687   2
 -22 -10   0 4162.75 1041.40   4
 -22 -10   0 3377.25 1172.48   2
  22 -32   0 4377.92 885.872   4
  22 -32   0 3212.39 924.914   2
  10  22   3 1637.15 651.668   1
 -32  10   3 1047.38 1027.00   3
 -22 -10   3 2199.17 957.016   3
  32 -22   3 1927.69 837.505   2
 -22 -10   3 2489.77 818.229   4
 -22 -10   3 2230.06 1036.49   2
  22 -32   3 2691.79 784.651   4
  32 -22   3 1529.40 608.435   1
  22 -32   3 1528.34 766.506   2
  21 -32  -4 1885.06 860.728   2
 -32  11  -4 51.6616 815.055   3
 -21 -11  -4 183.760 681.630   3
 -21 -11  -4 1329.66 858.235   4
 -21 -11  -4 319.952 772.381   2
  21 -32  -4 716.549 634.095   4
 -32  11  -1-676.224 784.991   3
 -21 -11  -1 1150.57 845.179   3
 -21 -11  -1 277.545 593.133   4
 -21 -11  -1 177.345 713.641   2
  21 -32  -1 172.732 550.261   4
  21 -32  -1 366.335 641.439   2
 -32  11   2 1195.59 880.366   3
 -21 -11   2 1592.58 875.105   3
  32 -21   2 2420.55 826.344   2
 -21 -11   2 831.596 658.640   4
 -21 -11   2 1213.72 983.289   2
  11  21   2 726.498 523.930   1
  21 -32   2 45.2032 510.011   4
  32 -21   2 663.894 499.591   1
  21 -32   2 2810.10 931.155   2
  20 -32  -5 1421.51 787.442   2
 -32  12  -5 1063.86 1018.23   3
 -20 -12  -5 2216.61 913.167   4
 -20 -12  -5 1472.19 801.272   2
  20 -32  -5 819.887 648.685   4
  20 -32  -2 1579.12 795.248   2
 -32  12  -2 438.195 819.434   3
 -20 -12  -2 803.079 764.407   3
 -20 -12  -2 1756.39 765.744   4
 -20 -12  -2 1059.78 860.233   2
  20 -32  -2 996.373 673.114   4
 -32  12   1 5235.75 1292.96   3
 -20 -12   1 5566.06 1152.60   3
 -20 -12   1 7599.61 1213.29   4
 -20 -12   1 8863.30 1436.68   2
  32 -20   1 4727.51 703.118   1
  20 -32   1 7798.59 1080.88   4
  20 -32   1 8962.93 1330.82   2
  12  20   1 6805.05 911.634   1
 -32  12   4 2409.64 1008.89   3
 -20 -12   4 185.249 701.624   3
  12  20   4 1285.74 631.187   1
 -20 -12   4 1233.65 623.907   4
 -20 -12   4 1255.78 990.662   2
  20 -32   4 1186.27 611.337   4
  32 -20   4 600.035 576.704   1
  20 -32   4 184.518 624.648   2
  19 -32  -3 356.859 606.678   2
 -32  13  -3 1681.71 1021.09   3
 -19 -13  -3 1570.23 843.160   3
 -19 -13  -3 476.558 662.777   4
 -19 -13  -3-13.1953 640.006   2
  19 -32  -3-263.513 613.555   4
 -32  13   0 4570.30 1216.94   3
 -19 -13   0 4805.71 1080.14   3
 -19 -13   0 5148.68 1033.20   4
 -19 -13   0 4105.60 1113.54   2
  19 -32   0 4716.38 895.413   4
  19 -32   0 3288.51 943.485   2
 -32  13   3 780.157 981.859   3
 -19 -13   3 160.661 713.283   3
 -19 -13   3 1710.06 703.790   4
 -19 -13   3 3352.48 1030.42   2
  13  19   3 516.376 539.536   1
  19 -32   3 1186.65 574.536   4
  32 -19   3 974.854 556.090   1
  19 -32   3 931.039 766.600   2
  18 -32  -4 2203.35 826.069   2
 -32  14  -4 1762.95 970.646   3
 -18 -14  -4 2050.23 789.955   4
 -18 -14  -4 917.437 705.833   2
  18 -32  -4 467.959 550.381   4
 -32  14  -1 1694.23 972.668   3
 -18 -14  -1 2329.86 825.929   3
 -18 -14  -1 2822.52 789.685   4
 -18 -14  -1 1277.37 802.308   2
  18 -32  -1 2488.93 772.623   4
  18 -32  -1 1369.86 724.304   2
 -32  14   2 649.043 911.188   3
 -18 -14   2 47.0526 732.523   3
 -18 -14   2 649.303 570.243   4
 -18 -14   2 452.065 738.099   2
  18 -32   2 941.858 602.175   4
  18 -32   2-346.153 673.496   2
  14  18   2-17.1272 500.436   1
  32 -18   2-415.717 476.442   1
 -32  14   5 1575.54 851.718   3
 -18 -14   5 310.316 736.208   3
 -18 -14   5 859.167 801.000   4
 -18 -14   5 2294.27 1015.10   2
  18 -32   5 945.322 602.035   4
  14  18   5 881.125 643.707   1
  18 -32   5 1277.96 699.346   2
  32 -18   5 480.402 611.068   1
  17 -32  -5 1984.82 868.250   2
 -32  15  -5 1785.04 1032.88   3
 -17 -15  -5 2691.78 944.236   4
 -17 -15  -5 3591.88 958.025   2
  17 -32  -5 2169.44 782.093   4
 -32  15  -2-1377.53 943.792   3
 -17 -15  -2-156.974 621.173   3
 -17 -15  -2-900.388 633.571   4
 -17 -15  -2-446.370 707.814   2
  17 -32  -2 909.486 584.207   4
  17 -32  -2 161.579 687.088   2
 -32  15   1 1135.32 896.031   3
 -17 -15   1 3412.23 920.500   3
 -17 -15   1 3813.91 975.060   4
 -17 -15   1 3937.39 1078.93   2
  17 -32   1 4172.12 829.586   4
  15  17   1 3380.07 668.380   1
  17 -32   1 1619.78 784.483   2
  15  17   4 5.67830 588.125   1
 -32  15   4 1933.83 1043.55   3
 -17 -15   4 146.334 789.911   3
 -17 -15   4 888.949 616.972   4
 -17 -15   4 1593.96 908.517   2
  17 -32   4 1305.48 598.205   4
  17 -32   4 689.647 790.450   2
  32 -17   4 310.991 583.463   1
 -32  16  -3 1539.27 1008.84   3
 -16 -16  -3 1300.26 785.468   3
 -16 -16  -3 196.101 611.157   4
 -16 -16  -3 872.929 806.345   2
  16 -32  -3 1117.01 670.687   4
  16 -32  -3 137.791 676.559   2
 -32  16   0 5051.03 1180.05   3
 -16 -16   0 6177.89 1103.36   3
 -16 -16   0 3907.99 899.840   4
 -16 -16   0 3975.74 1027.51   2
  16 -32   0 3935.93 817.507   4
  16 -32   0 6031.37 1129.49   2
  32 -16   3 698.246 510.846   1
 -32  16   3 2671.22 1017.09   3
 -16 -16   3 923.513 835.531   3
  16  16   3 1099.18 523.940   1
 -16 -16   3-215.419 629.220   4
 -16 -16   3-603.498 756.843   2
  16 -32   3 1864.50 730.359   4
  16 -32   3 793.315 733.328   2
 -32  17  -4 4.92792 837.125   3
 -15 -17  -4-242.519 638.999   4
 -15 -17  -4 266.373 765.651   2
  15 -32  -4-270.357 620.619   4
  15 -32  -4 686.693 698.017   2
 -32  17  -1 1642.06 935.076   3
 -15 -17  -1 3886.59 923.076   3
 -15 -17  -1 5046.99 993.599   4
 -15 -17  -1 4266.07 1099.22   2
  15 -32  -1 4495.31 892.919   4
  15 -32  -1 4043.83 1006.66   2
 -32  17   2 844.429 831.891   3
 -15 -17   2 318.512 642.789   3
 -15 -17   2 1141.75 650.146   4
 -15 -17   2 175.139 701.081   2
  17  15   2 17.7382 458.567   1
  15 -32   2 24.4129 513.233   4
  15 -32   2 1066.21 709.034   2
 -32  17   5 2009.47 958.818   3
  32 -15   5 687.963 601.290   1
  17  15   5 1156.34 589.715   1
 -15 -17   5 1917.43 695.712   4
  15 -32   5 1596.35 642.681   4
  15 -32   5 1314.97 787.911   2
 -32  18  -5 1585.12 1057.50   3
 -14 -18  -5 1346.16 818.235   4
  14 -32  -5 1304.48 678.340   4
 -14 -18  -5 993.892 731.591   2
  14 -32  -5 536.109 775.608   2
 -32  18  -2-91.3806 757.080   3
 -14 -18  -2-236.021 618.393   3
 -14 -18  -2-798.489 656.845   4
 -14 -18  -2 501.674 695.217   2
  14 -32  -2-1705.34 674.367   4
  14 -32  -2 464.821 654.777   2
 -32  18   1 749.226 729.440   3
  18  14   1 1514.91 530.491   1
 -14 -18   1 2450.55 787.791   3
 -14 -18   1 1899.13 730.134   4
 -14 -18   1 2056.40 936.009   2
  14 -32   1 1947.04 670.430   4
  14 -32   1 1979.81 881.736   2
 -32  18   4 1846.75 951.419   3
  32 -14   4 453.730 514.717   1
 -14 -18   4 1147.74 700.992   4
 -14 -18   4 1273.67 859.154   2
  18  14   4 1766.55 647.048   1
  14 -32   4 676.134 627.303   4
  14 -32   4 2496.81 957.480   2
 -32  19  -3 2263.41 1028.60   3
 -13 -19  -3 1075.43 712.842   4
  13 -32  -3 948.756 692.045   4
 -13 -19  -3 1795.78 823.453   2
  13 -32  -3 2878.44 909.220   2
 -32  19   0 1285.15 894.192   3
 -13 -19   0 4770.98 910.321   3
 -13 -19   0 5764.33 1023.67   4
  13 -32   0 5573.14 987.357   4
 -13 -19   0 4387.37 1135.24   2
  19  13   0 5364.98 764.307   1
  13 -32   0 4165.53 1028.74   2
 -32  19   3 631.745 739.800   3
  32 -13   3 629.914 481.393   1
 -13 -19   3-44.2308 556.821   4
 -13 -19   3 73.3359 743.059   2
  13 -32   3-394.613 527.804   4
  13 -32   3 768.785 709.051   2
  19  13   3-63.2836 474.401   1
 -32  20  -4-750.123 831.850   3
 -12 -20  -4-106.005 558.656   4
  12 -32  -4 318.797 605.131   4
 -12 -20  -4 660.430 698.491   2
  12 -32  -4 1378.04 772.217   2
 -32  20  -1 3133.37 1041.67   3
 -12 -20  -1 5096.99 883.636   3
 -12 -20  -1 5426.16 949.782   4
 -12 -20  -1 8425.50 1350.54   2
  12 -32  -1 6810.44 1051.99   4
  12 -32  -1 7515.87 1250.66   2
 -32  20   2 155.421 735.054   3
  20  12   2 367.503 467.848   1
 -12 -20   2 192.598 489.324   4
 -12 -20   2 729.966 760.920   2
  12 -32   2 1330.31 600.964   4
  12 -32   2 317.805 857.082   2
  20  12   5 1875.90 724.711   1
  32 -12   5 1855.56 716.626   1
 -12 -20   5 938.188 591.808   4
 -12 -20   5 1964.66 995.216   2
  12 -32   5 2677.46 747.029   4
  12 -32   5 1295.90 938.685   2
 -32  20   5 2232.62 988.443   3
 -32  21  -2 65.2785 748.670   3
 -11 -21  -2 1403.96 766.210   4
  11 -32  -2 1284.54 639.462   4
 -11 -21  -2 1869.04 804.077   2
  11 -32  -2 863.694 713.070   2
 -32  21   1 114.742 700.983   3
 -11 -21   1 465.354 647.653   4
 -11 -21   1-259.467 732.087   2
  11 -32   1 321.102 510.465   4
  21  11   1 86.2616 385.858   1
  11 -32   1 478.431 734.296   2
 -32  21   4 790.576 801.004   3
  21  11   4 702.926 556.126   1
  32 -11   4-643.045 533.112   1
 -11 -21   4-89.1649 528.609   4
 -11 -21   4 772.012 835.575   2
  11 -32   4 935.819 604.143   4
  11 -32   4 475.884 760.763   2
 -32  22  -3 2228.26 994.502   3
 -10 -22  -3 1682.01 775.641   4
  10 -32  -3 1274.06 660.671   4
 -10 -22  -3 1872.01 875.468   2
  10 -32  -3 1330.82 731.129   2
 -32  22   0 3395.24 1027.38   3
  10 -32   0 2601.37 738.951   4
 -10 -22   0 2556.45 950.248   2
  10 -32   0 3774.40 987.109   2
  22  10   0 3161.09 581.700   1
 -32  22   3 1481.79 966.660   3
 -10 -22   3 2937.93 818.713   4
  22  10   3 1309.50 591.899   1
 -10 -22   3 3514.31 1146.19   2
  10 -32   3 1381.08 677.784   4
  10 -32   3 1519.71 955.615   2
 -32  23  -4 857.105 876.110   3
  -9 -23  -4-252.457 622.734   4
   9 -32  -4 2429.95 810.237   4
  -9 -23  -4 1916.71 917.321   2
   9 -32  -4 2227.07 861.567   2
 -32  23  -1 1832.39 917.734   3
  -9 -23  -1 2854.26 787.350   4
   9 -32  -1 3110.84 785.342   4
  -9 -23  -1 1800.86 910.866   2
   9 -32  -1 3369.14 996.012   2
  23   9   2 1804.57 570.753   1
 -32  23   2 287.285 720.706   3
  -9 -23   2 1456.19 658.334   4
   9 -32   2 1594.13 723.778   4
  -9 -23   2 886.022 755.277   2
   9 -32   2 1832.31 958.005   2
 -32  24  -2-411.225 841.943   3
  -8 -24  -2 290.318 598.235   4
   8 -32  -2 788.987 626.393   4
  -8 -24  -2 721.431 844.266   2
   8 -32  -2-217.492 688.024   2
 -32  24   1 575.426 782.526   3
  -8 -24   1 1423.08 660.120   4
   8 -32   1 894.006 753.724   4
  -8 -24   1 1320.73 766.135   2
 -32  24   4-108.653 775.853   3
  -8 -24   4 407.399 541.402   4
   8 -32   4-148.601 527.910   4
  -8 -24   4-46.7541 786.589   2
   8 -32   4 679.810 1013.93   2
  24   8   4 795.638 596.625   1
 -32  25  -3 2061.66 1031.15   3
  -7 -25  -3 3280.35 971.218   4
   7 -32  -3 2155.58 777.903   4
  -7 -25  -3 2671.39 956.891   2
   7 -32  -3 2080.26 854.020   2
 -32  25   0-101.731 731.209   3
  -7 -25   0-260.762 584.470   4
   7 -32   0 664.161 612.982   4
  -7 -25   0-629.128 805.100   2
   7 -32   0 181.352 718.985   2
 -32  25   3 2218.31 966.689   3
  25   7   3 1190.12 559.736   1
  -7 -25   3 2212.03 767.093   4
   7 -32   3 2647.26 805.171   4
  -7 -25   3 1968.43 1045.90   2
   7 -32   3 2547.62 1052.95   2
 -32  26  -1 668.575 824.543   3
  -6 -26  -1 2170.63 796.776   4
   6 -32  -1-23.9965 562.770   4
  -6 -26  -1 1086.29 788.335   2
   6 -32  -1 424.628 792.077   2
 -32  26   2 3937.11 1067.14   3
  -6 -26   2 3754.07 839.055   4
   6 -32   2 3541.32 897.406   4
  -6 -26   2 3933.81 1200.07   2
   6 -32   2 3557.47 1205.20   2
 -32  27  -2 1035.28 828.647   3
  -5 -27  -2 819.871 702.930   4
   5 -32  -2 1320.38 756.933   4
  -5 -27  -2 1209.09 860.386   2
   5 -32  -2 939.325 851.009   2
 -32  27   1 751.419 793.820   3
  -5 -27   1 190.092 593.904   4
   5 -32   1 94.1697 593.457   4
  -5 -27   1 749.771 855.638   2
   5 -32   1 137.486 933.126   2
 -32  28   0 222.831 693.360   3
  -4 -28   0 145.430 645.053   4
   4 -32   0-205.640 590.617   4
  -4 -28   0 1041.65 947.005   2
   4 -32   0 242.665 826.151   2
  26 -33  -1 202.740 687.094   2
 -33   7  -1 824.589 930.354   3
 -26  -7  -1 370.781 834.729   3
  33 -26  -1 2014.25 869.545   2
 -26  -7  -1 375.379 704.451   4
 -26  -7  -1 201.146 881.214   2
  26 -33  -1 204.552 563.762   4
  33 -26  -1 1924.51 809.078   4
  25 -33  -2 1292.88 841.393   2
 -33   8  -2 1821.35 1050.95   3
 -25  -8  -2 519.480 837.703   3
  33 -25  -2 1646.30 880.519   2
 -25  -8  -2 1113.44 814.258   4
 -25  -8  -2 1734.53 914.456   2
  25 -33  -2 1574.62 776.209   4
  33 -25  -2 1915.41 741.216   4
 -33   8   1 3284.09 1070.30   3
  33 -25   1 7069.18 1194.98   2
 -25  -8   1 2808.80 1058.64   3
 -25  -8   1 8558.55 1567.88   2
 -25  -8   1 6097.59 1216.96   4
  25 -33   1 6196.88 1068.14   4
  33 -25   1 6773.17 1130.22   4
  25 -33   1 7174.35 1267.25   2
  24 -33  -3 2321.18 953.451   2
 -33   9  -3 1671.82 1064.11   3
 -24  -9  -3 643.556 916.009   3
 -24  -9  -3 2912.93 876.370   4
 -24  -9  -3 3431.31 1108.67   2
  24 -33  -3 2691.47 930.709   4
  33 -24  -3 3207.72 816.787   4
  24 -33   0 2506.00 866.493   2
 -33   9   0 1037.85 1014.51   3
 -24  -9   0 2597.65 1079.95   3
  33 -24   0 3920.37 995.528   2
 -24  -9   0 4362.96 1002.98   4
 -24  -9   0 3184.34 1082.61   2
  24 -33   0 2487.17 761.187   4
  24 -33   3 816.952 703.488   2
 -33   9   3 3556.89 1251.28   3
 -24  -9   3 918.474 1016.95   3
  33 -24   3 1614.71 717.834   2
 -24  -9   3 2093.43 940.012   4
 -24  -9   3 2605.70 1141.00   2
   9  24   3 2318.57 724.736   1
  24 -33   3 3143.10 813.220   4
  33 -24   3 1113.45 629.968   1
  23 -33  -1 1977.41 850.113   2
 -33  10  -1 1191.75 926.083   3
 -23 -10  -1 149.259 796.814   3
  33 -23  -1 343.242 602.870   2
 -23 -10  -1-661.070 657.354   4
 -23 -10  -1 877.192 940.125   2
  23 -33  -1-211.301 610.673   4
 -33  10   2-542.153 962.504   3
 -23 -10   2 785.445 864.962   3
  33 -23   2 230.775 621.998   2
 -23 -10   2-537.670 716.242   4
 -23 -10   2 1738.69 978.802   2
  10  23   2 505.408 575.866   1
  23 -33   2-464.619 579.927   4
  33 -23   2 559.370 558.775   1
  23 -33   2 394.940 644.117   2
  22 -33  -2 2627.29 943.653   2
 -33  11  -2 2665.20 1126.00   3
 -22 -11  -2 3238.61 1090.72   3
 -22 -11  -2 2062.57 874.637   4
 -22 -11  -2 2095.02 978.716   2
  22 -33  -2 1543.64 709.918   4
 -33  11   1 2148.33 1110.77   3
 -22 -11   1 1987.54 948.372   3
  33 -22   1 1390.41 737.193   2
 -22 -11   1 2126.12 836.259   4
 -22 -11   1 2507.59 1061.54   2
  22 -33   1 3295.65 803.393   4
  22 -33   1 4586.28 1038.59   2
  21 -33  -3 3194.19 978.675   2
 -33  12  -3 3842.11 1275.88   3
 -21 -12  -3 659.526 812.021   3
 -21 -12  -3 2353.25 912.095   4
 -21 -12  -3 3392.03 1030.32   2
  21 -33  -3 2922.18 868.989   4
 -33  12   0 636.537 907.014   3
 -21 -12   0 543.285 883.181   3
 -21 -12   0 806.455 732.477   4
 -21 -12   0 1214.07 844.177   2
  21 -33   0 2612.42 783.399   4
  21 -33   0 1002.72 826.621   2
 -33  12   3 4790.37 1335.85   3
 -21 -12   3 3859.53 1102.05   3
 -21 -12   3 5272.28 1060.00   4
 -21 -12   3 4515.77 1265.12   2
  21 -33   3 4269.76 889.532   4
  33 -21   3 3392.04 785.425   1
  12  21   3 3673.39 899.099   1
  21 -33   3 3961.17 1070.29   2
  20 -33  -4 1592.73 850.135   2
 -33  13  -4 733.836 941.103   3
 -20 -13  -4 2402.97 932.709   3
 -20 -13  -4 2114.86 888.602   4
 -20 -13  -4 459.983 738.356   2
  20 -33  -4 1534.18 760.808   4
 -33  13  -1 2315.58 1005.56   3
 -20 -13  -1 1020.90 848.208   3
 -20 -13  -1 395.480 808.967   4
 -20 -13  -1 1943.85 928.292   2
  20 -33  -1 784.785 604.715   4
  20 -33  -1-219.117 654.546   2
 -33  13   2-419.751 861.475   3
 -20 -13   2 156.388 734.801   3
 -20 -13   2 855.100 683.208   4
 -20 -13   2 575.598 805.829   2
  13  20   2 1189.38 630.898   1
  20 -33   2 801.153 641.100   4
  20 -33   2 682.520 834.263   2
 -33  14  -2 852.261 861.789   3
 -19 -14  -2 415.382 724.639   3
 -19 -14  -2 2833.60 923.713   4
 -19 -14  -2 3346.72 1112.24   2
  19 -33  -2 2060.24 778.964   4
  19 -33  -2 3071.78 968.128   2
 -33  14   1 699.441 786.795   3
 -19 -14   1 2642.29 1028.02   3
 -19 -14   1 1467.46 759.949   4
 -19 -14   1 2013.77 935.555   2
  14  19   1 1509.63 566.045   1
  19 -33   1 1015.81 588.289   4
  19 -33   1 1994.32 832.291   2
 -33  14   4 1402.92 936.997   3
 -19 -14   4 1220.95 871.855   3
  14  19   4 1393.34 660.824   1
 -19 -14   4 1120.67 738.682   4
 -19 -14   4 2642.43 1133.12   2
  19 -33   4 1200.88 661.128   4
  19 -33   4 977.815 765.045   2
  33 -19   4 819.246 643.449   1
 -33  15  -3 1530.79 1064.31   3
 -18 -15  -3 4600.58 1109.60   3
 -18 -15  -3 3590.50 1041.90   4
 -18 -15  -3 3584.10 979.208   2
  18 -33  -3 3856.35 883.358   4
  18 -33  -3 4268.50 1081.44   2
 -33  15   0 833.135 866.333   3
 -18 -15   0 1552.86 880.912   3
 -18 -15   0 291.833 542.509   4
 -18 -15   0 145.470 681.404   2
  18 -33   0 1665.25 739.766   4
  18 -33   0 1053.20 817.718   2
 -33  15   3 3195.69 1118.93   3
 -18 -15   3 1698.13 902.519   3
 -18 -15   3 3649.02 961.713   4
 -18 -15   3 2558.36 1082.97   2
  15  18   3 3605.70 787.010   1
  18 -33   3 4740.73 944.843   4
  18 -33   3 4660.42 1098.74   2
  33 -18   3 2992.73 716.275   1
 -33  16  -4 2594.14 1069.42   3
 -17 -16  -4 2554.37 851.444   4
 -17 -16  -4 985.387 804.891   2
  17 -33  -4 2363.77 848.152   4
  17 -33  -4 2061.35 873.238   2
 -33  16  -1 2351.73 957.473   3
 -17 -16  -1 2465.53 839.200   3
 -17 -16  -1 3131.21 856.386   4
 -17 -16  -1 2616.58 972.094   2
  17 -33  -1 2258.40 705.218   4
  17 -33  -1 2027.07 903.200   2
 -33  16   2 1472.13 834.745   3
 -17 -16   2 2047.92 913.343   3
 -17 -16   2 1409.41 694.537   4
 -17 -16   2 2518.26 1022.97   2
  17 -33   2 1042.66 644.360   4
  16  17   2 784.572 514.918   1
  17 -33   2 1251.86 770.529   2
 -33  17  -2 2731.02 1089.43   3
 -16 -17  -2 2673.36 981.813   3
 -16 -17  -2 2353.88 891.130   4
 -16 -17  -2 2970.47 1003.00   2
  16 -33  -2 3004.78 812.318   4
  16 -33  -2 916.744 831.752   2
 -33  17   1 2250.45 980.276   3
 -16 -17   1 1360.02 691.675   3
 -16 -17   1 3396.13 903.898   4
 -16 -17   1 2287.83 914.469   2
  16 -33   1 1656.75 730.571   4
  17  16   1 1772.44 604.711   1
  16 -33   1 628.563 670.141   2
 -33  17   4 1104.49 955.274   3
  33 -16   4-132.550 525.970   1
 -16 -17   4 1728.77 804.737   4
 -16 -17   4 2658.53 1035.15   2
  16 -33   4 2170.98 718.804   4
  16 -33   4 1718.02 848.175   2
  17  16   4 1989.20 685.101   1
 -33  18  -3 1496.14 939.002   3
 -15 -18  -3 3032.42 909.945   4
 -15 -18  -3 3001.64 957.778   2
  15 -33  -3 3666.28 888.414   4
  15 -33  -3 2707.00 907.167   2
 -33  18   0 1862.61 1104.92   3
 -15 -18   0 525.969 691.467   3
 -15 -18   0 578.743 598.494   4
 -15 -18   0 1418.38 1016.69   2
  15 -33   0 441.199 663.077   4
  15 -33   0-26.2057 671.475   2
 -33  18   3 2970.25 1026.77   3
  18  15   3 3637.26 753.941   1
 -15 -18   3 3498.84 880.946   4
 -15 -18   3 3398.40 1162.73   2
  15 -33   3 3139.93 818.524   4
  15 -33   3 5707.39 1175.80   2
 -33  19  -4 1409.69 972.854   3
 -14 -19  -4 1802.76 784.253   4
  14 -33  -4 868.554 668.376   4
 -14 -19  -4 677.371 765.050   2
  14 -33  -4 1467.51 821.580   2
 -33  19  -1 358.122 906.661   3
 -14 -19  -1 512.311 696.668   3
 -14 -19  -1 1364.43 741.199   4
 -14 -19  -1 16.3646 832.196   2
  14 -33  -1 718.918 528.990   4
  14 -33  -1 1126.77 805.440   2
 -33  19   2 2072.89 1007.63   3
 -14 -19   2 3807.66 911.807   4
 -14 -19   2 2109.35 904.903   2
  19  14   2 2287.00 687.547   1
  14 -33   2 2812.66 764.560   4
  14 -33   2 3338.56 1008.66   2
 -33  20  -2-571.719 757.337   3
  13 -33  -2-185.117 646.443   4
 -13 -20  -2-270.442 701.478   2
  13 -33  -2 575.291 736.527   2
 -33  20   1 907.328 897.445   3
  20  13   1 860.013 546.200   1
 -13 -20   1 1740.12 719.589   4
 -13 -20   1 203.854 759.686   2
  13 -33   1 1794.37 640.436   4
  13 -33   1-7.48670 641.169   2
 -33  20   4 934.709 887.953   3
  33 -13   4 1461.82 626.779   1
 -13 -20   4 1839.46 811.931   4
 -13 -20   4 1924.51 987.289   2
  20  13   4 915.629 579.348   1
  13 -33   4 2973.25 822.567   4
  13 -33   4 2234.81 941.533   2
 -33  21  -3 2703.67 1100.44   3
 -12 -21  -3 4204.98 1038.74   4
  12 -33  -3 2739.49 875.508   4
 -12 -21  -3 3864.32 1085.99   2
  12 -33  -3 2442.45 946.886   2
 -33  21   0 1017.19 869.889   3
 -12 -21   0 2102.69 830.179   4
 -12 -21   0 2248.89 1065.65   2
  12 -33   0 1888.10 671.739   4
  12 -33   0 2907.18 988.814   2
  21  12   0 515.005 430.400   1
 -33  21   3 1568.54 890.423   3
 -12 -21   3 2698.43 819.196   4
 -12 -21   3 3159.91 1093.90   2
  12 -33   3 2047.59 775.616   4
  12 -33   3 1908.73 971.536   2
  21  12   3 2833.85 692.964   1
 -33  22  -1 1499.19 855.524   3
 -11 -22  -1 3362.79 938.964   4
  11 -33  -1 4168.78 869.019   4
 -11 -22  -1 4581.39 1159.22   2
  11 -33  -1 2877.81 1004.10   2
 -33  22   2 2053.00 935.595   3
  22  11   2 1476.70 547.337   1
 -11 -22   2 2312.13 755.617   4
 -11 -22   2 2600.67 1070.31   2
  11 -33   2 1947.08 763.276   4
  11 -33   2 2463.95 937.593   2
 -33  23  -2-469.830 803.318   3
 -10 -23  -2 788.352 654.777   4
  10 -33  -2-825.433 683.036   4
 -10 -23  -2-254.750 741.790   2
  10 -33  -2 1104.67 834.343   2
 -33  23   1-29.5763 786.728   3
 -10 -23   1 758.243 671.889   4
  10 -33   1 690.359 553.785   4
 -10 -23   1 435.231 767.968   2
  23  10   1-44.1416 419.217   1
  10 -33   1 1236.66 804.680   2
 -33  24  -3 1814.93 962.677   3
  -9 -24  -3 1740.05 848.668   4
   9 -33  -3 593.373 740.727   4
  -9 -24  -3 432.974 696.440   2
   9 -33  -3 1669.54 834.075   2
 -33  24   0 989.202 816.073   3
  -9 -24   0 2169.69 717.081   4
   9 -33   0 3304.56 829.085   4
  -9 -24   0 2985.14 1004.83   2
   9 -33   0 4588.18 1134.45   2
 -33  24   3 2566.19 969.700   3
  -9 -24   3 512.445 666.394   4
  24   9   3 1382.71 563.662   1
   9 -33   3 2185.01 736.801   4
  -9 -24   3 2478.96 1007.19   2
   9 -33   3 3193.60 1107.98   2
 -33  25  -1 4377.23 1139.35   3
  -8 -25  -1 4970.58 1008.52   4
   8 -33  -1 4677.80 991.663   4
  -8 -25  -1 5488.57 1204.29   2
   8 -33  -1 4687.07 1163.70   2
 -33  25   2 1027.24 888.203   3
  -8 -25   2 1148.31 701.831   4
   8 -33   2 1094.74 641.951   4
  -8 -25   2 1402.28 961.824   2
   8 -33   2 3702.78 1266.25   2
 -33  26   1 345.728 800.110   3
  -7 -26   1 1955.74 774.034   4
   7 -33   1 1129.80 717.437   4
  -7 -26   1 641.741 796.363   2
   7 -33   1 555.061 873.555   2
  24 -34   1 2562.48 1010.12   2
 -34  10   1-459.358 1045.63   3
 -24 -10   1 324.017 816.745   3
  34 -24   1 368.155 744.008   2
 -24 -10   1 229.530 684.799   4
 -24 -10   1-96.7476 827.416   2
  24 -34   1 921.266 672.012   4
  23 -34   0 2864.05 900.218   2
 -34  11   0 1491.39 1056.86   3
 -23 -11   0 306.732 792.124   3
 -23 -11   0 2654.93 901.195   4
 -23 -11   0 1696.48 957.233   2
  23 -34   0 3998.64 968.113   4
  22 -34  -1-115.443 724.029   2
 -34  12  -1-328.884 900.249   3
 -22 -12  -1 330.744 792.227   3
 -22 -12  -1 374.219 622.588   4
 -22 -12  -1 1159.31 954.984   2
  22 -34  -1 718.920 588.485   4
 -34  12   2-452.384 954.277   3
 -22 -12   2 35.9288 838.046   3
  12  22   2 148.273 500.339   1
 -22 -12   2 98.0411 634.227   4
 -22 -12   2 515.659 853.479   2
  22 -34   2 1021.62 712.312   4
  22 -34   2 1821.54 808.042   2
  21 -34  -2 3184.85 965.950   2
 -34  13  -2 2449.12 1103.30   3
 -21 -13  -2 1873.83 927.321   3
 -21 -13  -2 4925.24 1113.46   4
 -21 -13  -2 1598.44 927.239   2
  21 -34  -2 3622.32 937.422   4
 -34  13   1 2161.98 1102.23   3
 -21 -13   1 666.299 831.265   3
 -21 -13   1 1694.85 736.977   4
 -21 -13   1 355.451 811.204   2
  21 -34   1 2086.63 829.011   4
  13  21   1 1093.39 628.113   1
  21 -34   1 1697.64 955.535   2
 -34  14  -3 3642.38 1259.54   3
 -20 -14  -3 4212.05 1197.08   3
 -20 -14  -3 1990.85 835.538   4
 -20 -14  -3 1504.77 885.711   2
 -34  14   0 3553.07 1310.15   3
 -20 -14   0 1947.38 931.129   3
 -20 -14   0 2142.53 787.385   4
 -20 -14   0 2002.20 1013.63   2
  20 -34   0 3055.61 831.907   4
  20 -34   0 243.333 631.934   2
 -34  14   3 624.762 967.813   3
 -20 -14   3 3650.08 1086.36   3
 -20 -14   3 1566.71 856.008   4
 -20 -14   3 1484.31 1018.66   2
  14  20   3 1496.46 640.112   1
 -34  15  -1-998.925 952.450   3
 -19 -15  -1 5.46468 643.093   3
 -19 -15  -1 229.150 638.915   4
 -19 -15  -1 1706.45 959.192   2
  19 -34  -1 265.439 529.155   4
  19 -34  -1 66.3288 678.411   2
 -34  15   2 3108.70 1187.53   3
 -19 -15   2 2327.88 948.272   3
 -19 -15   2 3643.95 973.171   4
  15  19   2 2491.39 689.529   1
 -19 -15   2 4987.00 1294.66   2
  19 -34   2 3103.00 829.596   4
  19 -34   2 3923.84 1042.00   2
 -34  16  -2 1434.73 1008.94   3
 -18 -16  -2 974.693 764.670   3
 -18 -16  -2 2813.63 958.017   4
 -18 -16  -2 1236.97 935.965   2
  18 -34  -2 1717.87 748.198   4
  18 -34  -2 1163.90 776.643   2
 -34  16   1 200.668 864.657   3
 -18 -16   1 992.632 814.560   3
 -18 -16   1-185.237 622.175   4
  16  18   1 782.135 578.842   1
 -18 -16   1 1994.92 1033.77   2
  18 -34   1 2113.47 754.586   4
  18 -34   1 312.348 631.574   2
 -34  17  -3 1780.86 1085.39   3
 -17 -17  -3 1512.32 807.708   4
 -17 -17  -3 1420.04 857.816   2
  17 -34  -3 2219.43 796.737   4
  17 -34  -3 2159.65 957.222   2
 -34  17   0 1224.32 990.056   3
 -17 -17   0 194.419 628.009   3
 -17 -17   0 1831.79 753.963   4
 -17 -17   0 980.759 887.919   2
  17 -34   0 1989.61 798.810   4
  17 -34   0 1144.42 700.657   2
 -34  17   3 1866.36 1047.38   3
 -17 -17   3 1927.18 785.961   4
 -17 -17   3 301.810 867.892   2
  17  17   3 1217.71 606.078   1
  17 -34   3 2869.11 780.025   4
  17 -34   3 2116.51 912.569   2
 -34  18  -1 1573.91 1070.05   3
 -16 -18  -1 963.942 743.740   3
 -16 -18  -1 743.655 671.618   4
 -16 -18  -1 1189.45 887.686   2
  16 -34  -1 2167.46 744.148   4
  16 -34  -1 1709.21 878.773   2
 -34  18   2 2724.56 1078.46   3
 -16 -18   2 1782.54 808.861   4
 -16 -18   2 1444.75 950.079   2
  16 -34   2 767.247 683.339   4
  18  16   2 1257.13 577.961   1
  16 -34   2 1260.18 786.092   2
 -34  19  -2 2979.53 1082.10   3
 -15 -19  -2 2934.26 899.899   4
 -15 -19  -2 2490.49 958.748   2
  15 -34  -2 3619.44 914.068   4
  15 -34  -2 3140.55 1038.87   2
 -34  19   1 1100.83 984.999   3
 -15 -19   1-271.934 562.590   4
 -15 -19   1 290.316 762.920   2
  15 -34   1-258.908 592.634   4
  19  15   1-485.334 497.337   1
  15 -34   1 532.576 752.234   2
 -34  20  -3 2695.77 1066.53   3
 -14 -20  -3 521.771 641.299   4
 -14 -20  -3 1095.30 813.329   2
 -34  20   0 2733.40 1101.70   3
 -14 -20   0 1663.07 743.477   4
 -14 -20   0 993.448 796.145   2
  14 -34   0 628.665 619.091   4
  14 -34   0 1810.95 885.980   2
 -34  20   3 1012.38 854.768   3
 -14 -20   3 639.556 658.453   4
 -34  21  -1 996.588 1026.56   3
 -13 -21  -1 2403.13 851.919   4
 -13 -21  -1 1737.60 930.210   2
  13 -34  -1 2049.15 771.871   4
  13 -34  -1 295.935 752.638   2
 -34  21   2 2837.82 1053.93   3
 -13 -21   2 3854.52 936.098   4
 -13 -21   2 3609.41 1206.80   2
  21  13   2 3686.76 735.545   1
  13 -34   2 2731.19 815.279   4
  13 -34   2 5564.44 1210.30   2
 -34  22  -2-518.277 901.069   3
 -12 -22  -2-689.572 769.341   4
  12 -34  -2 1274.80 810.625   4
 -12 -22  -2 562.325 821.137   2
  12 -34  -2-125.283 713.337   2
 -34  22   1 300.796 843.657   3
  22  12   1 1179.37 563.982   1
 -12 -22   1-95.4897 603.102   4
 -12 -22   1 708.267 875.518   2
  12 -34   1 293.411 572.261   4
  12 -34   1-154.858 745.115   2
 -34  23   0 958.983 994.023   3
 -11 -23   0 3828.28 906.418   4
  11 -34   0 1977.69 756.836   4
 -11 -23   0 1681.23 991.509   2
  11 -34   0 3514.64 1073.30   2
 -34  24  -1-9.30668 891.425   3
 -10 -24  -1 329.460 593.513   4
  10 -34  -1 921.418 711.141   4
 -10 -24  -1-62.3883 843.797   2
  10 -34  -1-61.2908 773.638   2
 -35  16   0 3907.04 1218.41   3
 -19 -16   0 2194.18 1037.81   3
 -19 -16   0 876.807 689.210   4
 -19 -16   0 2483.64 1102.89   2
  19 -35   0 821.399 609.683   4
  19 -35   0 2043.55 973.600   2
 -35  17  -1 285.238 828.561   3
 -18 -17  -1 2209.91 893.692   3
 -18 -17  -1 2004.43 900.517   4
 -18 -17  -1 2489.35 1011.22   2
 -35  18   1 681.661 902.993   3
 -17 -18   1 1764.04 799.815   4
 -17 -18   1 2521.23 1198.09   2
  18  17   1 1300.81 605.065   1
 -35  19   0 419.792 950.809   3
 -16 -19   0 2530.61 902.159   4
 -16 -19   0 3107.22 1119.40   2
  16 -35   0 3788.82 961.498   4
  16 -35   0 1542.71 861.870   2
   0   0   0    0.00    0.00   0

TITL YY_Zn_Gly_Pyr_Dioxane_0-77 in R3c
REM R3c (#161 in standard setting)
CELL 0.71073  27.035491  27.035491  10.143052  90.0000  90.0000 120.0000
ZERR   18.00   0.000862   0.000862   0.000355   0.0000   0.0000   0.0000
LATT -3
SYMM -y, x-y, z
SYMM -x+y,-x, z
SYMM -y,-x, z+1/2
SYMM -x+y, y, z+1/2
SYMM  x, x-y, z+1/2
SFAC C H N O Zn
UNIT 108.00 144.00 54.00 90.00 18.00
TREF
HKLF 4
END
;
_shelx_hkl_checksum              18106
_olex2_submission_special_instructions 'No special instructions were received'
_oxdiff_exptl_absorpt_empirical_details
;
Empirical correction (ABSPACK) includes:
- Absorption correction using spherical harmonics
- Frame scaling
- Detector area scaling
;
_oxdiff_exptl_absorpt_empirical_full_max 1.420
_oxdiff_exptl_absorpt_empirical_full_min 0.759
loop_
_space_group_symop_operation_xyz
'x, y, z'
'-y, x-y, z'
'-x+y, -x, z'
'-x+y, y, z+1/2'
'x, x-y, z+1/2'
'-y, -x, z+1/2'
'x+2/3, y+1/3, z+1/3'
'-y+2/3, x-y+1/3, z+1/3'
'-x+y+2/3, -x+1/3, z+1/3'
'-x+y+2/3, y+1/3, z+5/6'
'x+2/3, x-y+1/3, z+5/6'
'-y+2/3, -x+1/3, z+5/6'
'x+1/3, y+2/3, z+2/3'
'-y+1/3, x-y+2/3, z+2/3'
'-x+y+1/3, -x+2/3, z+2/3'
'-x+y+1/3, y+2/3, z+7/6'
'x+1/3, x-y+2/3, z+7/6'
'-y+1/3, -x+2/3, z+7/6'
loop_
_atom_site_label
_atom_site_type_symbol
_atom_site_fract_x
_atom_site_fract_y
_atom_site_fract_z
_atom_site_U_iso_or_equiv
_atom_site_adp_type
_atom_site_occupancy
_atom_site_site_symmetry_order
_atom_site_calc_flag
_atom_site_refinement_flags_posn
_atom_site_refinement_flags_adp
_atom_site_refinement_flags_occupancy
_atom_site_disorder_assembly
_atom_site_disorder_group
Zn1 Zn -0.35247(3) -0.32613(3) -0.38575(9) 0.0140(2) Uani 1 1 d . . . . .
N1 N -0.3163(3) -0.3712(3) -0.4384(6) 0.0183(13) Uani 1 1 d . . . . .
O1 O -0.4019(2) -0.3236(2) -0.5248(5) 0.0206(12) Uani 1 1 d . U . . .
N2 N -0.4046(3) -0.3554(3) -0.2348(6) 0.0153(13) Uani 1 1 d . . . . .
O2 O -0.2920(2) -0.2456(2) -0.3672(5) 0.0218(12) Uani 1 1 d . . . . .
N3 N -0.5827(3) -0.4640(3) -0.1627(6) 0.0181(13) Uani 1 1 d . . . . .
H3 H -0.5736 -0.4551 -0.2440 0.022 Uiso 1 1 calc R . . . .
C3 C -0.4610(3) -0.3856(3) -0.2408(7) 0.0162(14) Uani 1 1 d . . . . .
H3A H -0.4825 -0.3951 -0.3178 0.019 Uiso 1 1 calc R . . . .
C6 C -0.4341(3) -0.3544(3) -0.6161(7) 0.0158(14) Uani 1 1 d . U . . .
O3 O -0.5554(3) -0.4446(3) 0.0504(6) 0.0320(15) Uani 1 1 d . U . . .
C2 C -0.4834(3) -0.4010(3) -0.1131(7) 0.0157(14) Uani 1 1 d . . . . .
C4 C -0.5436(3) -0.4380(3) -0.0687(7) 0.0168(14) Uani 1 1 d . U . . .
C1 C -0.4352(3) -0.3774(3) -0.0317(7) 0.0199(16) Uani 1 1 d . . . . .
H1 H -0.4358 -0.3802 0.0598 0.024 Uiso 1 1 calc R . . . .
C5 C -0.6402(3) -0.5072(3) -0.1282(8) 0.0185(15) Uani 1 1 d . . . . .
H5A H -0.6664 -0.5084 -0.1952 0.022 Uiso 1 1 calc R . . . .
H5B H -0.6507 -0.4971 -0.0451 0.022 Uiso 1 1 calc R . . . .
C10 C -0.4552(16) -0.5152(19) -0.226(3) 0.097(12) Uiso 0.504(19) 1 d D . P A -1
H10A H -0.4826 -0.5502 -0.1819 0.116 Uiso 0.504(19) 1 calc R . P A -1
H10B H -0.4555 -0.4831 -0.1839 0.116 Uiso 0.504(19) 1 calc R . P A -1
O4 O -0.3977(11) -0.5083(12) -0.222(3) 0.103(9) Uiso 0.504(19) 1 d D . P A -1
O5 O -0.4625(13) -0.5549(13) -0.447(3) 0.103(9) Uiso 0.504(19) 1 d D . P A -1
C9 C -0.4676(14) -0.5174(14) -0.361(3) 0.079(9) Uiso 0.504(19) 1 d D . P A -1
H9A H -0.5067 -0.5253 -0.3677 0.094 Uiso 0.504(19) 1 calc R . P A -1
H9B H -0.4436 -0.4792 -0.3956 0.094 Uiso 0.504(19) 1 calc R . P A -1
C7 C -0.4118(15) -0.5502(15) -0.436(3) 0.083(10) Uiso 0.504(19) 1 d D . P A -1
H7A H -0.3850 -0.5167 -0.4849 0.099 Uiso 0.504(19) 1 calc R . P A -1
H7B H -0.4135 -0.5829 -0.4794 0.099 Uiso 0.504(19) 1 calc R . P A -1
C8 C -0.3878(19) -0.5462(18) -0.309(4) 0.108(14) Uiso 0.504(19) 1 d D . P A -1
H8A H -0.3471 -0.5315 -0.3180 0.130 Uiso 0.504(19) 1 calc R . P A -1
H8B H -0.4047 -0.5840 -0.2703 0.130 Uiso 0.504(19) 1 calc R . P A -1
loop_
_atom_site_aniso_label
_atom_site_aniso_U_11
_atom_site_aniso_U_22
_atom_site_aniso_U_33
_atom_site_aniso_U_23
_atom_site_aniso_U_13
_atom_site_aniso_U_12
Zn1 0.0171(4) 0.0182(5) 0.0062(4) -0.0004(3) 0.0003(3) 0.0084(4)
N1 0.023(3) 0.024(3) 0.010(3) -0.001(2) 0.003(2) 0.013(3)
O1 0.023(3) 0.021(3) 0.017(3) -0.003(2) -0.007(2) 0.010(2)
N2 0.020(3) 0.018(3) 0.005(3) 0.001(2) -0.002(2) 0.006(3)
O2 0.025(3) 0.016(3) 0.016(3) 0.000(2) -0.005(2) 0.004(2)
N3 0.017(3) 0.024(3) 0.010(3) 0.001(2) 0.001(2) 0.008(3)
C3 0.020(4) 0.018(4) 0.008(3) -0.001(3) -0.001(3) 0.007(3)
C6 0.020(4) 0.015(3) 0.008(3) 0.001(2) 0.000(3) 0.005(3)
O3 0.027(3) 0.038(4) 0.014(3) 0.002(3) 0.001(2) 0.003(3)
C2 0.020(4) 0.016(3) 0.010(3) 0.000(2) 0.000(3) 0.007(3)
C4 0.018(4) 0.019(4) 0.011(3) 0.004(3) 0.002(3) 0.007(3)
C1 0.027(4) 0.023(4) 0.007(4) 0.004(3) 0.001(3) 0.011(3)
C5 0.021(4) 0.021(4) 0.014(4) -0.001(3) 0.004(3) 0.011(3)
loop_
_atom_type_symbol
_atom_type_description
_atom_type_scat_dispersion_real
_atom_type_scat_dispersion_imag
_atom_type_scat_source
C C 0.0033 0.0016 'International Tables Vol C Tables 4.2.6.8 and 6.1.1.4'
H H 0.0000 0.0000 'International Tables Vol C Tables 4.2.6.8 and 6.1.1.4'
N N 0.0061 0.0033 'International Tables Vol C Tables 4.2.6.8 and 6.1.1.4'
O O 0.0106 0.0060 'International Tables Vol C Tables 4.2.6.8 and 6.1.1.4'
Zn Zn 0.2839 1.4301 'International Tables Vol C Tables 4.2.6.8 and 6.1.1.4'
loop_
_geom_angle_atom_site_label_1
_geom_angle_atom_site_label_2
_geom_angle_atom_site_label_3
_geom_angle
_geom_angle_site_symmetry_1
_geom_angle_site_symmetry_3
_geom_angle_publ_flag
O1 Zn1 N1 112.4(2) . . ?
O1 Zn1 O2 103.4(2) . . ?
N2 Zn1 N1 116.0(3) . . ?
N2 Zn1 O1 102.1(2) . . ?
N2 Zn1 O2 113.8(3) . . ?
O2 Zn1 N1 108.3(3) . . ?
N2 N1 Zn1 122.0(5) 14_444 . ?
C1 N1 Zn1 129.7(5) 14_444 . ?
C1 N1 N2 108.1(6) 14_444 14_444 ?
C6 O1 Zn1 139.5(5) . . ?
N1 N2 Zn1 125.3(5) 9_445 . ?
C3 N2 Zn1 126.0(5) . . ?
C3 N2 N1 108.6(6) . 9_445 ?
C6 O2 Zn1 119.3(5) 9_445 . ?
C4 N3 C5 120.1(7) . . ?
N2 C3 C2 109.5(6) . . ?
O1 C6 C5 117.6(6) . 6_444 ?
O2 C6 O1 125.1(7) 14_444 . ?
O2 C6 C5 117.2(6) 14_444 6_444 ?
C3 C2 C4 130.0(7) . . ?
C1 C2 C3 104.2(7) . . ?
C1 C2 C4 125.7(7) . . ?
N3 C4 C2 116.7(6) . . ?
O3 C4 N3 122.9(7) . . ?
O3 C4 C2 120.4(7) . . ?
N1 C1 C2 109.6(7) 9_445 . ?
N3 C5 C6 111.3(6) . 6_445 ?
C9 C10 O4 104(3) . . ?
C10 O4 C8 116(3) . . ?
C7 O5 C9 110(3) . . ?
O5 C9 C10 122(3) . . ?
O5 C7 C8 120(3) . . ?
C7 C8 O4 111(3) . . ?
loop_
_geom_bond_atom_site_label_1
_geom_bond_atom_site_label_2
_geom_bond_distance
_geom_bond_site_symmetry_2
_geom_bond_publ_flag
Zn1 N1 1.981(7) . ?
Zn1 O1 1.968(5) . ?
Zn1 N2 1.960(6) . ?
Zn1 O2 1.971(5) . ?
N1 N2 1.374(8) 14_444 ?
N1 C1 1.330(10) 14_444 ?
O1 C6 1.258(9) . ?
N2 N1 1.373(8) 9_445 ?
N2 C3 1.323(10) . ?
O2 C6 1.252(9) 9_445 ?
N3 C4 1.332(10) . ?
N3 C5 1.445(10) . ?
C3 C2 1.401(10) . ?
C6 O2 1.252(9) 14_444 ?
C6 C5 1.527(10) 6_444 ?
O3 C4 1.239(9) . ?
C2 C4 1.492(10) . ?
C2 C1 1.399(11) . ?
C1 N1 1.330(10) 9_445 ?
C5 C6 1.527(10) 6_445 ?
C10 O4 1.47(3) . ?
C10 C9 1.41(3) . ?
O4 C8 1.48(3) . ?
O5 C9 1.40(3) . ?
O5 C7 1.32(3) . ?
C7 C8 1.41(3) . ?
