#------------------------------------------------------------------------------
#$Date: 2020-08-22 02:04:26 +0300 (Sat, 22 Aug 2020) $
#$Revision: 255552 $
#$URL: file:///home/coder/svn-repositories/cod/cif/4/13/51/4135199.cif $
#------------------------------------------------------------------------------
#
# This file is available in the Crystallography Open Database (COD),
# http://www.crystallography.net/
#
# All data on this site have been placed in the public domain by the
# contributors.
#
data_4135199
loop_
_publ_author_name
'Yan, Yong'
'Carrington, Elliot J.'
'P\'etuya, R\'emi'
'Whitehead, George F. S.'
'Verma, Ajay'
'Hylton, Rebecca K.'
'Tang, Chiu C.'
'Berry, Neil G.'
'Darling, George R.'
'Dyer, Matthew S.'
'Antypov, Dmytro'
'Katsoulidis, Alexandros P.'
'Rosseinsky, Matthew J.'
_publ_section_title
;
 Amino Acid Residues Determine the Response of Flexible Metal-Organic
 Frameworks to Guests.
;
_journal_name_full               'Journal of the American Chemical Society'
_journal_paper_doi               10.1021/jacs.0c03853
_journal_year                    2020
_chemical_formula_moiety         'C6 H5 N3 O3 Zn, 0.84(C1 H2 Cl2)'
_chemical_formula_sum            'C6.84 H6.68 Cl1.68 N3 O3 Zn'
_chemical_formula_weight         303.98
_space_group_crystal_system      trigonal
_space_group_IT_number           161
_space_group_name_Hall           'R 3 -2"c'
_space_group_name_H-M_alt        'R 3 c :H'
_atom_sites_solution_hydrogens   geom
_atom_sites_solution_primary     direct
_audit_creation_date             2018-07-05
_audit_creation_method
;
Olex2 1.2
(compiled 2018.05.29 svn.r3508 for OlexSys, GUI svn.r5506)
;
_cell_angle_alpha                90
_cell_angle_beta                 90
_cell_angle_gamma                120
_cell_formula_units_Z            18
_cell_length_a                   27.1513(6)
_cell_length_b                   27.1513(6)
_cell_length_c                   10.1334(2)
_cell_measurement_reflns_used    14377
_cell_measurement_temperature    100
_cell_measurement_theta_max      27.4450
_cell_measurement_theta_min      2.5880
_cell_volume                     6469.4(2)
_computing_cell_refinement       'CrysAlisPro 1.171.38.46 (Rigaku OD, 2015)'
_computing_data_collection       'CrysAlisPro 1.171.38.46 (Rigaku OD, 2015)'
_computing_data_reduction        'CrysAlisPro 1.171.38.46 (Rigaku OD, 2015)'
_computing_molecular_graphics    'Olex2 (Dolomanov et al., 2009)'
_computing_publication_material  'Olex2 (Dolomanov et al., 2009)'
_computing_structure_refinement  'ShelXL (Sheldrick, 2015)'
_computing_structure_solution    'XS (Sheldrick, 2008)'
_diffrn_ambient_temperature      100
_diffrn_detector                 'CCD plate'
_diffrn_measured_fraction_theta_full 0.999
_diffrn_measured_fraction_theta_max 0.999
_diffrn_measurement_details
;
List of Runs (angles in degrees, time in seconds):

  # Type    Start    End  Width  t~exp~   \w     \q     \k     \f   Frames
--------------------------------------------------------------------------
  1  \w   -110.00  15.00   1.00   10.00    --  -20.00 -68.00   0.00  125
  2  \w   -110.00  15.00   1.00   10.00    --  -20.00 -68.00 120.00  125
  3  \w   -110.00  15.00   1.00   10.00    --  -20.00 -68.00 240.00  125
  4  \w   -110.00  15.00   1.00   10.00    --  -20.00 -30.00  90.00  125
;
_diffrn_measurement_device       'abstract diffractometer'
_diffrn_measurement_device_type
'Rigaku Rotating Anode Diffractometer withb Saturn Detector'
_diffrn_measurement_method       '\w scans'
_diffrn_orient_matrix_type
'CrysAlisPro convention (1999,Acta A55,543-557)'
_diffrn_orient_matrix_UB_11      0.0093144000
_diffrn_orient_matrix_UB_12      -0.0200400000
_diffrn_orient_matrix_UB_13      -0.0076987000
_diffrn_orient_matrix_UB_21      0.0284871000
_diffrn_orient_matrix_UB_22      0.0218614000
_diffrn_orient_matrix_UB_23      0.0105179000
_diffrn_orient_matrix_UB_31      -0.0033068000
_diffrn_orient_matrix_UB_32      -0.0055864000
_diffrn_orient_matrix_UB_33      0.0687475000
_diffrn_radiation_monochromator  graphite
_diffrn_radiation_probe          x-ray
_diffrn_radiation_type           MoK\a
_diffrn_radiation_wavelength     0.71073
_diffrn_reflns_av_R_equivalents  0.0479
_diffrn_reflns_av_unetI/netI     0.0233
_diffrn_reflns_Laue_measured_fraction_full 0.999
_diffrn_reflns_Laue_measured_fraction_max 0.999
_diffrn_reflns_limit_h_max       35
_diffrn_reflns_limit_h_min       -35
_diffrn_reflns_limit_k_max       35
_diffrn_reflns_limit_k_min       -35
_diffrn_reflns_limit_l_max       9
_diffrn_reflns_limit_l_min       -13
_diffrn_reflns_number            26187
_diffrn_reflns_point_group_measured_fraction_full 0.884
_diffrn_reflns_point_group_measured_fraction_max 0.854
_diffrn_reflns_theta_full        25.242
_diffrn_reflns_theta_max         27.466
_diffrn_reflns_theta_min         2.599
_diffrn_source                   'fine-focus sealed X-ray tube'
_diffrn_source_type              'Enhance (Mo) X-ray Source'
_exptl_absorpt_coefficient_mu    2.015
_exptl_absorpt_correction_T_max  1.00000
_exptl_absorpt_correction_T_min  0.72948
_exptl_absorpt_correction_type   multi-scan
_exptl_absorpt_process_details
;
CrysAlisPro 1.171.38.46 (Rigaku Oxford Diffraction, 2015)
Empirical absorption correction using spherical harmonics,
 implemented in SCALE3 ABSPACK scaling algorithm.
;
_exptl_crystal_colour            white
_exptl_crystal_colour_primary    white
_exptl_crystal_density_diffrn    1.404
_exptl_crystal_description       needle
_exptl_crystal_F_000             2724
_exptl_crystal_preparation       'Solvent Exchanged in DCM'
_exptl_crystal_size_max          0.304
_exptl_crystal_size_mid          0.031
_exptl_crystal_size_min          0.029
_refine_diff_density_max         2.315
_refine_diff_density_min         -0.732
_refine_diff_density_rms         0.213
_refine_ls_abs_structure_details
;
 Flack x determined using 1023 quotients [(I+)-(I-)]/[(I+)+(I-)]
 (Parsons, Flack and Wagner, Acta Cryst. B69 (2013) 249-259).
;
_refine_ls_abs_structure_Flack   0.027(16)
_refine_ls_extinction_method     none
_refine_ls_goodness_of_fit_ref   1.076
_refine_ls_hydrogen_treatment    constr
_refine_ls_matrix_type           full
_refine_ls_number_parameters     134
_refine_ls_number_reflns         2813
_refine_ls_number_restraints     20
_refine_ls_restrained_S_all      1.073
_refine_ls_R_factor_all          0.0741
_refine_ls_R_factor_gt           0.0726
_refine_ls_shift/su_max          0.000
_refine_ls_shift/su_mean         0.000
_refine_ls_structure_factor_coef Fsqd
_refine_ls_weighting_details
'w=1/[\s^2^(Fo^2^)+(0.1580P)^2^+60.5114P] where P=(Fo^2^+2Fc^2^)/3'
_refine_ls_weighting_scheme      calc
_refine_ls_wR_factor_gt          0.2109
_refine_ls_wR_factor_ref         0.2127
_reflns_Friedel_coverage         0.700
_reflns_Friedel_fraction_full    0.768
_reflns_Friedel_fraction_max     0.707
_reflns_number_gt                2714
_reflns_number_total             2813
_reflns_threshold_expression     'I > 2\s(I)'
_cod_data_source_file            ZnGlyPyr_DCM_100K.cif
_cod_data_source_block           ZnGlyPyr_DCM_100K
_cod_original_cell_volume        6469.4(3)
_cod_original_sg_symbol_H-M      'R 3 c'
_cod_database_code               4135199
_shelx_shelxl_version_number     2014/7
_chemical_oxdiff_formula         'Zn C6 H8 N3 O5'
_shelx_space_group_comment
;
The symmetry employed for this shelxl refinement is uniquely defined
by the following loop, which should always be used as a source of
symmetry information in preference to the above space-group names.
They are only intended as comments.
;
_reflns_odcompleteness_completeness 99.83
_reflns_odcompleteness_iscentric 1
_reflns_odcompleteness_theta     27.41
_olex2_refinement_description
;
1. Fixed Uiso
 At 1.2 times of:
  All C(H) groups, All C(H,H) groups, All N(H) groups
2. Rigid bond restraints
 N2, C1
 with sigma for 1-2 distances of 0.01 and sigma for 1-3 distances of 0.01
3. Uiso/Uaniso restraints and constraints
N1 \\sim N2 \\sim C2 \\sim C3 \\sim C1: within 2A with sigma of 0.02 and sigma
for terminal atoms of 0.04
Uanis(C6) = Uanis(O2) = Uanis(O1)
4. Others
 Sof(Cl1)=Sof(Cl2)=Sof(C7)=Sof(H7A)=Sof(H7B)=FVAR(1)
5.a Secondary CH2 refined with riding coordinates:
 C5(H5A,H5B), C7(H7A,H7B)
5.b Aromatic/amide H refined with riding coordinates:
 N3(H3), C2(H2), C1(H1)
;
_shelx_res_file
;
    yy_zn_gly_pyr_dcm.res created by SHELXL-2014/7

TITL YY_Zn_Gly_Pyr_DCM in R3c #161
REM reset to R3c #161
CELL 0.71073 27.151281 27.151281 10.133412 90 90 120
ZERR 18 0.000616 0.000616 0.000231 0 0 0
LATT -3
SYMM -Y,+X-Y,+Z
SYMM +Y-X,-X,+Z
SYMM +Y-X,+Y,0.5+Z
SYMM +X,+X-Y,0.5+Z
SYMM -Y,-X,0.5+Z
SFAC C H Cl N O Zn
UNIT 123.15 120.3 30.3 54 54 18
DELU N2 C1
SIMU 0.02 0.04 2 N1 N2 > C1
EADP C6 O2 O1

L.S. 16
PLAN  20
BOND
fmap 2
acta
REM <olex2.extras>
REM <HklSrc "%.\\YY_Zn_Gly_Pyr_DCM.hkl">
REM </olex2.extras>

WGHT    0.158000   60.511398
FVAR       1.18604   0.84170
ZN1   6   -0.692662   -0.685903   -0.133310    11.00000    0.02629    0.02463 =
         0.00775   -0.00025   -0.00068    0.01266
CL1   3   -0.920142   -0.740659   -0.134101    21.00000    0.03990    0.05161 =
         0.12280   -0.00835   -0.01691    0.02321
O2    5   -0.712253   -0.625313   -0.153020    11.00000    0.02945    0.02611 =
         0.00943    0.00299    0.00000    0.01279
N1    4   -0.716738   -0.737170   -0.284867    11.00000    0.03160    0.02567 =
         0.00467   -0.00299   -0.00100    0.01530
O1    5   -0.745942   -0.734905    0.005225    11.00000    0.02945    0.02611 =
         0.00943    0.00299    0.00000    0.01279
CL2   3   -0.831994   -0.712417   -0.327920    21.00000    0.06193    0.11595 =
         0.10495   -0.05454   -0.03147    0.05603
C5    1   -0.694746   -0.534575   -0.224649    11.00000    0.02591    0.02787 =
         0.01852   -0.00126   -0.00321    0.01390
AFIX  23
H5A   2   -0.669008   -0.509650   -0.157176    11.00000   -1.20000
H5B   2   -0.684342   -0.513911   -0.307497    11.00000   -1.20000
AFIX   0
N3    4   -0.751270   -0.549099   -0.191370    11.00000    0.02831    0.02735 =
         0.00772    0.00258   -0.00158    0.01559
AFIX  43
H3    2   -0.760045   -0.548989   -0.109867    11.00000   -1.20000
AFIX   0
N2    4   -0.612035   -0.649394   -0.079802    11.00000    0.02683    0.03075 =
         0.01144   -0.00106   -0.00410    0.01233
C2    1   -0.743305   -0.794903   -0.280037    11.00000    0.03047    0.02544 =
         0.00822   -0.00378   -0.00094    0.01589
AFIX  43
H2    2   -0.755926   -0.816779   -0.203711    11.00000   -1.20000
AFIX   0
C3    1   -0.748583   -0.815990   -0.407341    11.00000    0.02797    0.02162 =
         0.01266   -0.00041   -0.00237    0.01069
C1    1   -0.565131   -0.620099   -0.151579    11.00000    0.03553    0.03168 =
         0.00556    0.00101    0.00373    0.01259
AFIX  43
H1    2   -0.564748   -0.614483   -0.242192    11.00000   -1.20000
AFIX   0
C6    1   -0.687735   -0.587200   -0.237628    11.00000    0.02945    0.02611 =
         0.00943    0.00299    0.00000    0.01279
C4    1   -0.791370   -0.563029   -0.284778    11.00000    0.02590    0.03290 =
         0.01213   -0.00500   -0.00096    0.01686

C7    1   -0.847475   -0.717605   -0.157579    21.00000    0.03784    0.07839 =
         0.15503    0.04501    0.00706    0.03695
AFIX  23
H7A   2   -0.838320   -0.744351   -0.116741    21.00000   -1.20000
H7B   2   -0.824484   -0.680815   -0.116062    21.00000   -1.20000
AFIX   0

O3    5   -0.779613   -0.558961   -0.402689    11.00000    0.03835    0.07258 =
         0.00805    0.00501    0.00025    0.03160
HKLF 4

REM  YY_Zn_Gly_Pyr_DCM in R3c #161
REM R1 =  0.0726 for    2714 Fo > 4sig(Fo)  and  0.0741 for all    2813 data
REM    134 parameters refined using     20 restraints

END

WGHT      0.1580     60.4266

REM Highest difference peak  2.315,  deepest hole -0.732,  1-sigma level  0.213
Q1    1  -0.8954 -0.8646 -0.2324  11.00000  0.05    2.32
Q2    1  -0.7619 -0.4395 -0.4210  11.00000  0.05    1.50
Q3    1  -0.8880 -0.7204 -0.2392  11.00000  0.05    1.48
Q4    1  -0.6119 -0.4006 -0.4690  11.00000  0.05    1.24
Q5    1  -0.5751 -0.3704 -0.2544  11.00000  0.05    1.00
Q6    1  -0.7006 -0.4772 -0.3606  11.00000  0.05    0.99
Q7    1  -0.7342 -0.4297 -0.0204  11.00000  0.05    0.98
Q8    1  -0.9146 -0.7324 -0.0435  11.00000  0.05    0.95
Q9    1  -0.7083 -0.5375 -0.3473  11.00000  0.05    0.70
Q10   1  -0.8468 -0.7129 -0.2655  11.00000  0.05    0.67
Q11   1  -0.8383 -0.6187 -0.3671  11.00000  0.05    0.66
Q12   1  -0.8471 -0.7389 -0.3458  11.00000  0.05    0.64
Q13   1  -0.7263 -0.4129 -0.2271  11.00000  0.05    0.64
Q14   1  -0.7481 -0.4178 -0.2083  11.00000  0.05    0.63
Q15   1  -0.6626 -0.4454 -0.0123  11.00000  0.05    0.61
Q16   1  -0.7348 -0.5427 -0.3854  11.00000  0.05    0.57
Q17   1  -0.9378 -0.8202 -0.0756  11.00000  0.05    0.55
Q18   1  -0.8672 -0.6592 -0.0398  11.00000  0.05    0.53
Q19   1  -0.7247 -0.5182 -0.0318  11.00000  0.05    0.52
Q20   1  -0.7385 -0.6249 -0.1834  11.00000  0.05    0.52
;
_shelx_res_checksum              66922
_shelx_hkl_file
;
   0   0 -12 73258.9 2165.88   3
   0   0 -12 67770.5 2944.65   1
   0   0 -12 69444.7 3174.09   2
   0   0  -9 345.197 387.114   3
   0   0  -9-750.182 600.168   1
   0   0  -9-160.688 335.629   4
   0   0  -9 95.0956 528.143   2
   0   0  -6 319562. 4434.10   2
   0   0  -6 315815. 2920.95   4
   0   0  -6 314301. 3062.15   3
   0   0  -3-27.1595 280.251   2
   0   0  -3 70.6887 160.124   4
   0   0   3-4.93472 152.147   4
  -1   0 -13 1949.81 1032.55   1
   1  -1 -13 1226.45 960.309   1
  -1   0 -13 685.450 937.813   2
   0   1 -13 921.067 847.700   1
   0   1 -13 345.292 951.967   2
   1  -1 -13-262.183 955.642   2
   1  -1 -10 1376.05 700.753   1
  -1   0 -10 1180.77 472.461   3
   1  -1 -10 866.879 438.796   3
   0   1 -10 506.911 320.400   4
   1  -1 -10 457.822 755.990   2
   0   1 -10 522.681 663.161   2
  -1   0 -10 887.790 719.300   2
  -1   0 -10 929.101 380.223   4
  -1   0 -10 150.700 667.937   1
   0   1 -10 1871.90 517.045   3
   1  -1 -10 1114.15 442.365   4
   0   1 -10 93.2903 669.772   1
  -1   0  -7 31.6448 249.862   4
   0   1  -7 88.8939 296.014   3
  -1   0  -7 523.434 499.623   2
   1  -1  -7-167.391 523.023   2
   0   1  -7 140.046 463.316   2
  -1   0  -7 76.8870 271.961   3
   0   1  -7 217.748 484.588   1
   1  -1  -7 125.499 267.140   3
   1  -1  -7-2.02677 266.611   4
   0   1  -7-101.679 216.200   4
   0   1  -4 26870.6 647.488   4
   0   1  -4 27616.7 1069.61   2
   1  -1  -4 28336.0 1162.08   2
   1  -1  -4 27929.3 795.399   4
   1  -1  -4 27790.9 741.718   3
  -1   0  -4 27762.9 741.384   4
  -1   0  -4 29490.7 1117.04   2
   0   1  -4 26475.0 809.195   3
   1  -1  -1 40.6662 97.3798   4
  -1   0  -1-3.07712 117.108   2
   0   1  -1 95.1627 98.8038   1
   0   1   2 35123.2 665.482   4
   1  -1   2 34899.1 496.448   4
   0   1   5-27.7962 205.850   4
   1  -1   5 103.940 196.918   4
   0  -1 -11 286.958 732.389   2
  -1   1 -11-1077.11 781.696   1
   1   0 -11-33.3587 357.829   4
  -1   1 -11-150.199 444.869   3
   1   0 -11 766.636 776.254   1
  -1   1 -11-741.712 704.357   2
   0  -1 -11 39.3719 397.504   4
   1   0 -11-664.982 774.553   2
   1   0 -11 711.871 488.160   3
   0  -1 -11 12.2959 429.961   3
   0  -1 -11 660.984 752.711   1
   1   0  -8 2481.75 404.987   4
  -1   1  -8 2132.69 367.626   4
   1   0  -8 2056.36 656.996   2
  -1   1  -8 3185.37 466.028   3
   0  -1  -8 2200.02 426.980   4
   0  -1  -8 2436.93 433.448   3
   1   0  -8 2652.37 467.146   3
  -1   1  -8 2150.86 628.770   2
   0  -1  -8 2406.39 715.919   2
  -1   1  -8 2405.46 646.054   1
  -1   1  -5 573.880 352.926   2
   0  -1  -5 85.2565 230.343   4
   1   0  -5 465.726 259.805   3
  -1   1  -5 379.748 205.254   4
   1   0  -5-100.404 400.618   2
   1   0  -5 100.789 208.612   4
   0  -1  -5-152.397 236.498   3
   0  -1  -5-98.9423 427.686   2
  -1   1  -2 38910.3 515.764   4
   1   0  -2 37990.3 612.623   4
   0  -1  -2 38518.2 540.353   3
   0  -1  -2 40781.3 954.092   2
   0  -1  -2 39219.8 703.697   4
   1   0  -2 37582.7 667.213   3
  -1   1  -2 38389.0 819.620   2
   0  -1   1 36.2306 92.5203   1
   1   0   1 18.3357 122.596   2
   1   0   4 29054.2 756.294   4
  -2   0 -11 78.3381 447.637   3
   0   2 -11 6.96872 660.880   2
   0   2 -11-93.6704 470.147   3
   2  -2 -11 437.520 740.286   2
   2  -2 -11 432.304 469.889   3
  -2   0 -11 580.643 688.895   2
  -2   0 -11-174.125 767.588   1
   2  -2 -11 498.525 513.950   4
   0   2 -11-149.343 667.153   1
   2  -2 -11 188.384 661.990   1
  -2   0 -11 658.885 409.440   4
  -2   0  -8 15055.2 794.110   4
   0   2  -8 14997.3 1169.00   2
   0   2  -8 15656.9 913.918   3
   0   2  -8 15893.8 1146.47   1
   2  -2  -8 13815.8 786.267   3
  -2   0  -8 12609.2 1126.70   2
   2  -2  -8 15272.0 1283.63   2
   2  -2  -8 15365.4 868.691   4
  -2   0  -8 13954.5 786.141   3
   0   2  -8 14793.2 676.874   4
   0   2  -5 88.8801 362.101   2
   0   2  -5 48.0540 166.738   4
   0   2  -5 220.415 287.800   3
  -2   0  -5 309.891 367.410   2
  -2   0  -5 182.193 238.372   4
   2  -2  -5-18.2751 237.737   3
   0   2  -5-232.809 352.703   1
   2  -2  -5 459.176 467.079   2
   2  -2  -5-168.567 244.447   4
  -2   0  -2 210265. 2030.10   2
   2  -2  -2 213506. 1403.21   3
   2  -2  -2 215320. 1811.29   4
  -2   0  -2 213984. 1599.96   4
   0   2  -2 211893. 1762.57   1
   2  -2   1 149.441 154.122   1
   0   2   1-327.420 180.462   2
  -2   0   1-13.3458 120.373   3
   0   2   1 15.8268 128.630   4
   0   2   4 59195.3 1221.10   4
   2  -2   4 57844.2 880.312   4
  -2   1 -12 12243.3 1396.97   1
   1  -2 -12 13145.6 1464.61   1
  -1   2 -12 13061.7 1052.31   3
  -2   1 -12 13101.8 1036.33   3
   1   1 -12 14784.7 1614.28   2
  -1  -1 -12 11043.8 1437.61   2
   2  -1 -12 11253.6 1346.46   1
  -2   1 -12 13304.3 1514.79   2
   1   1 -12 12691.8 1051.66   3
  -1   2 -12 13511.9 1479.53   1
   2  -1 -12 14644.4 1049.30   3
  -1   2 -12 11336.7 1368.28   2
  -1  -1 -12 12865.2 1496.92   1
   2  -1 -12 11985.1 1536.88   2
   1   1 -12 9199.71 1231.57   1
   1  -2 -12 13444.6 1608.52   2
   1   1  -9 59392.3 1765.98   3
   2  -1  -9 53305.1 2394.79   2
   2  -1  -9 51873.2 1559.45   4
   1   1  -9 57420.0 2377.59   2
  -1  -1  -9 54539.4 1584.85   4
   1  -2  -9 57789.6 1546.13   3
  -1   2  -9 57965.5 1749.42   3
  -1   2  -9 52041.2 2218.55   2
   1  -2  -9 59461.7 1729.91   4
  -1  -1  -9 57310.0 2433.98   2
   2  -1  -9 56267.7 1638.08   3
  -1   2  -9 57810.4 2247.13   1
   1   1  -9 57140.2 1456.94   4
  -2   1  -9 57460.8 2321.79   2
   1   1  -9 56065.4 2164.56   1
  -2   1  -9 57946.3 2334.98   1
   1  -2  -9 57754.4 2511.81   2
  -2   1  -9 58642.6 1678.63   3
  -1  -1  -9 58556.3 1587.31   3
  -1   2  -9 56912.5 1340.63   4
  -2   1  -9 58491.8 1484.40   4
   1   1  -6 94314.6 2417.98   2
  -1   2  -6 98421.4 2282.63   1
  -1   2  -6 96699.2 1396.07   4
   1  -2  -6 94030.4 1563.80   3
  -2   1  -6 92299.3 2323.28   2
   1   1  -6 96441.9 1825.01   3
  -2   1  -6 96701.8 1552.44   4
  -1   2  -6 94453.8 1856.59   3
   2  -1  -6 93088.4 1723.24   4
   1  -2  -6 91102.3 1774.99   4
  -1  -1  -6 95737.5 2500.97   2
   1  -2  -6 93623.6 2529.82   2
   1   1  -6 95664.4 1516.23   4
  -1   2  -6 97496.8 2348.26   2
   2  -1  -6 99316.9 2572.75   2
  -1  -1  -6 93880.6 1570.74   3
  -1  -1  -6 92284.5 1706.09   4
   2  -1  -6 93654.0 1721.24   3
   1  -2  -3 135165. 1229.09   3
   1   1  -3 137369. 1257.91   4
  -1   2  -3 131849. 1841.76   1
   2  -1  -3 134361. 1454.58   3
   1  -2  -3 138810. 2197.33   2
  -1  -1  -3 136866. 2089.46   2
  -2   1  -3 138163. 1311.77   4
  -1  -1  -3 139902. 1573.64   4
  -1   2  -3 138569. 1033.27   4
  -2   1  -3 139221. 1913.59   2
   1  -2  -3 136109. 1628.18   4
   2  -1  -3 136676. 1544.03   4
  -1   2  -3 142283. 1883.39   2
   1   1  -3 140627. 1647.44   3
   1   1   3 132376. 2042.42   2
  -1   2   3 132438. 1612.31   4
   1   1   3 131965. 1543.34   4
   2  -1   3 133649. 1297.22   4
   2  -1   3 136188. 1873.06   2
  -2   1   3 134249. 1501.15   3
   2  -1   6 96430.6 1545.73   4
   1   1   6 94730.8 1748.49   4
   2   0 -13-341.062 801.504   1
   2   0 -13 120.578 906.101   2
  -2   2 -13-229.741 887.454   1
  -2   2 -13-433.279 891.840   2
   0  -2 -13 58.6729 952.445   2
   0  -2 -13 401.028 861.577   1
   2   0 -10 10746.6 1128.35   1
  -2   2 -10 10901.8 657.177   4
   2   0 -10 8632.75 786.478   3
   0  -2 -10 9825.53 1200.10   2
   0  -2 -10 8845.74 760.667   4
  -2   2 -10 8940.67 1108.15   1
  -2   2 -10 9353.62 833.671   3
   2   0 -10 7728.56 686.086   4
  -2   2 -10 9686.82 1134.65   2
   2   0 -10 10131.1 1274.90   2
   0  -2 -10 9531.66 725.391   3
  -2   2  -7 261.559 451.985   2
  -2   2  -7-113.141 302.965   3
   2   0  -7-102.805 483.329   2
   2   0  -7-30.4840 254.479   4
   0  -2  -7 145.923 293.224   4
   2   0  -7-16.7473 294.892   3
  -2   2  -7-61.7200 231.073   4
  -2   2  -7 601.244 505.291   1
   0  -2  -7 96.1653 268.175   3
   0  -2  -7 544.632 518.809   2
   2   0  -4 56267.7 1045.04   4
   2   0  -4 54678.7 1139.57   3
  -2   2  -4 54903.7 851.549   4
   0  -2  -4 53630.8 878.739   3
  -2   2  -4 56601.1 1417.83   2
  -2   2  -4 54375.0 1440.83   1
   0  -2  -4 54901.0 1182.18   4
   0  -2  -4 58010.8 1638.88   2
   2   0  -1 48.7417 130.636   3
   0  -2  -1 17.5973 145.822   1
   0  -2  -1 9.83812 133.783   4
  -2   2  -1 274.956 152.444   1
   0  -2  -1 54.2902 175.949   2
  -2   2   2 207092. 1392.40   3
   0  -2   2 203799. 1799.24   1
   2   0   2 206767. 2035.12   2
   2   0   2 204435. 1564.06   4
   2   0   5-42.9387 367.166   2
   2   0   5-38.9627 197.287   4
   3  -3 -12 43116.4 2362.35   1
   3  -3 -12 38777.9 2572.52   2
  -3   0 -12 37782.7 2322.09   2
   0   3 -12 43944.9 1858.71   3
  -3   0 -12 39087.9 2379.27   1
   0   3 -12 39885.5 2245.18   1
   0   3 -12 40916.4 2434.89   2
  -3   0  -9 504.968 669.722   1
  -3   0  -9-215.716 571.162   2
   3  -3  -9 170.894 674.205   2
   0   3  -9 29.4865 414.953   3
  -3   0  -9 766.979 421.925   3
   0   3  -9 516.352 598.381   2
   0   3  -9-428.589 557.423   1
   3  -3  -9-467.608 374.973   4
  -3   0  -9 436.932 358.505   4
   0   3  -9 198.870 233.879   4
   3  -3  -9 261.500 324.713   3
   0   3  -6 307249. 3856.66   1
   0   3  -6 301312. 3461.30   3
   0   3  -6 328453. 2351.37   4
   3  -3  -6 335984. 3542.44   4
   3  -3  -6 330066. 2929.59   3
   3  -3  -6 334429. 4888.70   2
  -3   0  -6 328190. 3145.87   4
   0   3  -6 339401. 4330.19   2
  -3   0  -6 333737. 4427.37   2
   0   3  -3 150.031 231.948   1
   3  -3  -3 84.4501 157.020   3
  -3   0  -3 441.266 290.656   2
   3  -3  -3-79.3154 381.135   2
  -3   0  -3 139.434 151.671   3
   3  -3  -3 50.3554 225.441   4
  -3   0  -3 128.379 196.305   4
   0   3   0 352919. 1982.05   2
  -3   0   3 174.415 213.657   3
   0   3   3 301.460 342.227   2
   3  -3   3 29.0658 103.016   4
   0   3   3-23.8004 221.822   4
   3  -3   6 144528. 1621.47   4
   0   3   6 142765. 2310.75   4
  -3   1 -13 7025.31 1335.89   2
  -2  -1 -13 6219.90 1259.73   1
  -1   3 -13 6415.61 1209.85   1
  -2  -1 -13 7152.89 1321.41   2
   2  -3 -13 4622.53 1175.75   1
   1   2 -13 8316.96 1290.40   1
   3  -2 -13 7924.30 1488.22   2
   2  -3 -13 5409.35 1363.22   2
  -1   3 -13 7291.36 1266.50   2
  -3   1 -13 7754.15 1329.30   1
   1   2 -13 6196.66 1316.97   2
   3  -2 -13 5502.68 1145.24   1
  -1   3 -10 815.281 650.138   2
   3  -2 -10 1100.42 438.227   4
  -3   1 -10 1660.17 482.551   3
  -3   1 -10 788.796 699.282   1
   3  -2 -10 1446.89 806.120   2
   1   2 -10 1099.01 349.149   4
   1   2 -10 1779.09 684.599   1
   1   2 -10 1118.59 504.372   3
   2  -3 -10 1502.97 479.718   4
  -1   3 -10 708.001 470.388   3
  -2  -1 -10-55.5470 734.248   1
  -2  -1 -10 1799.84 458.964   3
  -3   1 -10 1046.78 369.508   4
  -2  -1 -10 808.386 426.423   4
   3  -2 -10 2214.21 515.996   3
   2  -3 -10 1876.96 753.589   2
  -1   3 -10 1422.24 694.451   1
  -2  -1 -10 731.820 643.539   2
  -1   3 -10 1004.59 278.845   4
   1   2 -10 10.3845 627.415   2
   3  -2 -10 2744.29 754.104   1
  -3   1 -10 2022.08 789.780   2
   2  -3 -10 553.199 372.328   3
  -3   1  -7 32483.3 1519.78   2
   3  -2  -7 32175.0 1663.85   2
   1   2  -7 31881.2 1544.04   2
  -1   3  -7 34329.0 1266.68   3
  -1   3  -7 36038.4 1526.26   1
  -2  -1  -7 33033.8 1118.46   4
   3  -2  -7 30900.9 1057.81   3
   1   2  -7 34010.9 1418.52   1
  -1   3  -7 31762.3 1485.93   2
   2  -3  -7 32990.6 993.806   3
   2  -3  -7 29523.4 1160.67   4
  -3   1  -7 33161.7 1027.91   4
  -2  -1  -7 32040.8 1005.81   3
   1   2  -7 30563.0 1170.62   3
  -2  -1  -7 29652.3 1528.87   2
   1   2  -7 33944.6 937.571   4
   2  -3  -7 30083.5 1640.50   2
   3  -2  -7 30699.1 1142.27   4
  -1   3  -7 33101.4 822.502   4
   2  -3  -4 9499.72 420.498   3
   1   2  -4 9575.63 561.874   3
   3  -2  -4 9438.34 780.279   2
  -3   1  -4 9388.21 445.405   4
   1   2  -4 9018.07 556.088   1
  -1   3  -4 9314.15 633.627   2
   1   2  -4 8294.46 361.680   4
  -1   3  -4 8557.44 613.826   1
  -2  -1  -4 8175.12 679.235   2
  -1   3  -4 8200.96 282.767   4
   2  -3  -4 8080.74 529.896   4
   2  -3  -4 8792.67 771.289   2
   3  -2  -4 8421.07 452.842   3
   3  -2  -4 8884.11 520.666   4
  -2  -1  -4 8527.16 507.570   4
  -3   1  -4 8813.40 630.057   2
   1   2  -1 16655.9 337.081   4
   1   2  -1 16296.8 430.554   2
   2  -3  -1 16085.7 556.605   2
  -3   1  -1 15668.2 391.257   4
   2  -3  -1 16606.9 450.517   1
   3  -2  -1 16568.7 357.528   1
   1   2  -1 16326.6 454.729   3
  -1   3  -1 16413.4 437.619   1
   2  -3  -1 16604.7 503.695   4
  -3   1  -1 16999.4 417.758   3
   1   2  -1 17187.4 346.022   1
   3  -2  -1 17000.6 414.146   3
   2  -3  -1 16835.8 337.300   3
  -2  -1  -1 16376.9 469.093   4
  -2  -1  -1 16938.1 536.836   2
  -3   1  -1 15834.3 434.000   2
  -1   3   2 53068.3 1212.86   2
  -3   1   2 52848.9 870.613   3
   2  -3   2 52910.7 1048.81   1
   3  -2   2 55380.3 690.258   4
  -2  -1   2 54049.5 956.932   3
  -1   3   2 52587.3 987.090   4
   3  -2   2 55508.9 907.534   2
   1   2   2 52401.2 963.961   4
   1   2   2 55971.6 1221.95   2
   1   2   5 3609.59 555.316   2
   1   2   5 3395.44 400.683   4
   3  -2   5 3624.67 310.692   4
  -1   3   5 3501.64 399.191   4
   1  -3 -11 564.788 537.492   4
  -1  -2 -11 495.402 436.388   3
  -3   2 -11-491.702 734.392   1
   1  -3 -11-668.391 818.004   2
   2   1 -11 114.123 694.925   2
  -2   3 -11-35.7202 589.871   2
   3  -1 -11 131.179 420.732   4
  -1  -2 -11 18.5468 450.188   4
  -2   3 -11 336.822 530.444   3
  -2   3 -11-60.3502 726.324   1
   3  -1 -11 251.294 707.965   1
   2   1 -11 263.623 537.296   3
   3  -1 -11 345.276 767.842   2
  -3   2 -11 182.895 476.748   3
   1  -3 -11 132.696 382.933   3
   2   1 -11 960.441 645.540   1
  -3   2 -11 915.854 764.434   2
  -1  -2 -11-180.035 704.407   2
   3  -1 -11 181.649 483.553   3
  -1  -2 -11 363.371 784.719   1
  -3   2  -8 1195.98 318.158   4
  -1  -2  -8 1411.02 388.528   4
   3  -1  -8 1269.62 627.281   2
   1  -3  -8 399.961 297.460   3
  -2   3  -8 412.365 220.385   4
   2   1  -8 620.069 377.329   3
  -3   2  -8 798.464 404.899   3
   1  -3  -8 866.418 363.664   4
  -1  -2  -8 737.574 657.825   2
   1  -3  -8 933.873 752.869   2
  -2   3  -8 902.235 406.692   3
   3  -1  -8 676.658 332.920   4
   2   1  -8 1382.82 644.990   2
  -2   3  -8 849.836 547.140   2
  -3   2  -8 1201.65 527.607   2
   2   1  -8 1256.24 524.692   1
  -1  -2  -8 781.270 306.136   3
   3  -1  -8 596.841 322.987   3
  -2   3  -8 1484.78 638.840   1
  -3   2  -8 1408.69 615.293   1
   2   1  -8 670.976 316.162   4
   2   1  -5 4470.23 375.138   4
  -3   2  -5 3749.86 314.906   4
   3  -1  -5 3877.63 394.283   3
   3  -1  -5 2794.07 597.845   2
   1  -3  -5 2907.87 605.067   2
   1  -3  -5 3023.46 416.242   4
  -2   3  -5 3445.90 506.817   1
  -2   3  -5 3654.82 250.510   4
  -1  -2  -5 3390.74 395.410   4
  -1  -2  -5 3401.41 313.136   3
  -3   2  -5 4377.07 601.902   1
   3  -1  -5 3794.02 395.104   4
  -2   3  -5 4056.80 531.082   2
  -3   2  -5 3913.82 535.885   2
   2   1  -5 3720.92 413.176   3
   1  -3  -5 3344.43 304.454   3
  -1  -2  -5 4218.06 649.071   2
   1  -3  -2 49070.4 945.165   4
  -1  -2  -2 51359.2 1158.74   2
  -2   3  -2 49603.3 984.844   1
  -3   2  -2 51304.5 1081.50   1
   1  -3  -2 51107.0 996.569   1
   3  -1  -2 48800.2 830.895   3
  -3   2  -2 49628.5 652.504   4
   2   1  -2 47673.6 882.527   3
   2   1  -2 49425.6 735.276   1
  -3   2  -2 50145.4 856.592   2
   1  -3  -2 49497.3 1175.36   2
  -2   3  -2 49415.7 786.156   2
  -1  -2  -2 50315.7 929.495   4
  -2   3   1 14982.8 546.958   2
   1  -3   1 16787.9 449.222   1
   3  -1   1 15891.1 394.292   3
  -1  -2   1 16467.0 345.895   1
  -2   3   1 15010.2 468.666   4
  -3   2   1 15557.3 388.164   3
   2   1   1 15202.6 525.513   2
  -1  -2   1 15403.2 320.627   4
   3  -1   1 14753.3 432.881   2
  -2   3   1 16924.6 461.163   1
  -2   3   1 16042.4 328.904   3
  -3   2   1 15460.5 342.265   1
   2   1   1 15999.7 456.705   4
   3  -1   1 15642.3 386.554   4
   2   1   4 9204.98 719.955   2
  -3   2   4 8467.51 468.384   3
   2   1   4 9575.50 525.599   4
  -2   3   4 8370.46 527.471   4
   3  -1   4 8868.58 645.694   2
   3  -1   4 9327.04 455.084   4
   2   1   7 27952.1 1043.35   4
   3  -1   7 28763.1 951.670   4
  -3   3 -12 39722.2 1714.98   3
   3   0 -12 38477.9 1693.70   3
   0  -3 -12 35022.6 2276.91   1
   3   0 -12 38381.3 2510.28   2
   3   0 -12 36651.5 2091.11   1
  -3   3 -12 31238.1 2111.04   1
  -3   3 -12 33519.8 2154.95   2
   0  -3 -12 36403.0 2407.42   2
   3   0  -9-296.868 376.033   3
   3   0  -9-50.7890 515.760   1
  -3   3  -9 1167.87 650.698   2
  -3   3  -9-114.905 237.820   4
  -3   3  -9 31.2081 553.516   1
   3   0  -9 164.912 345.457   4
   0  -3  -9-494.735 733.650   2
   0  -3  -9 238.494 348.028   3
   3   0  -9 592.203 734.091   2
  -3   3  -9 308.370 430.970   3
   0  -3  -9-277.475 418.982   4
   3   0  -6 153006. 2134.46   4
   0  -3  -6 152045. 3276.10   2
   0  -3  -6 159699. 1819.06   3
  -3   3  -6 161758. 3033.73   1
  -3   3  -6 153339. 2844.24   2
   0  -3  -6 154475. 2422.32   4
   3   0  -6 152512. 3214.13   2
   3   0  -6 160899. 2385.52   3
  -3   3  -6 159674. 1691.71   4
   0  -3  -3 98.2662 100.342   3
   0  -3  -3-140.468 238.091   4
   3   0  -3 160.497 209.581   3
  -3   3  -3 48.5445 310.720   1
  -3   3  -3 170.970 105.825   4
  -3   3  -3 99.3311 234.507   2
   0  -3  -3-54.1893 345.563   2
   3   0   0 340061. 1971.63   2
   3   0   3 306.192 280.352   2
  -3   3   3 34.5525 172.101   3
   3   0   3-74.4460 196.182   4
   3   0   6 343925. 4465.93   2
   3   0   6 338630. 3205.86   4
  -4   0 -13 823.758 913.688   2
   4  -4 -13 316.196 808.098   1
   0   4 -13 672.079 656.854   3
   0   4 -13 49.8479 822.918   1
   4  -4 -13-678.582 1024.41   2
   0   4 -13 192.111 881.732   2
  -4   0 -13 862.267 1033.99   1
  -4   0 -10 20995.2 1054.25   4
  -4   0 -10 19724.4 1005.72   3
   4  -4 -10 19259.5 1705.17   2
  -4   0 -10 20378.2 1605.23   1
   0   4 -10 20500.3 1242.65   3
   4  -4 -10 21452.2 1049.48   3
   0   4 -10 19491.6 1400.61   1
   4  -4 -10 20416.7 1227.11   4
  -4   0 -10 20906.0 1610.74   2
   0   4 -10 22929.2 1631.58   2
   0   4  -7-204.610 337.829   3
  -4   0  -7-291.611 495.110   2
   4  -4  -7 58.8193 254.384   3
   0   4  -7 949.128 446.326   2
   0   4  -7 64.6313 136.513   4
   4  -4  -7 226.700 344.033   4
   4  -4  -7 108.608 539.903   2
   0   4  -7-205.478 399.237   1
  -4   0  -7-112.922 294.797   4
   0   4  -4 46606.9 1196.67   1
  -4   0  -4 43725.4 1368.09   2
   4  -4  -4 46988.1 1236.95   4
   0   4  -4 43460.1 589.500   4
   4  -4  -4 47180.5 956.546   3
   4  -4  -4 45595.2 1626.08   2
   0   4  -4 47665.3 565.625   4
  -4   0  -4 48514.5 1097.36   4
  -4   0  -4 49632.6 972.586   3
   4  -4  -4 46732.9 1217.06   1
  -4   0  -1 86.6864 151.817   3
  -4   0  -1 128.286 206.893   2
   4  -4  -1 235.949 198.193   1
   4  -4  -1 146.732 166.099   3
   0   4  -1 119.959 132.068   4
  -4   0  -1-232.902 193.344   4
   0   4  -1 151.329 149.165   2
   0   4  -1 54.2014 188.413   1
   4  -4   2 17103.5 369.136   4
   4  -4   2 16873.3 676.888   1
   4  -4   2 15350.2 394.257   2
   0   4   2 16855.3 774.785   2
  -4   0   2 15766.0 571.875   3
   0   4   2 16525.8 636.166   4
   0   4   5-266.363 438.035   2
   4  -4   5 23.5983 131.163   4
   0   4   5 71.3959 267.842   4
  -4   1 -11 773.487 848.469   1
  -1   4 -11 1266.03 825.844   2
  -1   4 -11 1142.45 588.501   3
   3  -4 -11 1146.14 958.815   2
   4  -3 -11 1337.74 575.702   4
  -4   1 -11 530.358 440.122   3
   4  -3 -11 538.881 695.661   1
   1   3 -11 979.895 537.838   3
   4  -3 -11 719.838 901.244   2
   1   3 -11 1160.97 703.744   1
  -4   1 -11 1554.48 801.507   2
  -3  -1 -11 451.393 750.498   2
  -3  -1 -11 1254.40 801.191   1
   1   3 -11 647.378 690.673   2
  -1   4 -11-333.431 692.269   1
   4  -3 -11 509.880 437.271   3
   3  -4 -11 273.969 487.547   4
   3  -4 -11 574.085 441.614   3
  -3  -1 -11 908.201 483.577   4
  -3  -1 -11-303.147 446.817   3
  -4   1  -8 14682.1 1233.35   1
   1   3  -8 15068.7 938.967   3
   3  -4  -8 15918.4 772.497   3
  -1   4  -8 18311.1 1030.85   3
  -3  -1  -8 17248.8 791.325   3
   4  -3  -8 15459.0 821.425   3
   4  -3  -8 19050.8 1508.60   2
   3  -4  -8 16905.3 1372.80   2
  -3  -1  -8 14119.2 1185.66   2
  -3  -1  -8 14686.4 839.119   4
  -4   1  -8 15522.9 786.687   4
   1   3  -8 16173.4 646.659   4
  -1   4  -8 16128.8 549.578   4
  -1   4  -8 17072.5 1215.12   2
  -1   4  -8 15829.5 1135.14   1
   3  -4  -8 15527.0 958.868   4
  -4   1  -8 16991.4 1247.28   2
   4  -3  -8 16102.2 943.142   4
  -4   1  -8 15629.5 837.018   3
   1   3  -8 17183.0 1288.52   2
   1   3  -8 15797.3 1087.48   1
   1   3  -5 20845.4 895.760   3
  -4   1  -5 19209.0 993.657   2
  -4   1  -5 21519.9 749.617   4
  -1   4  -5 21104.0 968.414   1
   3  -4  -5 21002.4 907.666   4
  -1   4  -5 21666.9 1011.35   2
   4  -3  -5 21986.7 1232.07   2
   3  -4  -5 20590.7 1203.09   2
   1   3  -5 21075.2 905.329   1
   3  -4  -5 20603.6 679.309   3
  -1   4  -5 18329.0 422.491   4
   1   3  -5 20210.6 563.807   4
   4  -3  -5 20272.7 739.949   3
  -3  -1  -5 21524.4 825.767   4
  -3  -1  -5 21881.1 1106.49   2
   4  -3  -5 21484.2 891.920   4
  -3  -1  -2 9577.11 463.042   4
   1   3  -2 11540.1 415.751   1
  -3  -1  -2 10338.4 315.294   3
  -3  -1  -2 10388.2 591.590   2
   1   3  -2 10548.3 297.866   4
   4  -3  -2 11009.2 419.302   3
  -4   1  -2 10623.5 505.000   2
  -1   4  -2 11786.9 494.762   1
  -4   1  -2 9776.46 407.570   3
   1   3  -2 10793.5 515.880   3
   3  -4  -2 11297.1 357.303   3
   3  -4  -2 10829.4 500.892   1
   3  -4  -2 10302.6 639.746   2
   3  -4  -2 11083.5 531.515   4
  -4   1  -2 9755.39 406.160   4
   4  -3  -2 11366.4 438.214   1
  -3  -1   1 7024.26 314.996   4
  -4   1   1 6558.34 336.873   3
   3  -4   1 7383.73 399.299   1
  -1   4   1 7335.25 439.434   2
   4  -3   1 7302.50 403.306   1
   4  -3   1 7442.36 285.156   4
   1   3   1 6566.61 366.845   4
   1   3   1 6253.60 425.442   2
  -3  -1   1 7365.84 362.100   3
  -1   4   1 7637.12 389.968   1
   4  -3   1 8589.09 380.332   3
   1   3   4 7953.35 726.560   2
   1   3   4 8796.94 569.803   4
   3  -4   4 8576.79 264.471   4
  -1   4   4 9532.30 761.250   2
   4  -3   4 9198.33 378.451   4
  -4   1   4 8649.46 543.945   3
   4  -3   4 9461.08 600.266   2
  -1   4   4 9647.87 603.328   4
   4  -3   7 10671.2 532.285   4
  -1   4   7 10731.9 755.174   4
   2   2 -12 10744.0 1262.09   1
  -4   2 -12 11930.4 1452.59   1
  -2  -2 -12 9309.75 1346.84   1
   2   2 -12 10840.1 1048.24   3
   2   2 -12 11840.6 1509.48   2
   4  -2 -12 13242.8 1035.34   3
   4  -2 -12 11065.3 1304.62   1
   2  -4 -12 12023.7 1587.26   2
   2  -4 -12 11350.3 1403.94   1
  -2   4 -12 10805.6 1362.42   1
  -2  -2 -12 11787.9 1506.57   2
  -2   4 -12 11120.1 1380.67   2
  -2   4 -12 12103.1 1099.69   3
   4  -2 -12 12499.5 1605.38   2
  -4   2 -12 10263.2 1344.59   2
   4  -2  -9 56800.9 2522.28   2
   2   2  -9 58905.0 2421.95   2
  -4   2  -9 59810.2 2302.01   2
   2   2  -9 58962.8 1853.33   3
  -2  -2  -9 61212.5 1496.78   3
  -4   2  -9 59783.8 1719.14   3
   2  -4  -9 61714.6 1510.76   3
   4  -2  -9 60464.4 1707.42   3
  -2  -2  -9 56404.4 2462.24   2
  -2   4  -9 58727.5 1851.28   3
   4  -2  -9 64501.6 1856.60   4
  -2   4  -9 59060.9 2263.89   2
   2   2  -9 57798.3 2083.79   1
  -2  -2  -9 61626.8 1766.01   4
  -4   2  -9 60641.4 1447.97   4
  -4   2  -9 61299.5 2419.83   1
  -2   4  -9 58469.9 2230.62   1
  -2   4  -9 56282.1 1048.52   4
   2  -4  -9 58221.9 1849.20   4
   2  -4  -9 54967.6 2534.82   2
   2   2  -9 60838.9 1427.04   4
  -2   4  -6 27275.5 593.467   4
  -2  -2  -6 29224.9 1427.59   2
   2  -4  -6 28090.0 794.569   3
  -4   2  -6 27557.4 1358.46   1
   4  -2  -6 28585.0 1471.64   2
   4  -2  -6 27114.7 951.626   3
   2   2  -6 29244.3 834.392   4
   2  -4  -6 27268.8 1502.19   2
  -2  -2  -6 26223.6 1021.37   4
  -2   4  -6 29003.1 1259.15   2
   4  -2  -6 27618.0 1049.38   4
   2  -4  -6 29641.6 1122.86   4
   2   2  -6 28976.9 1397.66   2
  -4   2  -6 29481.1 1300.90   2
  -2  -2  -6 28000.7 809.550   3
  -4   2  -6 28064.3 836.520   4
   2   2  -6 28398.2 1076.25   3
  -2   4  -6 28251.2 1271.31   1
   2   2  -6 28519.6 1165.96   1
   2  -4  -3 281080. 2669.77   4
   2   2  -3 277347. 2548.59   3
   4  -2  -3 268323. 2247.56   3
  -2  -2  -3 274815. 3111.15   2
  -2  -2  -3 290457. 1541.32   3
   2  -4  -3 287595. 1632.55   3
   2  -4  -3 289591. 2774.84   1
  -4   2  -3 281036. 2629.44   2
   2   2  -3 280021. 2215.46   1
  -4   2  -3 286541. 2364.07   3
   2  -4  -3 284561. 3374.57   2
  -2  -2  -3 285329. 2570.14   4
  -4   2  -3 286171. 1975.88   4
  -2   4  -3 287450. 2780.20   1
  -2  -2   0 32888.6 543.297   1
   4  -2   0 32370.3 555.671   1
   2   2   0 33469.1 708.614   2
   2   2   0 33308.6 560.876   1
  -2  -2   0 32724.5 630.486   4
  -2  -2   0 34278.5 707.631   2
  -2   4   0 34163.5 597.475   2
  -2   4   0 31496.4 617.251   4
   2   2   0 32081.6 631.326   4
   2  -4   0 32019.4 620.196   4
  -4   2   0 31860.6 545.301   1
  -4   2   0 33056.7 622.192   3
   4  -2   0 33628.7 599.141   2
   2  -4   0 32752.2 582.076   2
  -2   4   0 33337.0 643.829   1
   2  -4   0 32303.8 635.485   1
   2   2   0 33403.3 557.072   3
  -2  -2   0 32231.4 548.922   3
   2   2   3 310421. 3315.35   2
  -2   4   3 304233. 3427.91   2
  -2   4   3 291225. 1673.57   3
   4  -2   3 296712. 2703.38   2
   2   2   3 306830. 2655.41   4
   2  -4   3 295355. 2901.42   1
  -4   2   3 302321. 2396.97   3
  -2   4   3 308101. 2775.99   4
   4  -2   3 301720. 2060.48   4
   4  -2   6 31340.2 897.907   4
   2   2   6 30740.0 1092.36   4
   4  -1 -13 2916.36 983.895   1
  -3   4 -13 4513.00 1172.81   1
   1  -4 -13 2804.98 1020.56   1
  -4   3 -13 4139.37 1084.60   2
  -1  -3 -13 3273.43 1164.30   2
   3   1 -13 2999.48 954.164   1
  -4   3 -13 2154.73 1004.56   1
  -1  -3 -13 5630.99 1263.19   1
   1  -4 -13 2706.64 1092.43   2
   4  -1 -13 3080.15 1146.67   2
   3   1 -13 3584.50 1228.00   2
  -3   4 -13 3875.72 1103.02   2
   3   1 -10 11699.9 1301.68   2
  -1  -3 -10 11460.5 1318.25   2
  -1  -3 -10 10051.4 850.885   4
   1  -4 -10 10965.1 708.299   3
   4  -1 -10 11817.0 904.396   3
   3   1 -10 11014.9 749.927   4
   1  -4 -10 9289.14 1301.36   2
  -3   4 -10 10661.7 1135.24   1
   3   1 -10 12661.2 1153.24   1
  -4   3 -10 10294.5 1130.96   2
   3   1 -10 11533.5 923.953   3
  -4   3 -10 10606.5 602.259   4
  -4   3 -10 10558.3 853.154   3
  -3   4 -10 9490.79 865.515   3
   4  -1 -10 10066.2 1109.38   1
  -3   4 -10 9493.22 463.696   4
   1  -4 -10 10459.9 916.711   4
   4  -1 -10 10269.4 830.279   4
  -1  -3 -10 8569.35 634.085   3
  -4   3 -10 9225.09 1151.65   1
   4  -1 -10 9222.20 1231.45   2
  -3   4 -10 9913.09 1114.26   2
  -1  -3  -7 9528.80 706.879   4
   1  -4  -7 11270.1 562.167   3
  -3   4  -7 13112.3 991.495   1
  -3   4  -7 11384.1 906.018   2
   3   1  -7 10403.1 999.535   2
   3   1  -7 10795.2 793.636   1
  -4   3  -7 11701.2 1006.92   1
  -4   3  -7 12902.3 569.786   4
  -1  -3  -7 11793.3 564.977   3
   4  -1  -7 12307.4 735.258   4
  -4   3  -7 11029.8 887.854   2
   3   1  -7 11911.1 780.499   3
   1  -4  -7 12014.4 1075.14   2
  -3   4  -7 10528.3 434.185   4
   3   1  -7 11719.6 637.829   4
   1  -4  -7 9996.90 748.523   4
   4  -1  -7 10171.3 690.852   3
  -1  -3  -7 10742.9 1071.16   2
   4  -1  -7 11441.1 1061.79   2
  -1  -3  -4 6615.76 498.526   4
  -1  -3  -4 7461.79 728.653   2
  -4   3  -4 6909.05 643.303   1
  -4   3  -4 7521.61 550.609   2
   3   1  -4 7902.71 538.103   3
   4  -1  -4 7916.78 491.340   3
   1  -4  -4 6921.33 531.040   4
  -4   3  -4 6990.81 332.191   4
   3   1  -4 7937.91 508.012   1
  -1  -3  -4 6080.35 280.923   3
  -3   4  -4 6687.11 584.000   1
   1  -4  -4 7254.87 753.869   2
  -3   4  -4 6707.00 228.759   4
   1  -4  -4 6866.74 304.758   3
  -3   4  -4 7395.63 533.862   2
   1  -4  -1 8438.25 470.235   2
   1  -4  -1 7073.02 396.740   4
  -4   3  -1 7175.73 392.936   1
   3   1  -1 8133.77 325.738   4
  -1  -3  -1 7998.64 406.021   4
  -3   4  -1 7671.05 398.926   1
  -4   3  -1 7970.92 379.605   3
   3   1  -1 7773.35 369.362   3
   4  -1  -1 8378.80 360.628   3
   3   1  -1 7553.52 400.981   2
  -1  -3  -1 7875.82 402.769   1
   1  -4  -1 7653.66 393.664   1
  -1  -3  -1 6860.04 429.037   2
   3   1   2 12854.7 346.619   3
  -3   4   2 12678.5 372.810   3
   4  -1   2 11970.6 456.525   4
   4  -1   2 11994.7 532.910   2
  -1  -3   2 13079.7 454.795   1
   3   1   2 10720.9 478.543   4
  -4   3   2 12719.8 446.371   1
  -4   3   2 12257.7 434.813   3
   4  -1   2 11743.9 433.777   3
   3   1   2 11549.9 609.562   2
  -3   4   2 12106.4 512.136   1
   1  -4   2 13903.9 553.584   1
   4  -1   5 17575.7 696.987   4
   3   1   5 17860.1 1021.14   2
   4  -1   5 19580.1 1011.30   2
   3   1   5 18489.3 773.469   4
   3   1   8 13002.7 824.203   4
   4  -1   8 15244.0 786.189   4
  -4   4 -11-5.14554 583.037   2
   4   0 -11 76.7839 805.112   2
  -4   4 -11-1009.60 733.442   1
   4   0 -11 951.528 648.102   1
  -4   4 -11-148.967 469.930   3
   4   0 -11 35.4654 457.415   3
   0  -4 -11 816.921 540.228   4
   0  -4 -11 1493.96 892.453   2
  -4   4  -8 66471.0 1159.39   4
   4   0  -8 68469.4 1817.04   3
  -4   4  -8 63978.3 2254.79   1
   0  -4  -8 65973.3 1847.82   4
   4   0  -8 69061.9 1689.68   4
   4   0  -8 63619.1 1979.74   1
   0  -4  -8 60417.3 2415.10   2
  -4   4  -8 70126.6 2229.97   2
   0  -4  -8 66609.2 1337.33   3
   4   0  -8 64474.6 2469.63   2
  -4   4  -5 59.8940 320.064   2
   4   0  -5 157.951 259.847   3
  -4   4  -5-356.892 383.807   1
  -4   4  -5-51.0699 122.478   4
   0  -4  -5 48.9525 467.955   2
   0  -4  -5-81.9613 285.273   4
   4   0  -5-136.064 240.435   4
   0  -4  -5-104.960 151.373   3
  -4   4  -2 17975.6 700.235   1
   0  -4  -2 18768.4 808.750   2
   0  -4  -2 18429.4 712.637   1
  -4   4  -2 18338.8 426.008   2
   0  -4  -2 18009.5 670.387   4
   4   0  -2 18028.2 605.628   3
  -4   4   1 1.71761 167.873   3
   0  -4   1 141.830 167.904   1
   4   0   1 44.2237 143.021   3
   4   0   1-62.0417 221.049   2
   4   0   1-6.70606 185.139   4
   0  -4   1 34.7841 128.017   4
  -4   4   1 80.6979 175.571   1
   0  -4   1 262.709 162.246   2
  -4   4   4 39568.4 897.830   3
   4   0   4 41769.0 1030.84   4
   4   0   4 39683.7 1306.87   2
   4   0   7 46.2163 282.017   4
   0   5 -11-100.085 631.634   2
  -5   0 -11 929.400 844.959   1
   0   5 -11 201.462 481.774   3
   5  -5 -11 1561.11 985.788   2
   5  -5 -11 136.068 426.907   3
  -5   0 -11 419.371 655.246   2
   5  -5 -11 594.233 567.805   4
  -5   0 -11 261.717 403.439   4
   0   5 -11 620.697 699.239   1
  -5   0 -11 168.112 400.584   3
   5  -5  -8 3202.65 863.855   2
   5  -5  -8 2277.32 544.431   4
  -5   0  -8 2710.44 670.576   2
   0   5  -8 2584.12 207.234   4
   0   5  -8 2946.05 583.817   3
   0   5  -8 2933.61 611.922   1
   0   5  -8 3071.00 651.314   2
  -5   0  -8 2807.55 461.486   4
  -5   0  -8 2728.19 452.213   3
   5  -5  -8 2691.54 425.691   3
   0   5  -8 2843.81 204.740   4
  -5   0  -5 52.7273 197.472   3
  -5   0  -5-52.4066 366.029   2
   0   5  -5 77.7111 65.7909   4
   0   5  -5-88.0165 296.668   1
   0   5  -5-240.414 312.057   3
  -5   0  -5-75.4196 260.143   4
   0   5  -5 167.968 86.4479   4
   5  -5  -5 365.061 322.327   1
   5  -5  -5 251.074 322.714   4
   5  -5  -5 161.292 464.955   2
   5  -5  -5-111.440 216.766   3
   0   5  -2 310271. 2323.48   1
  -5   0  -2 298295. 2777.79   2
  -5   0  -2 304341. 2484.52   4
   0   5  -2 309989. 2238.51   2
  -5   0  -2 300038. 2052.43   3
   0   5  -2 313226. 1705.16   4
   5  -5  -2 308097. 2364.49   1
   5  -5  -2 305075. 2168.99   3
   5  -5   1 40.9828 234.226   3
  -5   0   1 178.542 202.303   3
   0   5   1 57.2803 264.852   2
   0   5   1 305.794 259.074   1
   0   5   1 1.40067 215.382   4
   5  -5   1 726.249 275.185   1
   5  -5   4 81184.4 928.656   4
  -5   0   4 82619.2 1621.02   3
   0   5   4 85791.0 2155.82   2
   0   5   4 81792.2 1717.52   4
   5  -4 -12 5787.30 1086.59   1
   1   4 -12 5908.08 1019.17   1
   5  -4 -12 6003.20 1344.15   2
  -5   1 -12 8579.98 1360.69   1
  -5   1 -12 5051.36 1066.17   2
  -1   5 -12 4543.80 1016.07   1
   1   4 -12 5835.19 1198.67   2
   4  -5 -12 5511.43 1153.15   1
  -1   5 -12 6724.33 875.235   3
  -4  -1 -12 6764.05 1218.28   2
   1   4 -12 7267.64 909.266   3
   4  -5 -12 4437.96 1295.00   2
  -4  -1 -12 6485.58 1296.01   1
  -1   5 -12 5416.83 1120.27   2
   4  -5  -9 32001.4 1451.67   4
  -4  -1  -9 30229.7 1238.27   4
   5  -4  -9 31302.4 1204.48   3
  -5   1  -9 30228.5 1149.53   4
   1   4  -9 28949.1 1683.57   2
   1   4  -9 29905.2 1538.51   1
   4  -5  -9 27889.0 1895.15   2
  -5   1  -9 29075.7 1185.44   3
  -5   1  -9 30495.1 1729.18   2
   5  -4  -9 28565.1 1883.97   2
  -5   1  -9 31101.8 1811.16   1
   4  -5  -9 31132.4 1126.62   3
  -1   5  -9 29962.5 1592.07   1
   1   4  -9 27561.8 786.524   4
  -4  -1  -9 26976.0 1711.11   2
   1   4  -9 32393.4 1451.98   3
  -1   5  -9 27674.1 1592.77   2
   5  -4  -9 30691.7 1406.68   4
  -1   5  -9 32645.5 1447.13   3
  -4  -1  -9 29531.3 1144.16   3
  -4  -1  -9 28750.0 1073.99   3
   1   4  -6 62211.3 1676.50   3
   5  -4  -6 61703.4 1348.15   3
   4  -5  -6 61304.1 1661.34   4
  -5   1  -6 57644.5 1838.68   2
   5  -4  -6 58855.0 1619.19   4
  -1   5  -6 62140.6 1721.08   1
   4  -5  -6 59980.3 2210.39   2
  -5   1  -6 60229.8 1373.48   4
   1   4  -6 60601.1 979.824   4
   4  -5  -6 62656.4 1254.14   3
  -4  -1  -6 58914.9 1952.41   2
  -1   5  -6 60045.1 1787.54   2
  -1   5  -6 55093.0 641.003   4
   1   4  -6 63646.4 1662.93   1
  -5   1  -6 62790.1 1422.16   3
   5  -4  -6 61649.3 1633.33   1
   5  -4  -6 58725.3 2174.98   2
  -4  -1  -6 60551.2 1498.13   4
  -4  -1  -6 66848.5 1294.98   3
   4  -5  -6 64474.5 1754.95   1
  -4  -1  -3 197290. 2635.19   2
  -1   5  -3 202538. 2224.79   1
  -5   1  -3 204329. 2445.36   2
  -5   1  -3 200377. 1916.43   3
   4  -5  -3 207330. 2320.64   1
   4  -5  -3 203315. 2993.17   2
   1   4  -3 197544. 2328.10   3
   1   4  -3 200622. 1992.05   1
  -4  -1  -3 205182. 1619.31   3
   4  -5  -3 202860. 1693.10   3
  -4  -1  -3 196050. 2175.52   4
   1   4  -3 206399. 1347.74   4
   4  -5  -3 199560. 2420.10   4
   5  -4  -3 210361. 2108.69   1
  -5   1  -3 204697. 2019.88   4
   5  -4  -3 203552. 1919.10   3
  -5   1   0 44980.7 706.303   1
  -1   5   0 45428.0 889.984   2
   1   4   0 45427.7 737.408   3
   1   4   0 46161.4 943.027   2
   1   4   0 44348.3 804.041   1
  -1   5   0 45547.4 852.656   4
  -4  -1   0 45403.0 770.163   3
  -5   1   0 45979.7 803.680   3
   5  -4   0 43927.6 802.266   1
  -4  -1   0 46839.0 868.284   4
  -4  -1   0 44692.5 930.396   2
   4  -5   0 44976.4 763.969   2
  -5   1   0 43284.0 875.450   2
   4  -5   0 44172.4 846.602   1
   5  -4   0 48358.0 876.889   3
  -5   1   0 43931.9 856.334   4
   4  -5   0 47881.7 864.339   3
   1   4   0 44443.5 855.691   4
  -1   5   0 46633.6 868.082   1
   5  -4   3 361829. 2054.03   4
  -5   1   3 367047. 2941.51   3
  -1   5   3 359506. 3217.83   4
  -4  -1   3 364715. 3078.57   3
   1   4   3 360209. 3832.86   2
   4  -5   3 351848. 3431.50   1
   5  -4   3 360245. 2617.35   2
   1   4   3 363943. 3182.82   4
  -1   5   3 352403. 3874.88   2
   1   4   6 9791.22 726.226   4
  -1   5   6 7891.33 664.901   4
   5  -4   6 8618.52 441.015   4
   2   3 -13 1865.71 911.266   1
   2   3 -13 4554.22 1231.52   2
  -2   5 -13 4201.84 1106.96   1
   3  -5 -13 5002.67 1289.85   2
  -2   5 -13 3579.88 1013.64   2
   3  -5 -13 3650.11 1114.93   1
  -2   5 -13 3906.63 831.537   3
  -5   2 -13 2274.30 974.459   1
   5  -3 -13 3490.38 1283.47   2
  -3  -2 -13 4544.45 1163.38   1
   5  -3 -13 3344.04 1020.82   1
  -5   2 -13 4515.67 1092.20   2
   2   3 -13 4449.41 869.513   3
  -3  -2 -13 2878.90 1138.08   2
  -5   2 -10 18061.9 871.854   4
   5  -3 -10 19780.0 1175.24   4
  -3  -2 -10 17114.4 1500.67   2
  -5   2 -10 16634.7 1366.05   2
   2   3 -10 18254.0 1500.31   2
   3  -5 -10 17928.3 1175.62   4
  -3  -2 -10 17287.8 867.882   3
   2   3 -10 20159.7 1371.13   1
  -2   5 -10 18910.8 1167.96   3
   3  -5 -10 18747.8 1720.68   2
   2   3 -10 19937.2 1198.42   3
  -5   2 -10 17818.5 1533.56   1
   2   3 -10 18581.7 771.121   4
   3  -5 -10 19840.8 948.804   3
  -5   2 -10 18138.9 1033.73   3
   5  -3 -10 20359.7 1067.69   3
  -2   5 -10 17630.5 1391.29   1
   5  -3 -10 21508.2 1754.92   2
  -3  -2 -10 18034.2 1055.33   4
  -2   5 -10 19257.1 1459.28   2
  -5   2  -7 32712.5 1635.91   1
   2   3  -7 31054.4 1542.67   2
   3  -5  -7 32080.3 931.499   3
  -2   5  -7 32752.1 1430.86   2
   2   3  -7 30663.3 1304.15   1
  -3  -2  -7 31621.8 932.922   3
   5  -3  -7 32849.1 1752.60   2
  -3  -2  -7 33238.9 981.751   3
  -5   2  -7 32685.6 1008.26   4
  -5   2  -7 32735.3 1492.40   2
  -3  -2  -7 30143.8 1151.61   4
  -2   5  -7 31341.8 1406.29   1
   5  -3  -7 29591.8 1051.63   3
   5  -3  -7 28829.1 1178.87   4
   2   3  -7 33528.7 1281.45   3
   3  -5  -7 31609.5 1281.79   4
  -3  -2  -7 30248.4 1619.71   2
   3  -5  -7 33633.1 1802.14   2
   2   3  -7 33265.6 912.345   4
  -2   5  -7 28666.0 519.296   4
   5  -3  -4 3982.20 441.148   4
  -3  -2  -4 4472.14 275.491   3
  -2   5  -4 3957.37 477.444   1
  -3  -2  -4 3918.26 427.316   4
   3  -5  -4 4538.98 294.338   3
   3  -5  -4 4605.27 490.747   1
  -5   2  -4 4295.83 342.807   4
  -5   2  -4 4823.72 498.711   2
   2   3  -4 4899.14 484.250   3
   2   3  -4 5233.91 428.731   1
   5  -3  -4 4575.31 376.440   3
   3  -5  -4 4063.50 463.307   4
   3  -5  -4 4294.35 655.483   2
  -5   2  -4 4018.46 377.667   3
   2   3  -4 4950.32 277.719   4
   5  -3  -4 4974.87 416.284   1
  -3  -2  -4 3623.43 548.782   2
   2   3  -1 26658.7 502.340   1
   5  -3  -1 24943.8 505.770   1
   3  -5  -1 26570.6 694.883   1
  -3  -2  -1 25811.5 785.045   2
   3  -5  -1 25658.0 791.891   2
  -5   2  -1 26928.9 648.515   3
   2   3  -1 26674.8 676.954   3
  -3  -2  -1 25019.0 464.541   3
   3  -5  -1 26363.0 547.877   3
   5  -3  -1 27505.8 668.995   3
  -3  -2  -1 26352.4 703.258   4
  -2   5  -1 26349.2 514.675   4
  -5   2  -1 24374.1 595.375   4
   2   3  -1 26642.8 592.292   4
  -2   5  -1 27302.6 688.263   1
   2   3  -1 26880.5 694.935   2
  -2   5  -1 27137.8 466.899   2
  -5   2  -1 25803.1 597.871   2
  -5   2  -1 26549.7 731.802   1
   2   3   2 24207.4 755.778   4
  -2   5   2 25073.9 785.169   1
   5  -3   2 24127.2 567.963   4
  -5   2   2 22520.3 646.011   3
  -2   5   2 22962.2 906.442   2
  -3  -2   2 24390.2 746.513   3
   3  -5   2 23201.8 767.840   1
  -2   5   2 23524.5 402.625   3
   5  -3   2 25155.7 634.994   2
  -2   5   2 24190.8 779.260   4
   2   3   2 24317.0 909.434   2
   5  -3   2 22747.6 680.494   3
  -3  -2   2 23375.9 479.819   1
  -2   5   5 17918.4 862.141   4
   2   3   5 18266.2 1151.72   2
   2   3   5 18526.3 832.075   4
   5  -3   5 18767.7 909.344   2
  -5   2   5 18449.4 802.634   3
   5  -3   5 18718.8 631.001   4
   5  -3   8 36006.3 1034.18   4
   3   2 -11 777.036 774.676   2
   2  -5 -11 1652.53 984.704   2
  -3   5 -11 540.145 659.726   2
  -2  -3 -11 955.570 472.321   4
  -5   3 -11 284.267 468.886   3
  -2  -3 -11 893.243 752.381   2
   5  -2 -11 845.353 463.111   3
  -5   3 -11 665.839 802.986   1
   5  -2 -11 978.332 700.476   1
  -5   3 -11 1166.99 720.640   2
  -3   5 -11 272.742 745.525   1
   3   2 -11 246.901 605.728   1
   5  -2 -11 1445.75 942.477   2
   3   2 -11 834.716 563.170   3
  -3   5 -11 195.977 513.570   3
   2  -5 -11 1003.58 579.640   4
   5  -2 -11 1452.70 568.267   4
  -5   3  -8 36194.5 1648.13   2
  -5   3  -8 36999.9 1819.25   1
  -5   3  -8 39625.3 1068.41   4
  -2  -3  -8 36876.7 1377.77   4
  -3   5  -8 36410.6 660.103   4
  -2  -3  -8 39579.7 1048.69   3
  -3   5  -8 38641.8 1485.19   3
   5  -2  -8 39464.7 1348.46   3
   2  -5  -8 37754.1 2022.81   2
  -3   5  -8 39332.8 1692.29   2
   3   2  -8 38846.5 1559.82   1
   2  -5  -8 37812.1 1037.37   3
  -3   5  -8 40476.1 1758.74   1
   5  -2  -8 36585.8 1980.18   2
   3   2  -8 38575.3 1867.51   2
   2  -5  -8 36133.4 1445.27   4
   5  -2  -8 40259.6 1413.01   4
  -2  -3  -8 35476.9 1844.17   2
   3   2  -8 40090.7 1158.19   4
   3   2  -8 39409.9 1459.79   3
  -3   5  -5 15676.1 811.372   2
   5  -2  -5 16223.9 720.030   3
   3   2  -5 16581.7 805.085   3
  -3   5  -5 17133.5 922.846   1
   5  -2  -5 14413.8 722.887   4
  -5   3  -5 16597.9 869.741   2
   2  -5  -5 15374.0 808.295   4
  -2  -3  -5 15843.0 493.209   3
  -5   3  -5 16360.1 570.751   4
  -5   3  -5 17236.8 1040.51   1
   3   2  -5 15565.1 750.728   1
   2  -5  -5 16168.3 511.295   3
   2  -5  -5 17916.6 1170.56   2
  -2  -3  -5 15789.0 783.825   4
  -2  -3  -5 15436.7 1026.80   2
   2  -5  -2 25210.8 793.259   1
   2  -5  -2 26764.7 445.144   3
  -2  -3  -2 26423.8 788.120   4
  -5   3  -2 24160.3 840.302   1
   3   2  -2 25175.8 479.054   1
   2  -5  -2 25659.8 834.861   4
   2  -5  -2 24819.7 965.340   2
  -2  -3  -2 26713.0 940.713   2
   5  -2  -2 25363.0 712.849   3
   3   2  -2 25664.3 758.946   3
  -5   3  -2 27488.0 736.249   3
  -5   3  -2 26117.6 585.604   4
  -3   5  -2 27110.7 810.589   1
   5  -2  -2 27028.1 495.127   1
  -5   3  -2 26984.0 638.544   2
   3   2  -2 26771.7 597.091   4
   3   2   1 28625.5 490.941   3
  -3   5   1 28545.8 564.656   3
   3   2   1 27486.7 831.416   2
   5  -2   1 28399.5 672.128   3
   5  -2   1 28054.5 651.903   2
  -2  -3   1 29718.9 534.184   1
   2  -5   1 28819.9 460.578   2
   3   2   1 27055.4 726.923   4
  -5   3   1 27018.0 513.666   1
  -2  -3   1 29722.1 717.356   3
   2  -5   1 29064.0 710.188   1
  -2  -3   1 29350.9 607.657   4
  -2  -3   1 29055.9 716.587   2
  -3   5   1 27931.5 804.423   2
  -5   3   1 30039.4 682.932   3
   5  -2   1 28796.3 648.284   4
   2  -5   1 28738.3 529.334   4
  -3   5   1 29116.4 757.254   4
  -3   5   1 28018.2 722.967   1
   5  -2   4 2761.35 294.001   4
   3   2   4 2533.09 374.722   4
  -3   5   4 2860.70 396.986   4
  -3   5   4 2651.54 255.501   3
   5  -2   4 3382.66 439.339   2
  -5   3   4 3256.35 352.009   3
   3   2   4 3142.96 537.157   2
   3   2   7 30511.8 1190.81   4
   5  -2   7 32846.4 1030.33   4
  -1  -4 -12 9598.47 1426.41   1
   4   1 -12 7476.53 917.651   3
   5  -1 -12 8917.79 952.305   3
  -4   5 -12 8379.03 1250.59   1
   4   1 -12 6132.06 1182.17   2
  -5   4 -12 5585.45 1060.39   2
  -5   4 -12 7960.81 934.384   3
   5  -1 -12 7143.81 1357.36   2
   4   1 -12 7365.55 1145.71   1
  -5   4 -12 7630.58 1315.32   1
   1  -5 -12 7269.36 1332.66   2
  -1  -4 -12 9967.59 1418.38   2
   5  -1 -12 7054.03 1142.76   1
  -4   5 -12 6564.21 1077.57   2
  -4   5 -12 9457.27 986.457   3
   1  -5 -12 10382.5 1058.09   4
  -5   4  -9 78339.1 2710.80   1
   4   1  -9 80509.9 1853.87   4
   1  -5  -9 78037.4 2170.57   4
  -5   4  -9 75175.8 2046.54   3
   5  -1  -9 81969.2 2049.79   4
   5  -1  -9 79018.8 2046.89   3
  -1  -4  -9 77919.5 1496.03   3
  -4   5  -9 76241.8 2135.40   3
   5  -1  -9 79427.6 2988.47   2
  -1  -4  -9 73436.6 2092.65   4
  -5   4  -9 74865.8 1355.69   4
   4   1  -9 78257.1 2120.56   3
   4   1  -9 72887.4 2799.77   2
   1  -5  -9 80762.4 1537.98   3
  -5   4  -9 75732.2 2492.20   2
   4   1  -9 75775.7 2332.04   1
  -4   5  -9 79022.3 2509.86   2
   1  -5  -9 74392.2 2904.25   2
  -4   5  -9 76254.5 2571.45   1
  -4   5  -9 69358.1 1005.29   4
   5  -1  -9 81870.1 2437.87   1
  -1  -4  -9 74623.8 2873.91   2
  -5   4  -6 11036.4 464.111   4
   5  -1  -6 8821.13 621.228   3
   4   1  -6 12442.9 783.111   3
  -1  -4  -6 9768.72 417.678   3
  -4   5  -6 11190.3 891.903   1
  -5   4  -6 12080.1 950.768   1
   1  -5  -6 9031.47 691.767   4
  -1  -4  -6 10023.3 957.640   2
   5  -1  -6 9722.54 649.374   4
   1  -5  -6 10934.2 450.283   3
  -5   4  -6 10471.9 777.252   2
   4   1  -6 11541.6 759.731   1
  -4   5  -6 10747.8 771.916   2
   1  -5  -6 10135.7 995.821   2
   4   1  -6 10677.9 602.112   4
  -1  -4  -6 9525.98 695.268   4
  -4   5  -6 9288.51 322.916   4
  -4   5  -3 335506. 3238.50   1
  -5   4  -3 347279. 2534.16   2
  -5   4  -3 339224. 3369.61   1
  -1  -4  -3 342769. 3709.42   2
  -5   4  -3 347119. 2933.23   3
   4   1  -3 338434. 2916.30   3
   5  -1  -3 344458. 2808.07   3
   1  -5  -3 341359. 3770.69   2
   1  -5  -3 344945. 3280.84   1
  -4   5  -3 344117. 2340.25   2
   4   1  -3 339358. 2144.38   1
   1  -5  -3 336530. 3136.50   4
  -5   4  -3 341880. 1938.36   4
  -1  -4  -3 335914. 3056.22   4
   1  -5   0 43865.1 843.013   1
  -4   5   0 44026.4 828.903   3
  -5   4   0 44409.3 832.235   3
   1  -5   0 44294.4 847.044   2
  -4   5   0 42031.1 837.889   1
   5  -1   0 42272.7 809.872   4
   4   1   0 41960.2 914.348   2
  -5   4   0 42414.6 779.291   1
  -1  -4   0 41968.8 812.961   4
   5  -1   0 45690.0 812.989   3
  -1  -4   0 40933.1 872.442   2
   5  -1   0 45052.3 874.628   2
   4   1   0 43544.6 838.073   4
   1  -5   0 42977.3 818.314   4
  -1  -4   0 43931.9 786.172   1
   4   1   0 43562.7 749.156   3
   4   1   3 184433. 2547.37   2
  -4   5   3 180306. 1561.99   3
   5  -1   3 182476. 2340.58   2
  -5   4   3 181013. 1807.32   3
  -1  -4   3 183039. 2025.64   1
   1  -5   3 186100. 2213.51   1
   4   1   3 182674. 2105.30   4
   5  -1   6 60686.3 1893.77   2
   4   1   6 57680.0 1962.50   2
   4   1   6 59431.3 1507.30   4
   5  -1   6 59628.7 1377.12   4
   5  -1   9 25370.1 1088.98   4
   0  -5 -10 35472.5 1581.36   4
   5   0 -10 31179.3 2065.51   2
  -5   5 -10 34411.5 1818.19   2
  -5   5 -10 35070.0 1959.75   1
  -5   5 -10 32064.7 1477.52   3
   5   0 -10 33757.7 1367.91   4
   5   0 -10 33754.7 1495.13   3
   0  -5 -10 32576.0 2088.87   2
   5   0 -10 32601.1 1716.23   1
   0  -5 -10 37024.7 1080.08   3
   0  -5  -7 176.971 357.676   4
   5   0  -7 1218.90 658.275   2
   5   0  -7 829.962 438.661   1
   0  -5  -7 151.323 199.978   3
  -5   5  -7-238.054 453.458   1
   5   0  -7 289.187 377.795   3
  -5   5  -7 79.5643 138.244   4
  -5   5  -7 129.033 390.345   2
   0  -5  -7-125.515 564.707   2
   5   0  -7 372.221 320.080   4
  -5   5  -4 82946.4 1453.37   2
   0  -5  -4 83054.4 1716.33   4
  -5   5  -4 81360.8 878.207   4
   0  -5  -4 80223.6 2078.60   2
   5   0  -4 80680.5 1564.15   3
  -5   5  -4 80043.4 1850.71   1
  -5   5  -1 323.981 280.363   1
   0  -5  -1 198.700 256.993   1
   0  -5  -1-27.7515 231.121   4
  -5   5  -1 293.451 232.423   3
   5   0  -1 312.145 187.869   4
   5   0  -1 115.976 229.215   2
   0  -5  -1 322.021 297.246   2
   5   0  -1 239.985 242.079   3
  -5   5   2 303752. 2385.33   1
   5   0   2 307861. 2527.93   4
   5   0   2 314285. 2105.81   3
   0  -5   2 313054. 2415.01   1
  -5   5   2 318947. 2171.04   3
   5   0   2 314541. 2895.21   2
   5   0   5 290.860 380.777   2
   5   0   5 77.8776 268.785   4
  -5   5   5-152.771 230.985   3
   5   0   8 2754.03 479.103   4
  -6   0 -12 14804.4 1590.39   2
   0   6 -12 17058.4 1666.10   2
   6  -6 -12 17971.9 2051.65   2
   6  -6 -12 17403.8 1372.00   4
   0   6 -12 14359.0 1226.00   3
  -6   0 -12 15117.8 1671.46   1
   0   6 -12 16682.3 1511.13   1
   0   6  -9 366.400 494.001   3
   6  -6  -9 287.334 464.271   4
   0   6  -9-487.860 552.309   1
   6  -6  -9 92.7541 302.914   3
  -6   0  -9-124.871 357.615   4
  -6   0  -9-130.118 551.748   2
  -6   0  -9-145.585 359.034   3
   6  -6  -9-561.711 718.478   2
   0   6  -9 140.016 581.235   2
   0   6  -6 62443.9 1774.15   3
   6  -6  -6 61091.5 1713.12   1
   6  -6  -6 62088.0 1772.90   4
  -6   0  -6 63601.0 1554.89   4
   0   6  -6 54613.7 1593.20   1
   6  -6  -6 64257.8 1361.50   3
  -6   0  -6 65056.1 1388.94   3
   6  -6  -6 56564.8 2200.73   2
  -6   0  -6 63481.0 2002.13   2
   0   6  -3-21.0313 107.234   4
   0   6  -3 55.8475 241.648   1
  -6   0  -3-32.2782 264.081   4
  -6   0  -3 36.0531 183.280   3
   0   6  -3 132.107 193.058   2
   6  -6  -3 519.811 479.232   2
   6  -6  -3 289.569 284.518   1
   6  -6  -3 66.8229 228.019   3
   6  -6  -3 248.937 317.009   4
  -6   0  -3 122.267 321.058   2
   6  -6   0 4639.01 362.150   1
   0   6   0 4903.70 389.693   1
  -6   0   0 4924.91 337.802   3
   6  -6   0 4978.01 408.460   3
   0   6   0 4854.96 373.279   4
  -6   0   0 4005.60 387.876   2
   0   6   0 4482.23 404.456   2
   6  -6   3 373.682 185.588   2
  -6   0   3 603.982 270.550   3
   6  -6   3 317.751 145.932   4
   0   6   3 203.929 270.377   4
   0   6   3 1272.24 463.689   2
   6  -6   3 855.610 372.166   1
   6  -6   6 62506.1 908.450   4
   0   6   6 63786.9 1784.45   4
   5  -6 -10 858.189 528.327   4
  -5  -1 -10 325.815 713.379   1
   6  -5 -10-153.781 797.455   2
  -1   6 -10 355.250 667.415   2
   6  -5 -10 1875.81 503.512   3
   1   5 -10 1258.67 727.305   2
   5  -6 -10 272.561 823.869   2
   1   5 -10 1175.94 518.906   3
   5  -6 -10 1264.39 372.305   3
  -6   1 -10 666.420 380.775   4
  -5  -1 -10 1702.37 822.091   2
   6  -5 -10 617.989 503.205   4
   1   5 -10 1273.94 601.865   1
  -1   6 -10 430.886 452.664   3
  -5  -1 -10 946.844 453.782   4
  -5  -1 -10 608.928 339.393   3
  -6   1 -10 752.882 831.088   1
  -6   1 -10 1297.29 426.766   3
  -6   1 -10 1764.42 741.878   2
  -1   6 -10-187.192 571.889   1
  -5  -1  -7 61324.2 2155.78   2
   6  -5  -7 59088.2 1438.74   3
   5  -6  -7 58904.8 1328.80   3
  -1   6  -7 56985.1 1777.72   3
   1   5  -7 61035.2 1790.79   3
   6  -5  -7 55050.8 2308.07   2
  -6   1  -7 58715.0 1484.11   3
  -5  -1  -7 59571.9 1578.50   4
   5  -6  -7 59973.2 1812.05   4
  -1   6  -7 56536.7 1901.29   2
  -1   6  -7 59000.4 1819.69   1
   1   5  -7 57769.2 1733.97   1
  -6   1  -7 59905.3 2039.60   2
   1   5  -7 57854.6 2016.83   2
  -6   1  -7 57541.8 1461.80   4
  -5  -1  -7 58464.2 1337.40   3
   1   5  -7 56761.4 857.501   4
   6  -5  -7 57811.8 1757.66   4
   5  -6  -7 57163.5 2345.78   2
   1   5  -7 53775.3 898.078   4
  -6   1  -4 4543.66 387.763   3
  -1   6  -4 5469.08 523.771   1
   6  -5  -4 5909.05 759.120   2
  -6   1  -4 4550.97 552.573   2
  -6   1  -4 4551.58 421.009   4
   6  -5  -4 5339.75 547.555   4
   5  -6  -4 4054.68 498.265   4
  -5  -1  -4 4141.91 317.986   3
   1   5  -4 4704.20 247.953   4
   5  -6  -4 4676.90 352.157   3
   1   5  -4 5487.92 461.898   1
   6  -5  -4 5755.14 425.431   3
  -5  -1  -4 4131.37 557.497   2
   1   5  -4 6095.02 550.043   3
  -5  -1  -4 4379.33 445.550   4
   5  -6  -4 3705.37 662.875   2
   5  -6  -4 5125.74 505.438   1
   6  -5  -4 5301.44 468.282   1
  -1   6  -1 204154. 1939.04   1
   6  -5  -1 205624. 1823.56   1
   1   5  -1 206688. 2003.63   2
  -5  -1  -1 197246. 2192.92   2
  -6   1  -1 203541. 1830.83   3
   5  -6  -1 197391. 2228.87   2
   1   5  -1 200882. 1747.21   1
   5  -6  -1 198330. 1805.87   3
  -1   6  -1 203306. 1693.13   4
   6  -5  -1 206035. 1928.61   3
  -1   6  -1 207420. 1773.38   2
  -6   1  -1 201677. 1952.27   4
  -5  -1  -1 196259. 2073.63   4
  -5  -1  -1 200947. 1640.43   3
   5  -6  -1 203848. 1969.40   1
  -6   1  -1 198304. 2020.15   2
   1   5  -1 205532. 1771.52   4
   6  -5   2 5977.99 508.323   1
  -1   6   2 5323.87 557.265   2
  -5  -1   2 5057.47 413.792   3
   6  -5   2 5114.07 264.852   2
  -1   6   2 5284.85 467.052   4
  -1   6   2 6031.62 491.937   1
   6  -5   2 5178.42 296.501   4
   5  -6   2 6247.35 484.019   1
   1   5   2 5620.78 549.782   2
   1   5   2 5020.21 437.452   4
  -6   1   2 5102.56 385.565   3
  -1   6   5 8490.15 661.148   4
   1   5   5 9610.67 677.616   4
   1   5   5 8595.43 852.964   2
   5  -6   5 7659.55 248.913   4
  -6   1   5 9579.83 665.002   3
   6  -5   5 9030.11 404.492   4
   2   4 -11 7150.57 1115.98   2
   6  -4 -11 6572.49 1295.16   2
   4  -6 -11 7757.42 955.149   4
  -6   2 -11 8737.05 1135.94   2
  -2   6 -11 8884.33 1095.93   1
   6  -4 -11 8427.88 931.869   4
  -4  -2 -11 5867.09 1131.45   2
  -2   6 -11 7940.04 1124.14   2
  -4  -2 -11 4977.95 1089.96   1
   2   4 -11 6813.85 847.108   3
  -2   6 -11 8410.23 954.616   3
   2   4 -11 8697.50 1052.73   1
   6  -4 -11 9548.97 830.106   3
  -4  -2 -11 8040.08 813.214   4
  -6   2 -11 7280.31 766.654   3
   4  -6 -11 6682.59 1227.46   2
   6  -4 -11 8261.00 1084.27   1
  -6   2 -11 9646.65 1307.24   1
   2   4  -8 659.102 459.326   3
  -6   2  -8 156.263 493.880   2
   6  -4  -8-37.6396 300.710   3
   4  -6  -8 61.8028 372.864   4
  -4  -2  -8-9.68152 251.371   3
   2   4  -8 266.675 482.384   2
  -6   2  -8 460.727 338.345   3
  -4  -2  -8 151.147 618.987   2
  -2   6  -8 748.593 426.049   3
   4  -6  -8 325.553 652.762   2
   2   4  -8 538.923 207.423   4
   4  -6  -8 436.030 271.030   3
   6  -4  -8 264.136 365.707   4
   2   4  -8 333.483 210.819   4
  -2   6  -8 612.335 511.402   1
  -4  -2  -8 381.705 308.459   3
  -4  -2  -8 676.227 411.717   4
  -6   2  -8-317.601 639.376   1
  -2   6  -8-392.769 507.252   2
  -6   2  -8 36.2667 291.702   4
   2   4  -8 1072.20 459.664   1
   6  -4  -8-675.445 665.247   2
   6  -4  -5 42493.9 1746.85   2
  -2   6  -5 43183.0 1358.96   1
  -4  -2  -5 41516.2 1251.95   4
   6  -4  -5 40677.8 1098.67   3
   4  -6  -5 43134.4 1760.22   2
   4  -6  -5 43055.3 905.775   3
   2   4  -5 41993.8 777.814   4
   6  -4  -5 42897.6 1298.23   4
   4  -6  -5 44812.8 1405.13   1
  -4  -2  -5 43891.4 891.212   3
  -6   2  -5 43322.9 1054.90   4
   6  -4  -5 42036.9 1205.37   1
  -6   2  -5 41826.1 1137.14   3
  -2   6  -5 44903.7 1334.10   2
  -6   2  -5 42637.1 1407.76   2
   2   4  -5 43665.8 1327.71   3
   2   4  -5 41444.3 1174.66   1
   4  -6  -5 41988.2 1352.56   4
  -4  -2  -5 45840.8 1636.01   2
  -2   6  -2 92308.5 1438.74   1
   2   4  -2 93493.1 1438.31   2
  -2   6  -2 92955.2 1015.56   2
  -6   2  -2 91652.3 1649.31   1
  -2   6  -2 93108.6 860.682   4
   4  -6  -2 92847.9 1099.08   3
   2   4  -2 92782.4 1109.60   4
   2   4  -2 91697.2 1497.17   3
   4  -6  -2 93712.9 1813.01   2
  -4  -2  -2 94086.4 950.822   3
   6  -4  -2 94958.7 1154.72   1
  -4  -2  -2 92991.5 1506.83   4
  -4  -2  -2 90274.9 1716.37   2
   6  -4  -2 91354.5 1330.00   3
   4  -6  -2 92669.6 1478.47   1
  -6   2  -2 90062.0 1384.03   2
  -6   2  -2 89292.3 1291.08   4
   2   4  -2 96078.4 1125.29   1
  -6   2  -2 89350.9 1320.35   3
   4  -6  -2 91884.4 1619.49   4
   6  -4   1 36324.0 661.214   2
  -4  -2   1 34985.4 771.651   4
   6  -4   1 37066.2 908.851   1
   6  -4   1 37574.6 767.172   4
  -6   2   1 35581.8 815.493   3
  -6   2   1 35243.6 506.921   1
   4  -6   1 35750.9 703.142   4
   4  -6   1 37721.4 905.329   1
   2   4   1 34538.5 880.060   4
  -2   6   1 33905.6 978.522   2
   2   4   1 34615.9 1011.32   2
  -4  -2   1 36312.2 486.734   1
   2   4   1 35138.0 560.142   3
  -4  -2   1 35756.4 843.599   3
   6  -4   1 36093.5 869.619   3
  -2   6   1 35136.3 630.430   3
  -2   6   1 35788.2 912.818   4
  -2   6   1 33046.6 868.271   1
  -4  -2   1 38352.4 951.787   2
  -2   6   4 22327.6 942.383   4
   2   4   4 20858.8 1104.07   2
  -2   6   4 22237.9 1164.36   2
  -6   2   4 21365.6 819.436   3
   2   4   4 21051.8 892.817   4
   6  -4   4 21251.0 614.623   4
   6  -4   4 22594.1 847.716   2
   4  -6   4 22855.9 1031.80   1
   2   4   7 53115.3 1657.25   4
   6  -4   7 60751.9 1227.74   4
  -6   3 -12 28852.5 2109.98   1
   6  -3 -12 28958.5 1888.93   1
  -6   3 -12 25112.1 1878.23   2
   3   3 -12 25812.6 2089.89   2
  -3  -3 -12 26883.8 2126.62   2
   3  -6 -12 30295.5 1695.32   4
   3   3 -12 29662.9 1608.45   3
   6  -3 -12 31767.7 1518.46   3
   3  -6 -12 27604.1 2247.22   2
  -3   6 -12 28581.3 1590.28   3
   3   3 -12 25386.7 1747.28   1
  -3   6 -12 25495.5 1826.55   2
   6  -3 -12 27231.5 2262.81   2
  -3  -3 -12 28540.9 2078.15   1
  -3   6 -12 25959.6 1857.68   1
  -3   6  -9 892.162 610.449   1
   3   3  -9 333.264 278.015   4
   3  -6  -9 206.927 311.430   3
  -6   3  -9 883.902 769.113   1
  -3   6  -9 166.372 459.237   3
  -3  -3  -9 116.592 274.214   3
   3  -6  -9 755.906 810.888   2
   3  -6  -9 410.097 434.717   4
  -3  -3  -9 752.202 351.442   3
  -3   6  -9 253.179 505.771   2
  -6   3  -9 1120.32 568.171   2
   6  -3  -9 441.695 453.397   4
  -3  -3  -9-57.9204 667.602   2
   6  -3  -9 525.719 374.613   3
   6  -3  -9 215.620 682.000   2
   3   3  -9 510.364 458.519   3
  -6   3  -9 82.3887 273.352   4
  -3  -3  -9 681.763 463.233   4
   3   3  -9 43.4657 470.093   1
   3   3  -9 118.616 648.938   2
   3  -6  -6 85064.7 2604.39   2
   6  -3  -6 80096.5 2497.29   2
   3   3  -6 81836.8 1895.68   3
  -6   3  -6 87463.2 1460.75   4
   6  -3  -6 84985.9 1698.83   3
   6  -3  -6 82616.9 1879.39   4
  -6   3  -6 88625.9 1832.29   3
  -3  -3  -6 80857.7 1845.76   4
  -3   6  -6 84106.1 1981.04   2
  -3  -3  -6 86731.7 1272.02   3
   3  -6  -6 86348.0 2026.81   4
  -6   3  -6 85736.9 2386.10   1
   3   3  -6 82905.7 1792.82   1
  -3   6  -6 84976.6 2135.53   1
   3  -6  -6 87908.3 1296.62   3
   3   3  -6 83196.0 1393.54   4
  -3  -3  -6 83433.1 2412.49   2
  -6   3  -6 83934.2 2080.73   2
  -3  -3  -6 86288.3 1235.32   3
  -3  -3  -3 2407.33 361.590   4
  -6   3  -3 2153.56 252.307   4
   3   3  -3 2762.29 270.861   1
   3  -6  -3 2429.17 402.250   1
  -6   3  -3 2166.17 311.425   3
   3   3  -3 2590.36 251.864   4
  -3  -3  -3 2818.24 487.923   2
   3  -6  -3 2161.14 377.970   4
  -3  -3  -3 2078.95 153.902   3
   6  -3  -3 2562.94 253.309   1
  -3   6  -3 2315.95 374.868   1
  -6   3  -3 2073.69 313.369   2
   3   3  -3 2414.58 367.627   3
  -6   3  -3 2197.45 462.592   1
   3  -6  -3 2787.82 207.626   3
   6  -3  -3 2748.80 330.586   3
   3  -6  -3 1845.11 469.035   2
  -3   6   0 395264. 2714.15   1
  -3   6   0 396779. 2484.67   3
  -6   3   0 393155. 2260.41   1
   6  -3   0 394246. 2331.20   1
  -6   3   0 392493. 2615.20   3
   3  -6   0 394457. 2440.21   2
   3   3   0 405288. 2663.25   4
   6  -3   0 402752. 2505.63   2
  -3   6   0 396380. 2600.61   4
  -3   6   0 397413. 2497.46   2
   3   3   0 395802. 2300.47   3
   3  -6   0 399230. 2589.89   4
   3   3   0 400061. 2946.20   2
  -3  -3   0 397058. 2640.71   4
  -3  -3   0 392123. 2319.56   3
   3   3   0 392603. 2307.49   1
  -3  -3   0 391860. 2877.25   2
   6  -3   3 2399.61 265.417   4
   6  -3   3 2284.56 324.567   2
  -3   6   3 2404.07 365.603   4
   3   3   3 3216.99 498.997   2
  -6   3   3 2248.22 314.856   3
  -3  -3   3 2280.00 272.146   1
   3  -6   3 2221.16 371.882   1
  -3   6   3 2853.78 494.211   2
   3   3   3 2389.81 361.090   4
  -3   6   3 2693.76 197.452   3
   6  -3   6 91531.8 2184.03   2
  -6   3   6 84343.9 1833.83   3
   6  -3   6 89089.8 1526.80   4
   3   3   6 87120.7 1918.58   4
   6  -3   9 179.438 308.317   4
  -4   6 -10 2922.67 761.278   2
   4   2 -10 2444.03 441.588   4
   4   2 -10 2339.90 826.828   2
  -2  -4 -10 3470.67 650.619   4
   6  -2 -10 2485.88 585.820   4
   2  -6 -10 2671.67 422.616   3
  -6   4 -10 2725.54 578.323   3
  -6   4 -10 2781.89 358.728   4
  -4   6 -10 2845.60 594.320   3
   6  -2 -10 2062.24 712.223   1
  -2  -4 -10 2440.37 378.398   3
  -6   4 -10 2021.98 678.281   2
  -6   4 -10 4070.08 881.028   1
   6  -2 -10 2534.08 531.741   3
  -4   6 -10 2835.07 845.932   1
   4   2 -10 2849.36 700.902   1
   2  -6 -10 2698.34 663.413   4
   4   2 -10 2462.55 607.487   3
   6  -2 -10 1622.15 881.828   2
   2  -6 -10 3216.79 942.030   2
  -2  -4 -10 2297.49 835.324   2
   2  -6  -7 62047.1 1127.14   3
   4   2  -7 59111.7 1699.51   1
   6  -2  -7 59616.9 1587.73   3
  -2  -4  -7 63191.6 1134.76   3
   6  -2  -7 60303.5 2309.49   2
  -2  -4  -7 61155.5 1722.51   4
  -4   6  -7 58269.4 1957.87   1
  -6   4  -7 61446.1 1189.29   4
  -6   4  -7 61525.4 1907.57   2
   4   2  -7 61956.5 1738.57   3
  -2  -4  -7 58054.1 2255.60   2
   4   2  -7 58678.6 1375.97   4
   6  -2  -7 58261.6 1644.09   4
  -2  -4  -7 59338.4 1049.61   3
   2  -6  -7 58297.4 1762.85   4
  -4   6  -7 59236.0 1823.67   2
   2  -6  -7 60980.1 2390.66   2
  -6   4  -7 59305.8 2125.56   1
   2  -6  -4 23405.8 1004.55   1
   6  -2  -4 24835.5 734.458   1
  -2  -4  -4 22114.1 916.053   4
  -2  -4  -4 24872.1 1185.53   2
  -4   6  -4 24403.5 795.034   2
  -6   4  -4 22017.7 833.189   2
   2  -6  -4 21871.4 1175.78   2
   4   2  -4 24118.1 723.092   1
  -6   4  -4 24109.3 881.149   3
   6  -2  -4 24066.2 847.376   3
  -6   4  -4 22423.0 614.849   4
   2  -6  -4 23941.8 475.532   3
   2  -6  -4 22309.4 954.558   4
  -6   4  -4 22845.8 1092.08   1
  -4   6  -4 24370.3 1012.54   1
   4   2  -4 24001.3 921.255   3
  -6   4  -1 38592.0 664.540   2
  -2  -4  -1 39726.9 1045.81   2
   4   2  -1 39679.4 820.704   4
  -2  -4  -1 36230.0 912.402   4
   2  -6  -1 40473.3 950.703   1
  -4   6  -1 41433.6 958.068   1
   2  -6  -1 41142.9 1049.95   2
   4   2  -1 40951.3 869.383   3
   6  -2  -1 38193.3 856.728   3
  -2  -4  -1 37085.8 591.881   3
  -6   4  -1 37543.4 903.153   1
  -6   4  -1 40078.7 891.460   3
  -2  -4  -1 40414.9 937.115   1
   6  -2  -1 38429.3 532.240   1
   4   2  -1 38904.8 517.236   1
   2  -6  -1 38880.1 954.648   4
   4   2  -1 39422.6 963.678   2
  -4   6   2 93398.8 1492.20   1
   4   2   2 93389.2 1771.22   2
  -2  -4   2 96024.3 1186.71   1
  -6   4   2 92398.7 1164.20   1
  -2  -4   2 95397.1 1089.59   4
  -4   6   2 96021.6 1102.12   3
  -6   4   2 96083.2 1349.20   3
   2  -6   2 93139.2 838.167   4
  -4   6   2 93420.5 1803.63   2
  -4   6   2 92705.0 1578.43   4
   4   2   2 95336.5 988.727   3
   6  -2   2 97472.9 1339.90   4
   2  -6   2 96196.8 1508.46   1
   6  -2   2 94555.6 1345.70   3
   4   2   2 92459.7 1499.05   4
   6  -2   2 95826.5 1462.32   2
   4   2   5 40860.4 1228.99   4
   6  -2   5 39149.6 1031.62   4
   4   2   5 38781.4 1543.95   2
  -4   6   5 38658.7 891.271   3
  -6   4   5 38249.5 1078.23   3
   6  -2   5 38661.5 1355.09   2
   6  -2   8 401.095 308.378   4
  -5   6 -11 4832.44 902.142   2
   1  -6 -11 4809.34 1179.26   2
   6  -1 -11 5015.44 706.839   4
  -1  -5 -11 5269.49 788.896   4
   6  -1 -11 4360.99 908.359   1
   5   1 -11 2893.40 753.534   1
  -1  -5 -11 4960.67 1159.98   2
  -6   5 -11 5050.86 732.161   3
   5   1 -11 5398.65 1101.02   2
   1  -6 -11 4975.12 824.106   4
  -6   5 -11 4919.34 974.460   1
  -5   6 -11 4120.59 955.044   1
  -6   5 -11 4140.54 839.276   2
  -5   6 -11 6088.38 833.523   3
   5   1 -11 5850.88 797.793   3
   6  -1 -11 5010.10 733.109   3
   6  -1 -11 4937.14 1144.09   2
   1  -6  -8 4596.08 377.237   3
  -6   5  -8 5788.75 853.016   1
  -5   6  -8 2880.67 171.848   4
  -1  -5  -8 4687.95 392.365   3
   6  -1  -8 3330.71 527.203   4
   6  -1  -8 5468.51 639.056   3
  -1  -5  -8 3635.00 897.122   2
  -5   6  -8 5152.22 722.445   2
  -6   5  -8 3806.71 634.467   2
   1  -6  -8 3308.34 761.466   2
  -1  -5  -8 4327.88 347.539   3
  -1  -5  -8 4426.23 602.533   4
   5   1  -8 4556.78 672.685   1
   5   1  -8 3361.30 558.245   3
   5   1  -8 4385.73 504.843   4
  -6   5  -8 4148.63 337.808   4
   1  -6  -8 4090.04 606.892   4
   5   1  -8 4785.26 870.331   2
   6  -1  -8 4361.86 847.774   2
   6  -1  -8 4270.34 655.857   1
  -5   6  -8 3588.55 691.504   1
   5   1  -5 12592.2 644.155   1
  -1  -5  -5 10860.8 973.607   2
  -6   5  -5 12856.3 735.498   2
  -5   6  -5 12399.1 853.755   1
   1  -6  -5 11110.6 771.231   4
   1  -6  -5 12317.3 1006.55   2
   1  -6  -5 11363.8 806.428   1
  -1  -5  -5 11361.1 759.153   4
  -1  -5  -5 9788.06 276.647   3
   6  -1  -5 11689.5 684.376   3
  -6   5  -5 11607.8 428.379   4
   1  -6  -5 11520.8 343.710   3
   5   1  -5 10850.8 694.236   3
  -1  -5  -5 9841.69 299.854   3
  -6   5  -5 12394.2 885.967   1
  -5   6  -5 12114.2 684.801   2
   1  -6  -2 9032.54 672.271   2
   1  -6  -2 6680.30 512.668   4
  -1  -5  -2 7997.78 544.767   1
  -1  -5  -2 7378.66 618.438   2
  -6   5  -2 7311.71 281.522   2
   6  -1  -2 7081.13 464.077   3
   5   1  -2 7420.56 418.078   4
  -6   5  -2 6487.92 517.316   1
  -5   6  -2 7657.02 545.368   1
  -1  -5  -2 6269.83 482.284   4
   1  -6  -2 8077.22 542.680   1
   5   1  -2 6081.05 436.699   3
  -6   5  -2 7346.03 482.679   3
  -5   6  -2 7501.88 485.938   3
   5   1   1 202817. 1670.59   3
  -5   6   1 193775. 1940.44   1
   1  -6   1 210811. 1722.88   2
   6  -1   1 203496. 1846.07   3
  -5   6   1 200148. 1790.36   3
  -6   5   1 200816. 1768.50   1
   1  -6   1 194361. 1653.72   4
   6  -1   1 205911. 2105.37   2
   5   1   1 208825. 2110.12   4
   1  -6   1 205067. 1959.28   1
   6  -1   1 206272. 1992.60   4
   5   1   1 203424. 2265.10   2
  -1  -5   1 204821. 1786.13   1
  -6   5   1 199897. 1888.29   3
  -1  -5   1 211783. 1985.65   2
  -1  -5   1 200337. 1733.14   4
  -5   6   4 3585.05 317.123   3
   6  -1   4 3777.66 391.306   4
   5   1   4 3598.68 398.565   4
  -6   5   4 4391.09 383.654   3
   6  -1   4 2766.76 441.204   2
   1  -6   4 4652.40 507.639   1
   5   1   4 3956.82 566.497   2
  -1  -5   4 4753.99 496.790   1
   5   1   7 53291.8 1548.57   4
   6  -1   7 53055.7 1439.68   4
  -6   6 -12 37316.3 2112.81   2
   6   0 -12 35712.7 2035.45   1
   6   0 -12 43265.3 1902.44   3
  -6   6 -12 37706.1 1754.68   3
   6   0 -12 44099.1 2712.29   2
   0  -6 -12 40885.6 2620.88   2
   0  -6 -12 43225.2 1984.37   4
  -6   6 -12 41488.0 2425.62   1
   6   0  -9 630.308 502.232   1
  -6   6  -9 274.263 534.490   1
   0  -6  -9 523.341 695.739   2
   0  -6  -9 74.3376 487.054   4
   6   0  -9 897.500 482.055   3
  -6   6  -9 905.480 540.472   2
   6   0  -9-259.329 610.047   2
  -6   6  -9 7.61879 102.880   4
   6   0  -9 166.403 352.051   4
   0  -6  -9 51.4176 220.883   3
   6   0  -6 65483.7 1538.77   1
  -6   6  -6 59887.3 832.488   4
   0  -6  -6 65373.2 2276.95   2
   6   0  -6 64134.2 1642.20   3
  -6   6  -6 66115.6 1679.06   2
   0  -6  -6 59694.3 796.292   3
   0  -6  -6 61377.1 1731.48   4
  -6   6  -6 62573.4 1965.54   1
   6   0  -3 540.286 143.055   1
   0  -6  -3 965.280 482.380   2
  -6   6  -3 437.057 362.665   1
  -6   6  -3 699.901 186.612   2
   6   0  -3 622.241 289.717   3
   0  -6  -3-114.741 276.436   4
  -6   6  -3 586.373 295.397   3
   0  -6  -3 899.924 356.454   1
   0  -6   0 8966.36 522.739   2
   6   0   0 8908.80 446.653   3
   0  -6   0 9362.61 463.347   1
   6   0   0 9042.72 519.735   2
   0  -6   0 8655.21 464.497   4
   6   0   0 8315.01 461.032   4
  -6   6   0 8714.92 470.111   3
  -6   6   0 8143.02 471.872   1
   6   0   3 33.7898 216.467   4
   0  -6   3 60.6813 102.005   4
  -6   6   3 50.0099 195.775   3
   6   0   3 137.964 207.115   3
  -6   6   3-73.8073 262.468   1
   6   0   3-74.6144 312.992   2
   0  -6   3 157.747 266.818   1
  -6   6   6 51680.2 1254.55   3
   6   0   6 53808.2 1443.26   4
   6   0   6 53820.2 1868.68   2
   0   7 -10 61836.2 2317.10   1
   0   7 -10 66284.1 2249.49   3
  -7   0 -10 58488.0 2539.45   2
  -7   0 -10 67438.1 2856.56   1
  -7   0 -10 60459.5 1805.68   4
   7  -7 -10 60382.1 2980.94   2
   7  -7 -10 67663.4 2354.92   4
   0   7 -10 62470.8 2541.82   2
  -7   0 -10 61107.5 1629.14   3
   7  -7 -10 64881.4 1753.87   3
  -7   0  -7-234.676 338.231   4
  -7   0  -7-56.1659 532.895   2
   0   7  -7 292.004 380.075   1
   7  -7  -7-355.669 311.667   3
   0   7  -7 583.993 424.870   3
   7  -7  -7-81.8978 388.453   4
  -7   0  -7 125.220 278.656   3
   7  -7  -7 865.470 694.516   2
   0   7  -4 14206.3 380.018   4
   7  -7  -4 17044.8 1116.76   2
   7  -7  -4 16457.6 882.494   4
   0   7  -4 16833.7 783.743   1
  -7   0  -4 15319.9 629.983   3
   7  -7  -4 14864.2 759.407   1
  -7   0  -4 15745.8 755.875   4
   0   7  -4 15915.0 708.057   2
  -7   0  -4 15128.1 896.587   2
   7  -7  -4 15360.3 663.133   3
  -7   0  -1 160.138 268.227   2
   0   7  -1 373.210 251.047   2
   0   7  -1 170.429 255.230   1
  -7   0  -1 5.88270 203.978   3
  -7   0  -1-63.7394 239.962   4
   7  -7  -1 207.988 268.910   3
   7  -7  -1 168.107 251.385   1
   0   7  -1 44.5229 197.120   4
   7  -7   2 163762. 2348.69   1
   0   7   2 167957. 2344.24   1
   0   7   2 168894. 2628.39   2
   0   7   2 166344. 2308.02   4
  -7   0   2 173230. 2139.48   3
   0   7   5-210.744 362.637   4
   7  -7   5 47.4335 120.992   4
  -7   0   5 626.192 328.470   3
   1   6 -11 9889.85 1255.39   2
  -1   7 -11 11999.9 1228.79   1
  -1   7 -11 13174.3 1381.81   2
   7  -6 -11 13532.9 1195.82   4
   7  -6 -11 14249.7 970.139   3
   6  -7 -11 12168.4 1615.22   2
   1   6 -11 12696.8 1239.39   1
   7  -6 -11 12831.5 1627.99   2
  -7   1 -11 12357.6 1338.13   2
  -6  -1 -11 13195.4 1498.58   1
   6  -7 -11 12501.6 1177.13   4
   1   6 -11 14652.4 1181.33   3
   6  -7 -11 13226.8 876.254   3
  -7   1 -11 11958.0 872.502   3
  -6  -1 -11 11940.2 1358.31   2
  -6  -1 -11 13366.4 964.262   4
  -1   7 -11 13073.8 1112.46   3
  -7   1 -11 12388.1 1480.64   1
   1   6  -8 6508.28 754.161   3
   6  -7  -8 5664.62 994.973   2
  -7   1  -8 5094.44 581.879   3
   6  -7  -8 6268.15 728.222   4
   7  -6  -8 7094.85 616.851   3
  -7   1  -8 6372.99 892.417   2
   1   6  -8 6411.58 865.335   2
  -7   1  -8 5892.53 567.626   4
  -6  -1  -8 6263.62 630.009   4
   6  -7  -8 6680.51 555.219   3
  -1   7  -8 6871.95 853.230   2
  -6  -1  -8 5999.86 527.236   3
   1   6  -8 5333.14 684.348   1
  -1   7  -8 6136.52 776.461   1
  -1   7  -8 6540.31 794.235   3
   1   6  -8 4708.98 221.420   4
   7  -6  -8 5917.31 706.972   4
  -6  -1  -8 6511.63 924.172   2
   7  -6  -8 5100.82 928.433   2
  -7   1  -8 6069.72 973.901   1
   1   6  -8 4004.00 212.684   4
  -1   7  -5 3450.96 504.630   1
   7  -6  -5 3772.06 383.394   3
  -6  -1  -5 3487.99 343.151   3
   1   6  -5 3048.13 208.344   4
   7  -6  -5 2570.68 470.339   4
  -7   1  -5 3537.00 373.319   3
   7  -6  -5 3176.41 429.334   1
  -6  -1  -5 3014.96 563.241   2
   6  -7  -5 3198.86 351.712   3
   1   6  -5 3821.97 534.126   3
  -7   1  -5 2600.24 506.029   2
   6  -7  -5 2348.22 624.703   2
  -6  -1  -5 3251.64 430.565   4
  -7   1  -5 2791.69 365.997   4
   1   6  -5 3444.04 462.861   1
   7  -6  -5 2939.27 669.705   2
   6  -7  -5 3146.52 541.001   4
   6  -7  -5 3400.51 502.759   1
   1   6  -2 16157.6 515.141   4
  -6  -1  -2 13988.2 664.460   4
   7  -6  -2 15493.4 588.401   1
  -7   1  -2 14040.6 638.473   4
  -7   1  -2 15455.9 580.820   3
   7  -6  -2 16161.8 623.743   3
  -1   7  -2 15583.7 477.379   4
  -6  -1  -2 14788.4 750.369   2
   1   6  -2 14981.6 574.538   1
  -6  -1  -2 15743.8 515.834   3
   6  -7  -2 15029.8 743.966   4
   1   6  -2 15188.1 625.355   2
   6  -7  -2 16277.2 870.036   2
   6  -7  -2 15791.1 648.674   1
  -7   1  -2 15763.8 706.764   2
  -1   7  -2 15522.3 629.196   1
   6  -7  -2 14423.7 561.337   3
  -1   7  -2 15170.9 529.436   2
  -1   7   1 12496.8 680.175   2
   1   6   1 10678.9 381.611   3
   7  -6   1 10308.6 583.057   3
   6  -7   1 11816.5 630.409   1
   1   6   1 11983.8 677.194   2
   1   6   1 11291.8 588.594   1
  -7   1   1 10111.6 274.506   1
   1   6   1 10583.1 581.304   4
  -7   1   1 10811.7 536.590   3
  -6  -1   1 11621.3 539.870   4
   7  -6   1 10881.4 596.853   1
  -1   7   1 11411.1 626.639   1
   7  -6   1 10747.1 363.915   2
  -6  -1   1 10627.9 531.862   3
  -6  -1   1 9210.18 558.349   2
  -1   7   1 10764.2 589.720   4
   1   6   4 28352.0 1100.01   4
  -1   7   4 27617.3 1109.83   4
   7  -6   4 27672.3 666.840   4
  -6  -1   4 27305.1 1044.86   3
   7  -6   4 26193.5 819.105   2
   1   6   4 25965.7 1292.47   2
   6  -7   4 28291.0 1215.39   1
  -1   7   4 25816.4 1322.43   2
  -7   1   4 28618.8 1016.25   3
   6  -7   4 24449.5 484.012   4
   7  -6   7 10392.8 461.979   4
   7  -5 -12 2424.61 882.567   1
  -5  -2 -12 3797.44 1120.88   1
  -2   7 -12 3974.21 1062.27   2
  -2   7 -12 3485.07 757.682   3
  -7   2 -12 4182.64 1049.34   2
   5  -7 -12 2709.69 1078.15   2
   5  -7 -12 4952.10 910.408   4
  -7   2 -12 2465.19 990.415   1
  -2   7 -12 2665.65 957.118   1
   2   5 -12 2939.94 848.139   1
  -5  -2 -12 2547.74 989.492   2
   2   5 -12 3356.38 716.971   3
   2   5 -12 3828.45 1100.00   2
   7  -5 -12 610.535 927.074   2
   5  -7  -9 9482.38 928.098   4
  -5  -2  -9 5171.37 632.180   4
   2   5  -9 5546.33 358.199   4
   7  -5  -9 4670.83 1004.63   2
  -5  -2  -9 6170.80 968.977   2
  -2   7  -9 6437.31 869.544   1
   5  -7  -9 6368.56 1064.65   2
  -7   2  -9 7989.60 649.925   4
  -7   2  -9 6742.06 941.723   2
   2   5  -9 7320.57 977.769   2
   5  -7  -9 8006.24 609.141   3
   2   5  -9 7389.65 811.183   3
  -2   7  -9 6105.89 840.142   2
  -5  -2  -9 7290.66 539.484   3
   2   5  -9 6974.33 802.538   1
   2   5  -9 5148.07 324.932   4
  -2   7  -9 5941.36 781.727   3
   7  -5  -9 5462.84 746.142   4
  -7   2  -9 5206.89 970.069   1
   7  -5  -9 6609.64 647.850   3
   5  -7  -6 22047.4 1415.27   2
  -5  -2  -6 20239.2 1251.85   2
   5  -7  -6 20353.6 1069.55   4
   7  -5  -6 19998.4 857.861   3
  -2   7  -6 22261.4 1068.03   2
   7  -5  -6 20713.7 1038.68   4
   2   5  -6 22377.1 636.219   4
  -7   2  -6 21824.9 929.202   3
   2   5  -6 20977.7 574.415   4
  -7   2  -6 22732.1 1167.74   2
  -2   7  -6 21219.1 1069.34   1
   2   5  -6 21933.6 996.852   1
  -7   2  -6 20535.5 823.942   4
   7  -5  -6 22053.3 1442.85   2
  -7   2  -6 21717.5 1300.44   1
  -5  -2  -6 20299.6 966.147   4
   2   5  -6 21512.2 1048.60   3
   7  -5  -6 23969.4 1028.68   1
  -5  -2  -6 21822.4 695.526   3
   5  -7  -6 23345.1 767.059   3
   5  -7  -3 109345. 1981.36   4
  -5  -2  -3 103708. 1789.09   4
   7  -5  -3 103874. 1465.59   1
   2   5  -3 106073. 1232.85   4
   5  -7  -3 102285. 1777.48   1
  -5  -2  -3 102949. 2070.65   2
  -2   7  -3 108935. 1350.50   2
   2   5  -3 104589. 1735.36   2
  -7   2  -3 103956. 1777.48   2
   2   5  -3 104766. 1832.69   3
   7  -5  -3 102356. 1583.51   3
  -2   7  -3 101135. 1737.08   1
   5  -7  -3 104581. 1309.51   3
   5  -7  -3 104764. 2307.71   2
  -7   2  -3 102663. 1570.04   3
  -5  -2  -3 108615. 1179.97   3
   2   5  -3 105149. 1435.26   1
  -7   2  -3 103336. 1567.15   4
   5  -7   0 554604. 3483.25   1
   2   5   0 543632. 2899.58   3
  -2   7   0 541198. 3461.32   1
  -5  -2   0 553868. 3071.15   3
  -7   2   0 519165. 3345.43   2
   7  -5   0 526856. 3395.14   3
   2   5   0 550141. 3424.61   4
   2   5   0 549228. 3179.92   1
   7  -5   0 548138. 3166.74   1
   2   5   0 549848. 3779.59   2
  -5  -2   0 542392. 3408.03   4
   5  -7   0 548129. 3372.77   4
  -2   7   0 555860. 3369.55   4
   5  -7   0 540567. 3295.40   3
  -2   7   0 547992. 3449.09   2
   5  -7   0 533842. 3002.89   2
  -5  -2   0 556462. 3780.45   2
   2   5   3 187444. 2937.93   2
  -5  -2   3 191003. 2423.03   3
  -7   2   3 184926. 2259.30   3
   5  -7   3 187041. 2609.05   1
  -2   7   3 185650. 2978.69   2
   7  -5   3 187637. 1906.23   2
   5  -7   3 187485. 1143.28   4
  -2   7   3 185377. 2561.69   4
   2   5   3 189237. 2514.56   4
   7  -5   3 186388. 1766.88   4
   2   5   6 35725.7 1351.82   4
  -7   2   6 34451.1 1244.28   3
   7  -5   6 37425.6 903.609   4
   4  -7 -10 3379.08 991.147   2
   3   4 -10 5360.69 814.567   1
   7  -4 -10 3934.81 698.275   4
  -7   3 -10 4922.95 514.154   4
  -3   7 -10 4476.71 842.131   1
  -3   7 -10 4723.72 726.547   3
   3   4 -10 5955.07 987.011   2
   7  -4 -10 4757.20 1047.48   2
  -7   3 -10 4509.67 653.056   3
  -4  -3 -10 4793.89 1033.49   2
  -3   7 -10 5164.20 875.179   2
  -4  -3 -10 4888.54 480.865   3
   4  -7 -10 4775.39 527.926   3
   3   4 -10 4733.60 731.804   3
  -7   3 -10 4338.18 948.172   1
  -4  -3 -10 4203.57 654.992   4
   4  -7 -10 5758.30 820.888   4
   7  -4 -10 4420.60 640.378   3
  -7   3 -10 5619.00 899.854   2
   7  -4  -7 8583.27 643.005   3
   4  -7  -7 7001.12 737.745   4
  -7   3  -7 7177.08 915.001   1
   7  -4  -7 7593.47 1082.30   2
   3   4  -7 6174.26 659.654   3
  -7   3  -7 7007.85 789.948   2
  -7   3  -7 7444.74 522.400   4
  -4  -3  -7 6854.14 427.540   3
   3   4  -7 6926.15 458.085   4
  -7   3  -7 6038.67 599.695   3
   4  -7  -7 6661.87 453.432   3
  -4  -3  -7 6678.91 419.467   3
  -3   7  -7 7966.09 764.169   2
  -3   7  -7 7193.87 780.735   1
   7  -4  -7 6695.22 661.542   4
   4  -7  -7 5599.59 891.149   2
   7  -4  -7 6407.83 643.710   1
  -4  -3  -7 7851.03 948.500   2
   3   4  -7 7942.34 438.812   4
   3   4  -7 7788.56 669.859   1
  -4  -3  -7 5305.43 611.480   4
   3   4  -4 10563.9 533.162   1
   4  -7  -4 9760.71 893.369   2
   4  -7  -4 12222.4 451.087   3
  -7   3  -4 10654.3 537.602   4
   4  -7  -4 13027.5 773.147   1
   4  -7  -4 11684.0 752.184   4
   7  -4  -4 11260.5 565.310   1
   3   4  -4 11569.9 718.972   3
  -4  -3  -4 10918.1 872.442   2
  -3   7  -4 11971.6 737.385   1
  -7   3  -4 13398.6 890.023   1
  -4  -3  -4 10450.9 696.011   4
  -4  -3  -4 11609.1 370.056   3
  -7   3  -4 10751.2 612.367   3
   7  -4  -4 11409.9 608.933   3
  -7   3  -4 10727.6 660.588   2
   3   4  -4 11446.9 455.889   4
   3   4  -1 167737. 1763.57   4
   3   4  -1 165702. 1840.34   3
   4  -7  -1 168129. 2119.95   2
  -3   7  -1 167868. 1963.70   1
   3   4  -1 166856. 2027.85   2
  -7   3  -1 170459. 1945.89   1
   4  -7  -1 168033. 1971.17   1
  -4  -3  -1 164132. 1437.85   3
  -4  -3  -1 167184. 2007.25   4
   4  -7  -1 168688. 2070.04   4
  -4  -3  -1 164431. 2180.54   2
   7  -4  -1 164969. 1869.56   3
  -7   3  -1 168963. 1741.62   2
  -3   7  -1 172303. 1469.06   2
  -7   3  -1 169010. 1809.05   4
  -3   7  -1 167088. 1609.96   4
   7  -4  -1 163500. 1480.40   1
  -7   3  -1 170059. 1876.02   3
   3   4  -1 169889. 1469.10   1
   4  -7  -1 168871. 1632.87   3
   4  -7   2 72918.0 883.244   4
  -3   7   2 75583.3 904.127   3
   7  -4   2 74372.9 1355.59   3
   7  -4   2 74525.4 1168.37   4
  -4  -3   2 74613.7 1161.16   4
   3   4   2 74438.9 750.142   3
   7  -4   2 74414.3 1533.07   1
   3   4   2 76511.9 1464.88   4
   4  -7   2 75752.5 1495.49   1
  -4  -3   2 73495.3 855.738   1
  -7   3   2 75561.6 1305.53   3
  -3   7   2 75786.4 1695.60   2
  -3   7   2 74289.3 1447.66   1
  -7   3   2 73034.0 863.673   1
   7  -4   2 73930.0 1168.28   2
   3   4   2 75097.8 1684.92   2
  -3   7   2 75096.0 1526.26   4
   3   4   5 8451.04 668.589   4
   3   4   5 8407.19 835.894   2
   7  -4   5 8744.47 662.271   2
   7  -4   5 9710.49 496.425   4
  -7   3   5 8554.87 598.097   3
  -3   7   5 8487.30 668.791   4
   7  -4   8 8429.58 557.122   4
   4   3 -11 2185.72 634.079   3
   4   3 -11 3602.34 785.183   1
   7  -3 -11 3208.31 840.766   1
   7  -3 -11 4151.82 744.949   4
  -7   4 -11 2629.71 899.326   1
  -4   7 -11 3069.96 796.071   2
  -4   7 -11 1588.89 726.865   1
   7  -3 -11 4413.47 668.712   3
  -4   7 -11 3055.43 688.678   3
   4   3 -11 4448.15 998.933   2
  -7   4 -11 2887.90 640.669   3
  -3  -4 -11 4053.42 1016.98   2
   3  -7 -11 3532.36 1064.77   2
   3  -7 -11 4168.31 788.825   4
  -7   4 -11 1770.60 746.909   2
  -3  -4 -11 2194.54 640.734   4
   7  -3 -11 3851.80 1061.03   2
   4   3  -8 11431.4 609.191   4
   3  -7  -8 8562.50 1136.07   2
   4   3  -8 11178.8 892.997   3
  -4   7  -8 11756.0 1053.78   1
  -3  -4  -8 10505.8 837.049   4
   4   3  -8 9840.43 623.493   4
   3  -7  -8 10276.7 855.089   4
  -4   7  -8 11630.9 932.287   2
   3  -7  -8 12410.6 587.249   3
   7  -3  -8 11256.3 858.827   4
  -7   4  -8 10113.2 1074.10   1
  -7   4  -8 10506.6 592.911   4
   7  -3  -8 10758.4 782.641   3
   4   3  -8 10102.1 851.537   1
  -3  -4  -8 9645.23 1107.59   2
  -3  -4  -8 10525.1 510.956   3
  -7   4  -8 11608.7 989.896   2
   4   3  -8 10392.0 1088.23   2
   7  -3  -8 10011.5 1187.79   2
  -3  -4  -8 10177.6 529.242   3
   4   3  -5 8019.59 442.586   4
   7  -3  -5 8136.25 579.964   3
  -7   4  -5 8717.64 642.996   2
   4   3  -5 7214.99 505.083   1
   7  -3  -5 9156.72 550.165   1
   3  -7  -5 8615.97 742.759   1
  -3  -4  -5 7064.78 627.822   4
  -7   4  -5 8546.74 458.148   4
  -4   7  -5 8154.81 579.491   2
  -4   7  -5 7683.40 723.075   1
  -3  -4  -5 7613.59 832.777   2
  -7   4  -5 9071.58 635.749   3
  -3  -4  -5 7786.32 295.452   3
   3  -7  -5 8443.67 365.208   3
  -7   4  -5 8608.38 841.490   1
   4   3  -5 8709.19 649.876   3
   3  -7  -5 8405.90 901.287   2
   3  -7  -5 5681.66 600.344   4
  -3  -4  -2 57066.4 1300.42   4
  -3  -4  -2 57831.0 673.737   3
  -7   4  -2 58188.3 1040.03   4
  -3  -4  -2 60473.6 1533.04   2
   3  -7  -2 58818.9 1342.67   4
  -7   4  -2 59750.7 1380.97   1
   4   3  -2 62131.9 1314.64   2
  -7   4  -2 61219.3 1000.25   2
  -4   7  -2 59959.1 1299.08   1
  -7   4  -2 60948.5 1231.02   3
   3  -7  -2 61548.5 842.733   3
   7  -3  -2 59306.2 764.664   1
   4   3  -2 61036.1 1056.67   4
   7  -3  -2 59043.9 1166.15   3
   4   3  -2 61034.9 750.620   1
   3  -7  -2 62525.9 1332.81   1
   3  -7  -2 61233.4 1530.42   2
   4   3  -2 60800.9 1260.81   3
   7  -3   1 182450. 1950.27   3
   7  -3   1 177051. 1830.60   4
  -4   7   1 174551. 2080.63   4
  -4   7   1 178978. 2209.45   2
  -7   4   1 170936. 1485.69   1
   4   3   1 177629. 2061.00   4
   3  -7   1 172884. 1615.39   4
   3  -7   1 176575. 1379.08   2
   4   3   1 171985. 2298.51   2
   3  -7   1 184580. 2048.57   1
  -3  -4   1 179907. 1488.99   1
  -3  -4   1 178700. 1949.72   3
  -3  -4   1 177520. 2038.70   2
   4   3   1 177028. 1461.00   3
  -7   4   1 176079. 1870.93   3
  -4   7   1 177749. 2017.53   1
  -4   7   1 175097. 1644.73   3
  -3  -4   1 177628. 1801.25   4
   7  -3   1 169593. 1811.33   2
   7  -3   1 172027. 2017.08   1
  -7   4   4 14465.2 675.561   3
   3  -7   4 16573.7 867.138   1
   4   3   4 14789.0 760.766   4
   4   3   4 16070.4 976.270   2
  -4   7   4 14583.3 475.696   3
   7  -3   4 14007.1 620.665   4
  -4   7   4 14272.9 783.723   4
   7  -3   4 15373.8 794.920   2
   4   3   7 6335.70 665.125   4
   7  -3   7 5811.86 726.709   2
   7  -3   7 6504.34 518.111   4
   2  -7 -12 8182.46 1499.26   2
  -7   5 -12 9980.13 1258.46   2
  -7   5 -12 9519.29 961.209   3
   7  -2 -12 10422.9 1618.86   2
   5   2 -12 10580.0 1550.66   2
  -7   5 -12 9349.62 1345.79   1
  -2  -5 -12 10234.9 1537.48   2
  -5   7 -12 9364.55 1227.95   2
   7  -2 -12 11506.6 1048.09   3
   5   2 -12 10843.8 1091.82   3
  -5   7 -12 7226.47 1200.42   1
  -5   7 -12 7568.02 943.680   3
   7  -2 -12 7902.57 1139.36   1
   2  -7 -12 10786.1 1118.51   4
   5   2 -12 11028.8 1273.74   1
  -2  -5 -12 10107.1 1018.43   4
   5   2  -9 49595.4 1779.48   3
   5   2  -9 52516.6 2414.49   2
   7  -2  -9 52871.9 1946.50   1
   2  -7  -9 47302.7 1833.13   4
  -7   5  -9 47776.5 1958.25   2
  -2  -5  -9 49073.4 2419.55   2
   7  -2  -9 48491.1 1647.58   3
   5   2  -9 51835.8 1490.35   4
   7  -2  -9 46943.7 2405.17   2
  -2  -5  -9 47594.2 1754.74   4
   2  -7  -9 50496.4 2544.06   2
  -7   5  -9 47560.3 1065.49   4
  -5   7  -9 47704.2 2088.57   1
   2  -7  -9 52039.3 1144.87   3
  -2  -5  -9 50822.4 1039.96   3
   7  -2  -9 51296.3 1757.88   4
  -5   7  -9 51182.5 1959.35   2
   5   2  -9 52950.5 1859.08   1
  -7   5  -9 47423.5 2203.95   1
  -7   5  -6 37823.6 1325.27   2
   2  -7  -6 33349.7 1706.11   2
  -7   5  -6 39034.6 1625.93   1
   5   2  -6 35718.9 1142.43   1
  -2  -5  -6 33696.1 1649.48   2
   7  -2  -6 33849.7 1201.53   4
  -5   7  -6 35533.2 1463.03   1
  -5   7  -6 35258.3 1236.46   2
   7  -2  -6 34306.8 1197.22   3
   2  -7  -6 34121.3 1344.96   4
   5   2  -6 35742.7 1295.02   3
  -7   5  -6 36848.7 858.800   4
  -2  -5  -6 35346.9 1324.14   4
  -2  -5  -6 36169.1 619.503   3
  -7   5  -6 35399.2 1284.91   3
   2  -7  -6 36874.0 719.028   3
   5   2  -3 165921. 1344.31   1
  -2  -5  -3 171176. 2826.30   2
  -5   7  -3 174581. 2462.93   1
   5   2  -3 176106. 2298.46   3
  -5   7  -3 171416. 1350.28   2
  -7   5  -3 179106. 1783.25   2
   2  -7  -3 180212. 2515.45   1
   5   2  -3 181100. 1923.01   4
   2  -7  -3 176142. 2902.51   2
  -7   5  -3 171791. 2577.03   1
  -7   5  -3 173548. 1690.75   4
   7  -2  -3 169630. 2179.19   3
   2  -7  -3 169979. 2453.64   4
   7  -2  -3 172888. 1377.53   1
  -7   5  -3 175209. 2268.75   3
  -2  -5  -3 168531. 2384.27   4
  -5   7   0 526422. 3263.81   3
   7  -2   0 526308. 3291.46   4
  -7   5   0 513445. 3273.86   3
  -5   7   0 527157. 3352.78   1
   2  -7   0 527773. 3284.28   4
  -7   5   0 515938. 3031.23   1
   7  -2   0 521150. 3227.44   3
   5   2   0 519510. 3324.52   4
   5   2   0 525408. 2984.14   3
   2  -7   0 534264. 3377.92   1
  -2  -5   0 522643. 3293.70   4
   2  -7   0 539732. 3324.18   2
  -2  -5   0 519523. 3590.41   2
   7  -2   0 536425. 3456.74   2
  -2  -5   0 536574. 3096.89   1
  -2  -5   3 106039. 1494.08   1
  -5   7   3 101358. 1789.69   1
  -7   5   3 102452. 1536.01   3
   7  -2   3 101008. 1807.37   2
   5   2   3 107410. 1821.03   4
   7  -2   3 101665. 1534.24   3
   2  -7   3 102325. 1804.45   1
   7  -2   3 101643. 1591.30   4
  -7   5   3 99969.7 1458.02   1
   5   2   3 103343. 1170.57   3
   5   2   3 99813.7 2097.16   2
  -5   7   3 98144.8 1248.62   3
   5   2   6 20725.1 977.168   4
   7  -2   6 21147.3 862.098   4
  -7   5   6 19160.8 848.973   3
   7  -2   6 18613.7 1092.50   2
  -5   7   6 19983.2 716.352   3
   7  -2   9 5833.19 624.601   4
  -6   7 -10 1994.09 779.505   1
   7  -1 -10 2379.87 574.132   3
   7  -1 -10 2241.93 885.695   2
   6   1 -10 2833.78 720.306   1
   1  -7 -10 788.496 805.618   2
  -7   6 -10 2100.99 810.602   1
  -6   7 -10 2995.76 644.470   3
   6   1 -10 2053.84 464.733   4
   1  -7 -10 3779.99 708.905   4
   7  -1 -10 2632.56 690.984   1
  -6   7 -10 2409.17 691.135   2
  -1  -6 -10 2291.01 970.177   2
   7  -1 -10 2250.99 567.811   4
   6   1 -10 3499.24 942.477   2
  -7   6 -10 3258.42 698.561   2
   6   1 -10 2109.66 618.959   3
  -1  -6 -10 2439.96 624.378   4
   1  -7  -7 11507.0 411.699   3
  -7   6  -7 12102.5 1031.56   1
  -7   6  -7 11822.2 844.762   2
   6   1  -7 10691.3 794.957   3
   1  -7  -7 10367.6 830.795   4
  -1  -6  -7 12438.9 1184.49   2
  -6   7  -7 10646.5 953.637   1
   1  -7  -7 9772.70 1090.85   2
   7  -1  -7 9940.10 729.989   4
  -1  -6  -7 10033.8 358.087   3
   7  -1  -7 10010.6 746.130   3
   7  -1  -7 11932.3 811.753   1
   6   1  -7 11036.6 693.381   4
   6   1  -7 10935.3 743.725   1
  -1  -6  -7 9740.73 830.313   4
  -7   6  -7 10796.1 439.048   4
  -6   7  -7 10700.3 800.315   2
  -1  -6  -7 9364.60 378.288   3
   7  -1  -4 30875.3 718.155   1
   6   1  -4 29818.6 1043.13   3
  -6   7  -4 30397.6 794.950   2
  -7   6  -4 28336.7 1041.23   3
   1  -7  -4 29012.8 1141.11   4
  -1  -6  -4 29628.7 1205.69   1
   6   1  -4 29905.0 702.150   1
   7  -1  -4 30074.3 1023.91   3
  -1  -6  -4 28089.1 1091.83   4
  -6   7  -4 29255.8 1193.15   1
  -7   6  -4 29890.2 837.599   2
  -7   6  -4 27616.1 1178.91   1
   1  -7  -4 30513.1 1206.56   1
  -1  -6  -4 28727.5 1364.73   2
  -6   7  -1 9241.32 548.255   1
  -1  -6  -1 8418.41 610.351   2
   7  -1  -1 8392.85 536.161   2
  -1  -6  -1 7528.65 526.058   4
  -7   6  -1 7748.97 505.475   1
   7  -1  -1 7708.07 463.591   4
  -7   6  -1 6436.08 488.147   3
   1  -7  -1 7401.79 583.930   2
  -6   7  -1 8267.17 502.940   3
   1  -7  -1 6745.10 505.916   4
   6   1  -1 7921.68 465.272   4
   7  -1  -1 6633.87 452.207   3
   6   1  -1 8777.93 539.285   2
   6   1  -1 7433.22 478.236   3
  -1  -6  -1 8802.39 519.706   1
   1  -7  -1 7942.67 545.477   1
   1  -7   2 13634.6 506.457   2
   7  -1   2 13483.9 568.132   3
  -7   6   2 13428.1 572.006   3
   6   1   2 13656.8 640.278   4
   7  -1   2 15849.7 767.649   2
  -6   7   2 13888.7 537.688   3
  -1  -6   2 13678.3 474.347   4
  -1  -6   2 13741.9 596.449   2
   1  -7   2 13858.6 428.951   4
  -6   7   2 12894.4 613.076   1
  -1  -6   2 15886.5 584.457   1
   6   1   2 13982.1 511.343   3
   6   1   2 13019.3 737.360   2
  -7   6   2 13660.2 562.280   1
   7  -1   2 13468.4 602.411   4
   1  -7   2 14454.2 617.616   1
   1  -7   5 1577.47 403.924   1
   7  -1   5 1434.52 451.134   2
   6   1   5 1574.58 465.976   2
   7  -1   5 2409.05 375.979   4
  -7   6   5 1782.85 327.436   3
  -6   7   5 1875.78 302.091   3
   6   1   5 2271.41 380.590   4
   7  -1   8 3760.38 520.710   4
   0  -7 -11 487.255 578.556   4
   0  -7 -11 425.346 923.086   2
  -7   7 -11 706.428 628.792   2
   7   0 -11-463.462 587.125   1
   7   0 -11 109.238 477.546   3
   7   0 -11 439.975 748.127   2
  -7   7 -11 473.530 559.760   3
  -7   7 -11-1090.52 839.571   1
   7   0  -8 64170.0 1842.95   1
   7   0  -8 59879.3 1709.26   4
   0  -7  -8 59188.6 875.198   3
   7   0  -8 58904.8 1827.60   3
   0  -7  -8 60311.8 2564.01   2
   0  -7  -8 66435.2 2061.51   4
  -7   7  -8 59897.1 2254.67   1
  -7   7  -8 62991.2 1949.68   2
   7   0  -5 306.295 331.562   3
  -7   7  -5-91.9843 250.731   2
  -7   7  -5 180.414 422.718   1
   0  -7  -5 136.459 522.596   2
   0  -7  -5 186.474 360.972   4
   7   0  -5-163.696 228.746   1
  -7   7  -2 186074. 2370.13   3
   7   0  -2 181690. 2116.78   4
   0  -7  -2 181641. 2443.31   4
   0  -7  -2 181527. 2751.26   2
   7   0  -2 183027. 2194.49   3
   7   0  -2 180627. 2454.43   2
  -7   7   1 75.5696 235.422   3
   0  -7   1 290.070 249.342   1
  -7   7   1-37.3592 228.572   1
   7   0   1 21.0070 224.632   4
   0  -7   1-181.048 219.613   4
   7   0   1 515.781 253.506   3
   7   0   1 373.041 264.268   2
   0  -7   1 92.2909 235.910   2
   0  -7   4 19067.3 845.831   1
   7   0   4 17909.3 809.863   4
  -7   7   4 19213.0 697.650   3
   7   0   7 57.8437 345.085   4
  -7   7   7 86.9404 301.855   3
  -8   0 -11-136.201 692.730   2
   0   8 -11 508.417 747.852   2
  -8   0 -11 51.3640 437.551   4
   0   8 -11 141.582 643.934   1
  -8   0 -11-642.733 822.413   1
   0   8 -11 295.282 526.561   3
   8  -8 -11-46.6310 852.019   2
   8  -8 -11-543.956 457.676   3
   8  -8 -11 55.5098 619.444   4
   0   8  -8 29701.3 1407.26   1
  -8   0  -8 30328.1 1119.52   3
  -8   0  -8 31595.4 1262.53   4
   8  -8  -8 32095.5 1170.64   3
   0   8  -8 30584.0 1585.33   2
   8  -8  -8 29437.0 1476.98   4
   8  -8  -8 30103.5 1932.15   2
  -8   0  -8 26133.5 1575.49   2
   0   8  -8 29689.9 1455.78   3
   8  -8  -5 270.048 268.844   3
  -8   0  -5 94.4099 242.492   3
  -8   0  -5 111.024 295.929   4
   8  -8  -5 787.023 578.425   2
  -8   0  -5 850.009 459.694   2
   8  -8  -5 682.595 378.367   1
   8  -8  -5 218.122 373.823   4
   0   8  -5-26.3311 321.160   1
   0   8  -5 546.086 307.789   2
   0   8  -2 127241. 1605.03   4
   0   8  -2 131827. 1837.80   2
  -8   0  -2 122629. 2121.97   2
  -8   0  -2 128775. 1672.91   3
   8  -8  -2 123924. 1785.65   3
   8  -8  -2 130849. 1867.90   1
  -8   0  -2 126466. 1996.17   4
   0   8  -2 127124. 1810.29   1
   0   8   1 291.243 326.520   1
  -8   0   1 281.152 279.561   4
   8  -8   1 270.953 318.782   3
  -8   0   1 348.198 139.240   1
  -8   0   1 785.374 360.484   2
   8  -8   1 596.468 343.927   1
  -8   0   1 931.754 294.729   3
   0   8   1 475.968 328.466   2
   0   8   1 248.041 300.886   4
   8  -8   4 68780.0 1009.85   4
   8  -8   4 71414.0 1958.23   1
   0   8   4 69463.8 1811.31   4
   0   8   4 72485.8 2170.55   2
  -8   0   4 70913.5 1682.27   3
   8  -8   7 10.8579 89.6530   4
   7  -8 -12 5099.30 975.240   4
  -7  -1 -12 3800.20 1023.09   2
  -7  -1 -12 3040.76 1017.12   1
   1   7 -12 4715.82 914.049   3
  -1   8 -12 3535.80 1005.02   2
   7  -8 -12 3402.38 1285.90   2
  -8   1 -12 4231.70 1137.05   1
   8  -7 -12 5355.20 919.917   4
   1   7 -12 6146.49 1069.51   1
   1   7 -12 4082.47 1072.77   2
  -1   8 -12 4130.84 931.066   1
   8  -7 -12 4506.96 1294.44   2
  -8   1 -12 4112.88 1060.01   2
  -1   8 -12 4867.33 878.270   3
  -8   1  -9 18033.5 988.760   4
   8  -7  -9 17418.7 965.278   3
   1   7  -9 19792.2 1425.42   2
   1   7  -9 19882.0 1257.27   1
   7  -8  -9 16689.3 1574.55   2
  -7  -1  -9 18349.6 849.708   3
  -8   1  -9 20105.9 1450.47   2
  -1   8  -9 17046.6 1196.09   3
   8  -7  -9 18524.1 1240.39   4
   1   7  -9 17381.9 1219.22   3
  -7  -1  -9 17004.4 1034.60   4
   8  -7  -9 15709.1 1621.98   2
   7  -8  -9 19431.3 933.091   3
   7  -8  -9 17144.6 1212.25   4
  -8   1  -9 19717.5 1558.18   1
  -7  -1  -9 18392.6 1450.55   2
  -1   8  -9 19625.1 1363.26   2
  -1   8  -9 16296.2 1177.92   1
  -1   8  -6 6418.35 651.400   1
   8  -7  -6 6354.45 528.337   3
   7  -8  -6 5878.45 681.556   4
  -7  -1  -6 6183.18 452.875   3
   8  -7  -6 6077.90 624.925   1
   1   7  -6 6317.10 607.163   1
  -8   1  -6 5750.88 504.170   3
   7  -8  -6 5414.69 851.982   2
   1   7  -6 4942.57 240.836   4
  -8   1  -6 6849.02 766.091   2
  -7  -1  -6 5236.78 563.347   4
  -8   1  -6 5705.40 540.494   4
   1   7  -6 6727.91 723.457   3
   1   7  -6 4797.70 225.498   4
   8  -7  -6 4891.07 892.136   2
  -7  -1  -6 5404.41 706.999   2
   8  -7  -6 5522.86 624.572   4
   7  -8  -6 6069.96 659.292   1
   7  -8  -6 6032.48 488.867   3
  -7  -1  -3 45209.3 1390.55   2
   7  -8  -3 44083.3 1371.33   4
   1   7  -3 46823.5 1092.49   1
  -1   8  -3 45383.8 753.481   4
   8  -7  -3 46400.4 1122.99   1
   1   7  -3 45350.9 1147.03   2
   1   7  -3 46462.4 1303.60   3
   1   7  -3 47785.5 877.108   4
   7  -8  -3 45638.1 1034.87   3
  -8   1  -3 45410.0 1168.96   4
  -7  -1  -3 42569.0 1195.14   4
  -7  -1  -3 44339.4 932.854   3
   7  -8  -3 48221.4 1240.96   1
  -1   8  -3 45666.4 1016.66   2
   8  -7  -3 44491.1 1104.06   3
   7  -8  -3 42304.3 1569.53   2
  -1   8  -3 44652.5 1166.11   1
  -8   1  -3 46867.6 1340.97   2
  -8   1  -3 45388.8 1062.23   3
   7  -8   0 9470.04 555.686   3
  -8   1   0 8980.00 594.918   2
   8  -7   0 9332.16 561.059   3
  -1   8   0 9817.66 580.462   2
   1   7   0 9594.91 547.506   4
  -1   8   0 9511.84 534.495   4
  -8   1   0 9139.52 437.000   1
  -1   8   0 9131.38 567.771   1
   8  -7   0 9573.93 545.555   1
  -8   1   0 9425.37 572.854   4
   7  -8   0 9503.08 559.553   1
  -7  -1   0 7842.21 514.042   4
   1   7   0 10037.9 612.848   2
  -7  -1   0 8290.99 583.283   2
   7  -8   0 9299.98 508.804   2
  -7  -1   0 10657.8 510.733   3
  -8   1   0 10462.8 539.865   3
   1   7   0 9589.58 540.783   1
   7  -8   3 71587.8 971.433   4
  -1   8   3 65356.1 1911.85   2
   1   7   3 60266.6 1805.60   2
   8  -7   3 68037.1 977.164   2
   8  -7   3 70913.8 1110.68   4
   1   7   3 71908.5 1689.23   4
  -8   1   3 72935.5 1541.75   3
  -7  -1   3 71789.3 1555.78   3
   8  -7   3 56747.2 1581.31   1
   7  -8   3 71823.2 1756.92   1
  -1   8   3 69968.9 1674.05   4
   8  -7   6 6282.72 361.800   4
  -2   8 -10 14597.3 1242.15   1
  -6  -2 -10 15804.6 1459.09   2
   6  -8 -10 14772.0 836.786   3
   2   6 -10 14264.6 1132.88   3
   8  -6 -10 13722.6 1615.16   2
  -8   2 -10 12877.2 823.623   4
   8  -6 -10 13675.1 939.698   3
  -8   2 -10 13440.9 1297.54   2
  -2   8 -10 12872.9 1242.04   2
  -8   2 -10 13412.0 917.659   3
   2   6 -10 14928.7 1455.44   2
   6  -8 -10 15157.0 1210.90   4
   6  -8 -10 11526.7 1508.26   2
  -8   2 -10 14162.6 1447.98   1
  -2   8 -10 12678.1 1089.40   3
  -6  -2 -10 14063.6 743.520   3
  -6  -2 -10 14374.9 1010.09   4
   8  -6 -10 13783.8 1137.50   4
   2   6 -10 13412.6 1129.03   1
   2   6  -7 80112.3 1957.59   1
   8  -6  -7 71757.3 1916.60   1
   8  -6  -7 76786.2 1743.79   3
  -8   2  -7 85589.5 2680.23   1
   2   6  -7 74632.8 1098.08   4
   6  -8  -7 75359.3 2166.73   4
   8  -6  -7 78517.0 2789.51   2
  -8   2  -7 79617.9 1739.71   4
   6  -8  -7 81715.3 2859.09   2
   2   6  -7 78904.3 2109.05   3
  -8   2  -7 74842.5 2271.46   2
  -2   8  -7 78106.3 2156.69   1
  -8   2  -7 77918.8 1795.09   3
  -6  -2  -7 81390.1 1436.22   3
  -2   8  -7 74233.8 2076.54   2
  -6  -2  -7 73429.1 2473.53   2
   6  -8  -7 81191.9 1550.13   3
  -6  -2  -7 78005.4 1943.31   4
   8  -6  -7 77648.8 2132.87   4
   2   6  -7 72700.5 1035.22   4
  -6  -2  -4 22285.1 943.104   4
   8  -6  -4 20576.6 785.697   1
   2   6  -4 21071.9 950.938   3
  -8   2  -4 19494.7 935.598   2
   2   6  -4 20112.7 854.191   2
   8  -6  -4 21192.9 811.028   3
  -2   8  -4 21180.8 917.531   1
   6  -8  -4 20867.1 680.326   3
  -2   8  -4 19702.3 700.664   2
  -8   2  -4 19507.7 785.885   3
   6  -8  -4 20936.2 1001.72   4
  -6  -2  -4 22076.1 615.410   3
   6  -8  -4 19520.8 897.427   1
  -6  -2  -4 19664.1 1062.05   2
  -8   2  -4 20474.4 794.861   4
   2   6  -4 20197.3 568.652   4
   6  -8  -4 19899.9 1205.92   2
   2   6  -4 20932.7 777.345   1
  -8   2  -1 78694.2 1404.80   2
  -2   8  -1 81090.8 1256.01   4
   8  -6  -1 77174.1 1257.48   1
  -2   8  -1 76375.0 1386.24   1
   2   6  -1 79393.9 1220.72   1
   6  -8  -1 80155.0 1438.91   1
  -6  -2  -1 74143.1 1547.02   2
   2   6  -1 79511.2 1482.79   2
   6  -8  -1 84264.6 1592.47   4
   6  -8  -1 77290.6 1546.04   2
   2   6  -1 76761.5 1360.32   3
  -8   2  -1 75000.3 1374.41   4
  -6  -2  -1 78032.2 1472.07   4
  -6  -2  -1 76733.5 1160.62   3
   2   6  -1 80598.7 1334.55   4
  -8   2  -1 75195.5 1404.69   1
  -2   8  -1 79631.6 1278.38   2
   6  -8  -1 78548.4 1322.63   3
  -8   2  -1 78224.1 1341.20   3
   8  -6  -1 76768.2 1389.55   3
  -6  -2   2 35121.2 924.878   4
   8  -6   2 35359.3 831.624   4
   2   6   2 34316.2 521.587   3
  -2   8   2 35091.1 1243.07   2
   2   6   2 37168.3 1122.70   4
  -8   2   2 33663.5 968.908   3
   6  -8   2 34611.0 1098.55   1
   2   6   2 35808.3 1267.32   2
   8  -6   2 35807.2 735.662   2
  -2   8   2 34633.6 634.319   3
  -2   8   2 35606.8 1142.36   4
   8  -6   2 35617.5 1046.38   3
   8  -6   2 34292.6 1133.90   1
  -2   8   2 36196.0 1122.57   1
   2   6   5 14773.0 896.398   4
  -8   2   5 14620.3 812.239   3
   8  -6   5 16448.0 587.479   4
   8  -6   5 15029.0 746.331   2
  -2   8   5 13982.8 892.888   4
   8  -6   8 19712.1 694.317   4
   8  -5 -11 5205.64 1189.62   2
   3   5 -11 7813.93 992.381   1
  -8   3 -11 7793.29 1312.67   1
   8  -5 -11 8175.34 977.965   4
  -3   8 -11 7293.88 890.952   3
  -5  -3 -11 7433.58 812.566   4
  -5  -3 -11 6251.23 1219.08   2
  -3   8 -11 8284.83 1096.99   1
   3   5 -11 7319.20 948.473   3
   5  -8 -11 7000.18 1317.82   2
  -8   3 -11 5433.80 977.786   2
   3   5 -11 10215.4 1334.73   2
  -8   3 -11 6634.26 744.459   3
   8  -5 -11 6921.30 792.533   3
   5  -8 -11 9202.43 1092.32   4
  -3   8 -11 8936.60 1135.61   2
  -8   3  -8 23550.2 1574.56   1
   8  -5  -8 25857.9 1120.35   3
  -3   8  -8 22652.2 1273.32   2
   3   5  -8 21962.3 682.562   4
   5  -8  -8 23697.6 1716.37   2
  -8   3  -8 23283.7 1380.89   2
   8  -5  -8 20091.3 1567.36   2
   3   5  -8 22345.1 749.308   4
   5  -8  -8 23693.9 1289.22   4
   5  -8  -8 24498.9 878.079   3
  -5  -3  -8 22364.9 759.084   3
  -3   8  -8 24703.4 1387.15   1
  -5  -3  -8 23512.1 1165.97   4
   8  -5  -8 22408.3 1214.36   4
  -5  -3  -8 21884.2 784.723   3
   3   5  -8 24060.6 1263.03   3
  -5  -3  -8 21617.2 1502.82   2
  -8   3  -8 22616.5 943.057   4
   3   5  -8 21306.8 1149.89   1
   3   5  -5 44770.1 1167.61   1
   8  -5  -5 43422.6 1201.33   3
  -8   3  -5 44725.2 1250.44   3
  -8   3  -5 44027.1 1700.97   1
  -8   3  -5 44969.0 1436.41   2
  -5  -3  -5 44118.8 1365.87   4
   5  -8  -5 47141.9 962.486   3
   5  -8  -5 46249.0 1913.99   2
   8  -5  -5 46023.1 1224.98   1
  -8   3  -5 45969.9 1144.21   4
  -3   8  -5 44749.1 1435.39   1
   8  -5  -5 44436.4 1412.47   4
   5  -8  -5 42239.6 1462.88   4
   3   5  -5 40788.4 1360.27   3
  -5  -3  -5 44166.7 823.147   3
   5  -8  -5 44838.3 1489.54   1
  -5  -3  -5 43344.1 1658.24   2
   3   5  -5 42226.4 878.034   4
  -8   3  -2 11366.4 560.753   3
   3   5  -2 11596.1 627.645   2
  -8   3  -2 10103.6 534.348   4
   5  -8  -2 12694.3 663.825   1
   5  -8  -2 11673.7 490.307   3
   8  -5  -2 10761.2 574.938   3
   5  -8  -2 11923.6 775.590   2
   3   5  -2 11743.1 506.350   4
   3   5  -2 11194.8 610.055   3
  -8   3  -2 12046.6 714.883   1
  -8   3  -2 10728.3 550.791   2
   3   5  -2 12429.2 470.916   1
   5  -8  -2 11251.5 686.172   4
  -3   8  -2 11257.2 417.790   4
  -3   8  -2 11174.1 610.211   1
  -3   8  -2 11715.9 411.171   2
   8  -5  -2 11983.4 475.710   1
  -5  -3  -2 11411.8 644.545   4
  -5  -3  -2 10926.2 408.201   3
  -5  -3  -2 11186.9 742.346   2
   8  -5   1 238899. 2235.01   4
   8  -5   1 237432. 2502.00   1
  -5  -3   1 246849. 2407.25   3
   5  -8   1 247686. 2581.76   1
  -8   3   1 241594. 1608.75   1
   8  -5   1 246041. 2059.49   2
  -8   3   1 248970. 2404.79   3
   3   5   1 247380. 2617.94   4
  -5  -3   1 241158. 2353.29   4
  -3   8   1 252986. 2659.76   4
   3   5   1 241171. 2917.72   2
  -5  -3   1 254271. 1610.01   1
  -5  -3   1 249737. 2680.43   2
  -3   8   1 247258. 2796.21   2
   5  -8   1 245531. 1535.36   2
   8  -5   1 251126. 2521.58   3
   3   5   1 242989. 1770.09   3
   5  -8   1 246487. 2168.27   4
  -3   8   1 248861. 2014.32   3
   8  -5   4 84000.6 1360.89   4
  -3   8   4 84464.2 2271.54   2
  -3   8   4 89569.7 1972.22   4
   5  -8   4 89290.8 2026.83   1
   3   5   4 88115.9 2282.76   2
   8  -5   4 88497.3 1619.06   2
  -8   3   4 90208.6 1730.18   3
   3   5   4 86309.0 1874.70   4
   8  -5   7 16657.8 705.482   4
  -4  -4 -12 6345.17 1305.54   2
   4   4 -12 7240.25 1064.16   1
  -4   8 -12 8619.04 1227.56   1
   8  -4 -12 6323.35 1102.58   1
   8  -4 -12 5156.53 1361.97   2
   4  -8 -12 6476.17 1012.70   4
   4   4 -12 8454.05 1028.86   3
   8  -4 -12 7974.35 906.616   3
  -4   8 -12 7807.44 992.875   3
   4  -8 -12 7110.26 1468.48   2
   4   4 -12 8350.03 1275.01   2
  -4   8 -12 7971.63 1130.80   2
  -8   4 -12 6526.83 1075.26   2
  -8   4 -12 9321.01 1361.90   1
  -4   8  -9 10625.5 979.904   2
   4  -8  -9 10063.1 972.362   4
   4   4  -9 10434.4 633.089   4
  -4  -4  -9 9582.23 1181.55   2
  -4  -4  -9 9781.38 513.328   3
   4  -8  -9 11625.4 633.716   3
   8  -4  -9 9829.24 897.884   4
   4   4  -9 10953.8 993.401   3
   4   4  -9 10442.2 928.491   1
  -8   4  -9 11401.7 1279.08   1
  -4   8  -9 11906.8 1010.88   3
   4   4  -9 10397.1 1185.85   2
  -4  -4  -9 10835.4 910.448   4
   8  -4  -9 7385.39 1203.86   2
  -8   4  -9 9492.11 961.668   2
   8  -4  -9 11825.3 875.202   3
  -4   8  -9 9666.30 1002.52   1
  -8   4  -9 11007.9 656.843   4
   4  -8  -9 9136.27 1274.39   2
  -8   4  -6 8119.10 708.377   2
  -8   4  -6 7957.53 668.601   3
  -8   4  -6 8925.59 531.240   4
   8  -4  -6 7007.62 632.617   4
   4  -8  -6 10229.4 1058.79   2
  -4  -4  -6 7567.15 677.831   4
   8  -4  -6 7991.27 595.223   1
  -4   8  -6 7683.94 738.592   1
   4   4  -6 7702.36 697.397   3
  -4  -4  -6 7379.69 340.344   3
   4   4  -6 8153.65 470.626   4
  -4  -4  -6 9149.65 373.893   3
   4  -8  -6 8938.79 436.994   3
   8  -4  -6 8133.99 634.667   3
  -4   8  -6 8723.48 674.291   2
   4   4  -6 7869.88 579.250   1
  -8   4  -6 8236.00 902.804   1
  -4  -4  -6 9486.15 972.297   2
   4  -8  -6 8596.75 741.433   4
   4  -8  -3 29796.3 655.044   3
  -8   4  -3 29412.5 880.972   2
   4  -8  -3 28568.8 1259.17   2
   8  -4  -3 29986.3 940.627   3
  -8   4  -3 28104.1 927.167   3
  -4  -4  -3 29281.3 1229.18   2
  -4  -4  -3 27415.7 494.154   3
  -4   8  -3 29152.0 577.019   2
  -8   4  -3 28721.9 825.354   4
   8  -4  -3 28911.5 691.438   1
  -4  -4  -3 27372.2 1013.55   4
   4   4  -3 27063.7 981.791   2
   4   4  -3 28015.9 653.581   1
  -8   4  -3 29293.7 1152.06   1
   4  -8  -3 26875.7 1074.84   4
   4  -8  -3 30216.2 1081.12   1
   4   4  -3 29512.1 1010.72   3
   4   4  -3 29851.0 779.749   4
  -4   8  -3 28746.4 1016.70   1
  -8   4   0 13735.1 535.518   1
   4   4   0 13887.7 625.223   4
  -4   8   0 14288.6 590.572   2
   4  -8   0 15305.7 608.531   2
  -4  -4   0 12945.9 527.498   3
   4  -8   0 10688.8 565.848   1
  -8   4   0 13564.7 603.071   3
  -4   8   0 13793.3 634.976   1
  -4  -4   0 13336.5 677.909   2
   4  -8   0 13954.9 612.004   4
  -4   8   0 14268.1 588.993   3
   8  -4   0 12920.3 540.938   1
  -4   8   0 13194.1 580.035   4
   4   4   0 13917.4 542.214   3
   4   4   0 13738.6 707.301   2
   8  -4   0 13196.3 603.276   3
  -4  -4   0 13525.8 609.386   4
   8  -4   0 12112.4 537.460   2
  -4  -4   0 14079.4 533.642   1
  -4   8   3 31094.3 1110.02   4
  -8   4   3 31566.8 965.458   3
   4  -8   3 32799.3 1130.52   1
   4   4   3 31748.2 537.412   3
   8  -4   3 32113.6 985.819   3
   4   4   3 32131.9 1289.63   2
  -4   8   3 32659.3 1115.65   1
  -4   8   3 31651.7 642.600   3
   8  -4   3 33731.4 977.661   2
   8  -4   3 31317.3 862.148   4
   4  -8   3 28677.7 467.239   4
  -4   8   3 31378.7 1297.52   2
   4   4   3 33205.0 1098.32   4
  -4  -4   3 34331.3 767.752   1
   8  -4   6 9335.88 780.689   2
   4   4   6 8370.24 707.552   4
   8  -4   6 8859.34 543.919   4
  -8   4   6 8811.48 648.730   3
   8  -4   9 9172.00 649.060   4
  -3  -5 -10 6685.73 1148.20   2
   5   3 -10 4784.90 1048.26   2
  -8   5 -10 6535.92 905.523   2
   8  -3 -10 7052.73 789.183   3
   8  -3 -10 5516.85 823.468   1
   3  -8 -10 5711.23 816.630   4
   8  -3 -10 7574.69 1243.77   2
  -5   8 -10 5080.56 771.986   3
   3  -8 -10 6076.67 481.648   3
  -3  -5 -10 6068.54 795.305   4
  -5   8 -10 6125.17 971.856   1
   8  -3 -10 6337.11 823.737   4
  -5   8 -10 5638.16 848.512   2
   5   3 -10 4938.25 735.437   3
   3  -8 -10 5630.14 1107.56   2
   5   3 -10 5621.56 790.385   1
   5   3 -10 5838.62 567.844   4
  -8   5 -10 6011.10 1038.11   1
   3  -8  -7 18589.7 1472.11   2
  -3  -5  -7 18316.6 1043.73   4
   5   3  -7 18075.0 757.060   4
   5   3  -7 17981.6 1051.51   3
   3  -8  -7 16671.1 1051.45   4
   5   3  -7 19287.6 952.051   1
  -3  -5  -7 15391.8 436.953   3
  -5   8  -7 18759.5 1167.99   1
  -5   8  -7 20543.4 1049.46   2
  -8   5  -7 18382.4 697.949   4
   8  -3  -7 17855.1 925.632   3
   5   3  -7 18190.5 792.080   4
  -8   5  -7 19641.1 1085.04   2
   8  -3  -7 16613.9 882.336   1
  -3  -5  -7 17497.9 1356.57   2
  -8   5  -7 17281.8 1247.19   1
   8  -3  -7 16866.0 961.345   4
   3  -8  -7 20184.4 616.280   3
  -3  -5  -7 16867.1 479.999   3
  -3  -5  -4 85368.3 2209.26   2
   3  -8  -4 90502.1 2014.02   4
  -8   5  -4 89100.8 1787.72   3
  -8   5  -4 88230.1 1354.82   4
   3  -8  -4 88985.2 960.174   3
   8  -3  -4 91740.5 1298.85   1
   5   3  -4 91953.1 1260.94   1
   3  -8  -4 86847.8 2327.91   2
  -3  -5  -4 85967.2 1850.38   4
  -8   5  -4 91569.9 2131.20   1
   5   3  -4 90237.4 1431.69   4
   8  -3  -4 88252.3 1686.95   3
  -5   8  -4 91066.0 1324.65   2
   3  -8  -4 86122.2 1947.74   1
   5   3  -4 87636.2 1823.45   3
  -5   8  -4 89192.5 1954.74   1
  -8   5  -4 90098.8 1574.09   2
  -3  -5  -1 246109. 2477.98   1
  -5   8  -1 224882. 2475.86   1
  -3  -5  -1 239837. 2576.52   4
  -8   5  -1 249307. 2467.03   3
   3  -8  -1 237918. 2604.36   4
   8  -3  -1 238455. 1680.80   1
  -3  -5  -1 231913. 2808.02   2
  -3  -5  -1 241285. 1826.68   3
   5   3  -1 243098. 2329.56   4
  -5   8  -1 234086. 1570.81   2
   8  -3  -1 229994. 2389.41   3
  -5   8  -1 241699. 2480.87   3
   3  -8  -1 243587. 2725.31   2
   5   3  -1 235850. 2670.21   2
   5   3  -1 240952. 1647.17   1
  -8   5  -1 240755. 2452.59   1
  -8   5  -1 238864. 1941.63   2
   5   3  -1 243257. 2335.04   3
   3  -8  -1 239954. 2532.63   1
   8  -3   2 11181.8 558.200   4
   8  -3   2 12643.3 610.227   2
   8  -3   2 10186.0 571.674   3
  -5   8   2 11428.7 660.639   4
   3  -8   2 12095.7 644.225   1
   5   3   2 10612.5 737.877   2
  -3  -5   2 11678.0 460.018   1
   5   3   2 11513.6 421.750   3
   3  -8   2 11021.6 408.208   4
  -5   8   2 10215.4 627.717   1
   3  -8   2 11709.9 393.797   2
  -8   5   2 11791.7 595.477   3
  -5   8   2 11831.0 474.972   3
   5   3   2 10799.5 629.405   4
  -3  -5   2 11432.1 496.835   4
  -3  -5   2 12252.4 652.777   2
  -8   5   2 10885.3 460.805   1
  -5   8   2 11922.2 759.156   2
   5   3   5 41122.5 1328.26   4
   5   3   5 41314.6 1671.20   2
   8  -3   5 41512.8 1393.65   2
  -8   5   5 43085.9 1212.83   3
  -5   8   5 41389.6 878.641   3
   3  -8   5 43785.2 1505.71   1
   8  -3   5 42541.3 1140.17   4
   8  -3   8 18559.5 890.199   4
   2  -8 -11 18495.1 1361.11   4
  -6   8 -11 18697.8 1331.17   3
   2  -8 -11 14465.2 1718.23   2
  -6   8 -11 20999.1 1674.30   1
  -2  -6 -11 18579.3 1317.16   4
  -8   6 -11 18611.0 1249.91   3
   6   2 -11 17947.1 1347.60   1
   6   2 -11 19252.6 1790.53   2
   8  -2 -11 19768.6 1265.39   3
  -2  -6 -11 15940.1 1668.31   2
   8  -2 -11 17571.7 1374.28   1
  -8   6 -11 18260.4 1423.72   2
   8  -2 -11 18164.0 1237.53   4
   6   2 -11 19136.3 1340.65   3
  -6   8 -11 14680.8 1257.03   2
  -8   6 -11 17720.2 1641.61   1
   8  -2 -11 18011.4 1759.74   2
   8  -2  -8 18007.0 1517.12   2
   8  -2  -8 20512.1 1099.17   3
  -2  -6  -8 18627.4 493.140   3
   2  -8  -8 20104.4 594.402   3
  -8   6  -8 21374.3 1429.89   1
   2  -8  -8 18360.7 1500.75   2
   6   2  -8 19985.0 1144.04   3
  -6   8  -8 18340.7 1077.27   2
   6   2  -8 19285.0 898.726   4
  -2  -6  -8 16552.2 440.409   3
   6   2  -8 18842.0 1054.47   1
   6   2  -8 19278.4 933.503   4
  -2  -6  -8 20865.2 1554.70   2
   8  -2  -8 20124.4 1096.56   4
   2  -8  -8 20233.9 1221.42   4
  -6   8  -8 20146.7 1349.99   1
   8  -2  -8 17780.7 1000.29   1
  -8   6  -8 19015.6 649.075   4
   8  -2  -8 18436.2 1096.00   1
  -8   6  -8 20412.0 1192.16   2
  -2  -6  -8 18151.7 1107.11   4
   8  -2  -5 17357.5 860.024   3
  -8   6  -5 16954.4 1058.41   1
  -2  -6  -5 17512.3 934.852   4
   8  -2  -5 17771.8 662.515   1
   6   2  -5 18357.4 676.009   1
   2  -8  -5 18724.7 1020.50   4
  -8   6  -5 17525.6 897.838   3
   2  -8  -5 17269.2 1191.26   2
   6   2  -5 17957.7 735.767   4
  -2  -6  -5 17417.4 1168.69   2
  -8   6  -5 16830.9 763.296   2
   2  -8  -5 14995.1 326.583   3
   6   2  -5 17026.0 885.871   3
  -6   8  -5 18996.8 1030.72   1
  -6   8  -5 18251.7 732.140   2
  -8   6  -5 18258.4 606.696   4
   2  -8  -2 31949.2 1084.40   4
  -2  -6  -2 27869.0 1117.86   2
  -2  -6  -2 33134.8 1087.12   1
   8  -2  -2 30566.5 937.113   3
   6   2  -2 33310.7 1077.18   2
   6   2  -2 32137.0 970.136   3
   2  -8  -2 32109.4 1205.23   2
   2  -8  -2 33053.1 1052.70   1
  -8   6  -2 32579.2 1066.95   1
  -8   6  -2 34174.9 1016.66   3
  -8   6  -2 32361.9 637.873   2
  -6   8  -2 34036.1 1075.09   1
   6   2  -2 29865.8 864.016   4
  -2  -6  -2 31907.0 1048.63   4
  -6   8  -2 30362.9 1023.60   3
  -2  -6   1 66228.0 1125.31   1
  -6   8   1 65743.0 1311.71   1
   6   2   1 68373.3 1532.69   2
   8  -2   1 68456.8 1272.22   3
   8  -2   1 69989.7 1335.87   4
   2  -8   1 66965.3 1144.83   4
   6   2   1 68674.9 1379.98   4
   6   2   1 66434.7 1081.99   3
  -2  -6   1 65233.9 1322.35   2
   2  -8   1 67421.9 1319.25   1
  -6   8   1 70454.4 1208.65   3
   8  -2   1 68755.5 1356.61   2
  -8   6   1 62972.8 1105.47   1
  -2  -6   1 66636.7 1196.55   4
  -8   6   1 69107.2 1303.87   3
   2  -8   1 68428.7 1119.20   2
   8  -2   4 18835.0 778.353   4
   6   2   4 20903.0 906.793   4
   2  -8   4 20602.7 943.768   1
  -2  -6   4 19729.5 797.448   1
   6   2   4 19328.4 1067.98   2
  -8   6   4 19718.7 768.613   3
  -6   8   4 19373.9 628.737   3
   8  -2   4 19753.9 953.504   2
  -8   6   7 70002.4 1714.47   3
   8  -2   7 73921.0 1732.03   4
   8  -1 -12 6190.82 1407.04   2
   8  -1 -12 5185.49 885.020   3
   7   1 -12 7330.65 960.049   3
   1  -8 -12 5904.40 951.147   4
  -1  -7 -12 4454.91 837.373   4
  -8   7 -12 5677.37 984.144   2
  -8   7 -12 5900.91 1199.99   1
  -8   7 -12 5310.46 859.412   3
  -7   8 -12 6544.77 919.637   3
   7   1 -12 6602.05 1306.83   2
   1  -8 -12 6569.82 1379.71   2
  -7   8 -12 5866.27 1212.88   1
  -1  -7 -12 7161.32 1424.58   2
   8  -1  -9 51503.2 2555.37   2
   8  -1  -9 57125.2 1839.09   4
   7   1  -9 56274.5 2571.18   2
   1  -8  -9 53343.4 1995.78   4
  -1  -7  -9 54352.7 2557.02   2
   7   1  -9 56615.3 1939.68   3
   8  -1  -9 57293.2 1932.18   1
   1  -8  -9 55003.5 855.166   3
  -1  -7  -9 56365.2 2000.28   4
  -8   7  -9 55519.1 1970.59   2
  -8   7  -9 55117.4 2346.55   1
  -7   8  -9 57959.9 2348.69   1
   8  -1  -9 56833.3 1874.27   3
   7   1  -9 55269.5 1851.99   1
   7   1  -9 56763.7 1715.11   4
   1  -8  -9 55664.6 2656.67   2
  -7   8  -9 51248.8 1868.47   2
   7   1  -6 4798.41 465.728   1
   1  -8  -6 3687.66 740.000   2
   7   1  -6 4492.94 606.820   3
  -1  -7  -6 3127.85 783.373   2
  -7   8  -6 3864.65 625.666   1
  -8   7  -6 5186.46 752.523   1
  -7   8  -6 4632.53 498.044   2
  -1  -7  -6 3903.75 584.714   4
  -8   7  -6 4236.47 493.779   2
   1  -8  -6 3352.09 578.596   4
   8  -1  -6 4621.48 473.972   1
   8  -1  -6 3701.17 528.890   3
  -7   8  -3 65303.7 1560.08   3
  -8   7  -3 70101.3 1586.17   3
  -8   7  -3 66157.8 882.787   2
  -7   8  -3 68937.9 1671.60   1
   8  -1  -3 70483.3 1506.74   3
   7   1  -3 71320.8 1388.19   4
  -1  -7  -3 67392.7 1917.57   2
   1  -8  -3 72041.9 1975.78   2
   1  -8  -3 73641.6 1729.10   1
  -8   7  -3 71120.9 1725.62   1
  -1  -7  -3 66826.7 1626.54   4
   7   1  -3 66649.7 1502.14   3
   1  -8  -3 65930.2 1638.19   4
   7   1   0 11464.4 545.820   3
   1  -8   0 11330.8 586.253   4
  -1  -7   0 11819.9 654.730   2
   8  -1   0 12096.1 586.411   3
   7   1   0 11216.2 590.760   4
  -7   8   0 11163.3 607.287   1
   1  -8   0 11938.2 579.740   1
   1  -8   0 11842.2 629.162   2
  -8   7   0 11717.1 605.043   3
   7   1   0 12408.3 680.188   2
  -1  -7   0 10886.2 574.707   4
  -1  -7   0 12371.9 587.763   1
   8  -1   0 9480.10 544.934   4
  -8   7   0 11759.1 589.829   1
  -7   8   0 11486.2 580.519   3
   8  -1   0 11744.4 637.845   2
  -1  -7   3 54508.8 883.944   4
  -1  -7   3 53018.9 1206.34   1
   8  -1   3 50416.0 1255.58   4
  -8   7   3 53570.4 1181.83   3
   7   1   3 54687.1 1046.06   3
   7   1   3 53933.9 1585.58   2
   1  -8   3 50686.4 1306.28   1
  -7   8   3 51852.9 1074.42   3
   1  -8   3 54443.1 776.000   4
   7   1   3 52434.8 1359.48   4
   8  -1   3 53551.9 1154.38   3
  -8   7   3 51065.7 1181.77   1
   8  -1   3 51126.6 1472.44   2
  -7   8   3 50208.1 1276.01   1
   8  -1   6 3669.03 453.383   4
   8  -1   6 3075.30 592.753   2
  -7   8   6 3684.43 390.192   3
   7   1   6 3274.47 481.435   4
  -8   7   6 3711.89 441.801   3
   8   0 -10 24442.3 1401.02   3
   8   0 -10 25494.7 1300.66   4
   0  -8 -10 21330.0 1818.03   2
   8   0 -10 19322.5 1253.00   1
   8   0 -10 22291.0 1846.23   2
  -8   8 -10 22600.7 1396.68   2
  -8   8 -10 23900.0 1693.17   1
   0  -8 -10 23163.6 1434.25   4
  -8   8  -7 45.8412 524.592   1
   8   0  -7 377.012 325.852   1
   0  -8  -7-136.856 486.041   4
  -8   8  -7 38.4410 333.658   2
   0  -8  -7 511.219 647.989   2
   8   0  -7 852.525 410.992   3
  -8   8  -4 76193.4 1806.44   3
   0  -8  -4 77466.3 1891.15   4
   8   0  -4 75610.5 1584.55   4
   8   0  -4 67635.5 863.551   1
  -8   8  -4 75707.7 1070.53   2
  -8   8  -4 73447.9 1905.99   1
   0  -8  -4 72237.2 2171.52   2
   8   0  -4 75704.4 1715.61   3
   8   0  -4 68706.7 872.830   1
   0  -8  -4 70533.6 1880.16   1
   0  -8  -1 175.186 313.471   4
   8   0  -1 333.263 294.116   4
  -8   8  -1 357.444 296.433   3
   0  -8  -1 545.185 332.915   2
   8   0  -1 468.017 334.914   2
   0  -8  -1 366.835 309.726   1
  -8   8  -1 544.283 349.392   1
   8   0  -1 736.284 301.347   3
   8   0   2 122593. 1697.53   3
  -8   8   2 123476. 1751.02   3
  -8   8   2 121473. 1823.49   1
   0  -8   2 125062. 1495.68   4
   8   0   2 121008. 2151.02   2
   0  -8   2 128667. 1840.02   1
   0  -8   2 125156. 1764.38   2
   8   0   2 125452. 1979.77   4
   0  -8   5 300.835 342.613   1
   8   0   5 808.883 484.559   2
  -8   8   5 190.228 259.865   3
   8   0   5 316.816 303.081   4
   0   9 -12 7114.93 1012.46   3
  -9   0 -12 6743.75 1326.92   1
   9  -9 -12 9667.13 1222.52   4
   9  -9 -12 6169.14 1436.52   2
   0   9 -12 6796.99 1272.57   2
   0   9 -12 5283.38 993.173   1
  -9   0 -12 6645.44 1158.63   2
   0   9  -9 514.277 570.093   3
   0   9  -9 366.783 588.255   2
   9  -9  -9-3.05409 511.232   4
   9  -9  -9-669.006 808.323   2
   9  -9  -9 867.137 415.926   3
  -9   0  -9-147.545 709.265   2
   0   9  -9 445.552 553.259   1
  -9   0  -9 513.779 417.017   4
  -9   0  -9 1628.67 860.338   1
  -9   0  -6 3402.97 513.350   4
  -9   0  -6 3644.00 428.164   3
   0   9  -6 3385.79 489.118   2
   9  -9  -6 2975.07 427.447   3
   0   9  -6 3093.68 496.830   1
   9  -9  -6 2999.98 613.607   4
  -9   0  -6 3224.36 620.999   2
   0   9  -6 3263.37 550.953   3
   9  -9  -6 3386.92 801.338   2
   9  -9  -6 2504.90 514.573   1
  -9   0  -3 210.703 255.816   3
   9  -9  -3-257.694 303.691   1
   9  -9  -3 384.216 357.234   4
   0   9  -3-48.2596 185.858   4
   9  -9  -3-193.740 459.656   2
  -9   0  -3-281.640 317.486   4
   9  -9  -3 176.170 290.228   3
   0   9  -3 13.7821 244.873   2
  -9   0  -3-227.249 380.453   2
   0   9  -3-140.652 297.110   1
   0   9   0 87673.0 1636.65   1
  -9   0   0 85437.3 1627.47   4
   0   9   0 90718.7 1809.61   2
   9  -9   0 85163.5 1617.79   1
   0   9   0 88583.5 1670.24   4
  -9   0   0 81432.4 1734.69   2
   9  -9   0 88120.1 1680.90   3
  -9   0   0 87040.5 1537.49   3
  -9   0   3 143.925 303.439   3
   9  -9   3 118.806 353.729   1
   0   9   3 31.6374 311.184   4
   0   9   3 387.959 395.664   2
   9  -9   3 53.2139 190.843   4
   9  -9   6 15862.1 482.537   4
   1   8 -10 15938.7 1232.46   1
   8  -9 -10 17172.2 1737.51   2
   1   8 -10 16414.6 1245.29   3
   9  -8 -10 15695.5 982.639   3
  -8  -1 -10 14505.8 1413.52   2
  -8  -1 -10 13912.6 982.824   4
  -8  -1 -10 14413.9 797.636   3
   8  -9 -10 14551.4 910.959   3
   1   8 -10 15485.9 1416.81   2
   9  -8 -10 17612.8 1756.27   2
  -9   1 -10 14554.8 1541.72   1
  -1   9 -10 18179.1 1446.75   2
  -9   1 -10 18258.7 1074.07   4
  -1   9 -10 15909.1 1240.48   1
  -1   9 -10 15580.9 1231.44   3
   8  -9 -10 16781.3 1302.50   4
  -9   1 -10 14902.3 1337.90   2
  -8  -1 -10 13238.7 1469.71   1
   9  -8 -10 14528.4 1242.07   4
   9  -8  -7 44922.5 1736.33   4
   1   8  -7 49067.4 1587.86   1
  -9   1  -7 45940.4 1454.50   4
   8  -9  -7 44259.8 1730.20   4
   9  -8  -7 41621.6 2202.26   2
  -1   9  -7 46203.1 1625.08   1
  -9   1  -7 44654.9 1337.10   3
   9  -8  -7 47623.4 1398.55   3
  -9   1  -7 44933.4 1813.11   2
  -8  -1  -7 44544.1 1881.44   2
  -8  -1  -7 47485.4 1212.30   3
  -1   9  -7 47487.4 1762.72   3
   8  -9  -7 44246.2 2194.95   2
   8  -9  -7 47733.3 1327.77   3
   1   8  -7 50141.6 1770.96   3
  -8  -1  -7 46462.2 1549.46   4
   9  -8  -4 38351.5 1368.10   4
   8  -9  -4 42804.8 1315.79   1
   1   8  -4 41998.2 1168.85   1
  -9   1  -4 40240.6 1071.50   3
  -8  -1  -4 37594.9 1236.87   4
  -9   1  -4 39442.6 1208.45   4
  -8  -1  -4 42450.3 986.528   3
   8  -9  -4 42223.2 1760.54   2
  -9   1  -4 40101.0 1373.24   2
   1   8  -4 39067.4 802.708   4
   9  -8  -4 40597.8 1177.58   1
  -8  -1  -4 37071.3 1454.23   2
   1   8  -4 39007.3 1334.59   3
   1   8  -4 41637.7 1215.42   2
   9  -8  -4 43009.2 1166.99   3
   8  -9  -4 40390.2 1062.31   3
  -1   9  -4 43968.9 1278.87   1
   8  -9  -4 40849.7 1454.18   4
   9  -8  -4 39821.2 1720.43   2
  -1   9  -4 36685.5 629.299   4
  -1   9  -4 42584.0 1104.77   2
   8  -9  -1 118066. 1874.27   1
  -1   9  -1 121780. 1864.76   1
  -9   1  -1 118299. 1882.97   4
   8  -9  -1 117217. 2077.42   2
   9  -8  -1 116472. 1745.98   1
   1   8  -1 122633. 1976.12   2
   1   8  -1 122635. 1754.41   1
   9  -8  -1 123762. 1883.74   3
  -8  -1  -1 126069. 1983.09   4
  -1   9  -1 123752. 1850.07   2
   8  -9  -1 122053. 1819.14   3
   1   8  -1 121160. 1784.86   4
  -8  -1  -1 119732. 1663.94   3
  -8  -1  -1 118783. 2046.22   2
  -9   1  -1 123623. 1998.96   2
  -9   1  -1 122457. 1728.75   3
  -1   9  -1 118341. 1723.81   4
   1   8   2 26712.4 1060.81   1
  -1   9   2 26573.0 1206.54   2
   1   8   2 27207.0 1185.81   2
  -1   9   2 25855.5 601.021   3
  -1   9   2 29248.8 1097.75   1
  -1   9   2 27178.0 1044.25   4
  -8  -1   2 25939.7 931.351   3
   9  -8   2 27153.5 1074.62   1
   9  -8   2 26776.2 557.076   2
   8  -9   2 26891.3 1058.13   1
   1   8   2 23363.9 966.658   4
  -9   1   2 29051.0 984.985   3
   9  -8   2 27277.5 1019.82   3
   1   8   2 26502.8 542.455   3
   8  -9   5 60366.0 805.924   4
   9  -8   5 67300.3 1097.38   4
   9  -8   8 19437.6 529.268   4
  -7  -2 -11 20378.0 1232.84   4
   2   7 -11 22698.4 1473.40   3
   7  -9 -11 19575.7 1505.04   4
  -2   9 -11 19572.8 1578.08   2
   9  -7 -11 20302.7 1183.09   3
   2   7 -11 21552.3 1513.72   1
  -2   9 -11 21479.7 1599.53   1
  -9   2 -11 22209.7 1923.00   1
  -7  -2 -11 18496.1 1710.47   1
  -9   2 -11 16707.1 1528.85   2
   7  -9 -11 16418.6 1879.92   2
   9  -7 -11 17638.1 1844.94   2
  -9   2 -11 17518.4 1028.02   3
  -7  -2 -11 20477.4 1748.19   2
   2   7 -11 21000.8 1783.66   2
   9  -7 -11 20979.2 1497.98   4
  -2   9 -11 21334.2 1437.97   3
   7  -9  -8 10026.8 1220.15   2
  -9   2  -8 9179.79 755.691   3
   7  -9  -8 7327.47 858.147   4
  -9   2  -8 9498.00 996.439   2
  -7  -2  -8 8639.76 567.605   3
  -2   9  -8 8415.17 878.288   2
  -9   2  -8 9896.15 1131.64   1
  -2   9  -8 9056.77 922.477   3
   9  -7  -8 10582.5 1272.67   2
   2   7  -8 9295.96 902.496   3
   2   7  -8 10346.7 860.218   1
   7  -9  -8 9991.54 646.394   3
  -7  -2  -8 9402.69 795.840   4
  -9   2  -8 9140.56 703.623   4
  -2   9  -8 9184.71 904.315   1
   9  -7  -8 9908.98 720.843   3
   2   7  -8 6402.44 261.382   4
   9  -7  -8 8734.29 868.588   4
  -7  -2  -8 8479.72 1053.61   2
   9  -7  -5 92819.3 2165.87   4
  -9   2  -5 93395.3 1799.35   4
  -7  -2  -5 89013.5 2373.85   2
  -9   2  -5 90023.8 2116.09   2
   2   7  -5 92505.4 1757.38   1
  -2   9  -5 93791.7 1700.83   2
  -7  -2  -5 83727.2 1903.12   4
   9  -7  -5 87502.8 2652.27   2
  -2   9  -5 94213.0 2022.78   1
   2   7  -5 90650.0 2084.90   3
   9  -7  -5 94560.4 1820.15   1
  -9   2  -5 91575.5 1732.12   3
   7  -9  -5 91096.6 2670.66   2
   2   7  -5 93094.7 1215.85   4
   7  -9  -5 92736.4 2069.68   1
   9  -7  -5 87808.1 1734.68   3
   7  -9  -5 86758.4 2150.33   4
   7  -9  -5 95194.6 1556.73   3
  -7  -2  -5 94897.0 1375.67   3
   2   7  -5 95641.4 2000.98   2
   2   7  -2 41636.5 971.609   4
   7  -9  -2 38662.3 1375.90   2
  -2   9  -2 41841.0 1143.11   1
  -7  -2  -2 40458.7 1174.56   4
   7  -9  -2 40105.7 987.312   3
  -9   2  -2 40010.9 1082.36   4
   7  -9  -2 39766.7 1147.11   1
   9  -7  -2 41427.1 983.466   1
   2   7  -2 41395.0 1179.39   3
   2   7  -2 40402.7 1118.41   2
  -9   2  -2 40283.8 1028.52   3
   2   7  -2 42002.0 966.035   1
  -2   9  -2 43858.5 960.177   2
  -7  -2  -2 39208.6 1285.21   2
   7  -9  -2 41261.2 1273.70   4
  -2   9  -2 40910.9 868.977   4
  -9   2  -2 38310.9 1123.60   2
   9  -7  -2 40086.1 1081.85   3
  -7  -2  -2 41685.3 890.086   3
  -9   2  -2 42114.0 1272.30   1
   9  -7   1 18190.6 569.987   2
   2   7   1 18959.1 923.843   2
  -7  -2   1 17868.9 838.308   2
  -2   9   1 19201.1 840.022   1
  -7  -2   1 18053.4 454.060   1
  -7  -2   1 17717.4 736.950   4
   2   7   1 17610.8 786.594   4
   7  -9   1 17376.7 816.082   1
   9  -7   1 19356.5 825.653   3
  -9   2   1 18311.8 750.128   3
   7  -9   1 17497.0 474.890   2
  -2   9   1 18894.7 903.008   2
  -2   9   1 18669.4 824.139   4
   9  -7   1 18675.2 812.431   1
  -9   2   1 17829.6 450.529   1
   2   7   1 18575.8 555.072   3
  -7  -2   1 17820.8 750.737   3
   2   7   1 19082.4 837.368   1
   9  -7   4 1837.40 303.672   2
   7  -9   4 1154.89 144.598   4
  -2   9   4 1380.37 555.771   2
  -7  -2   4 1046.33 392.059   3
  -9   2   4 1359.89 362.462   3
   9  -7   4 1403.12 241.852   4
   7  -9   4 1034.82 407.714   1
   2   7   4 1278.39 386.737   4
   2   7   4 1065.12 516.160   2
  -2   9   4 1390.05 406.687   4
   9  -7   7 5229.94 384.153   4
   3   6 -12 11575.8 1497.89   2
  -9   3 -12 11434.3 1498.52   1
  -6  -3 -12 11014.1 1468.48   1
  -3   9 -12 12999.7 1389.38   2
   6  -9 -12 13597.6 1342.97   4
  -3   9 -12 15057.6 1468.68   1
  -6  -3 -12 11939.2 1558.18   2
   9  -6 -12 10919.7 1326.73   1
   6  -9 -12 13533.7 1757.50   2
  -9   3 -12 12552.6 1382.82   2
   3   6 -12 13538.5 1335.21   1
   3   6 -12 14420.5 1258.46   3
  -3   9 -12 13954.9 1287.43   3
   9  -6 -12 12522.8 1238.00   4
   9  -6 -12 11440.2 1714.22   2
   3   6  -9 2386.60 528.158   1
  -6  -3  -9 2216.33 759.408   2
   6  -9  -9 1527.33 363.153   3
  -3   9  -9 2005.38 590.548   2
  -9   3  -9 873.163 358.856   4
   3   6  -9 1849.39 669.392   2
   3   6  -9 1528.57 615.143   3
  -9   3  -9 2102.44 660.100   2
   9  -6  -9 1132.44 497.611   4
   6  -9  -9 948.234 599.536   4
  -9   3  -9 2836.34 887.129   1
   9  -6  -9 1623.34 447.616   3
  -3   9  -9 1789.74 612.699   1
  -6  -3  -9 2009.59 548.753   4
   9  -6  -9 1755.78 881.570   2
  -6  -3  -9 1548.43 312.574   3
   6  -9  -9 1991.44 904.488   2
  -3   9  -9 1388.96 627.577   3
   3   6  -9 1011.20 201.538   4
  -3   9  -6 58712.5 1608.85   2
   3   6  -6 58475.9 1476.44   1
  -6  -3  -6 62635.9 1069.83   3
  -6  -3  -6 59311.9 2107.33   2
   9  -6  -6 59731.6 2333.18   2
  -9   3  -6 57883.5 1792.73   2
   9  -6  -6 58234.2 1549.37   1
  -6  -3  -6 62258.0 1750.72   4
  -9   3  -6 60917.8 2171.22   1
   3   6  -6 57621.0 1760.92   3
   9  -6  -6 58910.4 1790.42   4
  -3   9  -6 60719.1 1806.94   1
   6  -9  -6 57832.1 1850.69   4
   6  -9  -6 60101.0 2342.74   2
  -9   3  -6 57764.4 1415.95   4
   3   6  -6 57087.8 1035.92   4
   9  -6  -6 55996.0 1464.46   3
  -9   3  -6 60129.9 1545.48   3
   6  -9  -6 62358.7 1243.15   3
  -3   9  -3 42182.9 1216.38   1
   6  -9  -3 40055.4 908.174   3
   9  -6  -3 41030.5 956.497   1
  -6  -3  -3 40965.4 1428.63   2
  -3   9  -3 41514.9 837.123   2
  -3   9  -3 39516.2 667.511   4
  -9   3  -3 40881.8 1102.93   3
   6  -9  -3 43013.9 1371.84   4
   9  -6  -3 40321.1 1112.54   3
   3   6  -3 38219.6 1203.68   3
   6  -9  -3 40718.5 1548.89   2
   3   6  -3 42280.1 936.718   1
   6  -9  -3 42482.5 1243.81   1
  -9   3  -3 40899.5 1148.35   2
  -6  -3  -3 37747.6 1195.53   4
  -9   3  -3 41305.8 1082.29   4
  -6  -3  -3 41280.9 783.449   3
   3   6  -3 42275.9 1211.05   2
  -9   3  -3 40765.3 1397.75   1
   3   6  -3 40895.1 935.372   4
   3   6   0 286064. 2581.08   1
  -9   3   0 289002. 2814.75   2
   6  -9   0 285041. 2781.52   4
   9  -6   0 293163. 2883.03   3
  -6  -3   0 290744. 2350.56   1
   9  -6   0 284967. 2606.85   1
  -9   3   0 292901. 2728.25   3
  -3   9   0 291658. 2793.62   4
   3   6   0 295620. 2856.47   4
   6  -9   0 283231. 2495.94   2
  -3   9   0 291712. 2819.54   2
  -6  -3   0 294223. 2868.49   4
   6  -9   0 300183. 2922.03   1
  -3   9   0 292059. 2894.95   1
  -6  -3   0 291979. 2532.21   3
   3   6   0 288245. 2416.37   3
   3   6   0 299462. 3171.09   2
  -9   3   0 290104. 2324.30   1
   6  -9   3 8852.26 361.795   4
   3   6   3 8461.65 646.174   4
   9  -6   3 9569.77 740.005   1
   3   6   3 9480.07 828.807   2
  -3   9   3 9209.64 708.589   1
   6  -9   3 8158.04 678.939   1
  -3   9   3 9088.85 801.002   2
  -3   9   3 9719.97 345.897   3
  -9   3   3 9154.27 593.926   3
  -6  -3   3 8645.95 638.929   3
   9  -6   3 8421.09 468.533   2
   9  -6   3 8836.29 485.421   4
  -3   9   3 9697.30 730.667   4
   9  -6   6 56454.5 1194.85   4
   9  -6   6 59564.7 1642.20   2
  -4   9 -10 4888.01 888.934   1
   5  -9 -10 3263.23 978.326   2
   9  -5 -10 4437.94 672.240   3
  -9   4 -10 3311.98 736.806   2
  -9   4 -10 3686.07 933.907   1
   5  -9 -10 4104.46 752.070   4
  -4   9 -10 4497.95 771.074   3
   4   5 -10 3328.59 708.120   1
   9  -5 -10 3752.91 1122.01   2
   9  -5 -10 3517.57 695.128   4
   5  -9 -10 4131.39 461.988   3
   4   5 -10 3591.13 730.400   3
   4   5 -10 5357.32 1044.08   2
  -5  -4 -10 4772.41 1050.11   2
  -4   9 -10 4586.42 828.203   2
  -9   4 -10 2987.56 449.582   4
  -5  -4 -10 5424.74 775.949   4
  -5  -4  -7 76758.6 2579.47   2
   9  -5  -7 80508.9 2153.14   4
   5  -9  -7 77661.9 2824.34   2
  -9   4  -7 80034.6 2591.84   1
   4   5  -7 76206.6 1342.87   4
  -4   9  -7 77352.7 2206.79   1
   5  -9  -7 76693.8 2204.85   4
  -4   9  -7 78389.1 1993.17   2
   9  -5  -7 70646.7 1805.70   1
   4   5  -7 81402.8 1455.00   4
   9  -5  -7 75575.0 2765.31   2
  -9   4  -7 78398.6 1595.73   4
   4   5  -7 78658.8 1858.80   1
   9  -5  -7 76526.4 1841.58   3
  -5  -4  -7 71566.5 1075.13   3
   4   5  -7 78067.6 2121.13   3
  -5  -4  -7 76678.7 2034.04   4
  -9   4  -7 75937.4 2133.03   2
   5  -9  -7 80333.6 1377.64   3
  -9   4  -7 72798.6 1887.10   3
  -5  -4  -7 79262.0 1138.74   3
  -5  -4  -4 645.798 135.708   3
  -4   9  -4 355.077 173.013   2
  -5  -4  -4 244.178 460.124   2
   5  -9  -4 200.980 489.224   2
   5  -9  -4 614.381 214.013   3
  -9   4  -4 661.385 320.744   3
   5  -9  -4 512.481 408.116   4
   4   5  -4 769.516 242.864   4
   9  -5  -4 815.852 254.693   1
  -9   4  -4 655.452 448.653   1
   5  -9  -4 709.628 403.291   1
  -9   4  -4 1119.04 263.996   4
  -9   4  -4 616.620 326.040   2
   4   5  -4 330.544 206.691   1
   9  -5  -4 976.765 336.278   3
  -5  -4  -4 552.029 352.039   4
   4   5  -4 747.153 323.193   2
  -4   9  -4 827.071 404.770   1
   4   5  -4 467.217 367.786   3
   4   5  -1 134437. 1837.33   4
   5  -9  -1 133846. 1683.95   3
  -5  -4  -1 133162. 1887.93   1
   4   5  -1 137590. 1534.95   1
  -4   9  -1 138566. 1545.59   2
   4   5  -1 137784. 1848.10   3
   5  -9  -1 134642. 2078.75   2
  -5  -4  -1 128466. 1977.49   4
   4   5  -1 138702. 2101.91   2
  -9   4  -1 136760. 1905.50   1
   9  -5  -1 131912. 1935.94   3
   9  -5  -1 134166. 1518.56   1
  -9   4  -1 135957. 1899.41   3
  -9   4  -1 133266. 1760.97   2
  -5  -4  -1 132605. 2183.65   2
   5  -9  -1 133029. 2047.69   4
  -5  -4  -1 133177. 1538.71   3
   5  -9  -1 136577. 1986.88   1
  -4   9  -1 137617. 1711.06   4
  -4   9  -1 136485. 1993.70   1
   9  -5   2 44383.3 1172.85   3
  -9   4   2 45241.4 1144.48   3
   9  -5   2 42431.8 1268.71   1
   5  -9   2 42598.4 837.046   4
  -4   9   2 43216.7 1238.98   1
   9  -5   2 45257.2 1015.95   2
   4   5   2 42858.9 1245.29   4
   9  -5   2 43754.9 1038.73   4
  -9   4   2 45011.6 763.645   1
  -4   9   2 42898.6 835.733   3
  -5  -4   2 44564.6 1198.18   3
  -5  -4   2 44875.2 1259.92   2
  -4   9   2 44265.6 1303.46   4
   4   5   2 43986.3 1431.92   2
   5  -9   2 41211.2 1212.36   1
  -5  -4   2 46285.0 740.255   1
  -4   9   2 43291.9 1388.23   2
   4   5   2 42752.2 712.023   3
  -5  -4   2 44283.9 1031.78   4
   4   5   5 48337.4 1533.41   4
   9  -5   5 50592.2 1172.58   4
  -9   4   5 51948.0 1423.83   3
   9  -5   5 53073.8 1470.05   2
   9  -5   8 8351.08 589.603   4
   9  -4 -11 24382.8 1360.12   3
   4  -9 -11 26328.3 1664.14   4
  -5   9 -11 25117.5 1748.38   1
  -9   5 -11 22124.4 1837.87   1
   9  -4 -11 19970.7 1914.02   2
  -4  -5 -11 22800.0 1413.41   4
   9  -4 -11 27007.7 1561.04   4
  -5   9 -11 24647.9 1521.30   3
  -4  -5 -11 23195.8 1937.77   2
   4  -9 -11 24189.3 2077.61   2
   5   4 -11 23993.3 1926.09   2
  -9   5 -11 21916.4 1564.69   2
   5   4 -11 21478.0 1429.80   3
  -9   5 -11 23613.8 1303.80   3
   5   4 -11 24815.5 1533.62   1
   9  -4 -11 24070.1 1623.45   1
  -5   9 -11 22632.7 1542.05   2
   5   4  -8 8971.07 602.521   4
   4  -9  -8 5429.28 728.999   4
   9  -4  -8 6557.87 755.281   4
   9  -4  -8 5126.72 624.200   1
  -4  -5  -8 6470.40 329.464   3
  -9   5  -8 7480.81 814.873   2
  -4  -5  -8 6875.71 1042.73   2
   5   4  -8 7704.40 533.855   4
  -9   5  -8 9288.15 1121.75   1
  -5   9  -8 7422.59 897.811   1
  -9   5  -8 8548.56 554.595   4
  -4  -5  -8 6988.04 785.098   4
   4  -9  -8 9187.95 1190.43   2
  -5   9  -8 6337.15 711.601   2
   5   4  -8 7100.42 799.178   3
  -4  -5  -8 5294.89 304.903   3
   9  -4  -8 9676.93 1217.76   2
   9  -4  -8 7939.70 707.055   3
   5   4  -8 7715.93 729.138   1
   4  -9  -8 8387.75 465.657   3
  -9   5  -5 54856.5 1857.95   1
  -4  -5  -5 55304.8 1622.81   4
  -9   5  -5 54085.6 1447.85   2
  -5   9  -5 54846.8 1235.96   2
  -5   9  -5 53813.2 1653.15   1
   5   4  -5 57830.8 1198.24   1
  -9   5  -5 53805.1 1494.94   3
  -4  -5  -5 54203.2 1934.42   2
   4  -9  -5 53634.8 876.245   3
   5   4  -5 56017.4 1181.78   4
   5   4  -5 56252.1 1625.76   3
   9  -4  -5 58667.4 1493.17   3
  -9   5  -5 54421.2 1176.18   4
   4  -9  -5 54566.5 2100.47   2
   9  -4  -5 55905.2 1208.55   1
   4  -9  -5 54005.0 1681.47   4
   5   4  -2 38583.1 680.385   1
   4  -9  -2 34569.2 1239.46   2
   5   4  -2 40018.1 1187.13   2
  -5   9  -2 38181.2 1140.37   1
   9  -4  -2 39280.4 709.324   1
  -9   5  -2 37932.9 880.702   2
   4  -9  -2 36303.4 1185.29   4
  -4  -5  -2 38913.3 1186.27   4
  -4  -5  -2 39538.8 1356.09   2
   9  -4  -2 38985.7 1088.79   3
  -9   5  -2 39809.2 1211.26   1
   5   4  -2 40585.7 1122.22   3
   5   4  -2 39355.6 991.464   4
  -4  -5  -2 38074.7 1179.94   1
  -4  -5  -2 37326.9 691.096   3
   4  -9  -2 38511.7 1146.79   1
  -9   5  -2 37949.9 1093.78   3
   9  -4   1 134272. 1834.68   4
  -4  -5   1 136901. 1848.94   4
  -4  -5   1 137893. 2062.22   2
   9  -4   1 135942. 1933.28   3
  -4  -5   1 138179. 1504.23   1
  -5   9   1 130788. 1657.88   3
  -5   9   1 139358. 2077.39   4
   4  -9   1 134784. 1687.61   4
   5   4   1 133265. 1485.31   3
  -9   5   1 136720. 1523.48   1
  -5   9   1 131793. 2101.60   2
   5   4   1 137030. 2288.42   2
   9  -4   1 131214. 1961.10   1
  -5   9   1 132797. 1985.23   1
  -4  -5   1 139031. 1904.97   3
   4  -9   1 134130. 1453.29   2
  -9   5   1 139875. 1910.13   3
   5   4   1 132220. 2049.49   4
   9  -4   1 130556. 1792.32   2
   4  -9   1 138905. 2036.51   1
  -9   5   4 537.509 281.475   3
   9  -4   4 109.978 290.337   2
  -5   9   4 441.656 182.495   3
   5   4   4 378.880 397.934   2
  -5   9   4 47.4493 332.517   4
  -5   9   4-336.164 432.509   2
   9  -4   4 9.02247 218.308   4
   4  -9   4 645.252 358.563   1
   5   4   4 286.488 294.559   4
  -4  -5   4 508.401 256.992   1
   9  -4   7 66834.3 2071.44   2
   9  -4   7 68074.6 1560.11   4
   3  -9 -12 17293.1 1478.89   4
   9  -3 -12 18798.1 2004.13   2
   9  -3 -12 17465.0 1252.07   3
  -3  -6 -12 20220.0 1945.79   2
  -9   6 -12 17012.3 1234.95   3
  -9   6 -12 18966.8 1810.74   1
  -6   9 -12 16573.0 1582.95   1
   3  -9 -12 14839.7 1885.34   2
  -9   6 -12 15576.2 1422.58   2
   6   3 -12 22316.1 1557.70   3
  -3  -6 -12 19198.3 1412.31   4
  -6   9 -12 17162.0 1329.84   3
   6   3 -12 18710.5 1864.98   2
   9  -3  -9 577.887 481.210   4
  -9   6  -9 971.060 481.976   2
   9  -3  -9 909.849 545.397   1
   6   3  -9 1866.31 613.003   3
  -3  -6  -9 100.211 658.467   2
  -9   6  -9 1162.24 268.660   4
   3  -9  -9 1205.07 226.788   3
  -3  -6  -9 962.474 503.640   4
   3  -9  -9 1041.32 695.588   2
   6   3  -9 764.073 369.239   4
  -6   9  -9 979.793 507.996   2
  -6   9  -9 39.1547 541.054   1
   6   3  -9 767.052 621.250   2
   9  -3  -9 736.507 708.984   2
   9  -3  -9 600.669 426.469   3
   3  -9  -9 703.786 541.001   4
  -9   6  -9 368.527 682.814   1
   6   3  -9 446.210 440.215   1
   3  -9  -6 53734.1 2210.68   2
   3  -9  -6 48424.3 740.621   3
  -3  -6  -6 50959.8 2048.69   2
   6   3  -6 53072.5 1258.76   4
  -3  -6  -6 53509.3 1691.26   4
  -9   6  -6 52812.8 1509.66   2
   6   3  -6 55916.5 1309.85   1
  -6   9  -6 54652.1 1399.95   2
  -9   6  -6 53359.6 1112.76   4
  -9   6  -6 52871.8 1948.44   1
   9  -3  -6 52022.5 1509.35   3
   3  -9  -6 53090.9 1763.45   4
   6   3  -6 52138.1 1638.54   3
   9  -3  -6 54557.4 1301.22   1
  -6   9  -6 50984.0 1777.18   1
  -9   6  -3 8708.51 711.845   1
   9  -3  -3 9541.87 618.478   3
   6   3  -3 8771.52 654.036   2
   6   3  -3 9061.44 312.157   1
   3  -9  -3 8164.23 662.853   4
   6   3  -3 9203.30 536.328   4
   3  -9  -3 8674.53 814.222   2
  -3  -6  -3 7844.79 643.296   4
  -9   6  -3 8102.94 424.870   2
  -9   6  -3 8234.92 615.902   3
  -6   9  -3 10389.3 708.482   1
  -3  -6  -3 10178.8 735.832   1
   6   3  -3 10216.7 684.164   3
   9  -3  -3 8661.30 322.170   1
   3  -9  -3 9500.43 681.708   1
  -3  -6  -3 8776.52 785.545   2
  -3  -6   0 251079. 2617.76   4
  -6   9   0 257732. 2692.16   1
   9  -3   0 259898. 2665.26   2
   6   3   0 258013. 2696.69   4
   3  -9   0 258018. 2692.99   1
   9  -3   0 257095. 2609.76   4
  -3  -6   0 255356. 2866.13   2
   3  -9   0 259786. 2578.99   2
  -6   9   0 256923. 2394.54   2
   9  -3   0 253594. 2266.12   1
  -6   9   0 263362. 2598.65   3
   9  -3   0 253029. 2621.20   3
   6   3   0 250251. 2320.75   3
  -3  -6   0 261843. 2418.87   1
   6   3   0 263422. 2985.42   2
   3  -9   0 255103. 2605.70   4
  -9   6   0 257813. 2654.69   3
  -9   6   0 252682. 2365.12   1
   6   3   3 43525.0 829.265   3
  -9   6   3 42341.9 981.653   1
   9  -3   3 43128.9 1152.91   3
  -6   9   3 44300.3 922.339   3
  -3  -6   3 41843.9 972.563   1
   9  -3   3 39394.3 1206.49   2
  -3  -6   3 43658.1 910.541   4
   6   3   3 43070.5 1494.46   2
   3  -9   3 42077.1 663.482   4
   6   3   3 43454.8 1276.63   4
   3  -9   3 42929.1 1276.51   1
   9  -3   3 41849.3 1115.92   4
  -9   6   3 39467.7 1078.60   3
  -6   9   3 42970.5 1265.85   1
  -6   9   6 53642.1 1119.76   3
   9  -3   6 54910.0 1786.84   2
   9  -3   6 55029.8 1426.32   4
  -9   6   6 54189.3 1464.97   3
  -9   7 -10 9450.38 1232.67   1
   2  -9 -10 8017.16 1365.93   2
   2  -9 -10 8231.11 990.539   4
  -7   9 -10 10992.2 1223.49   1
   7   2 -10 7848.76 1175.57   2
   9  -2 -10 7067.70 827.280   4
   7   2 -10 8175.20 714.502   4
   9  -2 -10 9604.32 983.477   1
  -2  -7 -10 7998.16 1302.05   2
  -9   7 -10 8562.22 943.792   2
  -7   9 -10 7519.88 892.709   2
   9  -2 -10 10141.3 951.963   3
   9  -2 -10 9724.07 1354.70   2
   7   2 -10 8425.56 911.611   1
  -2  -7 -10 8756.12 961.748   4
   7   2 -10 7842.94 876.572   3
  -9   7  -7 6220.59 394.444   4
  -2  -7  -7 4697.45 811.444   2
   7   2  -7 4422.47 510.415   1
  -9   7  -7 5047.25 597.044   2
   7   2  -7 5673.51 712.882   3
  -7   9  -7 5651.52 805.620   1
   7   2  -7 5647.81 540.005   4
   9  -2  -7 5844.84 629.219   3
  -2  -7  -7 5600.54 697.126   4
  -7   9  -7 4565.97 538.089   2
   9  -2  -7 5443.99 533.458   1
   2  -9  -7 6186.36 962.614   2
   9  -2  -7 6100.10 641.407   4
  -9   7  -7 5792.83 860.630   1
   2  -9  -7 5919.03 717.806   4
   2  -9  -4 1338.89 443.086   4
  -9   7  -4 1181.68 400.341   3
  -2  -7  -4 1292.78 446.957   1
  -7   9  -4 1625.33 449.863   1
  -9   7  -4 1765.89 511.123   1
  -9   7  -4 1866.58 277.718   2
   2  -9  -4 1724.61 477.416   1
   7   2  -4 1509.37 304.830   4
   7   2  -4 2001.29 408.465   3
   9  -2  -4 1192.42 360.278   3
   9  -2  -4 1033.02 157.437   1
   7   2  -4 1155.14 174.629   1
   2  -9  -4 916.409 520.462   2
  -7   9  -4 1305.10 164.459   2
  -2  -7  -4 1768.41 458.618   4
  -2  -7  -4 1292.94 539.848   2
  -2  -7  -1 20872.3 958.915   2
   2  -9  -1 23228.4 908.186   4
  -7   9  -1 19742.9 844.439   1
   2  -9  -1 23316.1 979.428   2
  -2  -7  -1 23367.8 874.549   1
   9  -2  -1 22112.2 893.699   2
  -9   7  -1 21229.3 834.562   3
  -2  -7  -1 20682.3 858.049   4
   7   2  -1 21208.5 804.732   4
  -7   9  -1 23578.4 901.913   3
  -9   7  -1 23761.4 870.523   1
   7   2  -1 21724.5 802.641   3
   9  -2  -1 18793.0 756.010   3
   2  -9  -1 24148.1 902.971   1
   9  -2  -1 20703.5 809.110   4
   7   2  -1 19660.8 876.709   2
   9  -2   2 40121.2 1069.58   3
  -2  -7   2 43468.6 964.516   4
  -9   7   2 41265.8 997.097   1
  -7   9   2 39937.7 1128.51   1
   7   2   2 40778.7 1191.03   4
   2  -9   2 41747.5 1161.67   1
   9  -2   2 40286.2 1123.81   4
   9  -2   2 41287.4 1224.23   2
  -9   7   2 40930.1 1079.21   3
   2  -9   2 42232.9 858.707   4
  -2  -7   2 44836.2 1022.34   1
   7   2   2 40518.4 1337.02   2
   2  -9   2 44936.4 926.077   2
  -2  -7   2 39533.8 1118.00   2
  -7   9   2 40108.6 971.252   3
   7   2   2 41641.1 926.563   3
   2  -9   5 88481.4 2117.08   1
   7   2   5 88391.7 1962.71   4
  -9   7   5 88525.0 1707.48   3
  -7   9   5 86144.6 1425.70   3
  -2  -7   5 89652.1 1847.41   1
   7   2   5 82382.0 2323.11   2
   9  -2   5 87023.5 2149.06   2
   9  -2   5 89539.7 1806.39   4
   9  -2   8 9471.16 747.724   4
  -8   9 -11 24044.5 1776.99   1
   1  -9 -11 23819.1 2052.37   2
  -1  -8 -11 25666.3 2092.76   2
  -1  -8 -11 26100.1 1605.30   4
   9  -1 -11 26090.7 1501.30   3
  -8   9 -11 25098.6 1516.24   3
   9  -1 -11 26479.6 1568.97   1
  -8   9 -11 24532.7 1511.35   2
   8   1 -11 27144.0 1548.01   3
  -9   8 -11 26230.4 1883.48   1
   8   1 -11 22458.6 1453.21   1
   9  -1 -11 29097.1 1512.27   4
   9  -1 -11 24099.6 2111.48   2
   1  -9 -11 26435.3 1648.16   4
   8   1 -11 24164.6 2042.72   2
  -9   8 -11 23681.2 1500.44   2
   9  -1  -8 26764.9 1285.88   3
   9  -1  -8 27065.3 1187.83   1
   1  -9  -8 26315.8 1400.16   4
   8   1  -8 26530.7 1159.49   4
   9  -1  -8 25738.9 1211.94   4
   1  -9  -8 24397.0 1749.05   2
  -8   9  -8 26874.5 1548.07   1
  -9   8  -8 26646.4 1251.89   2
   9  -1  -8 23575.5 1054.14   1
   8   1  -8 25876.3 1302.88   3
  -9   8  -8 25452.8 1577.38   1
   8   1  -8 25395.8 1151.91   4
  -8   9  -8 27105.6 1225.64   2
  -1  -8  -8 24160.6 1342.61   4
   8   1  -8 25202.6 1120.47   1
  -1  -8  -8 22768.8 1682.82   2
  -8   9  -5 64519.3 1174.68   2
  -1  -8  -5 65997.8 1869.01   4
   8   1  -5 63929.0 1065.69   1
  -1  -8  -5 67900.5 2258.15   2
   9  -1  -5 66957.5 1690.93   3
   8   1  -5 65903.3 1724.13   3
   1  -9  -5 64993.1 1889.10   4
  -8   9  -5 67708.7 1970.16   1
   1  -9  -5 60485.0 2206.43   2
  -9   8  -5 69933.7 2061.14   1
   8   1  -5 67632.3 1557.03   4
   9  -1  -5 63812.5 1108.77   1
  -9   8  -5 67918.5 1303.67   2
   9  -1  -5 66233.0 1069.80   1
   8   1  -2 31096.2 1128.74   2
   9  -1  -2 33356.6 1054.61   3
  -9   8  -2 32677.4 1093.34   3
  -8   9  -2 33884.5 1145.30   3
  -8   9  -2 23456.7 956.456   1
   8   1  -2 32525.2 1032.39   3
  -1  -8  -2 31296.3 1130.84   4
   9  -1  -2 31815.3 1150.10   2
   1  -9  -2 33743.8 1297.48   2
  -9   8  -2 32694.1 1126.37   1
   8   1  -2 32066.2 983.469   4
  -1  -8  -2 33004.9 1146.56   1
   9  -1  -2 32747.3 1026.01   4
  -1  -8  -2 32361.7 1288.97   2
   1  -9  -2 33461.7 1142.44   1
   1  -9  -2 23564.4 990.216   4
   1  -9   1 108852. 1617.70   4
  -8   9   1 110209. 1696.56   3
   8   1   1 114867. 2077.68   2
  -9   8   1 112117. 1710.29   1
   1  -9   1 110082. 1689.64   2
  -1  -8   1 117704. 1733.21   1
  -9   8   1 111163. 1759.16   3
  -1  -8   1 113785. 1839.13   2
   1  -9   1 115711. 1829.58   1
  -1  -8   1 112602. 1681.95   4
   9  -1   1 114470. 2017.12   2
   8   1   1 112648. 1623.21   3
   9  -1   1 109312. 1825.74   4
   9  -1   1 118026. 1763.62   3
  -8   9   1 110448. 1792.32   1
   8   1   1 110064. 1881.39   4
   9  -1   4 39682.3 1241.24   4
  -9   8   4 43351.9 1220.83   1
   1  -9   4 45338.0 1355.23   1
  -9   8   4 42534.2 1116.43   3
   1  -9   4 39481.1 607.752   4
  -8   9   4 44122.9 1331.57   1
   8   1   4 43473.4 1574.62   2
   9  -1   4 45738.8 1522.87   2
  -1  -8   4 44492.7 1261.63   1
   8   1   4 43091.6 998.788   3
   8   1   4 41289.0 1300.72   4
   9  -1   4 42037.9 1097.37   3
  -8   9   4 43900.9 1062.05   3
  -9   8   7 42312.5 1314.81   3
  -8   9   7 41166.8 1208.49   3
   9  -1   7 43898.4 1467.02   4
   9   0 -12 12145.1 1183.19   3
  -9   9 -12 13138.0 1539.73   1
  -9   9 -12 14112.2 1269.52   3
   0  -9 -12 13072.2 1301.16   4
   0  -9 -12 11527.8 1645.97   2
   9   0 -12 15509.4 1856.21   2
  -9   9  -9-327.366 630.470   1
   0  -9  -9 165.288 523.940   4
   9   0  -9 169.763 427.562   4
   9   0  -9 69.4470 434.422   1
   9   0  -9 106.247 486.849   3
   0  -9  -9 160.611 745.471   2
  -9   9  -9 46.7211 452.927   2
  -9   9  -6 10367.8 942.699   1
   0  -9  -6 11529.3 896.174   4
  -9   9  -6 12469.7 660.682   2
   9   0  -6 11854.0 588.100   1
   9   0  -6 12663.8 581.782   1
   0  -9  -6 13691.4 1247.18   2
   9   0  -6 11586.4 827.955   3
   0  -9  -3 36.1383 376.107   1
  -9   9  -3 218.306 311.478   3
   0  -9  -3 37.3414 354.602   4
  -9   9  -3 554.303 391.565   1
   9   0  -3 30.2127 337.257   2
   9   0  -3 146.057 250.618   4
   0  -9  -3-62.3287 477.376   2
   9   0  -3-303.328 347.918   3
   9   0   0 73307.0 1526.17   4
   9   0   0 68051.6 1624.20   2
   0  -9   0 71989.9 1582.96   2
   0  -9   0 73973.6 1503.46   4
   9   0   0 70941.1 1404.34   3
  -9   9   0 68238.9 1457.26   1
  -9   9   0 73341.7 1523.08   3
   0  -9   0 70871.3 1467.76   1
   0  -9   3 94.8689 293.653   1
   9   0   3-7.24502 244.313   3
  -9   9   3 97.9808 269.174   3
   9   0   3-110.076 291.160   4
  -9   9   3-75.7612 298.168   1
   0  -9   3-102.525 168.962   4
   9   0   3 151.456 371.086   2
  -9   9   6 3750.78 438.128   3
   9   0   6 3599.55 503.201   4
  10 -10 -10 46471.3 2124.91   4
 -10   0 -10 46082.4 1723.08   4
  10 -10 -10 49904.8 1663.28   3
   0  10 -10 51549.7 2375.40   2
   0  10 -10 46337.4 2063.04   3
   0  10 -10 49518.4 2084.83   1
  10 -10 -10 44395.6 2765.17   2
 -10   0 -10 45535.2 2529.73   1
 -10   0 -10 47946.6 2334.75   2
  10 -10  -7 17.1445 349.348   3
 -10   0  -7 389.683 399.429   4
  10 -10  -7-5.32728 455.116   4
   0  10  -7 115.078 457.944   3
   0  10  -7 323.822 430.994   1
 -10   0  -7 425.935 524.797   2
 -10   0  -7 244.994 336.105   3
  10 -10  -7 392.687 683.104   2
 -10   0  -4 173883. 2712.76   4
  10 -10  -4 174932. 2584.47   1
  10 -10  -4 175891. 3054.32   4
 -10   0  -4 176229. 2251.50   3
   0  10  -4 176453. 2468.42   2
  10 -10  -4 174779. 3627.35   2
   0  10  -4 179001. 1788.11   4
   0  10  -4 177776. 2526.37   1
  10 -10  -4 179503. 2444.64   3
  10 -10  -1 89.5313 329.007   3
   0  10  -1 237.558 278.669   4
 -10   0  -1 323.462 290.012   3
   0  10  -1 413.949 335.746   1
   0  10  -1 228.807 294.397   2
  10 -10  -1-72.3576 308.631   1
 -10   0  -1 538.882 360.334   4
 -10   0  -1 188.561 361.402   2
 -10   0   2 115691. 2029.77   3
   0  10   2 113929. 2263.03   4
   0  10   2 116051. 2499.07   2
  10 -10   2 108493. 983.859   2
   0  10   2 111006. 1280.78   3
   0  10   2 118154. 2258.60   1
  10 -10   2 114582. 2257.34   1
  10 -10   5 13.4895 158.380   4
   9 -10 -11 10409.9 1161.03   4
  -1  10 -11 10688.9 1131.00   3
  10  -9 -11 8411.32 1537.02   2
   9 -10 -11 9558.93 1545.77   2
   1   9 -11 11935.8 1165.94   3
  -1  10 -11 8053.12 1122.79   2
   1   9 -11 12123.0 1200.74   1
  -9  -1 -11 11265.7 1390.37   2
   1   9 -11 11322.6 1345.98   2
  10  -9 -11 9102.14 1118.70   4
  -1  10 -11 10871.0 1176.45   1
  -9  -1 -11 6343.59 1214.16   1
  10  -9 -11 10972.9 928.300   3
  -9  -1 -11 11148.3 963.352   4
 -10   1 -11 8870.76 1215.24   2
 -10   1 -11 12042.1 1499.92   1
  -1  10  -8 146.272 474.871   1
  -9  -1  -8 480.918 327.147   3
  -9  -1  -8 565.413 573.407   2
  10  -9  -8 1207.37 517.204   4
 -10   1  -8-757.297 675.680   1
 -10   1  -8 73.9480 374.188   3
  -1  10  -8 591.640 475.189   2
  -1  10  -8 646.029 514.682   3
 -10   1  -8-311.459 371.797   4
  10  -9  -8 200.447 359.969   3
 -10   1  -8 855.280 579.710   2
  -9  -1  -8 211.601 418.771   4
   9 -10  -8-141.364 471.853   4
   1   9  -8 836.884 525.121   3
   9 -10  -8 379.273 365.444   3
   1   9  -8 546.443 457.804   1
  10  -9  -8-73.6831 679.454   2
   9 -10  -8-35.7080 752.522   2
   1   9  -5 7513.20 597.942   1
   9 -10  -5 6007.34 613.597   1
   1   9  -5 7062.81 601.028   2
   1   9  -5 6378.38 335.719   4
  10  -9  -5 7015.63 741.349   4
  -9  -1  -5 5221.94 702.719   2
   9 -10  -5 6701.47 940.704   2
   1   9  -5 5975.68 657.812   3
  -1  10  -5 6453.20 606.752   1
  -1  10  -5 6390.70 521.958   2
  10  -9  -5 6646.89 569.385   3
 -10   1  -5 7046.57 616.303   4
  -9  -1  -5 7104.44 655.918   4
 -10   1  -5 6374.57 692.478   2
  10  -9  -5 7010.74 602.038   1
   9 -10  -5 6439.61 721.774   4
 -10   1  -5 7135.35 535.845   3
  -9  -1  -5 6882.38 477.139   3
  10  -9  -5 6857.52 934.846   2
   9 -10  -5 7005.90 534.377   3
   9 -10  -2 17084.2 987.036   2
  10  -9  -2 16903.3 786.591   3
   1   9  -2 16530.5 723.717   1
  -1  10  -2 16375.1 663.780   4
  10  -9  -2 15047.5 710.048   1
  -1  10  -2 18419.8 752.758   2
   9 -10  -2 17337.1 795.963   1
 -10   1  -2 16564.2 815.972   4
   9 -10  -2 16735.8 892.898   4
  -9  -1  -2 16368.6 662.543   3
 -10   1  -2 17003.8 858.591   2
  -9  -1  -2 16629.4 847.506   4
  -1  10  -2 17710.5 788.009   1
   9 -10  -2 18708.8 789.917   3
  -9  -1  -2 15328.5 869.051   2
   1   9  -2 17970.1 718.184   4
 -10   1  -2 17687.0 744.494   3
   1   9  -2 16279.5 783.803   2
   9 -10   1 17054.1 833.781   3
   9 -10   1 16328.7 551.523   2
  -9  -1   1 15921.8 456.700   1
 -10   1   1 16271.0 471.678   1
  10  -9   1 14579.7 512.733   2
   9 -10   1 16248.1 823.060   1
  -1  10   1 17529.6 919.086   2
   1   9   1 17906.2 856.566   1
  -1  10   1 16416.5 840.844   4
  -1  10   1 16276.6 840.195   1
   1   9   1 16969.8 938.701   2
  -9  -1   1 16490.6 783.281   4
  -9  -1   1 16652.1 762.980   3
  10  -9   1 15656.0 833.066   1
  10  -9   1 16505.6 840.257   3
 -10   1   1 16662.0 767.346   3
   1   9   1 14618.2 571.991   3
   1   9   1 15781.6 804.692   4
  -9  -1   1 16451.8 889.959   2
   9 -10   4 26079.1 666.800   4
  10  -9   4 25183.9 742.171   4
  10  -9   7 14751.3 516.445   4
  -2  10 -12 2920.37 901.103   1
   2   8 -12 1600.34 759.943   1
 -10   2 -12 1600.71 893.696   2
   2   8 -12 2169.01 971.172   2
   2   8 -12 2466.23 853.199   3
  10  -8 -12 2444.65 1167.65   2
   8 -10 -12 2829.67 894.917   4
  -8  -2 -12 3901.46 1211.90   1
  -2  10 -12 2016.21 768.674   3
 -10   2 -12 1089.70 1039.29   1
  -8  -2 -12 2879.42 1114.76   2
   8 -10 -12 1736.23 1128.84   2
  10  -8 -12 3317.32 901.070   4
  -2  10  -9 15034.6 1181.25   1
   2   8  -9 15944.1 1347.63   2
   8 -10  -9 15980.3 1241.05   4
 -10   2  -9 13023.6 1217.44   2
   2   8  -9 14926.7 1058.68   1
 -10   2  -9 17834.2 1544.95   1
 -10   2  -9 15845.3 940.670   4
   8 -10  -9 15178.4 869.843   3
   2   8  -9 16017.5 1195.61   3
  -2  10  -9 15500.1 1198.60   3
  10  -8  -9 15410.6 1600.97   2
  -2  10  -9 15600.9 1195.94   2
   8 -10  -9 14095.9 1595.70   2
  -8  -2  -9 13516.1 1362.88   2
  10  -8  -9 13923.4 1141.09   4
  10  -8  -9 17592.7 993.072   3
  -8  -2  -9 16520.6 1063.44   4
  -8  -2  -9 15117.2 719.620   3
  10  -8  -6 33559.8 1859.78   2
   2   8  -6 32845.6 718.690   4
   8 -10  -6 32499.2 1870.93   2
 -10   2  -6 30727.2 1147.85   4
   8 -10  -6 36065.5 1081.84   3
  -8  -2  -6 36119.7 1369.87   4
 -10   2  -6 37437.7 1779.83   1
 -10   2  -6 33564.0 1152.23   3
  -2  10  -6 34463.4 1369.53   1
   2   8  -6 33636.4 1417.24   3
  10  -8  -6 35393.4 1209.27   3
 -10   2  -6 36249.5 1505.11   2
   2   8  -6 35169.5 1241.42   1
  -2  10  -6 34495.4 1173.07   2
  10  -8  -6 31188.6 1205.71   1
  -8  -2  -6 38011.6 1709.31   2
  -8  -2  -6 34904.7 927.490   3
   8 -10  -6 34754.3 1509.29   4
   2   8  -6 32871.1 1317.02   2
  10  -8  -6 32920.0 1446.34   4
  -2  10  -3 69884.8 1569.80   1
   8 -10  -3 67189.5 1346.18   3
   8 -10  -3 69919.9 1843.87   4
  -2  10  -3 71507.8 1313.02   2
   8 -10  -3 68931.7 1593.55   1
 -10   2  -3 68234.6 1531.26   4
   8 -10  -3 69440.3 2040.42   2
   2   8  -3 72281.3 1275.93   4
   2   8  -3 72275.2 1602.09   2
  -8  -2  -3 65198.2 1617.02   4
  -2  10  -3 71488.3 1087.51   4
  -8  -2  -3 70491.2 1200.09   3
   2   8  -3 68654.6 1340.64   1
  10  -8  -3 67315.8 1482.88   3
 -10   2  -3 65416.1 1602.07   2
   2   8  -3 68000.6 1668.09   3
 -10   2  -3 68524.6 1831.93   1
  -8  -2  -3 68932.1 1845.46   2
  10  -8  -3 69261.8 1385.78   1
 -10   2  -3 70307.8 1438.89   3
 -10   2   0 24818.8 875.462   3
   8 -10   0 23475.9 808.902   2
 -10   2   0 25990.8 983.221   2
  -2  10   0 25462.7 912.425   4
 -10   2   0 23392.1 919.757   4
   8 -10   0 23258.5 932.704   3
   8 -10   0 23236.3 940.031   1
   2   8   0 25000.7 915.252   1
   2   8   0 24130.0 1004.13   2
  -8  -2   0 27194.8 961.115   4
  10  -8   0 25093.2 949.259   3
  -2  10   0 22850.2 928.642   2
 -10   2   0 25282.2 746.969   1
  -8  -2   0 25747.1 858.616   3
  10  -8   0 24607.6 912.547   1
  -8  -2   0 24649.4 1027.39   2
   2   8   0 24264.4 923.151   4
  -2  10   0 24675.0 930.050   1
   2   8   0 25189.7 805.954   3
  10  -8   3 85467.6 2062.70   1
  -2  10   3 78166.8 1919.19   1
  -2  10   3 80793.8 2203.37   2
  -2  10   3 85969.3 1982.22   4
   2   8   3 83994.5 2253.94   2
   8 -10   3 84271.8 2007.97   1
  -2  10   3 81860.6 927.306   3
  10  -8   3 84777.8 1394.38   4
   2   8   3 79768.0 1914.49   4
  10  -8   3 82771.4 1168.58   2
  -8  -2   3 80418.5 1786.53   3
 -10   2   3 84508.3 1762.30   3
  10  -8   6 5443.49 394.494   4
  10  -7 -10 24609.0 1249.43   3
  -3  10 -10 28081.5 1655.01   1
  -3  10 -10 26638.6 1588.99   2
  -7  -3 -10 24877.3 1379.58   4
 -10   3 -10 23910.1 1082.81   4
   7 -10 -10 27078.4 2112.14   2
  10  -7 -10 26741.6 1561.76   4
  -7  -3 -10 23456.8 1778.02   2
 -10   3 -10 28912.9 2037.40   1
   7 -10 -10 26710.9 1611.90   4
   3   7 -10 28527.8 1883.81   2
   3   7 -10 27685.9 1573.57   3
 -10   3 -10 23903.7 1632.87   2
   3   7 -10 30468.4 1566.47   1
  10  -7 -10 26229.9 2079.70   2
  -3  10 -10 28014.3 1596.39   3
   7 -10 -10 27669.9 1076.14   3
  -7  -3  -7 451.915 550.306   2
  10  -7  -7 741.348 641.473   2
   3   7  -7-209.691 323.903   1
  -3  10  -7 65.4386 436.455   1
   7 -10  -7 168.543 479.834   4
  -7  -3  -7-48.7789 377.956   4
  10  -7  -7 326.966 439.393   4
  10  -7  -7-309.369 399.573   1
 -10   3  -7 460.024 620.813   1
   3   7  -7 37.4263 165.001   4
   7 -10  -7 13.7896 273.405   3
   7 -10  -7 228.834 628.584   2
  10  -7  -7 215.122 351.784   3
   3   7  -7 871.756 501.585   3
 -10   3  -7-133.431 374.118   3
 -10   3  -7-99.5622 322.662   4
   3   7  -7-64.6600 183.538   4
 -10   3  -7 618.944 455.163   2
  -3  10  -7 124.524 393.253   2
  -7  -3  -7 317.920 225.623   3
   7 -10  -4 184577. 2081.83   3
   7 -10  -4 185563. 3059.85   4
   7 -10  -4 177817. 3530.35   2
   7 -10  -4 187012. 2828.59   1
   3   7  -4 189532. 2010.17   4
 -10   3  -4 188192. 2471.64   4
  10  -7  -4 184365. 2523.15   3
  10  -7  -4 187933. 2255.74   1
  -3  10  -4 191062. 2756.08   1
 -10   3  -4 195711. 3334.82   1
   3   7  -4 187471. 2853.29   3
  -7  -3  -4 170693. 2712.37   4
  -3  10  -4 184575. 2030.65   2
 -10   3  -4 193533. 2521.62   3
  -7  -3  -4 188752. 3256.37   2
 -10   3  -4 191957. 2760.74   2
   3   7  -4 196221. 2237.49   1
  -7  -3  -4 193866. 1799.63   3
   3   7  -4 188217. 2753.17   2
   7 -10  -1 24891.2 1001.30   2
   7 -10  -1 25898.5 871.024   3
  -3  10  -1 25798.8 933.293   1
  -7  -3  -1 23987.7 1022.04   2
   3   7  -1 26612.3 1016.12   2
 -10   3  -1 27102.8 934.540   2
  -7  -3  -1 25928.4 774.461   3
   3   7  -1 27468.7 823.892   1
  -7  -3  -1 24928.5 989.250   4
 -10   3  -1 26395.9 917.415   1
   7 -10  -1 25973.0 1013.73   4
  10  -7  -1 25483.1 939.517   3
   7 -10  -1 27257.6 968.219   1
  -3  10  -1 27910.3 843.751   2
  -3  10  -1 27218.7 856.087   4
   3   7  -1 28248.1 903.602   3
  10  -7  -1 25827.8 810.460   1
   3   7  -1 26906.4 890.963   4
 -10   3  -1 27390.7 913.467   3
 -10   3  -1 25146.2 926.492   4
  -3  10   2 190971. 2719.54   4
  -7  -3   2 188460. 2332.89   4
  -7  -3   2 176844. 1195.14   1
  10  -7   2 190700. 2594.37   3
  10  -7   2 187643. 2163.52   4
   7 -10   2 184673. 1968.63   4
   3   7   2 192710. 2706.30   4
  10  -7   2 197666. 1946.30   2
  -3  10   2 179703. 2655.28   1
 -10   3   2 185078. 2419.73   3
   7 -10   2 196699. 2749.29   1
   3   7   2 193582. 3085.05   2
  -3  10   2 188152. 1762.67   3
  -7  -3   2 191934. 2517.48   3
   3   7   2 188614. 1507.69   3
  -3  10   2 189931. 3028.12   2
  10  -7   2 187821. 2727.47   1
  10  -7   5 15323.8 764.857   2
  10  -7   5 16260.5 657.862   4
  10  -7   8 67140.2 1342.45   4
  -4  10 -11 1316.85 675.506   3
  10  -6 -11 1045.69 678.688   4
   6 -10 -11 2544.23 1156.63   2
   6 -10 -11 1542.26 753.357   4
   4   6 -11 2272.61 776.566   1
 -10   4 -11 1098.00 1058.26   1
   4   6 -11 1861.98 828.119   2
  10  -6 -11 1381.39 595.537   3
 -10   4 -11 1098.68 720.547   2
  -4  10 -11 1933.49 755.467   2
  -6  -4 -11 1155.89 579.679   4
  -4  10 -11 961.126 766.020   1
   4   6 -11 2022.58 686.239   3
  10  -6 -11 892.820 1090.54   2
  -6  -4 -11-190.256 853.240   2
   4   6  -8 13851.2 627.543   4
   6 -10  -8 14071.0 1110.34   4
   6 -10  -8 12518.5 1368.57   2
  -6  -4  -8 11082.4 486.698   3
 -10   4  -8 14696.7 1307.39   1
  -6  -4  -8 14229.1 1346.10   2
  -6  -4  -8 11739.3 511.863   3
  10  -6  -8 13371.4 1022.78   4
  10  -6  -8 13753.3 1405.76   2
   4   6  -8 12920.4 573.793   4
 -10   4  -8 12852.9 1045.21   2
 -10   4  -8 14028.8 779.897   4
   4   6  -8 14682.4 957.817   1
  -4  10  -8 12818.1 1037.76   1
  10  -6  -8 13652.0 888.164   3
   4   6  -8 12533.7 1014.99   3
  -4  10  -8 14763.6 993.708   2
   6 -10  -8 15566.8 702.689   3
  -6  -4  -8 13984.7 980.814   4
   6 -10  -5 37690.9 1766.85   2
   6 -10  -5 38614.2 913.022   3
   6 -10  -5 36790.6 1472.52   4
 -10   4  -5 36291.3 1206.52   3
  -4  10  -5 38983.6 977.689   2
  -6  -4  -5 41067.6 1697.61   2
  -6  -4  -5 38954.8 1382.20   4
   4   6  -5 37876.5 1043.07   1
 -10   4  -5 35507.7 1266.13   2
  -6  -4  -5 36580.8 703.380   3
 -10   4  -5 29835.8 1450.13   1
   4   6  -5 35158.8 916.521   4
   4   6  -5 38196.3 1363.49   3
  -4  10  -5 36552.2 1356.12   1
   4   6  -5 37850.9 1373.03   2
  10  -6  -5 33914.8 1040.02   1
  10  -6  -5 35499.4 1178.95   3
 -10   4  -5 37377.5 1104.04   4
   4   6  -2 33788.9 1134.72   2
  10  -6  -2 33595.3 1066.86   3
   4   6  -2 32595.2 939.979   4
  -6  -4  -2 35418.0 1324.12   2
   6 -10  -2 34909.3 1223.49   4
  -4  10  -2 33532.3 808.980   4
   4   6  -2 35591.6 1097.69   3
 -10   4  -2 34942.3 1038.14   4
   6 -10  -2 32693.9 887.967   3
  -4  10  -2 34464.6 1100.92   1
  -6  -4  -2 34867.2 773.480   3
   6 -10  -2 32119.1 1293.49   2
 -10   4  -2 34002.7 1033.57   3
   4   6  -2 34727.5 816.281   1
   6 -10  -2 34322.8 1118.03   1
 -10   4  -2 32665.9 978.201   2
 -10   4  -2 33777.2 1181.01   1
  -6  -4  -2 34022.9 1161.55   4
  10  -6  -2 34053.9 820.917   1
  -4  10  -2 36781.3 782.620   2
   6 -10   1 4360.36 296.211   2
   4   6   1 3023.72 288.209   3
  -4  10   1 3383.09 424.886   1
  10  -6   1 4236.70 369.951   2
  10  -6   1 4525.42 460.212   1
  -4  10   1 4088.59 453.279   4
   4   6   1 3983.06 463.251   4
   4   6   1 3987.21 526.271   2
  -6  -4   1 4458.07 491.344   2
  -6  -4   1 4648.07 449.727   4
  -6  -4   1 4817.59 304.117   1
   6 -10   1 4199.65 476.952   1
  -4  10   1 3759.40 489.029   2
  -6  -4   1 3903.23 427.251   3
  10  -6   1 4347.02 459.798   3
   6 -10   1 4097.67 382.376   4
  -4  10   1 4296.38 369.988   3
  10  -6   1 4144.19 415.891   4
 -10   4   1 4764.55 447.546   3
 -10   4   1 4538.86 315.258   1
   6 -10   4 36752.6 1403.02   1
 -10   4   4 36754.7 1190.03   3
  -4  10   4 35336.9 1351.78   4
   4   6   4 34830.4 1532.62   2
   6 -10   4 32137.0 447.619   4
  10  -6   4 36125.5 994.043   4
  -4  10   4 34234.0 631.385   3
   4   6   4 36092.0 1318.06   4
  10  -6   4 37561.3 1086.81   2
  10  -6   7 1663.87 335.962   4
  10  -6   7 1352.69 492.707   2
  -5  -5 -12 1580.87 643.060   4
   5 -10 -12 4856.76 1259.83   2
 -10   5 -12 1345.35 965.683   1
   5   5 -12 3453.47 827.819   3
  -5  -5 -12 2481.62 973.671   2
  -5  10 -12 4308.26 1090.46   1
   5 -10 -12 3484.54 886.702   4
  -5  10 -12 3303.86 756.976   3
 -10   5 -12 3944.90 970.401   2
  10  -5 -12 2350.00 702.694   3
   5   5 -12 4082.04 1164.97   2
  10  -5 -12 3846.85 1248.00   2
  10  -5  -9 13273.5 1075.39   4
   5   5  -9 17424.3 1237.53   3
   5 -10  -9 15908.3 1230.01   4
 -10   5  -9 16620.8 807.584   4
 -10   5  -9 16247.0 1480.90   1
   5 -10  -9 14195.7 1543.13   2
  -5  -5  -9 14052.7 1048.74   4
  -5  10  -9 16337.5 1124.03   2
  -5  10  -9 15550.3 1254.79   1
 -10   5  -9 12865.2 1110.31   2
  -5  -5  -9 13419.8 1437.60   2
   5   5  -9 16191.8 1063.55   1
  10  -5  -9 12297.7 1422.13   2
   5 -10  -9 14773.7 653.206   3
  10  -5  -9 14970.5 995.045   3
   5   5  -9 16155.0 771.087   4
   5 -10  -6 18157.4 1114.74   4
 -10   5  -6 19150.1 1278.61   1
  10  -5  -6 15899.5 770.724   1
 -10   5  -6 17989.6 955.734   3
 -10   5  -6 17509.5 751.435   4
 -10   5  -6 19202.7 1008.53   2
  -5  -5  -6 20926.8 1363.86   2
  10  -5  -6 18204.6 928.251   3
  -5  10  -6 18112.6 850.745   2
  -5  10  -6 18451.5 1080.88   1
   5   5  -6 18510.0 812.081   1
  -5  -5  -6 18667.0 1062.62   4
   5 -10  -6 15738.7 1355.39   2
   5   5  -6 18365.7 720.498   4
   5   5  -6 17456.7 1021.47   3
   5 -10  -6 18144.9 598.516   3
  -5  -5  -6 14548.3 376.261   3
 -10   5  -3 24189.1 935.780   3
  -5  -5  -3 24567.9 1052.93   4
   5 -10  -3 23857.9 1048.80   1
 -10   5  -3 26174.2 850.991   2
   5   5  -3 24777.9 635.262   1
  -5  10  -3 22596.0 493.088   2
   5 -10  -3 23565.1 1067.89   4
  -5  -5  -3 24764.3 1214.95   2
   5   5  -3 23851.4 810.555   4
  -5  10  -3 24085.8 1011.88   1
 -10   5  -3 22519.0 822.778   4
  10  -5  -3 26826.9 988.282   3
  10  -5  -3 24129.2 656.516   1
  -5  -5  -3 24008.2 543.661   3
   5 -10  -3 23534.8 682.368   3
   5   5  -3 25460.9 1038.01   2
   5   5  -3 25372.8 1034.92   3
   5 -10  -3 26943.4 1286.82   2
 -10   5  -3 23747.9 1116.94   1
  10  -5   0 76896.6 1470.66   2
  -5  10   0 80011.0 1491.09   3
 -10   5   0 78707.8 1551.12   3
   5 -10   0 79232.1 1541.48   4
  10  -5   0 80511.5 1403.44   1
   5 -10   0 78917.5 1442.29   2
  -5  -5   0 80891.8 1357.50   1
  -5  -5   0 79157.7 1567.28   4
  -5  10   0 77284.2 1617.03   1
  -5  -5   0 76308.0 1360.08   3
  -5  10   0 84062.4 1508.10   2
  -5  -5   0 77715.4 1696.19   2
  -5  10   0 79000.7 1514.12   4
   5   5   0 80569.7 1750.35   2
   5   5   0 76480.9 1328.32   3
  10  -5   0 77954.2 1569.27   3
   5   5   0 80579.7 1570.63   4
  10  -5   0 82836.9 1563.61   4
 -10   5   0 75852.8 1311.33   1
  -5  10   3 22025.0 1210.30   2
  10  -5   3 22873.9 920.009   3
  -5  -5   3 23501.3 660.307   1
 -10   5   3 22992.0 646.043   1
   5 -10   3 23314.7 561.900   4
  10  -5   3 22585.5 875.972   2
   5 -10   3 24735.6 1045.92   1
  -5  10   3 23632.6 1030.00   1
  -5  10   3 24032.6 1065.78   4
 -10   5   3 25605.2 936.163   3
   5   5   3 24522.4 1202.50   2
  -5  -5   3 23097.6 790.461   4
   5   5   3 24441.1 561.550   3
  10  -5   3 24465.1 854.414   4
   5   5   3 23657.1 1039.14   4
  -5  10   3 24043.0 657.094   3
  -5  10   6 16593.5 552.965   3
  10  -5   6 19399.4 1035.45   2
  10  -5   6 18022.1 799.154   4
  -4  -6 -10 25559.6 1444.29   4
   4 -10 -10 25084.4 2003.69   2
  -6  10 -10 23454.2 1408.92   2
  10  -4 -10 27183.8 1488.66   4
  -6  10 -10 25970.3 1516.85   3
  -4  -6 -10 26664.0 2007.70   2
  10  -4 -10 24485.7 1320.71   3
   6   4 -10 26045.6 1493.85   3
   6   4 -10 25346.2 1406.05   1
  10  -4 -10 25693.2 1503.48   1
 -10   6 -10 23500.7 1469.31   2
  -6  10 -10 24098.9 1616.77   1
   6   4 -10 24665.3 1847.81   2
 -10   6 -10 27539.1 1881.98   1
   4 -10 -10 22679.8 1505.20   4
  10  -4 -10 25664.6 2025.95   2
   6   4  -7 2136.86 376.030   4
   6   4  -7 3087.65 617.338   3
   4 -10  -7 2039.73 760.209   2
 -10   6  -7 3552.26 743.753   1
  -6  10  -7 2294.80 440.978   2
   4 -10  -7 2453.28 234.077   3
  10  -4  -7 2168.70 411.776   1
  10  -4  -7 3252.82 567.038   4
  10  -4  -7 2940.18 529.826   3
  -6  10  -7 1800.59 586.895   1
   6   4  -7 3298.42 468.499   1
   4 -10  -7 2332.64 535.228   4
 -10   6  -7 2752.12 527.008   2
  -4  -6  -7 2876.94 583.465   4
  -4  -6  -7 3351.80 922.889   2
 -10   6  -7 2950.54 374.326   4
  -6  10  -4 36859.8 637.656   2
  10  -4  -4 38330.3 810.389   1
 -10   6  -4 38630.7 1252.95   3
  -6  10  -4 39976.3 1396.23   1
  -4  -6  -4 38133.0 1357.44   4
 -10   6  -4 39571.2 1049.62   2
  10  -4  -4 35764.3 1172.66   3
   4 -10  -4 37792.1 724.651   3
  -4  -6  -4 37993.3 1616.21   2
   6   4  -4 39647.9 792.468   1
   6   4  -4 40051.0 1076.71   4
   4 -10  -4 37860.9 1665.24   2
 -10   6  -4 39354.4 1509.79   1
 -10   6  -4 37116.3 1017.52   4
   4 -10  -4 40176.0 1449.61   4
  -6  10  -4 35997.8 707.316   2
   6   4  -4 38744.6 1367.03   2
   6   4  -4 41206.8 1349.76   3
   4 -10  -4 37367.9 1396.56   1
  -6  10  -1 6003.38 354.198   2
  -4  -6  -1 5925.73 588.297   2
  -4  -6  -1 5333.49 367.615   3
 -10   6  -1 5632.67 488.651   3
  -6  10  -1 5433.97 522.803   1
  -6  10  -1 5502.34 485.981   3
  10  -4  -1 5813.60 355.757   1
  10  -4  -1 5847.64 522.848   2
  10  -4  -1 5993.47 529.892   3
 -10   6  -1 5534.01 502.001   1
   6   4  -1 5526.37 456.294   4
   4 -10  -1 5687.78 507.574   1
   4 -10  -1 5619.23 528.132   4
   6   4  -1 6172.72 489.886   3
   6   4  -1 5714.17 537.450   2
  -4  -6  -1 4387.72 478.164   4
   4 -10  -1 5285.25 526.314   2
  -4  -6  -1 5166.65 462.681   1
  -6  10   2 34478.6 875.947   3
   4 -10   2 34390.5 820.567   4
  -4  -6   2 35224.0 1141.79   2
  -6  10   2 35956.1 1295.42   2
   6   4   2 35558.4 1163.27   4
   6   4   2 34054.7 1326.27   2
   4 -10   2 32950.9 1116.58   1
  10  -4   2 36294.5 1098.25   3
  10  -4   2 36749.2 1103.70   2
 -10   6   2 32284.6 806.451   1
  -4  -6   2 34337.3 940.963   4
   6   4   2 34901.1 790.439   3
   4 -10   2 36218.2 720.419   2
  -4  -6   2 35847.1 838.499   1
  10  -4   2 32968.6 1012.23   4
 -10   6   2 36140.9 1063.83   3
  -6  10   2 33098.9 1109.19   1
  10  -4   5 35133.1 1316.67   2
 -10   6   5 36964.3 1206.70   3
   6   4   5 33882.4 1315.14   4
  -6  10   5 33330.7 796.471   3
  10  -4   5 38845.4 1150.76   4
  10  -4   8 12726.5 784.605   4
   7   3 -11 2557.46 731.020   3
  10  -3 -11 905.290 690.478   1
  -3  -7 -11 1667.16 622.597   4
  10  -3 -11 3464.57 798.752   3
   3 -10 -11 820.466 919.844   2
 -10   7 -11 4978.38 1102.01   1
  10  -3 -11 1704.78 1003.81   2
   7   3 -11 3139.74 1026.71   2
  -7  10 -11 1333.79 646.470   2
   3 -10 -11 1569.48 761.445   4
  -3  -7 -11 2569.36 1047.80   2
 -10   7 -11 1000.28 611.920   2
   7   3 -11 1878.62 712.789   1
  -7  10 -11 2600.97 685.464   3
  -7  10 -11 2278.78 867.383   1
  10  -3 -11 2735.18 730.858   4
  -3  -7  -8 73769.2 2857.42   2
  10  -3  -8 74944.7 2131.82   4
   3 -10  -8 74348.2 2935.29   2
   7   3  -8 76879.1 1869.54   1
  -3  -7  -8 74096.9 2239.86   4
 -10   7  -8 83220.5 2779.89   1
   7   3  -8 70730.7 1659.48   4
  -7  10  -8 77781.2 1982.52   2
   3 -10  -8 78422.4 2407.86   4
  10  -3  -8 73839.9 2050.71   3
   7   3  -8 84471.3 2315.58   3
  10  -3  -8 71615.0 1783.35   1
  -7  10  -8 77977.9 2496.68   1
   7   3  -8 74147.0 1761.50   4
 -10   7  -8 79150.2 2148.09   2
 -10   7  -8 78156.5 1373.25   4
  -7  10  -5 15612.9 578.681   2
   7   3  -5 16702.1 577.879   1
  10  -3  -5 16025.5 578.143   1
 -10   7  -5 17018.3 748.931   2
   7   3  -5 15377.0 916.888   3
   3 -10  -5 15116.7 1210.71   2
  -3  -7  -5 17576.1 1196.54   2
 -10   7  -5 17937.9 1120.34   1
  -3  -7  -5 16784.0 993.105   4
   7   3  -5 15514.2 725.072   4
   3 -10  -5 16027.4 1012.05   4
  10  -3  -5 14785.5 834.087   3
 -10   7  -5 15273.2 911.632   3
  -7  10  -5 14082.8 939.755   1
   3 -10  -2 192956. 2663.64   1
 -10   7  -2 194931. 2582.33   3
   7   3  -2 189977. 2744.87   2
 -10   7  -2 191640. 1786.72   2
  -3  -7  -2 194523. 2710.39   1
  -7  10  -2 192001. 2648.20   3
   7   3  -2 191726. 2350.30   4
  10  -3  -2 196710. 2502.06   3
  -7  10  -2 197629. 2673.04   1
  -3  -7  -2 198616. 3084.98   2
   3 -10  -2 189164. 2992.83   2
  -3  -7  -2 196564. 2767.14   4
   7   3  -2 197697. 2519.01   3
   3 -10  -2 198244. 2816.46   4
 -10   7  -2 199321. 2726.72   1
  10  -3   1 24772.7 922.469   3
   7   3   1 24478.1 1070.95   2
   3 -10   1 26454.4 947.900   1
  -3  -7   1 25418.5 784.344   1
  -3  -7   1 25929.5 867.609   4
   3 -10   1 24617.6 809.971   4
  10  -3   1 24150.4 890.446   4
   3 -10   1 24911.3 765.891   2
   7   3   1 25980.1 762.049   3
   7   3   1 23965.9 947.527   4
  -7  10   1 23727.6 819.300   3
  -3  -7   1 26735.2 984.430   2
  10  -3   1 22205.9 881.374   2
 -10   7   1 24577.9 780.310   1
  -7  10   1 27379.4 979.850   1
 -10   7   1 26592.4 929.284   3
  -7  10   4 177975. 2772.65   1
  10  -3   4 182349. 2505.57   4
   3 -10   4 180149. 2843.21   1
   7   3   4 184524. 3309.46   2
  -7  10   4 181355. 1959.35   3
   7   3   4 182699. 1802.23   3
  10  -3   4 185133. 2853.05   2
 -10   7   4 184426. 2462.21   3
  10  -3   4 182373. 2452.10   3
   7   3   4 183948. 2843.55   4
  -3  -7   4 181880. 2298.80   1
  10  -3   7 53.1209 310.549   4
  -7  10   7 130.490 253.652   3
  10  -2 -12 4826.17 1234.99   2
   2 -10 -12 3653.57 907.858   4
   2 -10 -12 4689.46 1253.69   2
  -2  -8 -12 2916.71 1171.13   2
 -10   8 -12 7505.33 1321.45   1
  -8  10 -12 6347.94 1163.81   1
  -8  10 -12 4888.57 923.462   3
   8   2 -12 2520.00 813.981   3
  10  -2 -12 5106.68 888.879   3
   8   2 -12 4633.05 1294.65   2
 -10   8 -12 3682.66 786.133   3
  -2  -8 -12 3697.17 830.372   4
   8   2  -9 26948.3 1430.97   3
 -10   8  -9 22752.8 1258.87   2
   2 -10  -9 22888.7 1427.74   4
  10  -2  -9 26497.2 1358.48   4
   8   2  -9 22726.9 1160.41   1
  10  -2  -9 25002.8 1876.06   2
   8   2  -9 23779.6 1142.12   4
  10  -2  -9 25139.7 1328.91   3
  -8  10  -9 23664.1 1237.77   2
  -2  -8  -9 23695.6 1817.97   2
  -8  10  -9 25249.4 1603.70   1
   2 -10  -9 21978.1 1835.41   2
  -2  -8  -9 25771.0 1446.86   4
  10  -2  -9 23206.7 1242.71   1
 -10   8  -9 26753.4 1728.81   1
  -2  -8  -6 5340.84 675.460   4
  -8  10  -6 5364.25 747.471   1
  -2  -8  -6 5949.31 916.278   2
 -10   8  -6 6016.68 532.763   2
   2 -10  -6 4825.52 687.036   4
  -8  10  -6 5590.95 459.440   2
 -10   8  -6 7018.33 867.579   1
   8   2  -6 5338.52 425.590   1
  10  -2  -6 6683.78 654.844   3
   8   2  -6 5831.89 525.244   4
   2 -10  -6 4418.33 868.027   2
  10  -2  -6 4790.43 405.641   1
   8   2  -6 5671.76 692.679   3
  -2  -8  -3 71476.8 2081.89   2
 -10   8  -3 77963.4 1779.05   3
   2 -10  -3 73244.8 2059.16   2
  -2  -8  -3 73577.0 1809.11   4
  -2  -8  -3 82211.8 1970.23   1
  10  -2  -3 79580.6 1702.61   3
  -8  10  -3 80683.7 1862.26   1
   8   2  -3 82346.9 1944.19   2
   2 -10  -3 80029.1 1920.17   4
   2 -10  -3 79017.5 1911.85   1
 -10   8  -3 78091.3 1033.94   2
   8   2  -3 78830.0 1581.99   4
   8   2  -3 81074.3 1772.56   3
  -8  10  -3 82274.8 1883.07   3
 -10   8  -3 81149.4 1935.96   1
   2 -10   0 22413.5 881.924   2
   2 -10   0 22170.6 893.585   1
  -8  10   0 20559.7 904.919   1
  -8  10   0 20846.0 852.444   3
 -10   8   0 21299.4 834.244   1
   8   2   0 21347.2 979.361   2
  -2  -8   0 21381.1 863.267   4
   8   2   0 22284.2 876.289   4
 -10   8   0 21853.9 863.771   3
   2 -10   0 20401.6 843.368   4
   8   2   0 21871.0 793.547   3
  10  -2   0 22634.5 955.358   2
  -2  -8   0 22739.7 958.724   2
  10  -2   0 22238.0 877.555   4
  -2  -8   0 22136.5 823.437   1
  10  -2   0 22157.4 867.972   3
   8   2   3 56906.8 1542.84   4
   8   2   3 61574.6 1188.11   3
  -8  10   3 62004.5 1553.68   1
   8   2   3 59050.8 1777.92   2
  10  -2   3 62004.0 1655.68   2
   2 -10   3 61223.5 1549.73   1
  10  -2   3 60359.7 1462.66   4
  -2  -8   3 61706.7 1128.75   4
  -2  -8   3 63798.2 1340.08   1
  10  -2   3 59442.9 1377.17   3
 -10   8   3 56168.9 1304.50   1
  -8  10   3 63826.3 1273.36   3
 -10   8   3 61358.5 1390.00   3
   2 -10   3 60637.1 968.716   4
 -10   8   6 31635.4 1144.27   3
  10  -2   6 31180.1 1191.28   4
  -8  10   6 31822.6 965.837   3
  10  -1 -10 6346.27 788.826   4
  10  -1 -10 6074.93 1191.15   2
 -10   9 -10 3930.56 685.472   2
   9   1 -10 5560.51 830.029   3
   9   1 -10 4720.54 660.588   4
  10  -1 -10 4891.56 805.456   1
  -9  10 -10 5019.42 956.138   1
  -9  10 -10 5297.74 756.730   2
  10  -1 -10 5412.44 813.898   3
 -10   9 -10 6334.95 1051.68   1
   9   1 -10 4238.06 1042.79   2
   1 -10 -10 4550.95 796.467   4
  -1  -9 -10 4873.33 838.823   4
   9   1 -10 5180.16 744.747   1
   1 -10 -10 5096.21 1113.83   2
  -1  -9 -10 4174.20 1055.21   2
 -10   9  -7 15473.1 1196.05   1
  -9  10  -7 16614.7 1195.47   1
  10  -1  -7 15820.2 741.908   1
   9   1  -7 18274.0 802.132   1
  -9  10  -7 18134.2 867.037   2
  -1  -9  -7 17593.1 1133.96   4
   9   1  -7 16770.7 1058.63   3
   1 -10  -7 15667.0 1092.42   4
   9   1  -7 16325.4 927.680   4
  10  -1  -7 17242.9 800.306   1
  10  -1  -7 15215.8 973.688   3
 -10   9  -7 16690.9 861.449   2
   1 -10  -7 18590.8 1464.45   2
  -1  -9  -7 16498.3 1392.78   2
  10  -1  -4 26811.9 1089.18   3
  10  -1  -4 23598.5 994.604   4
   1 -10  -4 26597.4 1220.92   4
 -10   9  -4 22710.5 552.685   2
  -1  -9  -4 22916.5 1321.46   2
   9   1  -4 23775.0 952.152   4
  -9  10  -4 22672.5 1143.55   1
   9   1  -4 24991.1 1069.65   3
   1 -10  -4 24505.6 1407.60   2
 -10   9  -4 21542.9 1062.35   3
  -1  -9  -4 24431.2 1178.63   4
 -10   9  -4 24062.6 1204.26   1
   1 -10  -1 16043.6 893.384   2
  -1  -9  -1 15837.1 797.945   1
  -1  -9  -1 16085.2 841.167   4
   1 -10  -1 14459.4 810.879   4
  10  -1  -1 15227.0 754.727   3
  10  -1  -1 16531.3 842.529   2
  -1  -9  -1 14495.8 869.670   2
  -9  10  -1 14842.9 795.111   1
 -10   9  -1 15134.6 775.221   3
  10  -1  -1 13866.7 724.520   4
   9   1  -1 15051.0 835.921   2
   9   1  -1 14468.0 723.094   4
 -10   9  -1 16069.3 800.484   1
   9   1  -1 17151.7 779.067   3
   1 -10  -1 17024.9 813.744   1
  -9  10  -1 15221.7 790.439   3
   9   1   2 16683.2 698.242   3
   1 -10   2 16290.1 710.179   2
  10  -1   2 13653.4 701.738   3
  -9  10   2 15525.1 766.880   1
  -1  -9   2 16893.3 782.010   2
  -1  -9   2 17638.6 686.031   4
   9   1   2 16601.2 832.497   4
  10  -1   2 16528.5 802.239   4
  10  -1   2 17919.7 914.916   2
   9   1   2 15932.6 929.091   2
   1 -10   2 15853.5 624.362   4
   1 -10   2 17602.9 799.032   1
 -10   9   2 16054.8 732.828   1
  -1  -9   2 16954.5 739.471   1
 -10   9   2 16771.8 752.346   3
  -9  10   2 17067.9 729.929   3
  10  -1   5 5981.15 601.226   4
  10  -1   5 5957.92 710.399   2
   9   1   5 6714.30 637.460   4
  -1  -9   5 7524.63 636.422   1
   1 -10   5 6110.37 639.581   1
  -9  10   5 6353.51 474.197   3
 -10   9   5 7616.01 569.298   3
  -9  10   8 257.412 352.836   3
 -10  10 -11 1015.64 799.168   1
   0 -10 -11-329.648 633.735   4
   0 -10 -11 774.959 946.153   2
  10   0 -11 653.741 596.131   3
  10   0 -11-305.003 858.646   2
 -10  10  -8 49973.5 1536.86   2
   0 -10  -8 47044.3 2374.34   2
   0 -10  -8 48733.8 1941.18   4
  10   0  -8 50611.6 1437.88   1
  10   0  -8 49556.6 1672.81   4
  10   0  -8 43460.8 1286.19   1
 -10  10  -8 45836.4 2081.31   1
  10   0  -8 49969.1 1795.87   3
  10   0  -5 168.344 376.943   3
   0 -10  -5-97.0939 512.577   2
 -10  10  -5 31.6005 137.805   2
   0 -10  -5 21.0335 416.531   4
 -10  10  -5 214.818 438.117   1
  10   0  -5-90.5757 300.236   4
  10   0  -5 97.2126 106.592   1
  10   0  -5 77.8742 95.2458   1
  10   0  -2 105273. 2161.74   2
 -10  10  -2 113517. 2143.27   3
   0 -10  -2 109304. 2396.29   2
  10   0  -2 109480. 1971.86   4
   0 -10  -2 112157. 2215.58   4
 -10  10  -2 108952. 2140.31   1
   0 -10  -2 112935. 2173.59   1
   0 -10   1-28.3580 297.644   2
 -10  10   1-9.82416 272.375   3
   0 -10   1 477.175 288.361   4
   0 -10   1 323.731 298.936   1
  10   0   1 224.110 291.790   4
  10   0   1 279.954 279.934   3
  10   0   1 460.249 369.090   2
 -10  10   1 541.606 365.552   1
  10   0   4 176853. 2765.15   4
   0 -10   4 174919. 2678.14   1
 -10  10   4 171239. 2615.10   1
   0 -10   4 175924. 1639.80   4
  10   0   4 172681. 3155.71   2
 -10  10   4 177053. 2350.85   3
  10   0   4 175166. 2301.97   3
 -10  10   7 162.638 321.070   3
   0  11 -11 3.30997 767.472   2
 -11   0 -11-96.5137 727.635   2
  11 -11 -11 940.119 943.079   2
   0  11 -11 1275.03 800.438   1
 -11   0 -11-118.234 481.628   4
  11 -11 -11-132.894 701.429   4
   0  11 -11 149.253 657.570   3
 -11   0 -11-827.799 890.571   1
  11 -11  -8 5388.31 1168.89   2
   0  11  -8 7137.51 801.498   1
  11 -11  -8 6905.55 865.726   4
 -11   0  -8 5264.66 560.759   3
   0  11  -8 5496.86 854.989   3
 -11   0  -8 5282.28 674.761   4
 -11   0  -8 5372.01 896.410   2
  11 -11  -8 6375.84 643.200   3
 -11   0  -5 252.683 267.044   3
   0  11  -5-58.9487 446.874   3
   0  11  -5 28.5690 287.830   2
  11 -11  -5 41.9424 326.096   3
 -11   0  -5-17.2127 393.813   2
  11 -11  -5-381.290 460.375   4
   0  11  -5-25.0521 349.545   1
 -11   0  -5-3.24427 351.250   4
   0  11  -5 28.4010 138.013   4
  11 -11  -5 442.138 347.534   1
  11 -11  -5 27.0846 606.141   2
  11 -11  -2 9999.29 671.536   1
   0  11  -2 9845.38 641.274   1
 -11   0  -2 9834.05 698.175   4
  11 -11  -2 10990.8 713.150   3
   0  11  -2 9514.03 594.665   4
  11 -11  -2 10597.7 884.225   2
   0  11  -2 10220.2 672.136   2
 -11   0  -2 10639.8 626.017   3
 -11   0  -2 8728.46 736.098   2
   0  11   1 466.499 380.704   2
  11 -11   1 422.991 353.955   3
 -11   0   1 106.313 349.730   2
   0  11   1 299.476 327.021   4
 -11   0   1 116.665 172.188   1
   0  11   1-19.5367 355.388   1
 -11   0   1-123.376 288.791   3
 -11   0   1 13.6831 354.044   4
  11 -11   1 138.947 377.430   1
  11 -11   4 11245.7 540.906   4
  11 -11   7 49.4931 108.966   4
   1  10 -12 276.238 755.751   1
 -11   1 -12 1075.72 857.241   2
  10 -11 -12 1729.85 855.058   4
   1  10 -12 776.213 680.482   3
   1  10 -12 1879.18 1037.71   2
  10 -11 -12 1782.22 1238.14   2
 -10  -1 -12 1234.99 1028.90   1
  -1  11 -12 447.479 760.430   1
  11 -10 -12 937.387 709.274   4
 -11   1 -12 2225.68 1027.50   1
 -10  -1 -12 1583.50 906.702   2
  -1  11 -12 1303.08 856.876   3
  11 -10 -12 268.143 1015.37   2
  10 -11  -9 11979.4 1146.97   4
  10 -11  -9 10341.8 1415.28   2
  11 -10  -9 13273.2 926.693   3
 -11   1  -9 12821.6 950.809   4
 -10  -1  -9 13104.4 1300.41   2
 -11   1  -9 14938.3 1493.41   1
  -1  11  -9 12894.9 1133.75   3
   1  10  -9 13597.5 1068.48   1
  -1  11  -9 11082.3 1090.32   2
  11 -10  -9 14522.3 1244.13   4
   1  10  -9 11481.3 1107.14   3
   1  10  -9 12501.0 1194.73   2
 -11   1  -9 11719.1 1245.10   2
  -1  11  -9 12561.5 1073.22   1
 -10  -1  -9 13215.4 1005.73   4
  10 -11  -9 12265.4 845.070   3
  11 -10  -9 12460.1 1530.51   2
  -1  11  -6 2275.26 416.763   2
  11 -10  -6 1835.64 417.389   3
 -10  -1  -6 2400.09 358.584   3
  10 -11  -6 2271.01 418.326   3
 -11   1  -6 1923.85 400.268   3
  11 -10  -6 928.306 695.176   2
   1  10  -6 2278.68 461.350   1
  10 -11  -6 3006.88 628.587   4
 -10  -1  -6 2322.28 597.083   2
   1  10  -6 1943.45 468.840   2
  11 -10  -6 2204.43 486.887   1
  11 -10  -6 2202.66 571.852   4
 -11   1  -6 2102.66 588.092   2
  -1  11  -6 2594.91 504.837   1
 -10  -1  -6 1788.75 441.003   4
 -11   1  -6 1823.41 421.000   4
   1  10  -6 2901.90 621.684   3
  10 -11  -6 2445.32 753.975   2
   1  10  -6 1428.84 162.570   4
   1  10  -3 4002.40 473.775   2
  11 -10  -3 3916.16 463.733   1
  10 -11  -3 3158.91 629.679   2
  -1  11  -3 4243.49 492.263   1
  -1  11  -3 3708.81 347.156   4
   1  10  -3 3984.86 545.270   3
  11 -10  -3 3600.26 452.092   3
 -11   1  -3 4134.74 510.329   4
  10 -11  -3 3174.36 477.401   1
 -10  -1  -3 4715.04 537.317   4
   1  10  -3 4438.20 464.686   1
   1  10  -3 3811.19 391.177   4
 -10  -1  -3 3080.36 560.700   2
 -10  -1  -3 3941.24 390.766   3
  -1  11  -3 4271.26 444.709   2
 -11   1  -3 3296.45 534.852   2
  10 -11  -3 2685.12 528.736   4
  10 -11  -3 3262.09 450.211   3
 -11   1  -3 4872.12 460.352   3
  -1  11   0 3426.12 467.418   1
  10 -11   0 3289.75 467.019   3
 -10  -1   0 3381.36 523.320   2
   1  10   0 3071.17 367.471   3
   1  10   0 2705.42 410.322   4
 -10  -1   0 2767.56 464.784   4
   1  10   0 4026.11 504.084   1
   1  10   0 3989.00 536.734   2
 -11   1   0 3286.38 498.962   2
 -11   1   0 3083.28 397.746   3
 -11   1   0 2606.96 455.847   4
 -11   1   0 2590.84 353.688   1
  11 -10   0 3675.62 445.057   1
  11 -10   0 3481.94 498.119   3
 -10  -1   0 3037.68 386.905   3
  10 -11   0 3934.60 496.292   1
  -1  11   0 3692.27 514.781   2
  -1  11   0 3270.34 462.498   4
  10 -11   0 3062.60 422.518   2
  -1  11   3 40359.2 1472.43   1
  -1  11   3 41706.5 714.176   3
  11 -10   3 36832.8 632.534   2
  -1  11   3 41573.8 1692.51   2
   1  10   3 37316.4 593.544   3
   1  10   3 40856.1 1675.53   2
 -11   1   3 42697.5 1364.62   3
  11 -10   3 45855.9 1086.24   4
  10 -11   6 1971.27 177.279   4
  11 -10   6 1804.55 257.505   4
   9 -11 -10 5127.43 630.261   3
   2   9 -10 4671.77 877.700   3
 -11   2 -10 5098.57 1141.08   1
  11  -9 -10 5331.01 1222.11   2
  -9  -2 -10 4414.66 694.576   4
  -2  11 -10 4680.74 843.795   1
 -11   2 -10 4492.58 885.812   2
 -11   2 -10 5900.27 694.128   4
  -9  -2 -10 5500.38 1044.63   2
  11  -9 -10 4511.14 706.533   3
  -2  11 -10 4537.42 827.631   3
  -2  11 -10 5652.26 909.083   2
   9 -11 -10 2678.59 997.318   2
  11  -9 -10 5846.01 901.655   4
   2   9 -10 6057.02 1069.50   2
   2   9 -10 6708.36 910.565   1
   9 -11 -10 4573.22 866.767   4
   9 -11  -7 45380.4 1836.61   4
  -2  11  -7 45533.0 1454.04   2
  11  -9  -7 46884.3 2332.74   2
 -11   2  -7 45305.0 2120.50   1
 -11   2  -7 48966.6 1528.48   4
  -9  -2  -7 48620.2 1678.29   4
   9 -11  -7 46472.9 1315.01   3
 -11   2  -7 45400.4 1810.02   2
  11  -9  -7 48035.5 1512.23   3
   9 -11  -7 49399.0 2415.46   2
   2   9  -7 51144.1 1869.97   3
  -2  11  -7 48327.5 1715.32   1
  -9  -2  -7 47066.2 2023.95   2
   2   9  -7 49308.7 1576.95   1
 -11   2  -7 45328.8 1416.17   3
  11  -9  -7 46271.4 1855.22   4
  -9  -2  -7 47700.0 1170.91   3
 -11   2  -4 83278.4 1669.16   3
   9 -11  -4 76404.1 1553.96   3
   2   9  -4 77574.3 1332.69   4
   9 -11  -4 81282.0 2456.84   2
  11  -9  -4 80675.1 1731.05   3
 -11   2  -4 83790.8 2263.39   1
  -9  -2  -4 82093.8 1386.32   3
  11  -9  -4 81148.6 1641.39   1
  -2  11  -4 76827.0 1044.21   4
   2   9  -4 81356.1 1615.05   1
   2   9  -4 78613.3 1962.87   3
  -2  11  -4 75485.8 1771.15   1
   9 -11  -4 75538.0 1827.97   1
 -11   2  -4 80253.4 1935.81   2
   2   9  -4 80878.6 1812.06   2
   9 -11  -4 80300.8 2120.59   4
  -9  -2  -4 79794.6 2177.72   2
  -2  11  -4 82118.7 1546.29   2
  -9  -2  -4 81683.1 1940.10   4
 -11   2  -4 76783.9 1745.75   4
  11  -9  -1 89702.6 1787.92   3
   9 -11  -1 89656.7 1927.56   4
   9 -11  -1 89922.0 1820.08   1
   2   9  -1 90975.3 1910.72   2
  -9  -2  -1 85885.7 1918.13   2
 -11   2  -1 87209.6 1655.53   3
 -11   2  -1 89466.8 1777.27   4
   2   9  -1 88966.9 1717.23   4
 -11   2  -1 85549.2 1671.12   1
  -2  11  -1 90179.5 1669.72   4
  -2  11  -1 90623.3 1718.96   2
  -2  11  -1 88974.1 1763.62   1
   9 -11  -1 88977.8 1887.25   2
  -9  -2  -1 85543.6 1823.45   4
 -11   2  -1 90302.9 1820.16   2
  -9  -2  -1 88423.9 1527.54   3
   2   9  -1 87282.8 1621.65   1
   9 -11  -1 91257.1 1730.62   3
   2   9  -1 89818.9 1670.59   3
  11  -9  -1 89421.0 1658.13   1
  -2  11   2 73381.1 1180.30   3
  11  -9   2 79304.7 1484.53   4
  -2  11   2 76953.5 1852.07   1
  -2  11   2 74138.4 2009.85   2
  11  -9   2 73069.0 1826.85   1
  -9  -2   2 77118.1 1629.89   4
  11  -9   2 81152.1 1173.38   2
   2   9   2 77234.7 1063.47   3
   2   9   2 78704.5 2084.62   2
  -2  11   2 71579.6 1811.67   4
 -11   2   2 78811.2 1713.59   3
   2   9   2 77078.8 1856.65   4
   9 -11   2 74075.1 1828.98   1
  11  -9   2 74779.5 1758.76   3
  -9  -2   2 76438.8 1703.17   3
  11  -9   5 29827.8 898.021   2
   9 -11   5 28580.8 588.601   4
  11  -9   8 23365.2 699.962   4
  -3  11 -11 9776.75 1113.74   3
  11  -8 -11 7928.83 1099.07   4
   3   8 -11 8718.76 1103.26   1
   8 -11 -11 11059.3 1223.64   4
 -11   3 -11 9856.35 1399.88   1
  -3  11 -11 9737.21 1126.16   2
  11  -8 -11 11249.9 1662.96   2
   8 -11 -11 8812.79 1512.41   2
  -3  11 -11 11997.0 1245.49   1
 -11   3 -11 8258.59 1158.67   2
   3   8 -11 11373.2 1427.44   2
   3   8 -11 9762.55 1147.30   3
  -8  -3 -11 8040.21 908.828   4
  11  -8 -11 8937.72 884.186   3
  -8  -3 -11 9956.01 1382.67   2
   8 -11  -8 5220.28 1093.47   2
  -8  -3  -8 5311.30 424.455   3
   8 -11  -8 6233.11 567.557   3
   3   8  -8 4161.19 284.172   4
  11  -8  -8 5428.77 987.514   2
  -8  -3  -8 6989.00 772.324   4
  -8  -3  -8 4547.24 844.993   2
  -3  11  -8 7009.48 863.383   1
   3   8  -8 6558.51 808.260   3
  11  -8  -8 5253.57 739.806   4
  -3  11  -8 6400.72 774.042   2
   8 -11  -8 4879.65 794.636   4
   3   8  -8 6008.58 663.509   1
 -11   3  -8 7246.05 903.187   2
  -3  11  -8 5619.91 824.844   3
 -11   3  -8 6393.68 636.127   4
 -11   3  -8 6442.26 1022.06   1
   3   8  -8 3652.34 250.398   4
  11  -8  -8 6882.23 703.425   3
   8 -11  -5 62432.2 1336.37   3
 -11   3  -5 62547.3 1552.19   3
   3   8  -5 61946.4 1735.84   2
   8 -11  -5 61594.5 1936.18   4
 -11   3  -5 64320.4 2143.12   1
   8 -11  -5 62133.8 2318.51   2
  -3  11  -5 64154.1 1763.70   1
  -3  11  -5 65331.3 1359.51   2
  -8  -3  -5 66200.6 1832.20   4
  -8  -3  -5 60253.6 2066.45   2
  11  -8  -5 62344.4 1481.02   1
  -8  -3  -5 63244.9 1117.71   3
   3   8  -5 60207.2 1148.50   4
 -11   3  -5 64857.2 1813.67   2
 -11   3  -5 62252.6 1556.44   4
  11  -8  -5 58086.0 1542.40   3
   3   8  -5 61185.3 1440.10   1
   3   8  -5 58217.3 1743.77   3
  -3  11  -2 90751.4 1466.60   4
   8 -11  -2 88316.1 1612.86   3
 -11   3  -2 89183.9 1910.80   1
   3   8  -2 91190.9 1507.14   1
   8 -11  -2 89265.5 2009.61   4
 -11   3  -2 86457.3 1734.86   4
  -8  -3  -2 88408.0 1874.79   4
  11  -8  -2 91579.8 1786.33   3
   8 -11  -2 89583.9 1841.84   1
   3   8  -2 88851.4 1770.58   3
  -8  -3  -2 87559.5 2035.12   2
  -8  -3  -2 88470.4 1414.99   3
   3   8  -2 88760.1 1609.52   4
  11  -8  -2 88006.9 1524.47   1
   3   8  -2 89849.3 1842.17   2
  -3  11  -2 88390.7 1794.64   1
 -11   3  -2 88701.8 1793.33   2
 -11   3  -2 90803.0 1721.95   3
   8 -11  -2 88957.4 2076.82   2
  -3  11  -2 92249.2 1500.45   2
   8 -11   1 46335.2 1191.27   4
  11  -8   1 47740.7 1026.45   2
   3   8   1 44589.2 1286.94   1
  11  -8   1 47321.8 1355.74   3
  -3  11   1 46182.9 1349.71   4
   3   8   1 45668.2 962.561   3
   8 -11   1 46194.3 873.498   2
   3   8   1 48854.3 1412.97   4
 -11   3   1 47141.9 1287.45   3
  -8  -3   1 50013.4 860.851   1
  -3  11   1 49315.7 1383.23   1
  -8  -3   1 48842.7 1462.42   2
 -11   3   1 48267.4 849.530   1
   3   8   1 47627.4 1518.36   2
  -8  -3   1 46870.5 1256.02   3
  11  -8   1 46412.3 1341.97   1
   8 -11   1 47313.1 1370.43   1
  -3  11   1 47053.7 1438.85   2
  -8  -3   1 48635.5 1292.47   4
   8 -11   4 26103.4 626.449   4
  11  -8   4 27624.7 851.763   2
  11  -8   4 26948.6 874.846   4
   8 -11   4 26719.1 590.778   4
  11  -8   7 3963.60 391.837   4
   7 -11 -12 1817.60 1148.89   2
   4   7 -12 2514.15 1119.99   2
   4   7 -12 184.471 703.417   3
   7 -11 -12 1602.92 830.513   4
 -11   4 -12 563.034 960.151   1
  11  -7 -12 478.205 1116.97   2
  11  -7 -12 695.729 655.615   4
  -7  -4 -12 2159.44 992.985   2
  -7  -4 -12 740.804 967.534   1
  -4  11 -12 2569.09 778.457   3
 -11   4 -12 683.495 774.977   2
  -4  11 -12 1249.61 805.321   1
 -11   4  -9 8892.96 983.248   2
  11  -7  -9 9525.29 1316.97   2
  -4  11  -9 8076.57 887.503   2
   4   7  -9 5798.45 376.554   4
  11  -7  -9 8673.17 932.560   4
   4   7  -9 8128.76 911.179   3
   4   7  -9 9555.21 854.613   1
 -11   4  -9 8327.53 668.914   4
   7 -11  -9 14211.1 1350.67   4
  -4  11  -9 10101.9 1016.77   1
 -11   4  -9 8791.01 1165.96   1
  -4  11  -9 7836.42 940.002   3
  11  -7  -9 8091.36 780.852   3
  -7  -4  -9 9199.77 915.995   4
  -7  -4  -9 9545.30 1208.14   2
   7 -11  -9 6906.35 1251.69   2
  -7  -4  -9 6022.38 383.152   3
   7 -11  -9 7173.85 565.876   3
  -7  -4  -6 801.241 429.532   4
   4   7  -6 836.308 477.232   3
   7 -11  -6 327.868 239.249   3
  11  -7  -6 671.258 335.956   1
   7 -11  -6 245.715 445.743   4
  -4  11  -6 859.002 348.590   2
  -7  -4  -6 185.131 488.043   2
 -11   4  -6-145.427 379.543   2
 -11   4  -6 604.897 621.067   1
  -4  11  -6 351.239 261.472   2
 -11   4  -6 355.807 344.327   3
  -7  -4  -6 446.053 175.071   3
  11  -7  -6 106.148 360.022   3
   4   7  -6 271.077 210.972   4
   4   7  -6 537.810 323.848   1
   7 -11  -6 499.050 678.294   2
 -11   4  -6-171.144 277.397   4
  -4  11  -6 1017.01 467.925   1
  11  -7  -6 80.7479 366.338   4
 -11   4  -3 68019.4 1550.85   3
  11  -7  -3 65037.8 1241.14   1
 -11   4  -3 64659.8 1487.52   2
   4   7  -3 67410.6 1362.48   4
   7 -11  -3 68055.4 1303.84   3
  -7  -4  -3 59557.8 1633.64   4
  -4  11  -3 68419.8 1117.82   2
   7 -11  -3 62130.6 1946.82   2
   4   7  -3 67282.5 1649.34   3
   7 -11  -3 63034.2 1796.58   4
   4   7  -3 68345.0 1221.42   1
  -7  -4  -3 63999.8 1867.77   2
 -11   4  -3 65939.0 1476.56   4
   4   7  -3 65234.6 1646.31   2
 -11   4  -3 61172.2 1739.49   1
  -7  -4  -3 69442.7 1104.69   3
   7 -11  -3 66815.3 1656.90   1
  11  -7  -3 66234.7 1563.76   3
  -4  11  -3 67404.5 1647.84   1
  11  -7   0 5448.05 536.510   3
   4   7   0 4505.29 454.663   1
  -7  -4   0 5523.86 423.614   1
  11  -7   0 4118.20 422.133   2
  -4  11   0 4680.51 469.185   2
  -7  -4   0 5166.61 526.826   4
  -4  11   0 4418.19 472.302   4
 -11   4   0 4860.29 411.034   1
   4   7   0 4507.48 479.411   4
  -4  11   0 4102.36 513.975   1
   7 -11   0 3307.57 377.103   2
  -7  -4   0 4807.82 428.946   3
 -11   4   0 5090.89 483.280   3
   4   7   0 4740.59 536.275   2
   7 -11   0 4492.02 510.212   1
   4   7   0 4918.83 407.968   3
   7 -11   0 4431.09 478.522   4
  -7  -4   0 4876.49 558.970   2
  11  -7   0 4633.19 460.232   1
  -4  11   3 41068.5 816.904   3
 -11   4   3 41367.3 1254.17   3
  11  -7   3 39692.4 1283.65   3
   7 -11   3 39464.8 1389.54   1
  11  -7   3 42649.5 1069.75   2
   4   7   3 39868.0 1587.10   2
   7 -11   3 40505.1 850.591   4
  -4  11   3 39287.7 1395.83   4
  -7  -4   3 37038.3 665.895   1
 -11   4   3 37515.5 697.473   1
  11  -7   3 39373.5 1073.74   4
  -4  11   3 41104.7 1593.24   2
  -7  -4   3 38904.2 1299.30   3
  -4  11   3 39205.2 1373.37   1
  11  -7   3 42447.7 1485.98   1
   4   7   3 39839.3 1386.70   4
   4   7   3 40562.7 655.986   3
  11  -7   6 6779.13 659.068   2
  11  -7   6 6890.76 507.761   4
   6 -11 -10 14954.5 1302.51   4
  -5  11 -10 12957.8 1109.16   2
  -5  11 -10 16312.5 1329.21   3
 -11   5 -10 16262.6 1528.95   1
  11  -6 -10 15857.3 1683.07   2
  11  -6 -10 14065.1 1199.24   4
  -6  -5 -10 17458.3 1222.56   4
  -6  -5 -10 14595.8 1461.85   2
   6 -11 -10 15587.4 1657.87   2
  -5  11 -10 16754.6 1400.01   1
   5   6 -10 21215.5 1402.92   3
 -11   5 -10 17579.5 1344.05   2
  11  -6 -10 16451.0 1123.14   3
   5   6 -10 16853.7 1534.04   2
   5   6 -10 14742.4 1108.53   1
 -11   5 -10 15186.6 825.910   4
  -5  11  -7 38270.5 1324.71   2
 -11   5  -7 38649.9 1191.85   4
  -6  -5  -7 31495.9 576.596   3
  11  -6  -7 36981.8 1560.90   4
 -11   5  -7 37326.9 1843.57   1
   5   6  -7 37687.0 1588.91   3
   6 -11  -7 35460.7 1629.46   4
   6 -11  -7 38436.7 2145.67   2
  11  -6  -7 34563.1 1235.17   1
  -6  -5  -7 36180.1 1867.37   2
   5   6  -7 38299.3 1265.50   1
  -6  -5  -7 37291.4 1530.46   4
 -11   5  -7 36105.4 1476.24   2
   6 -11  -7 37750.4 933.456   3
   5   6  -7 36560.0 1012.15   4
  -5  11  -7 36192.1 1592.03   1
  11  -6  -7 38726.6 1400.37   3
 -11   5  -4 37783.8 1234.99   3
 -11   5  -4 40709.0 1554.12   1
   5   6  -4 41293.8 941.478   1
  -6  -5  -4 38202.5 1639.24   2
   6 -11  -4 37730.2 1465.74   4
   5   6  -4 38553.7 1367.47   2
  11  -6  -4 38308.5 933.284   1
  -5  11  -4 37501.6 762.870   2
   5   6  -4 38823.1 1346.85   3
 -11   5  -4 39459.7 1123.28   4
   6 -11  -4 38260.2 909.944   3
  -6  -5  -4 38168.0 695.964   3
  -5  11  -4 40171.8 1373.95   1
   6 -11  -4 37848.5 1694.14   2
  11  -6  -4 38986.8 1252.67   3
 -11   5  -4 40452.6 1200.16   2
   5   6  -4 39081.1 1044.95   4
  -6  -5  -4 40159.6 1412.80   4
   6 -11  -4 39299.3 1414.23   1
  -5  11  -1 71867.5 1275.86   2
   6 -11  -1 71963.7 1612.76   1
  -5  11  -1 71263.3 1604.54   1
  -6  -5  -1 67436.0 1241.68   3
  11  -6  -1 68102.9 1268.82   1
 -11   5  -1 69271.8 1493.93   1
   6 -11  -1 69539.6 1613.97   2
  -5  11  -1 70474.7 1392.87   4
   5   6  -1 72094.4 1502.50   4
 -11   5  -1 64451.8 1377.89   2
  -6  -5  -1 75355.8 1665.10   4
  -6  -5  -1 72475.0 1800.28   2
   5   6  -1 71640.6 1713.24   2
   5   6  -1 69703.2 1457.76   3
   6 -11  -1 74041.7 1702.62   4
  11  -6  -1 68822.7 1527.87   3
   5   6  -1 71855.4 1251.26   1
  -6  -5  -1 69938.0 1501.65   1
 -11   5  -1 72166.7 1544.66   3
  -6  -5   2 68038.1 1409.31   4
  -6  -5   2 70292.2 1025.51   1
   5   6   2 66437.4 1658.02   4
  11  -6   2 68936.1 1597.38   3
  -6  -5   2 66528.5 1679.33   2
  -6  -5   2 67899.5 1592.01   3
   5   6   2 66407.3 1021.29   3
  -5  11   2 67269.6 1717.59   4
   6 -11   2 69644.0 1671.82   1
   5   6   2 68566.3 1925.42   2
  11  -6   2 63553.2 1648.88   1
  -5  11   2 67423.3 1201.30   3
 -11   5   2 65458.4 1511.04   3
   6 -11   2 62758.6 1180.69   4
 -11   5   2 67693.6 1045.60   1
  11  -6   2 64394.2 1397.57   4
  11  -6   2 67973.0 1375.09   2
  -5  11   2 67362.4 1836.84   2
  -5  11   2 61059.2 1580.46   1
   6 -11   2 65209.8 776.998   2
  -5  11   5 12293.8 429.687   3
  11  -6   5 13524.2 800.630   2
  11  -6   5 14406.9 710.454   4
  11  -6   8 36312.4 1176.92   4
  11  -5 -11 26943.3 1471.18   3
  11  -5 -11 21002.3 1537.09   1
   5 -11 -11 26917.2 1740.60   4
 -11   6 -11 24550.1 1940.16   1
 -11   6 -11 22688.5 1566.56   2
  11  -5 -11 26824.2 1609.00   4
  -6  11 -11 26972.0 1808.22   1
   6   5 -11 23539.3 1529.55   3
  -5  -6 -11 22936.0 1489.14   4
   5 -11 -11 22831.8 2085.25   2
  -6  11 -11 24602.2 1628.40   3
   6   5 -11 25049.8 1959.59   2
  11  -5 -11 26508.0 2209.44   2
  -5  -6 -11 25602.7 2047.48   2
   6   5 -11 23437.9 1449.64   1
   5 -11  -8 36628.6 824.068   3
   5 -11  -8 41856.6 1821.68   4
  11  -5  -8 41915.3 1704.99   4
 -11   6  -8 39501.6 1622.83   2
  11  -5  -8 34632.8 1311.12   1
  11  -5  -8 40047.0 2240.95   2
  -6  11  -8 39561.9 1448.02   2
  11  -5  -8 40515.0 1504.74   3
  -5  -6  -8 42539.6 1708.74   4
  -5  -6  -8 37196.6 2035.23   2
   6   5  -8 37869.0 1129.06   4
 -11   6  -8 43916.3 2095.99   1
 -11   6  -8 40046.7 1172.08   4
  -6  11  -8 41350.6 1824.97   1
   6   5  -8 38641.5 1360.63   1
   5 -11  -8 37263.0 2229.01   2
   6   5  -8 40329.7 1687.65   3
   6   5  -8 42702.4 1244.52   4
   5 -11  -5 11263.8 458.363   3
  -5  -6  -5 11208.3 843.680   4
   6   5  -5 11438.2 538.629   1
   5 -11  -5 12035.5 914.068   4
 -11   6  -5 8872.25 885.912   1
  -6  11  -5 9950.60 442.599   2
 -11   6  -5 10897.6 774.521   3
  -5  -6  -5 10199.8 978.142   2
  11  -5  -5 11226.9 774.028   3
 -11   6  -5 12811.4 752.683   2
   6   5  -5 12088.7 874.443   3
   6   5  -5 12419.6 639.875   4
  -6  11  -5 12121.2 900.571   1
 -11   6  -5 12336.7 642.883   4
  11  -5  -5 10570.8 540.566   1
  -6  11  -5 10801.2 522.322   2
   5 -11  -5 11419.4 1104.74   2
  -5  -6  -2 70102.7 1081.15   3
  -6  11  -2 65403.3 863.523   2
 -11   6  -2 65971.6 1279.92   2
   6   5  -2 72857.4 1063.70   1
   6   5  -2 70121.1 1593.39   3
  -6  11  -2 68790.6 1616.85   1
  -5  -6  -2 73126.5 1918.12   2
   5 -11  -2 67598.1 1807.30   2
 -11   6  -2 70267.8 1587.74   3
  -5  -6  -2 71616.2 1707.37   4
 -11   6  -2 71003.6 1692.47   1
   6   5  -2 71351.2 1477.56   4
  11  -5  -2 69780.7 1582.37   3
   5 -11  -2 72535.2 1689.21   1
   6   5  -2 71786.8 1743.50   2
  11  -5  -2 69542.7 1064.36   1
  -5  -6  -2 73102.6 1701.77   1
   5 -11  -2 72227.9 1772.89   4
  -5  -6   1 61679.4 1558.57   2
  -6  11   1 62546.2 1304.04   3
   6   5   1 59924.0 1512.90   4
  11  -5   1 59843.8 1463.55   3
  11  -5   1 59115.5 1368.39   4
  -6  11   1 61284.1 1540.26   4
  -5  -6   1 61888.9 1392.98   4
   5 -11   1 58432.5 1115.07   2
   6   5   1 57025.0 1654.97   2
   5 -11   1 59662.1 1295.38   4
  11  -5   1 62699.7 1472.72   1
  -5  -6   1 64072.9 1454.86   3
 -11   6   1 61305.4 1405.33   3
   6   5   1 58886.0 1135.98   3
  11  -5   1 62378.4 1388.77   2
  -6  11   1 61911.5 1587.34   2
  -5  -6   1 62067.4 1133.81   1
  -6  11   1 60255.7 1525.57   1
 -11   6   1 59113.5 1144.42   1
   5 -11   1 64034.6 1552.02   1
  -6  11   4 32831.1 789.515   3
  -5  -6   4 37258.2 958.974   1
   6   5   4 34885.7 693.066   3
  11  -5   4 35653.1 1208.98   3
 -11   6   4 36488.5 1186.67   3
   6   5   4 34354.4 1324.94   4
   5 -11   4 38082.9 1422.07   1
  11  -5   4 35656.3 1098.80   4
  -6  11   4 32876.9 1311.88   1
  11  -5   4 34986.9 1194.53   2
   5 -11   4 31541.8 498.306   4
  11  -5   7 37212.2 1224.36   4
  11  -5   7 36307.3 1556.71   2
  -4  -7 -12 737.222 962.411   2
   7   4 -12 3879.12 1091.50   2
  -7  11 -12 1153.02 672.475   3
 -11   7 -12 270.130 857.886   1
  -4  -7 -12 475.849 652.249   4
   4 -11 -12-15.3993 982.128   2
   7   4 -12 1581.00 709.359   3
  -7  11 -12 2062.43 930.843   1
 -11   7 -12 766.748 578.166   3
  11  -4 -12 1624.10 665.410   3
  11  -4 -12 1976.17 1080.31   2
   4 -11 -12 1227.10 778.012   4
   4 -11  -9 24499.4 1945.38   2
  -7  11  -9 30751.5 1726.41   1
  -4  -7  -9 27023.8 1944.37   2
  11  -4  -9 30756.9 2102.17   2
 -11   7  -9 28769.4 1835.06   1
  -7  11  -9 28359.0 1330.99   2
   4 -11  -9 30201.4 1640.23   4
   7   4  -9 29566.9 1176.01   4
  -4  -7  -9 30652.1 1565.57   4
   7   4  -9 30652.6 1339.60   1
   7   4  -9 30349.9 1566.35   3
 -11   7  -9 29245.9 1468.70   2
  11  -4  -9 28240.7 1473.00   4
  11  -4  -9 29314.2 1417.86   3
  11  -4  -9 32037.1 1482.06   1
  -4  -7  -6 5992.32 878.532   2
  -7  11  -6 5664.32 452.372   2
  -7  11  -6 6211.42 719.608   1
  11  -4  -6 5894.97 452.957   1
   7   4  -6 7115.45 751.279   3
 -11   7  -6 6957.79 850.790   1
 -11   7  -6 5998.08 453.350   4
   4 -11  -6 5926.12 938.037   2
   7   4  -6 6526.68 552.519   4
  11  -4  -6 5707.10 614.776   3
  -4  -7  -6 5898.03 706.303   4
   7   4  -6 6481.75 470.182   1
 -11   7  -6 6244.94 579.398   2
   4 -11  -6 7122.05 804.588   4
   4 -11  -6 4506.21 232.122   3
   7   4  -3 35248.3 1283.91   2
   4 -11  -3 35872.1 1310.49   1
 -11   7  -3 36830.8 1364.40   1
   7   4  -3 37923.9 1260.25   3
   7   4  -3 35644.2 618.109   1
 -11   7  -3 35263.9 1204.05   3
  -4  -7  -3 36520.7 1327.27   4
  -4  -7  -3 36721.0 1546.38   2
  -4  -7  -3 36800.1 1358.61   1
  -7  11  -3 37599.1 1314.51   1
  11  -4  -3 33646.2 645.943   1
 -11   7  -3 38125.0 919.080   2
   7   4  -3 35379.0 1061.00   4
  11  -4  -3 33055.6 1149.39   3
   4 -11  -3 36367.4 1523.24   2
   4 -11  -3 34643.9 1329.38   4
  11  -4   0 6153.58 560.304   3
   7   4   0 5603.09 522.621   4
  11  -4   0 4849.66 441.003   1
  -7  11   0 5929.14 505.767   3
  -4  -7   0 5901.55 474.053   1
  -7  11   0 4323.37 518.709   1
  -4  -7   0 5072.00 484.990   4
   4 -11   0 5234.34 484.151   4
   7   4   0 5828.49 588.014   2
  -7  11   0 4996.67 451.607   2
 -11   7   0 5346.71 452.908   1
  -4  -7   0 5081.17 570.819   2
   4 -11   0 5316.85 557.672   1
  11  -4   0 5229.09 488.066   4
   4 -11   0 5424.61 486.486   2
   7   4   0 4857.88 423.733   3
  11  -4   0 4976.05 496.103   2
 -11   7   0 6121.66 544.070   3
   7   4   3 57766.3 1613.28   4
   4 -11   3 61119.6 996.439   4
  11  -4   3 65369.8 1605.21   2
  11  -4   3 62761.3 1517.51   3
  -4  -7   3 60759.9 1206.34   1
  -4  -7   3 60800.7 1232.57   4
   7   4   3 61882.6 1924.31   2
  11  -4   3 61006.4 1438.05   4
 -11   7   3 63123.2 1491.38   3
 -11   7   3 61862.4 1241.56   1
   4 -11   3 63216.3 1652.76   1
   7   4   3 61003.0 1083.80   3
  -7  11   3 60811.0 1188.66   3
  -7  11   3 61125.0 1632.94   1
  11  -4   6 306.352 396.482   2
  -7  11   6 146.552 210.916   3
  11  -4   6-134.189 288.847   4
   3 -11 -10 16536.8 1314.38   4
  11  -3 -10 18742.6 1273.50   4
   3 -11 -10 15867.6 1716.23   2
  -3  -8 -10 15368.8 1226.51   4
  -8  11 -10 15080.7 1074.20   2
  11  -3 -10 16965.1 1186.72   1
   8   3 -10 16299.1 975.456   4
  11  -3 -10 20399.0 1849.61   2
  -3  -8 -10 15600.0 1622.82   2
   8   3 -10 16540.6 1114.30   1
 -11   8 -10 19473.2 1637.43   1
  -8  11 -10 18729.1 1499.62   1
 -11   8 -10 15975.5 1179.82   2
  11  -3 -10 16753.6 1197.58   3
   8   3 -10 19092.8 1698.08   2
   8   3 -10 19041.3 1353.04   3
 -11   8  -7 5638.45 854.793   1
   3 -11  -7 5540.85 726.804   4
  -3  -8  -7 6814.56 1032.49   2
 -11   8  -7 5624.69 596.523   2
   3 -11  -7 6786.80 1040.52   2
  -8  11  -7 5388.83 746.008   1
   8   3  -7 5428.30 707.758   3
  -3  -8  -7 5665.47 741.200   4
  11  -3  -7 4257.46 460.902   1
  -8  11  -7 6027.83 518.056   2
   8   3  -7 5104.76 534.653   4
   8   3  -7 4790.71 490.297   1
  11  -3  -7 5406.11 661.687   3
 -11   8  -4 23288.0 1064.43   3
   3 -11  -4 23468.1 1187.37   4
  -3  -8  -4 23466.0 1358.10   2
  11  -3  -4 18346.1 440.981   1
  -3  -8  -4 21324.4 1112.75   4
   8   3  -4 22927.6 910.362   4
   3 -11  -4 23369.0 1338.27   2
 -11   8  -4 22451.4 1187.21   1
   8   3  -4 19082.7 421.035   1
  11  -3  -4 24312.6 1049.21   3
   8   3  -4 25636.6 1098.82   3
  -8  11  -4 22575.2 1112.30   1
 -11   8  -4 23438.5 720.780   2
 -11   8  -1 51110.6 1363.33   3
  -8  11  -1 48001.7 1346.66   3
  -8  11  -1 51673.2 1440.22   1
   8   3  -1 48680.3 1303.32   4
  -3  -8  -1 49657.3 1433.82   4
  11  -3  -1 48557.1 1323.39   4
   3 -11  -1 50858.7 1407.73   1
   3 -11  -1 48848.4 1394.77   4
  11  -3  -1 50080.2 1320.01   3
 -11   8  -1 47102.8 1314.06   1
  -3  -8  -1 49954.3 1328.54   1
   8   3  -1 50822.6 1281.97   3
  11  -3  -1 51839.3 1424.37   2
   8   3  -1 51668.9 1488.83   2
   3 -11  -1 51669.9 1505.37   2
  -3  -8  -1 54080.4 1592.24   2
  -8  11   2 89907.5 1563.07   3
 -11   8   2 85472.8 1538.25   1
  11  -3   2 92359.2 1777.25   3
  -3  -8   2 90706.1 1567.78   4
  -8  11   2 94613.5 1892.17   1
   3 -11   2 97071.4 1916.25   1
  -3  -8   2 96449.1 1566.41   1
   8   3   2 92206.3 1923.08   4
   3 -11   2 91404.6 1419.66   2
  11  -3   2 96390.9 1945.54   2
  11  -3   2 94943.3 1825.86   4
   8   3   2 92116.9 2186.75   2
  -3  -8   2 94347.7 1877.77   2
   8   3   2 91316.3 1448.51   3
 -11   8   2 92817.3 1744.83   3
   3 -11   2 86433.9 1422.28   4
 -11   8   5 59440.2 1531.04   3
  11  -3   5 59061.1 1564.07   4
  -8  11   5 57794.3 1209.75   3
  11  -3   5 61361.2 1852.27   2
  -3  -8   5 63461.7 1568.65   1
  11  -2 -11 20567.1 2010.38   2
   9   2 -11 22529.6 1489.74   3
   2 -11 -11 25391.7 1698.17   4
  -2  -9 -11 17907.1 1913.49   2
  -9  11 -11 20754.1 1689.12   1
   2 -11 -11 22337.5 2026.91   2
   9   2 -11 23456.9 2021.36   2
  11  -2 -11 21112.4 1363.80   4
  11  -2 -11 24293.6 1514.67   3
 -11   9 -11 22296.5 1805.94   1
  -2  -9 -11 22769.5 1543.59   4
  -9  11  -8 31059.7 1682.95   1
  -2  -9  -8 29287.8 1521.00   4
  11  -2  -8 26808.8 1328.87   4
 -11   9  -8 29696.2 1258.53   2
   9   2  -8 24226.1 1122.35   4
   9   2  -8 28114.0 1075.90   1
  -9  11  -8 29467.9 1158.42   2
   2 -11  -8 29784.9 1589.57   4
  -2  -9  -8 28417.4 1853.04   2
  11  -2  -8 23798.3 985.959   1
  11  -2  -8 28569.4 1394.19   3
   2 -11  -8 28531.5 1921.23   2
 -11   9  -8 27644.8 1685.06   1
   9   2  -8 27914.1 1448.94   3
  11  -2  -8 27261.7 1131.39   1
  -2  -9  -5 34018.9 1434.99   4
   2 -11  -5 27553.6 1553.89   2
 -11   9  -5 35848.7 912.702   2
  -2  -9  -5 35221.9 1738.15   2
  -9  11  -5 33286.7 1430.54   1
 -11   9  -5 35688.5 1565.72   1
   2 -11  -5 32445.8 1446.69   4
   9   2  -5 33635.6 1160.38   4
  -9  11  -5 28338.8 558.770   2
   9   2  -5 34080.4 1320.31   3
  11  -2  -5 33132.9 1276.71   3
  11  -2  -5 28678.3 658.081   1
   2 -11  -2 71661.6 1775.54   1
 -11   9  -2 66804.4 1656.96   3
  11  -2  -2 72265.2 1811.58   2
  -9  11  -2 60940.8 1594.77   3
   2 -11  -2 68440.6 1767.22   4
  -2  -9  -2 64137.7 1680.42   4
  -2  -9  -2 68941.0 1735.60   1
  -2  -9  -2 71203.9 1979.77   2
   9   2  -2 71115.1 1583.35   4
 -11   9  -2 69452.8 1718.96   1
   2 -11  -2 70664.9 1922.14   2
   9   2  -2 67685.6 1775.82   2
  11  -2  -2 68794.6 1598.35   3
   9   2  -2 70904.7 1612.36   3
  11  -2  -2 67659.7 1602.28   4
   2 -11   1 83363.6 1724.17   1
  -2  -9   1 80723.7 1728.65   2
 -11   9   1 78244.8 1531.62   1
   9   2   1 79771.3 1475.29   3
   9   2   1 79277.6 1750.37   4
  11  -2   1 79720.2 1698.66   4
   9   2   1 77893.1 1909.17   2
  -9  11   1 80077.0 1598.09   3
  -2  -9   1 81067.0 1589.07   4
   2 -11   1 78484.5 1552.02   2
  11  -2   1 77212.5 1769.38   2
  11  -2   1 80540.5 1626.84   3
  -9  11   1 80230.6 1695.27   1
 -11   9   1 81355.3 1667.09   3
  -2  -9   1 80686.8 1532.77   1
   2 -11   1 79905.5 1546.45   4
  11  -2   4 70225.1 1700.57   4
   9   2   4 75567.1 1390.59   3
  11  -2   4 69304.1 1574.29   3
   2 -11   4 71576.0 1813.79   1
  11  -2   4 74474.7 1994.38   2
  -2  -9   4 73148.8 1213.29   4
 -11   9   4 71645.3 1589.84   1
   9   2   4 68447.1 1789.41   4
  -9  11   4 62625.8 1702.64   1
   9   2   4 67772.0 2096.96   2
  -2  -9   4 71841.4 1603.25   1
  -9  11   4 69302.5 1415.05   3
   2 -11   4 70152.5 933.933   4
 -11   9   4 73234.4 1606.24   3
  -9  11   7 42143.3 1197.25   3
 -10  11 -12 828.746 918.024   1
  11  -1 -12 2196.04 1106.97   2
  -1 -10 -12 662.588 1093.05   2
   1 -11 -12 1480.69 1179.55   2
   1 -11 -12 2124.17 853.391   4
 -10  11 -12 252.878 590.427   3
 -11  10 -12 3039.55 1098.06   1
  11  -1 -12 852.203 748.298   3
  -1 -10 -12 1661.18 772.288   4
 -11  10 -12 1652.84 724.101   3
  10   1 -12 1625.13 780.807   3
  10   1 -12 1629.30 1114.34   2
  11  -1  -9 13915.0 1080.16   3
   1 -11  -9 11235.3 1085.17   4
  11  -1  -9 13250.7 882.919   1
  10   1  -9 12113.8 833.239   1
  -1 -10  -9 11405.0 1378.54   2
  10   1  -9 13181.0 1086.62   3
 -10  11  -9 12818.6 899.830   2
 -11  10  -9 10434.4 818.600   2
 -10  11  -9 13844.2 1314.14   1
   1 -11  -9 11265.0 1430.39   2
  11  -1  -9 11802.3 948.991   4
  -1 -10  -9 11675.6 1099.60   4
 -11  10  -9 12481.5 1283.86   1
  10   1  -9 11999.2 887.074   4
  10   1  -6 2234.44 257.224   1
  -1 -10  -6 1595.75 531.546   4
  10   1  -6 2054.51 516.091   3
  11  -1  -6 1893.43 234.927   1
  11  -1  -6 2402.32 286.672   1
   1 -11  -6 2731.13 605.971   4
 -10  11  -6 2607.79 644.771   1
  11  -1  -6 2051.01 545.364   3
  -1 -10  -6 3924.71 856.012   2
  10   1  -6 2019.16 446.168   4
 -11  10  -6 3301.48 367.938   2
  10   1  -6 2029.30 246.219   1
 -11  10  -6 3634.03 685.533   1
 -10  11  -6 2206.08 277.641   2
   1 -11  -6 2230.31 721.904   2
  -1 -10  -3 44001.2 1521.70   4
 -11  10  -3 41477.2 1415.99   3
   1 -11  -3 37513.0 1604.51   2
   1 -11  -3 43480.0 1524.44   4
  10   1  -3 44940.2 1394.25   3
  10   1  -3 40258.3 1464.61   2
  10   1  -3 38893.0 1225.81   4
 -10  11  -3 40445.6 1416.58   3
  -1 -10  -3 40804.3 1669.01   2
 -10  11  -3 43645.4 1475.88   1
 -11  10  -3 43818.9 1517.61   1
  11  -1  -3 40396.5 1280.88   4
  11  -1  -3 46266.3 1403.53   3
   1 -11   0 3294.58 476.752   4
 -11  10   0 2715.43 416.055   3
 -10  11   0 3789.73 518.078   1
  11  -1   0 4162.12 534.525   2
  -1 -10   0 3039.92 435.151   1
   1 -11   0 4226.97 482.633   1
  -1 -10   0 3315.54 487.750   2
 -10  11   0 3515.75 471.438   3
  10   1   0 3300.70 430.848   4
  11  -1   0 2765.68 417.720   4
  10   1   0 3093.83 500.892   2
 -11  10   0 3358.21 457.312   1
  10   1   0 3080.68 429.769   3
  -1 -10   0 3192.90 481.397   4
  11  -1   0 4023.06 482.024   3
   1 -11   0 3185.50 453.244   2
  10   1   3 2944.41 593.819   2
  10   1   3 3604.14 413.439   3
   1 -11   3 4279.81 355.328   4
  11  -1   3 3941.70 458.378   3
  -1 -10   3 2938.04 327.550   4
  11  -1   3 4429.74 522.989   4
 -11  10   3 3913.08 489.687   1
 -10  11   3 3036.45 466.375   1
  10   1   3 2678.68 432.864   4
  11  -1   3 4356.98 601.391   2
  -1 -10   3 3719.19 469.484   1
   1 -11   3 4321.22 523.686   1
 -11  10   3 4047.66 456.249   3
 -10  11   3 3020.06 390.799   3
 -10  11   6 2415.51 383.349   3
  -1 -10   6 2022.45 519.381   1
 -11  10   6 1957.96 401.104   3
   0 -11 -10 4660.52 850.790   4
   0 -11 -10 2559.34 1044.56   2
 -11  11 -10 4030.98 921.653   1
  11   0 -10 3079.55 1068.93   2
  11   0 -10 3067.38 666.794   4
 -11  11 -10 3517.81 606.356   2
  11   0 -10 4156.90 775.043   3
 -11  11  -7 177.982 593.553   1
  11   0  -7 195.003 234.483   1
   0 -11  -7-269.233 646.725   2
  11   0  -7 975.702 503.547   3
 -11  11  -7 4.98242 234.303   2
  11   0  -7 250.367 238.850   1
   0 -11  -7 766.487 489.712   4
   0 -11  -4 11966.4 935.036   4
  11   0  -4 10156.3 716.536   4
  11   0  -4 10067.2 774.960   3
   0 -11  -4 10276.7 1024.75   2
 -11  11  -4 10083.9 843.099   1
 -11  11  -1-7.98377 332.978   3
  11   0  -1-340.780 340.735   4
   0 -11  -1 271.115 309.798   1
  11   0  -1 223.207 341.319   3
 -11  11  -1-17.7187 354.204   1
  11   0  -1-65.7952 346.116   2
   0 -11  -1-251.721 387.962   2
   0 -11  -1 744.473 374.276   4
   0 -11   2 7240.70 576.499   2
   0 -11   2 6568.91 482.305   4
   0 -11   2 8139.28 613.487   1
  11   0   2 6508.39 536.010   3
  11   0   2 8766.41 756.418   2
 -11  11   2 6297.14 538.018   3
  11   0   2 6294.67 586.138   4
 -11  11   2 6099.79 550.446   1
  11   0   5-1.26062 252.256   3
   0 -11   5-532.426 415.455   1
 -11  11   5 319.931 290.878   3
  12 -12 -12 630.083 1114.83   2
  12 -12 -12 2290.91 954.976   4
 -12   0 -12 758.710 844.912   2
 -12   0 -12 1506.35 1095.96   1
   0  12 -12 2021.57 905.772   3
   0  12 -12 1857.86 882.550   1
   0  12  -9-336.819 500.894   1
 -12   0  -9 353.457 454.115   4
 -12   0  -9 127.751 653.157   2
  12 -12  -9 717.469 911.940   2
   0  12  -9 338.287 572.088   2
  12 -12  -9 761.944 591.776   4
 -12   0  -9 327.863 763.064   1
   0  12  -9-476.157 610.542   3
  12 -12  -9-24.1990 422.579   3
   0  12  -6 33167.5 1327.85   2
  12 -12  -6 38858.8 2075.65   2
  12 -12  -6 39113.3 1742.23   4
  12 -12  -6 40123.0 1365.05   3
 -12   0  -6 41900.5 1543.03   4
 -12   0  -6 37111.2 1719.24   2
   0  12  -6 43959.5 1721.23   3
   0  12  -6 40281.4 1455.21   1
 -12   0  -6 35373.2 1179.77   3
  12 -12  -3-33.2629 299.055   1
   0  12  -3-306.919 343.629   1
 -12   0  -3 30.3503 330.181   4
  12 -12  -3-5.69793 319.258   3
  12 -12  -3 313.141 420.702   4
   0  12  -3 301.916 310.257   2
  12 -12  -3 33.7109 501.330   2
 -12   0  -3 158.240 367.659   2
   0  12  -3 97.0027 254.324   4
 -12   0  -3 263.547 271.281   3
 -12   0   0 9838.74 662.123   3
  12 -12   0 10425.8 764.053   3
 -12   0   0 10402.2 763.514   4
 -12   0   0 11034.7 811.326   2
   0  12   0 12934.6 793.617   1
   0  12   0 11532.3 831.796   2
   0  12   0 10501.1 739.420   4
  12 -12   0 12021.1 773.692   1
  12 -12   3 245.573 216.451   4
   0  12   3-199.497 150.822   3
   0  12   3 8.14170 150.443   3
  12 -12   6 9746.37 463.791   4
  11 -12 -10 22638.6 2085.20   2
 -12   1 -10 21569.6 1601.41   2
  11 -12 -10 23062.3 1618.74   4
   1  11 -10 22564.0 1677.98   2
  12 -11 -10 23998.5 1304.19   3
  -1  12 -10 24339.7 1650.32   2
 -11  -1 -10 21857.2 1817.73   1
  12 -11 -10 22848.1 2089.48   2
  11 -12 -10 22781.4 1170.10   3
 -11  -1 -10 21964.6 1306.50   4
 -12   1 -10 25143.8 1320.57   4
  12 -11 -10 22109.5 1564.56   4
  -1  12 -10 25117.6 1596.57   1
   1  11 -10 22374.2 1457.26   1
 -12   1 -10 24037.7 1920.31   1
 -11  -1 -10 22134.7 1741.63   2
   1  11 -10 24139.5 1581.06   3
  -1  12 -10 26962.8 1666.12   3
  11 -12  -7 68453.0 1736.35   3
  -1  12  -7 59106.5 1757.87   2
  -1  12  -7 69006.9 2308.95   3
  11 -12  -7 65032.3 2256.34   4
   1  11  -7 67817.2 1928.34   1
  -1  12  -7 72023.4 2073.45   1
 -12   1  -7 68093.9 2591.40   1
   1  11  -7 67770.6 2228.27   3
  11 -12  -7 61308.1 2777.39   2
 -12   1  -7 68304.0 1945.21   4
 -12   1  -7 65270.5 1662.78   3
  12 -11  -7 64778.0 2247.34   4
 -11  -1  -7 70039.4 2431.71   2
 -12   1  -7 60087.1 2170.79   2
 -11  -1  -7 67294.8 2019.58   4
  12 -11  -7 51311.4 2559.82   2
 -11  -1  -7 60820.1 1462.91   3
  12 -11  -7 68223.1 1841.47   3
 -12   1  -4 23785.1 1173.46   2
  12 -11  -4 22840.7 1009.65   3
  11 -12  -4 24035.8 977.390   3
  11 -12  -4 25281.0 1523.10   2
  -1  12  -4 25861.4 1093.70   1
  11 -12  -4 22371.2 1230.05   4
  -1  12  -4 25070.0 754.880   4
   1  11  -4 25913.7 1027.04   1
  12 -11  -4 23672.6 1022.65   1
  12 -11  -4 24437.6 1288.23   4
  12 -11  -4 23489.9 1439.13   2
   1  11  -4 18734.3 1040.51   3
   1  11  -4 23972.2 810.891   4
  -1  12  -4 24443.7 969.450   2
 -11  -1  -4 22872.7 852.254   3
  11 -12  -4 25399.5 1106.86   1
 -11  -1  -4 23451.9 1238.62   2
 -12   1  -4 25168.1 1130.46   4
 -11  -1  -4 23511.8 1118.43   4
   1  11  -4 23138.3 1028.48   2
 -12   1  -4 24304.5 956.221   3
   1  11  -1 156576. 2636.74   2
  11 -12  -1 148187. 2421.69   1
 -12   1  -1 145890. 2544.87   2
   1  11  -1 152977. 2356.88   1
 -12   1  -1 150164. 2488.31   4
   1  11  -1 153067. 2382.54   4
  12 -11  -1 150108. 2351.36   1
  -1  12  -1 149391. 2313.10   4
  12 -11  -1 147761. 2448.05   3
 -12   1  -1 149216. 2296.40   1
  -1  12  -1 152415. 2398.61   1
  -1  12  -1 157425. 2540.01   2
 -11  -1  -1 149239. 2197.45   3
   1  11  -1 150376. 2302.96   3
  11 -12  -1 149732. 2426.52   3
 -12   1  -1 146479. 2210.76   3
 -11  -1  -1 146457. 2480.70   4
 -11  -1  -1 140759. 2555.05   2
  11 -12  -1 152691. 2584.27   2
  11 -12   2 32266.2 1340.79   1
  12 -11   2 31598.3 700.157   2
   1  11   2 29007.9 1254.48   4
  12 -11   2 30369.4 1261.91   3
  -1  12   2 33938.8 1326.92   4
  11 -12   2 29236.4 495.301   2
   1  11   2 31716.7 767.131   3
  -1  12   2 33332.4 1328.20   1
  12 -11   2 31004.2 1285.19   1
   1  11   2 29212.0 1390.19   2
 -12   1   2 30027.3 1153.67   3
 -11  -1   2 30275.6 1148.34   3
  -1  12   2 29241.8 1388.15   2
   1  11   2 30363.5 1246.46   1
  12 -11   5 23025.4 774.785   4
  11 -12   5 21656.4 654.387   4
  12 -11   8 5187.93 269.483   4
  -2  12 -11 6451.25 981.913   3
 -12   2 -11 5830.93 1034.39   2
  -2  12 -11 6955.53 1084.05   2
  10 -12 -11 5680.33 1396.74   2
  10 -12 -11 7137.74 1126.74   4
  12 -10 -11 4955.02 920.239   4
 -10  -2 -11 4818.06 1178.62   1
   2  10 -11 6484.09 1024.61   3
 -10  -2 -11 5359.99 806.572   4
 -10  -2 -11 5344.85 1145.39   2
   2  10 -11 7294.85 1255.22   2
 -12   2 -11 7094.90 1319.17   1
  -2  12 -11 8201.48 1092.03   1
   2  10 -11 7490.70 1060.00   1
  12 -10 -11 5648.21 833.914   3
  12 -10 -11 3962.78 1335.93   2
  -2  12  -8 3099.70 686.955   1
  10 -12  -8 1493.63 423.790   3
 -10  -2  -8 2276.15 384.461   3
  12 -10  -8 2016.95 503.799   3
 -12   2  -8 3301.20 947.431   1
  12 -10  -8 1971.79 671.230   4
  10 -12  -8 3306.46 1006.52   2
 -12   2  -8 2549.71 507.709   4
 -10  -2  -8 2421.20 772.173   2
 -10  -2  -8 1891.76 552.810   4
  -2  12  -8 3479.52 741.381   3
   2  10  -8 2702.75 584.862   1
  -2  12  -8 2993.71 652.042   2
  12 -10  -8 1692.17 856.942   2
   2  10  -8 2888.51 718.043   3
 -12   2  -8 3025.36 693.254   2
  10 -12  -8 2218.44 676.927   4
 -12   2  -5 12331.1 749.668   3
  12 -10  -5 12017.4 979.960   4
   2  10  -5 14032.3 769.315   1
  -2  12  -5 12449.0 695.345   2
  12 -10  -5 13461.3 1235.00   2
 -10  -2  -5 14332.3 652.166   3
  10 -12  -5 13515.8 1040.03   4
 -10  -2  -5 13267.2 908.340   4
   2  10  -5 14098.5 982.139   3
  12 -10  -5 11102.4 729.189   1
 -12   2  -5 13556.8 1098.14   1
 -10  -2  -5 11434.7 979.531   2
   2  10  -5 13729.2 587.493   4
   2  10  -5 12569.3 823.903   2
  10 -12  -5 10151.1 1124.28   2
 -12   2  -5 11195.3 872.742   2
 -12   2  -5 13238.7 819.544   4
  10 -12  -5 12159.8 696.880   3
  12 -10  -5 12592.0 802.235   3
  -2  12  -5 14201.9 904.634   1
 -12   2  -2 8644.56 681.845   2
  10 -12  -2 9748.02 707.870   1
  12 -10  -2 8353.15 598.172   1
  12 -10  -2 8863.38 684.805   3
  10 -12  -2 9942.16 683.115   3
   2  10  -2 9193.12 710.220   3
  10 -12  -2 10450.4 813.080   4
  -2  12  -2 10059.2 647.680   2
  10 -12  -2 9119.77 820.959   2
   2  10  -2 9421.77 617.773   4
  -2  12  -2 9883.52 682.488   1
 -12   2  -2 7121.82 638.048   4
 -12   2  -2 10158.9 647.401   3
 -12   2  -2 8799.64 722.786   1
 -10  -2  -2 8147.15 544.686   3
   2  10  -2 10402.0 638.315   1
   2  10  -2 9500.71 698.797   2
 -10  -2  -2 9463.50 785.446   2
 -10  -2  -2 10696.9 777.918   4
  -2  12  -2 9758.13 589.172   4
  12 -10   1 18343.7 657.168   2
 -10  -2   1 17856.6 555.557   1
 -12   2   1 16914.6 826.191   3
  12 -10   1 15062.8 876.651   3
 -10  -2   1 16114.6 935.769   2
  -2  12   1 17666.1 989.968   2
   2  10   1 16791.7 1034.59   2
  -2  12   1 15876.5 875.662   1
  10 -12   1 16569.6 902.929   1
 -12   2   1 16845.3 540.062   1
 -10  -2   1 17021.7 856.693   4
  12 -10   1 16046.5 887.036   1
  10 -12   1 16589.5 601.080   2
   2  10   1 16748.9 645.178   3
  -2  12   1 17168.2 924.766   4
   2  10   1 17695.6 905.722   1
 -10  -2   1 16105.2 810.181   3
   2  10   1 14902.3 869.867   4
  -2  12   4 3356.21 164.508   3
  12 -10   4 4585.46 329.986   2
  12 -10   4 4118.31 410.247   4
  10 -12   4 5232.79 350.773   4
  12 -10   7 4017.22 368.151   4
 -12   3 -12 4651.26 1268.17   1
  12  -9 -12 2930.30 942.665   4
  12  -9 -12 2916.90 1283.03   2
   3   9 -12 2833.90 1030.61   2
  -3  12 -12 4089.96 1005.35   1
   9 -12 -12 2487.02 1145.80   2
   9 -12 -12 3058.54 932.673   4
  -9  -3 -12 2418.42 1015.42   2
  -3  12 -12 3777.97 925.013   3
  -9  -3 -12 3164.72 1121.58   1
 -12   3 -12 1704.08 843.797   2
   3   9 -12 2607.82 793.082   3
  12  -9  -9 1619.72 590.229   4
   9 -12  -9 1235.45 416.710   3
  -9  -3  -9 730.939 675.075   2
   9 -12  -9 892.858 561.517   4
 -12   3  -9 362.766 738.584   1
 -12   3  -9 1356.38 443.255   4
  -9  -3  -9 1561.91 555.935   4
   9 -12  -9 2361.40 957.712   2
  12  -9  -9 1116.59 486.115   3
  -3  12  -9 1545.09 710.622   3
  -9  -3  -9 835.154 255.350   3
  -3  12  -9 1125.68 537.760   2
   3   9  -9 749.249 513.166   1
 -12   3  -9 1198.64 668.516   2
   3   9  -9 970.849 527.850   3
  12  -9  -9 917.510 853.023   2
  -3  12  -9 523.152 540.573   1
  -9  -3  -6 15253.6 1175.35   2
   9 -12  -6 15983.7 755.243   3
 -12   3  -6 16318.6 890.599   3
  12  -9  -6 16596.5 1123.31   4
  12  -9  -6 15944.5 1405.05   2
   3   9  -6 16060.0 875.483   1
  12  -9  -6 14485.0 841.310   1
  -9  -3  -6 16983.4 656.679   3
   3   9  -6 16019.2 616.235   4
   9 -12  -6 14174.3 1068.12   4
  -9  -3  -6 16572.1 1020.21   4
  -3  12  -6 15799.9 788.872   2
   3   9  -6 15719.6 1039.44   3
   9 -12  -6 15515.7 1373.94   2
 -12   3  -6 16676.0 913.154   4
 -12   3  -6 17836.5 1320.56   1
  -3  12  -6 17358.6 1042.06   1
  12  -9  -6 14961.0 893.822   3
 -12   3  -6 13392.9 966.911   2
 -12   3  -3 1187.34 407.588   2
   3   9  -3 1711.49 441.511   2
  12  -9  -3 1427.44 393.399   3
  -9  -3  -3 2512.08 542.056   2
   3   9  -3 2157.82 364.336   1
   9 -12  -3 1593.73 582.487   2
  -3  12  -3 2499.74 461.511   1
 -12   3  -3 1970.11 486.967   1
   9 -12  -3 1166.21 311.117   3
 -12   3  -3 2024.68 393.167   3
  12  -9  -3 1820.05 356.241   1
  -9  -3  -3 2247.60 487.001   4
 -12   3  -3 2754.50 415.018   4
  -3  12  -3 2451.17 299.587   4
   3   9  -3 2517.69 514.315   3
   3   9  -3 1686.35 320.333   4
  -3  12  -3 2264.37 332.232   2
   9 -12  -3 1909.19 404.358   1
  -9  -3  -3 1986.79 296.632   3
   9 -12  -3 1979.59 501.285   4
   3   9   0 46547.1 1381.95   4
  -3  12   0 49209.8 1379.16   4
  -9  -3   0 47666.0 1102.19   1
   9 -12   0 47669.7 1337.62   3
   9 -12   0 45861.4 1331.63   4
 -12   3   0 45199.9 1268.27   3
   9 -12   0 47296.1 1200.26   2
  12  -9   0 47159.2 1377.89   3
  -3  12   0 49918.8 1412.13   2
  -9  -3   0 48276.0 1249.74   3
 -12   3   0 46475.1 1085.31   1
   3   9   0 44490.1 1254.55   1
  -9  -3   0 47482.6 1389.43   4
 -12   3   0 45911.2 1391.31   2
   3   9   0 48119.6 1533.79   2
   3   9   0 44830.9 1121.97   3
  -3  12   0 47342.2 1382.95   1
   9 -12   0 47043.0 1418.51   1
  12  -9   0 49517.9 1316.93   1
  -9  -3   0 48344.5 1508.66   2
   9 -12   3 4142.41 377.763   4
  -3  12   3 3885.49 303.103   3
  12  -9   3 3992.49 401.048   4
   3   9   3 3879.43 230.952   3
  -3  12   3 3315.95 641.058   2
  -3  12   3 4354.21 576.492   1
  12  -9   3 3924.29 351.190   2
  12  -9   3 3964.00 533.990   3
  12  -9   6 28630.9 913.948   4
  12  -9   6 29966.6 1071.72   2
   4   8 -10 6140.63 1089.95   2
  -8  -4 -10 5309.81 1202.33   2
  12  -8 -10 2974.75 745.035   4
  12  -8 -10 4810.72 1200.06   2
  -4  12 -10 3988.43 772.852   2
   8 -12 -10 4653.00 924.388   4
 -12   4 -10 5293.22 1121.73   1
   8 -12 -10 2333.62 1003.06   2
 -12   4 -10 4559.64 891.691   2
 -12   4 -10 4217.12 571.314   4
   4   8 -10 4146.28 697.463   1
  12  -8 -10 4698.58 694.119   3
   4   8 -10 4170.06 795.100   3
  -4  12 -10 3309.90 819.354   3
  -4  12 -10 5216.72 888.160   1
  -8  -4 -10 4720.99 748.811   4
   8 -12  -7 29792.8 1536.86   4
  -8  -4  -7 35387.4 1531.71   4
   8 -12  -7 34715.8 1044.98   3
 -12   4  -7 37454.2 1919.14   1
  12  -8  -7 38639.1 2156.08   2
  -4  12  -7 34912.2 1332.85   2
   8 -12  -7 31169.9 1993.70   2
   4   8  -7 32189.3 873.421   4
  -8  -4  -7 32859.2 1801.82   2
 -12   4  -7 34666.2 1530.33   2
  -4  12  -7 35440.2 1566.97   1
 -12   4  -7 34581.0 1252.28   4
   4   8  -7 38097.6 1615.50   3
  -4  12  -7 34525.5 1171.16   2
  12  -8  -7 33566.1 1328.78   3
   4   8  -7 35756.0 1277.97   1
  -8  -4  -7 31578.8 766.525   3
  12  -8  -7 31586.4 1520.68   4
  12  -8  -7 30149.2 1223.25   1
   8 -12  -4 55557.6 1238.74   3
   8 -12  -4 55006.5 2093.37   2
  -8  -4  -4 58184.9 1953.82   2
  12  -8  -4 52744.2 1239.11   1
   4   8  -4 55052.8 1248.06   4
  -8  -4  -4 57552.4 1056.15   3
 -12   4  -4 56676.1 1911.34   1
   4   8  -4 54392.0 1641.68   3
   8 -12  -4 55156.2 1791.08   4
  -4  12  -4 55442.0 1608.06   1
  12  -8  -4 53854.9 1501.05   3
 -12   4  -4 55295.5 1455.89   4
  -4  12  -4 58886.5 1138.24   2
   4   8  -4 56759.5 1645.95   2
   4   8  -4 55911.3 1235.63   1
 -12   4  -4 55958.4 1556.35   2
  -8  -4  -4 60071.5 1743.58   4
 -12   4  -4 54912.1 1473.38   3
  -4  12  -1 66600.5 1603.23   1
  12  -8  -1 66288.6 1596.13   3
   8 -12  -1 63181.2 1452.34   3
 -12   4  -1 70525.5 1579.07   2
   8 -12  -1 62929.5 1602.29   2
   8 -12  -1 65333.4 1685.18   4
   4   8  -1 69968.0 1762.60   2
   8 -12  -1 65503.0 1616.40   1
   4   8  -1 64604.9 1516.71   4
 -12   4  -1 64212.9 1464.56   1
  -4  12  -1 63235.3 1416.88   2
   4   8  -1 65957.6 1476.18   3
  -8  -4  -1 71507.3 1828.71   2
  12  -8  -1 66092.1 1393.35   1
  -8  -4  -1 67544.9 1345.56   3
  -4  12  -1 66152.5 1457.64   4
 -12   4  -1 66446.2 1541.52   3
   4   8  -1 66476.7 1388.86   1
   4   8   2 17452.0 1078.14   2
   8 -12   2 17952.6 729.936   4
  12  -8   2 16035.3 741.324   4
  -4  12   2 17369.3 652.614   3
  12  -8   2 15657.5 939.154   1
  -4  12   2 16686.6 924.738   4
  -8  -4   2 17571.6 876.284   3
 -12   4   2 16058.1 484.559   1
   8 -12   2 17765.7 945.267   1
  12  -8   2 15710.2 877.201   3
  -8  -4   2 17380.5 801.667   4
 -12   4   2 17333.4 845.577   3
  -8  -4   2 15612.6 913.988   2
  -4  12   2 16068.0 940.460   1
  -4  12   2 17384.3 1038.37   2
  12  -8   2 17775.1 700.857   2
   4   8   2 17161.2 547.135   3
  -8  -4   2 17191.0 471.675   1
  12  -8   5 42779.4 1224.28   2
  12  -8   5 42627.3 1152.37   4
  12  -8   8 1146.47 337.055   4
   7 -12 -11 22672.7 2146.29   2
   5   7 -11 23286.1 1931.23   2
  -5  12 -11 24048.1 1664.48   1
  12  -7 -11 24212.3 1606.30   4
 -12   5 -11 22267.9 1586.81   2
  -7  -5 -11 24932.2 1512.84   4
   5   7 -11 25921.8 1538.37   1
 -12   5 -11 27526.1 2058.70   1
  -7  -5 -11 26307.6 2039.19   2
  -5  12 -11 24255.9 1660.51   3
   7 -12 -11 22835.1 1690.01   4
   5   7 -11 25198.4 1629.28   3
  12  -7 -11 21595.4 1355.93   3
  12  -7 -11 24396.7 2249.51   2
   5   7  -8 6242.36 483.317   4
  -7  -5  -8 4419.22 230.358   3
   7 -12  -8 5994.12 461.424   3
  -5  12  -8 6408.52 711.318   2
  -5  12  -8 4460.41 551.730   2
   7 -12  -8 4690.80 1067.26   2
  12  -7  -8 6240.62 1183.19   2
  -7  -5  -8 6803.44 796.481   4
  12  -7  -8 5159.10 753.765   4
 -12   5  -8 5687.25 570.699   4
  -5  12  -8 7874.22 963.810   1
   5   7  -8 5128.60 423.802   4
 -12   5  -8 5795.34 792.230   2
   5   7  -8 6462.14 650.370   1
   7 -12  -8 5314.70 841.924   4
   5   7  -8 5765.51 813.579   3
 -12   5  -8 5960.70 992.927   1
  12  -7  -8 6200.48 695.948   3
  -7  -5  -8 6624.92 1037.20   2
   5   7  -5 118637. 1791.29   1
  -5  12  -5 115941. 2462.84   1
   7 -12  -5 115634. 3196.14   2
   7 -12  -5 115307. 1647.31   3
 -12   5  -5 115275. 2030.89   4
  -7  -5  -5 116768. 2505.51   4
  12  -7  -5 117283. 1826.27   1
  -7  -5  -5 110217. 2851.93   2
   7 -12  -5 118988. 2733.13   4
 -12   5  -5 121277. 2882.40   1
   5   7  -5 111675. 1791.38   4
  -5  12  -5 113330. 1556.66   2
   5   7  -5 117112. 2492.07   3
  -7  -5  -5 112871. 1248.08   3
 -12   5  -5 114712. 2218.75   2
 -12   5  -5 111740. 2218.16   3
  12  -7  -5 113595. 2238.46   3
   7 -12  -2 5428.46 576.782   1
  -5  12  -2 5986.50 599.436   1
   7 -12  -2 5939.36 484.151   3
   5   7  -2 5769.16 415.281   1
  -7  -5  -2 6522.07 418.713   3
   5   7  -2 5372.77 578.268   2
   5   7  -2 5889.90 508.863   4
  -5  12  -2 5597.52 393.610   2
  -7  -5  -2 5232.69 625.478   2
  12  -7  -2 6440.81 442.681   1
   7 -12  -2 5635.15 612.720   4
 -12   5  -2 5981.97 579.997   1
 -12   5  -2 6373.70 526.147   2
   5   7  -2 6169.84 551.923   3
   7 -12  -2 6292.28 699.617   2
  -7  -5  -2 5361.22 603.705   4
  -5  12  -2 6480.59 450.139   4
  12  -7  -2 6040.25 573.975   3
 -12   5  -2 6258.21 556.663   3
  -7  -5   1 55223.7 1562.00   2
  12  -7   1 52794.6 1443.93   3
  -7  -5   1 55986.6 1387.68   3
  -7  -5   1 53350.5 1382.82   4
  12  -7   1 52395.4 1433.66   1
  -5  12   1 51072.1 1519.19   2
   7 -12   1 52328.2 1282.78   4
  -5  12   1 50614.9 1207.30   3
   5   7   1 54397.6 1497.86   4
  12  -7   1 54008.3 1238.21   2
  12  -7   1 53419.4 1346.37   4
   7 -12   1 53013.2 1015.72   2
   5   7   1 51227.1 1074.49   3
   7 -12   1 53730.1 1494.14   1
  -7  -5   1 52411.8 1009.88   1
 -12   5   1 52621.0 1377.84   3
   5   7   1 56463.3 1696.71   2
 -12   5   1 50862.3 1015.22   1
  -5  12   1 50000.1 1451.87   4
  -5  12   4 13078.6 912.267   1
   5   7   4 12762.0 343.944   3
  -7  -5   4 14159.8 533.051   1
   7 -12   4 12875.6 423.058   4
  12  -7   4 13709.2 723.473   2
  12  -7   4 14872.3 733.143   4
  -5  12   4 15086.0 508.011   3
  12  -7   7 19247.7 1092.80   2
  12  -7   7 18228.1 838.306   4
  12  -6 -12 6554.75 1500.30   2
  -6  12 -12 7081.79 1056.61   3
   6 -12 -12 8030.58 1193.05   4
  -6  -6 -12 9022.04 1527.57   2
   6   6 -12 6670.55 1063.47   3
  -6  -6 -12 6085.73 994.104   4
   6 -12 -12 8348.84 1661.06   2
   6   6 -12 7756.73 1459.92   2
 -12   6 -12 6100.96 1259.46   1
  -6  12 -12 5367.59 1148.55   1
  12  -6 -12 6257.38 944.636   3
   6 -12  -9 452.638 222.840   3
   6 -12  -9 373.283 910.113   2
  12  -6  -9 652.326 521.103   4
   6   6  -9 570.147 528.884   3
  -6  12  -9 523.858 421.639   2
  12  -6  -9 270.247 493.195   3
  -6  -6  -9-279.848 654.998   2
   6   6  -9 371.331 471.171   1
 -12   6  -9 895.982 316.402   4
  12  -6  -9 1853.73 845.312   2
 -12   6  -9 952.914 749.375   1
  -6  -6  -9 1014.05 483.100   4
 -12   6  -9 1349.57 576.184   2
  -6  12  -9 879.752 633.933   1
   6   6  -9 286.130 333.430   4
   6 -12  -9 375.916 610.650   4
   6   6  -6 19605.6 832.731   4
  -6  12  -6 21056.3 728.896   2
   6   6  -6 23609.1 863.527   1
   6 -12  -6 20260.1 648.408   3
  -6  -6  -6 18182.3 1328.19   2
  -6  12  -6 20692.6 1195.61   1
   6 -12  -6 22017.7 1578.24   2
  -6  12  -6 22806.1 854.733   2
 -12   6  -6 21717.9 1400.29   1
   6 -12  -6 20300.2 1260.08   4
  12  -6  -6 21266.2 841.113   1
  12  -6  -6 20922.3 1058.29   3
  -6  -6  -6 20770.5 1159.92   4
 -12   6  -6 20573.9 1036.43   2
 -12   6  -6 21705.0 900.591   4
   6   6  -6 21694.2 1187.63   3
   6   6  -3 6548.46 639.681   2
 -12   6  -3 6902.36 595.901   3
  -6  -6  -3 8605.31 811.453   2
 -12   6  -3 8429.96 763.411   1
   6   6  -3 7924.27 555.526   4
 -12   6  -3 8125.30 571.299   2
   6   6  -3 6793.02 626.761   3
  -6  -6  -3 7193.95 658.257   4
  12  -6  -3 7736.54 431.894   1
  -6  12  -3 6418.50 292.853   2
  -6  -6  -3 8032.44 392.818   3
   6 -12  -3 5833.73 638.288   4
  -6  12  -3 6584.33 641.315   1
   6 -12  -3 7073.11 771.652   2
   6 -12  -3 7168.82 678.240   1
   6 -12  -3 7565.54 453.157   3
  -6  -6  -3 7895.92 724.034   1
   6   6  -3 7811.47 402.809   1
  12  -6  -3 8155.73 631.344   3
  -6  -6   0 95316.3 1659.53   3
  12  -6   0 93653.8 1759.29   2
  -6  12   0 90703.0 1777.14   4
  -6  12   0 92275.2 1751.22   3
   6 -12   0 91223.7 1828.08   4
   6   6   0 91348.0 2083.45   2
 -12   6   0 89610.4 1560.12   1
   6 -12   0 88127.1 1670.61   2
  -6  -6   0 91131.8 1834.71   4
  12  -6   0 91771.8 1646.78   1
  -6  12   0 94964.9 1753.10   2
   6   6   0 89868.6 1847.04   4
  12  -6   0 92868.3 1803.71   4
  12  -6   0 91761.4 1852.12   3
   6   6   0 87896.0 1537.82   3
  -6  12   0 93163.0 1899.74   1
  -6  -6   0 91712.3 1995.17   2
 -12   6   0 93455.7 1812.59   3
  -6  -6   0 92523.2 1575.48   1
 -12   6   3 7569.33 610.970   3
  -6  12   3 6513.20 785.810   2
   6   6   3 7139.25 678.039   4
  -6  12   3 5657.69 643.495   4
  -6  12   3 6258.87 414.371   3
  12  -6   3 6707.04 595.570   3
   6 -12   3 7786.01 700.610   1
   6 -12   3 6667.17 392.573   4
   6   6   3 6433.00 751.255   2
  -6  -6   3 7818.57 421.781   1
 -12   6   3 6749.31 409.806   1
  12  -6   3 6857.98 550.896   2
  12  -6   3 6789.83 533.800   4
  -6  -6   3 6686.17 501.546   4
  -6  12   3 6744.40 689.820   1
   6   6   3 7232.22 383.868   3
  -6  12   6 18608.1 582.579   3
  12  -6   6 19008.8 874.747   4
  12  -5 -10 4282.10 767.138   4
   5 -12 -10 4171.34 867.670   4
  12  -5 -10 3829.38 775.411   1
  -7  12 -10 6211.28 963.169   1
   7   5 -10 4053.69 838.717   3
  -7  12 -10 3088.13 628.561   2
   5 -12 -10 4496.01 1139.30   2
   7   5 -10 4603.77 715.149   1
  -5  -7 -10 4078.06 751.398   4
 -12   7 -10 2862.21 709.818   2
 -12   7 -10 5066.26 1066.44   1
  -5  -7 -10 4347.66 1125.03   2
  12  -5 -10 4433.24 1139.97   2
   7   5 -10 5094.20 1005.35   2
  12  -5 -10 3911.21 733.017   3
 -12   7  -7 21677.2 886.944   4
   5 -12  -7 23950.4 1735.62   2
  -5  -7  -7 17292.3 1458.93   2
  -5  -7  -7 20985.2 1240.06   4
  12  -5  -7 20708.6 881.153   1
   5 -12  -7 18021.6 496.130   3
  -7  12  -7 19490.1 874.576   2
   7   5  -7 19986.2 882.899   4
   7   5  -7 21731.1 886.663   1
   7   5  -7 21224.3 1218.98   3
   5 -12  -7 20769.5 1323.92   4
 -12   7  -7 21050.2 1067.07   2
  -7  12  -7 21565.7 1290.07   1
 -12   7  -7 22338.7 1486.64   1
  12  -5  -7 19964.9 1081.23   3
 -12   7  -4 15599.8 1052.85   1
 -12   7  -4 14469.8 857.083   3
  -5  -7  -4 13592.9 1059.31   2
  12  -5  -4 14639.3 521.314   1
  -7  12  -4 16785.8 973.647   1
   5 -12  -4 13974.6 1093.47   2
   7   5  -4 14957.6 494.654   1
   7   5  -4 16244.3 957.790   3
   7   5  -4 14949.0 742.555   4
   5 -12  -4 13204.6 949.695   4
 -12   7  -4 15449.4 692.555   2
  -5  -7  -4 16148.4 968.822   4
  12  -5  -4 16111.1 894.414   3
 -12   7  -1 66972.4 1560.70   3
  12  -5  -1 62403.3 1550.45   3
   5 -12  -1 63149.6 1581.93   1
   7   5  -1 63496.8 1510.70   4
   5 -12  -1 62718.5 1653.65   2
  -7  12  -1 60507.5 1541.17   3
  -5  -7  -1 60723.6 1730.05   2
  -7  12  -1 61529.0 1571.45   1
  -5  -7  -1 62833.9 1601.56   4
  12  -5  -1 60546.0 1516.96   4
   5 -12  -1 61075.7 1596.20   4
 -12   7  -1 65206.4 1495.07   1
  -5  -7  -1 63060.3 1243.44   3
   7   5  -1 65196.7 1448.35   3
  -5  -7  -1 62610.4 1515.79   1
  -7  12  -1 64272.6 1168.47   2
  12  -5  -1 59173.4 1531.33   2
   7   5  -1 61195.4 1660.81   2
  12  -5  -1 61914.5 1179.95   1
  12  -5   2 6366.41 524.618   4
   7   5   2 6189.98 611.897   4
  -7  12   2 6202.18 464.318   3
  -5  -7   2 6782.94 435.242   1
  -5  -7   2 7429.02 630.273   2
  -7  12   2 7137.65 632.031   1
   5 -12   2 7187.61 481.089   4
   7   5   2 7733.27 757.452   2
  12  -5   2 6522.16 560.639   2
  -5  -7   2 6569.81 515.456   4
 -12   7   2 6367.74 452.437   1
  12  -5   2 6985.53 603.872   3
   5 -12   2 6845.08 618.162   1
   7   5   2 6639.87 425.702   3
  -7  12   2 7199.49 697.689   2
 -12   7   2 7029.29 570.268   3
   5 -12   2 6524.28 380.125   2
  -5  -7   5 120879. 1975.43   1
  12  -5   5 117319. 2389.48   2
  -7  12   5 113384. 1521.18   3
  12  -5   5 116286. 2112.71   4
  12  -5   8 5081.76 585.375   4
  -4  -8 -11 23208.2 1537.60   4
  -8  12 -11 20165.9 1678.80   1
  -4  -8 -11 22547.0 1975.70   2
  12  -4 -11 21684.0 2069.48   2
  12  -4 -11 22212.9 1470.64   4
  12  -4 -11 19921.2 1355.99   3
 -12   8 -11 18844.5 1357.40   2
  -8  12 -11 22733.0 1581.64   3
   8   4 -11 21006.9 1516.80   3
   8   4 -11 20656.3 1912.70   2
 -12   8 -11 22665.5 1848.05   1
   4 -12 -11 23240.0 2129.85   2
   4 -12 -11 23237.4 1693.91   4
   8   4  -8 3792.66 712.704   3
   4 -12  -8 3153.34 720.325   4
   8   4  -8 2738.92 465.647   1
  12  -4  -8 1863.17 423.164   1
 -12   8  -8 3213.59 842.826   1
  -4  -8  -8 3088.17 686.206   4
   4 -12  -8 2979.67 909.942   2
  12  -4  -8 3066.33 617.485   4
  -4  -8  -8 1403.05 692.207   2
   8   4  -8 2457.43 451.126   4
  -8  12  -8 3178.55 489.835   2
 -12   8  -8 2516.43 534.255   2
  -8  12  -8 3373.75 723.985   1
  12  -4  -8 3833.26 614.931   3
 -12   8  -5 46233.1 1176.79   2
   8   4  -5 44715.0 847.457   1
   8   4  -5 43812.5 1275.72   4
 -12   8  -5 33982.3 1541.87   1
   4 -12  -5 47534.8 2053.36   2
  -4  -8  -5 47218.3 1681.98   4
   8   4  -5 45652.1 1549.90   3
  -4  -8  -5 45340.6 1946.98   2
   4 -12  -5 43850.7 1673.59   4
  -8  12  -5 44747.1 1635.90   1
  12  -4  -5 40774.5 831.935   1
  12  -4  -5 44470.6 1473.09   3
  -8  12  -2 19665.0 969.683   3
 -12   8  -2 18620.6 921.961   3
 -12   8  -2 19848.1 954.807   1
  -4  -8  -2 17665.8 939.169   4
  -8  12  -2 19693.5 976.280   1
  12  -4  -2 17267.3 526.919   1
  12  -4  -2 17094.3 929.749   2
   4 -12  -2 20026.8 1078.68   2
   8   4  -2 18001.7 840.703   4
  -4  -8  -2 18984.4 953.784   1
   8   4  -2 19232.9 1018.11   2
  12  -4  -2 19283.0 939.618   4
   4 -12  -2 17995.0 966.612   4
  -4  -8  -2 18487.0 1081.93   2
   4 -12  -2 18595.8 978.719   1
   8   4  -2 19593.5 894.079   3
  12  -4  -2 17784.5 878.207   3
  12  -4   1 65066.4 1556.49   3
  -8  12   1 61822.1 1430.76   3
   8   4   1 64779.7 1631.25   4
 -12   8   1 61607.0 1321.58   1
  -4  -8   1 63431.9 1470.62   4
  -8  12   1 61868.0 1603.29   1
  -4  -8   1 66052.5 1324.46   1
   8   4   1 65186.3 1828.39   2
   4 -12   1 61096.8 1304.32   2
  12  -4   1 61911.9 1498.44   4
 -12   8   1 64407.0 1540.00   3
   8   4   1 62940.5 1287.19   3
  -4  -8   1 66135.3 1657.14   2
  12  -4   1 62321.9 1539.46   2
   4 -12   1 61850.2 1396.38   4
   4 -12   1 62950.2 1590.88   1
  12  -4   4 56593.3 1508.69   3
   8   4   4 62289.0 1134.73   3
   4 -12   4 56976.5 827.988   4
  12  -4   4 61029.9 1558.05   4
  -4  -8   4 56346.1 1298.36   1
  -8  12   4 61495.3 1777.90   1
 -12   8   4 57456.8 1328.99   1
 -12   8   4 57684.8 1501.89   3
  -4  -8   4 60545.4 1251.98   4
  12  -4   4 62578.7 1746.71   2
  -8  12   4 61680.7 1242.95   3
   4 -12   4 59744.3 1774.31   1
  12  -4   7 32494.1 1264.08   4
  -8  12   7 29486.3 915.362   3
   9   3 -12 4247.09 1250.56   2
  -9  12 -12 5726.98 1153.12   1
   3 -12 -12 4813.16 977.290   4
  12  -3 -12 7416.12 1573.66   2
   3 -12 -12 3171.58 1327.04   2
  -3  -9 -12 4656.56 1354.63   2
  -9  12 -12 6346.82 1040.14   3
 -12   9 -12 4282.57 1160.93   1
   9   3 -12 5793.52 961.271   3
  -3  -9 -12 7605.48 1112.53   4
  12  -3 -12 4639.35 884.527   3
  12  -3  -9 3636.63 607.623   1
  -3  -9  -9 3670.33 767.803   4
  -9  12  -9 3204.25 537.302   2
   3 -12  -9 3140.37 700.584   4
 -12   9  -9 3564.72 630.452   2
  12  -3  -9 3859.28 662.069   4
  -3  -9  -9 3361.13 987.550   2
   9   3  -9 3432.67 546.619   1
 -12   9  -9 3820.56 905.248   1
   3 -12  -9 2850.36 952.381   2
   9   3  -9 3263.13 736.871   3
  -9  12  -9 3780.39 852.448   1
  12  -3  -9 3513.13 668.384   3
   9   3  -9 3443.03 554.547   4
   9   3  -6 29594.9 754.847   1
  -9  12  -6 34043.1 1547.66   1
   3 -12  -6 33302.1 1845.88   2
  -3  -9  -6 30966.8 1749.16   2
 -12   9  -6 30929.4 1586.28   1
  -3  -9  -6 34691.0 1518.17   4
   9   3  -6 29257.2 1123.37   4
  -9  12  -6 28879.2 731.066   2
  12  -3  -6 27041.9 726.198   1
   3 -12  -6 29227.1 1465.20   4
  12  -3  -6 30393.1 1317.26   3
   9   3  -6 30133.8 1338.23   3
 -12   9  -6 30460.5 1002.82   2
   3 -12  -3 3499.86 641.325   2
 -12   9  -3 3959.88 517.552   3
  -9  12  -3 3664.87 588.685   1
 -12   9  -3 3480.15 582.047   1
   3 -12  -3 3632.37 550.990   4
  -3  -9  -3 4147.37 562.413   4
  -3  -9  -3 3715.88 683.471   2
   9   3  -3 3687.27 456.177   4
  12  -3  -3 3806.56 506.901   4
  12  -3  -3 3895.69 513.783   3
   9   3  -3 4314.27 557.520   3
 -12   9  -3 3413.84 302.657   2
   9   3  -3 3770.19 539.585   2
 -12   9   0 54367.3 1336.01   1
   9   3   0 51237.1 1621.38   2
   3 -12   0 54623.0 1434.08   4
   9   3   0 52474.3 1435.47   4
 -12   9   0 56568.4 1454.98   3
  12  -3   0 55387.7 1524.50   2
   3 -12   0 53982.0 1434.37   2
  -3  -9   0 51384.4 1320.52   1
  -9  12   0 53357.1 1482.53   1
  -3  -9   0 54155.3 1560.67   2
   9   3   0 54742.1 1298.88   3
   3 -12   0 55948.3 1488.24   1
  -3  -9   0 53112.4 1429.02   4
  -9  12   0 52790.9 1402.01   3
  12  -3   0 53856.8 1443.16   4
  12  -3   0 51624.2 1389.62   3
   9   3   3 1596.73 324.870   3
 -12   9   3 1528.30 397.276   3
  12  -3   3 1025.42 355.465   3
  -3  -9   3 1730.38 323.617   4
 -12   9   3 1963.95 379.952   1
  -9  12   3 2419.17 377.965   3
  -9  12   3 1976.03 480.977   1
  12  -3   3 1892.61 422.637   4
   9   3   3 1034.91 403.308   4
   3 -12   3 1924.36 275.369   4
   9   3   3 1181.37 472.544   2
  12  -3   3 1587.77 451.556   2
   3 -12   3 1963.44 436.550   1
  -3  -9   3 1567.53 317.956   1
  12  -3   6 11940.1 815.601   4
  -9  12   6 11949.9 637.112   3
   2 -12 -10 7204.75 1011.79   4
  12  -2 -10 7024.78 896.769   4
  12  -2 -10 7204.83 1283.13   2
  10   2 -10 7048.70 742.196   4
 -10  12 -10 7523.39 1103.75   1
  -2 -10 -10 5203.85 1168.06   2
  -2 -10 -10 8183.87 1043.34   4
 -12  10 -10 6286.31 765.356   2
 -12  10 -10 5561.98 1033.69   1
   2 -12 -10 5825.66 1308.33   2
  10   2 -10 7409.14 927.533   3
  12  -2 -10 9368.02 997.363   3
  -2 -10  -7 4079.42 698.349   4
 -12  10  -7 4503.65 828.141   1
  12  -2  -7 3067.98 339.260   1
  12  -2  -7 5297.32 669.124   3
   2 -12  -7 4993.79 790.467   4
  12  -2  -7 3398.48 390.143   1
 -10  12  -7 4378.75 822.221   1
 -10  12  -7 4312.96 386.393   2
   2 -12  -7 3651.45 892.675   2
 -12  10  -7 3492.24 451.838   2
  10   2  -7 3112.55 347.263   1
  10   2  -7 3999.19 658.526   3
  -2 -10  -7 3886.27 921.232   2
 -12  10  -4 3422.81 254.788   2
   2 -12  -4 4477.23 772.955   2
  12  -2  -4 3736.34 542.334   3
   2 -12  -4 4968.39 692.391   4
  -2 -10  -4 3404.58 696.032   2
  10   2  -4 3820.30 491.076   4
 -10  12  -4 4202.17 620.328   1
  10   2  -4 3766.55 588.718   3
  -2 -10  -4 3645.76 616.244   4
 -12  10  -4 2422.89 610.074   1
   2 -12  -1 13829.2 840.154   1
  12  -2  -1 14692.4 882.578   2
  -2 -10  -1 12370.5 740.037   1
 -10  12  -1 11435.2 786.090   1
   2 -12  -1 11145.9 837.276   2
 -12  10  -1 11315.1 722.768   3
   2 -12  -1 11256.6 767.152   4
  10   2  -1 11050.8 718.697   4
  10   2  -1 11485.7 826.232   2
  12  -2  -1 10722.3 705.548   3
 -12  10  -1 13092.4 794.356   1
  12  -2  -1 12200.4 746.589   4
 -10  12  -1 13170.3 790.724   3
  -2 -10  -1 11808.9 870.244   2
  10   2  -1 13336.5 770.965   3
  -2 -10  -1 12426.1 795.361   4
 -10  12   2 10787.9 743.379   1
  12  -2   2 8801.84 662.548   3
 -10  12   2 9207.51 609.320   3
   2 -12   2 8502.31 677.349   1
  -2 -10   2 9333.94 620.364   1
  10   2   2 8094.63 672.285   4
  10   2   2 10688.0 862.511   2
  -2 -10   2 7928.46 534.221   4
  12  -2   2 7288.56 624.299   4
   2 -12   2 8021.03 519.936   4
 -12  10   2 8321.18 600.869   1
 -12  10   2 7164.91 602.359   3
  -2 -10   2 8915.60 688.010   2
  12  -2   2 9407.75 785.772   2
  10   2   2 8708.50 568.196   3
   2 -12   2 8819.43 576.720   2
  10   2   5 14866.4 671.934   3
  12  -2   5 14099.1 801.014   3
 -10  12   5 14248.5 716.127   3
  -2 -10   5 15444.5 884.650   1
  12  -2   5 14800.4 1056.20   2
 -12  10   5 14415.3 815.534   3
 -10  12   8 2029.26 430.157   3
  -1 -11 -11 28276.9 2345.58   2
  12  -1 -11 31903.8 2477.84   2
  -1 -11 -11 34640.0 1972.09   4
  12  -1 -11 35376.3 1826.41   3
   1 -12 -11 32409.5 1957.08   4
 -11  12 -11 33725.1 2135.14   1
 -12  11 -11 35908.2 2243.13   1
   1 -12 -11 29723.0 2415.40   2
  11   1 -11 36034.8 1874.16   3
  11   1 -11 30211.2 2377.10   2
   1 -12  -8 6550.36 1123.34   2
  12  -1  -8 7068.92 813.166   3
 -11  12  -8 6989.74 557.971   2
  -1 -11  -8 5134.23 1091.39   2
  11   1  -8 5655.79 493.924   1
 -12  11  -8 7002.25 997.401   1
 -12  11  -8 6161.69 564.418   2
 -11  12  -8 6745.62 970.246   1
  12  -1  -8 5790.33 520.563   1
  -1 -11  -8 7008.01 893.712   4
  11   1  -8 7320.65 845.537   3
   1 -12  -8 5892.29 905.725   4
   1 -12  -5 26420.5 1590.11   2
  -1 -11  -5 26888.7 1371.11   4
 -11  12  -5 24296.6 1326.50   1
  12  -1  -5 26127.6 1215.02   3
  11   1  -5 22665.9 1064.66   4
  11   1  -5 24033.2 1167.83   3
  -1 -11  -5 25153.9 1531.76   2
 -12  11  -5 26282.1 1379.12   1
   1 -12  -5 22503.2 1290.27   4
 -12  11  -5 22059.9 539.173   2
  11   1  -2 33005.1 1336.69   2
   1 -12  -2 33185.3 1297.91   1
  12  -1  -2 34311.8 1352.71   2
 -12  11  -2 32908.6 1268.15   3
  -1 -11  -2 31902.3 1421.54   2
 -11  12  -2 26345.5 1143.55   3
   1 -12  -2 35129.6 1349.94   4
  11   1  -2 32465.1 1173.58   4
  -1 -11  -2 31098.9 1235.74   1
  -1 -11  -2 33664.3 1332.54   4
  12  -1  -2 33044.2 1211.95   4
 -12  11  -2 33961.2 1290.38   1
   1 -12  -2 30457.8 1398.46   2
 -11  12  -2 31621.7 1283.09   1
  12  -1  -2 28062.9 1128.29   3
  11   1  -2 34003.2 1215.07   3
   1 -12   1 160973. 2340.06   4
 -11  12   1 161606. 2410.32   3
  -1 -11   1 167355. 2433.08   1
   1 -12   1 168060. 2549.46   1
 -12  11   1 161613. 2408.54   1
  -1 -11   1 161431. 2376.83   4
  12  -1   1 161652. 2606.69   4
 -11  12   1 163113. 2518.83   1
  11   1   1 157668. 2585.11   4
 -12  11   1 158719. 2429.71   3
  11   1   1 163458. 2914.40   2
  12  -1   1 164964. 2808.96   2
   1 -12   1 162723. 2430.12   2
  -1 -11   1 165811. 2565.72   2
  11   1   1 163011. 2309.20   3
  12  -1   1 164148. 2418.67   3
  11   1   4 24616.9 918.829   3
   1 -12   4 24374.8 1111.36   1
 -11  12   4 24702.2 1122.96   1
  -1 -11   4 25550.4 762.331   4
  -1 -11   4 26529.0 1096.56   1
 -12  11   4 25051.5 997.883   3
  12  -1   4 26692.8 1030.56   3
   1 -12   4 25913.5 710.408   4
  12  -1   4 23545.7 1264.41   2
 -12  11   4 23752.2 1041.23   1
 -11  12   4 24727.4 948.570   3
 -11  12   7 55293.5 1490.02   3
  12   0 -12 1659.07 1323.95   2
 -12  12 -12 3490.56 1093.60   1
   0 -12 -12 2112.06 1125.70   2
   0 -12 -12 4363.61 1030.37   4
  12   0 -12 3124.65 931.615   3
 -12  12  -9 306.090 683.597   1
  12   0  -9 169.318 359.337   1
  12   0  -9 144.138 445.252   4
   0 -12  -9-403.842 638.954   4
   0 -12  -9-485.713 801.457   2
 -12  12  -9 637.098 368.814   2
  12   0  -9-195.584 522.065   3
   0 -12  -6 14200.1 1119.51   4
   0 -12  -6 10449.1 1124.82   2
 -12  12  -6 11051.5 394.661   2
 -12  12  -6 14169.4 1151.56   1
  12   0  -6 15496.9 1023.37   3
 -12  12  -3 457.029 383.830   1
  12   0  -3 40.0340 297.738   4
   0 -12  -3 273.770 479.388   2
   0 -12  -3 125.433 365.304   4
  12   0  -3 125.721 385.571   3
 -12  12   0 8077.16 637.545   3
   0 -12   0 7582.01 670.425   2
  12   0   0 6874.20 581.426   3
 -12  12   0 7813.28 649.022   1
   0 -12   0 7743.40 623.701   4
   0 -12   0 7785.15 636.883   1
  12   0   0 7838.48 656.313   4
  12   0   0 7295.66 696.726   2
   0 -12   3 458.272 355.381   1
 -12  12   3 15.6210 314.544   1
  12   0   3 64.0501 308.332   3
   0 -12   3 217.820 303.611   2
   0 -12   3-20.4021 217.066   4
  12   0   3 633.805 434.705   2
 -12  12   3-134.579 290.720   3
 -12  12   6 30624.8 1141.95   3
  13 -13 -10 59444.2 1937.53   3
  13 -13 -10 57623.1 3234.73   2
 -13   0 -10 58058.8 2888.24   1
   0  13 -10 62969.0 2594.03   2
  13 -13 -10 57327.0 2516.35   4
   0  13 -10 64500.3 2566.52   3
 -13   0 -10 58443.7 2092.03   4
 -13   0 -10 59987.4 2647.19   2
   0  13 -10 64498.4 2379.29   1
  13 -13  -7 259.619 431.821   3
   0  13  -7 49.5166 451.026   1
  13 -13  -7 747.804 790.568   2
  13 -13  -7 221.313 580.214   4
 -13   0  -7 334.201 443.662   4
 -13   0  -7-89.2558 372.209   3
   0  13  -7 817.005 641.024   3
 -13   0  -7 830.079 584.470   2
   0  13  -4 217078. 2494.09   4
  13 -13  -4 219754. 3850.00   4
 -13   0  -4 232086. 3730.47   2
   0  13  -4 213217. 3078.56   2
  13 -13  -4 217375. 3077.20   3
 -13   0  -4 218924. 3378.52   4
  13 -13  -4 206366. 3083.35   1
 -13   0  -4 215598. 2776.04   3
  13 -13  -4 218929. 4314.09   2
   0  13  -4 223451. 3117.01   1
  13 -13  -1-52.7864 403.305   2
  13 -13  -1-160.441 378.795   1
  13 -13  -1 603.846 420.833   3
   0  13  -1 103.069 320.909   4
 -13   0  -1 422.027 363.356   2
 -13   0  -1 409.059 381.133   4
   0  13  -1-35.8930 399.512   1
   0  13  -1 201.162 433.535   2
 -13   0  -1 304.027 304.270   3
   0  13   2 108879. 2448.41   1
   0  13   2 106822. 1540.19   3
  13 -13   2 107377. 1239.66   2
  13 -13   2 102623. 1302.96   2
  13 -13   5-21.5305 218.390   4
  13 -12 -11 6100.67 1088.29   4
 -12  -1 -11 6123.56 877.312   4
   1  12 -11 5502.62 981.184   1
  -1  13 -11 4433.31 921.848   3
  -1  13 -11 7730.53 1097.52   1
  12 -13 -11 4410.46 938.917   4
 -12  -1 -11 5478.26 1301.29   1
  13 -12 -11 6672.68 1410.08   2
   1  12 -11 5615.44 1118.29   2
  12 -13 -11 1708.28 1110.59   2
 -13   1 -11 3938.11 1113.99   1
   1  12 -11 5233.01 1047.26   3
 -12  -1 -11 3931.41 1009.46   2
 -13   1 -11 3960.29 945.090   2
  12 -13  -8 3235.66 549.584   3
  13 -12  -8 2568.47 571.344   3
  12 -13  -8 2777.29 967.396   2
 -12  -1  -8 3667.62 657.798   4
  -1  13  -8 3230.49 661.505   1
   1  12  -8 2256.75 557.490   1
 -13   1  -8 2575.48 723.487   2
 -13   1  -8 1410.88 772.846   1
  13 -12  -8 1803.71 702.789   4
  13 -12  -8 1687.70 844.936   2
  12 -13  -8 2913.41 674.148   4
  -1  13  -8 3386.00 827.162   3
 -13   1  -8 3389.45 604.781   4
   1  12  -8 2201.66 651.533   3
 -12  -1  -8 3152.05 752.793   2
  13 -12  -5 8994.79 700.649   3
  12 -13  -5 9264.25 688.514   3
 -12  -1  -5 9196.57 898.547   2
  13 -12  -5 9602.62 1112.17   2
   1  12  -5 10197.3 738.662   1
  12 -13  -5 8630.00 1078.44   2
 -12  -1  -5 9398.83 611.256   3
  -1  13  -5 9320.51 438.522   4
   1  12  -5 8208.25 484.718   4
  13 -12  -5 8812.61 896.541   4
 -13   1  -5 9549.56 777.379   4
 -12  -1  -5 8765.88 758.199   4
  -1  13  -5 10078.1 764.662   1
   1  12  -5 9700.83 869.607   3
  -1  13  -5 9457.20 686.827   2
 -13   1  -5 8343.20 812.591   2
   1  12  -5 9400.80 745.153   2
 -13   1  -5 9597.77 678.319   3
  13 -12  -5 7572.34 684.794   1
  12 -13  -5 9504.39 908.762   4
  13 -12  -2 23678.5 1029.11   1
  13 -12  -2 21881.5 1014.88   3
  12 -13  -2 22390.7 1021.73   3
 -13   1  -2 22233.6 1056.00   4
  12 -13  -2 23645.6 1068.73   1
  -1  13  -2 21841.8 909.538   4
  12 -13  -2 24922.0 1289.23   2
  12 -13  -2 23886.2 1197.74   4
   1  12  -2 22321.0 944.115   4
 -12  -1  -2 23230.1 1082.23   4
 -12  -1  -2 21686.7 1123.55   2
   1  12  -2 23862.6 1058.81   3
  -1  13  -2 24286.5 1039.20   2
   1  12  -2 25645.1 1115.13   2
 -13   1  -2 20027.4 1075.33   2
   1  12  -2 22329.2 973.930   1
 -13   1  -2 20596.8 894.343   3
  -1  13  -2 20198.2 947.418   1
 -12  -1  -2 23468.0 921.944   3
 -13   1   1 23661.1 1043.72   3
   1  12   1 22325.4 1070.41   1
  13 -12   1 24820.2 756.402   2
 -12  -1   1 23836.7 1170.77   2
  13 -12   1 25037.9 1156.00   3
  12 -13   1 22262.2 764.540   2
   1  12   1 23923.6 827.740   3
  -1  13   1 21408.3 1185.54   2
  12 -13   1 21456.3 1075.45   3
 -13   1   1 24303.7 671.050   1
   1  12   1 23564.1 1226.16   2
  -1  13   1 21293.2 1079.80   4
  13 -12   1 21500.8 1084.55   1
  -1  13   1 21248.3 1074.38   1
 -12  -1   1 24207.4 1075.30   4
  12 -13   1 22813.9 1103.82   1
   1  12   1 23563.0 1127.12   4
 -12  -1   1 22924.5 1012.80   3
  13 -12   4 4908.38 435.561   4
  12 -13   4 5048.16 407.092   4
  -1  13   4 3812.71 188.036   3
  13 -12   7 17859.4 626.398   4
  13 -11 -12-1283.02 1099.53   2
   2  11 -12 2016.06 824.642   3
  -2  13 -12 1516.64 899.503   1
 -13   2 -12 560.464 856.352   2
  -2  13 -12 1404.04 840.358   3
  11 -13 -12-62.8515 855.928   4
 -13   2 -12 1963.20 1003.63   1
 -11  -2 -12-294.633 1022.02   1
  11 -13 -12 2733.27 1335.40   2
 -11  -2 -12 1237.59 971.814   2
  13 -11 -12 269.979 757.037   4
  11 -13  -9 16262.0 948.935   3
  11 -13  -9 14540.6 1307.72   4
   2  11  -9 15196.8 1263.23   3
  -2  13  -9 16487.1 1328.94   3
  -2  13  -9 14762.7 1195.36   2
  13 -11  -9 15647.3 1287.87   4
 -13   2  -9 17586.4 1076.83   4
  11 -13  -9 15960.6 1729.69   2
   2  11  -9 17353.4 1169.67   1
  13 -11  -9 14905.3 1060.29   3
 -11  -2  -9 14665.5 1114.12   4
 -11  -2  -9 14828.6 1402.31   2
 -13   2  -9 15931.8 1372.08   2
  -2  13  -9 18024.6 1286.06   1
 -13   2  -9 16005.3 1591.34   1
  13 -11  -9 15934.1 1719.82   2
  13 -11  -6 14126.5 1406.75   2
  11 -13  -6 17530.7 888.620   3
 -13   2  -6 16241.7 974.047   4
   2  11  -6 15758.6 892.874   1
 -13   2  -6 16363.0 1323.17   1
  13 -11  -6 16463.7 1163.68   4
  11 -13  -6 14815.5 1153.10   4
   2  11  -6 15773.9 590.592   4
 -11  -2  -6 14283.1 1176.66   2
  13 -11  -6 15715.7 942.484   3
 -11  -2  -6 17892.6 1093.00   4
  11 -13  -6 15120.2 1437.27   2
   2  11  -6 17521.3 1152.85   3
 -13   2  -6 15092.2 1077.49   2
 -13   2  -6 13771.4 842.648   3
 -11  -2  -6 13858.5 690.249   3
  -2  13  -6 15902.2 1013.75   1
  -2  13  -6 13638.1 810.447   2
  -2  13  -3 13203.4 806.197   1
 -11  -2  -3 13159.6 674.437   3
  11 -13  -3 12972.5 1086.11   2
  11 -13  -3 11965.6 732.471   3
  13 -11  -3 12781.2 743.663   1
 -13   2  -3 13517.7 947.055   1
 -11  -2  -3 11076.3 919.858   2
 -13   2  -3 13962.1 841.622   4
  11 -13  -3 11690.0 935.131   4
 -11  -2  -3 11495.2 843.107   4
 -13   2  -3 13344.1 757.409   3
   2  11  -3 12770.9 847.536   3
  -2  13  -3 12965.1 636.914   4
  -2  13  -3 14456.5 759.506   2
   2  11  -3 14821.8 868.619   2
   2  11  -3 13895.7 747.220   1
  11 -13  -3 12501.5 815.275   1
  13 -11  -3 12625.1 790.228   3
   2  11  -3 14352.0 731.227   4
 -13   2  -3 12783.6 834.076   2
  -2  13   0 19770.9 996.283   1
  13 -11   0 20785.9 1009.24   3
   2  11   0 19833.8 820.470   3
 -13   2   0 19144.2 760.513   1
  11 -13   0 19401.9 863.965   2
  -2  13   0 19482.8 998.096   2
 -11  -2   0 21173.9 1000.19   4
   2  11   0 20363.8 1094.59   2
 -13   2   0 17126.8 917.503   4
  13 -11   0 19834.2 957.797   1
 -13   2   0 18286.2 983.832   2
 -11  -2   0 18570.4 1044.15   2
  11 -13   0 19355.9 952.354   3
   2  11   0 21699.2 960.221   1
 -11  -2   0 19414.7 880.884   3
   2  11   0 19547.6 972.573   4
 -13   2   0 20060.2 919.298   3
  11 -13   0 19063.1 991.530   1
  -2  13   0 20284.0 964.135   4
  -2  13   3 27934.1 1341.54   1
  -2  13   3 29083.9 728.824   3
   2  11   3 30106.3 634.730   3
  13 -11   3 30115.7 988.092   4
  13 -11   3 29691.6 710.883   2
  11 -13   6 11535.5 382.158   4
  11 -13   6 10900.9 366.799   4
  13 -10 -10 45326.6 1788.75   3
 -13   3 -10 41706.9 2118.14   2
 -10  -3 -10 39627.1 2282.02   2
   3  10 -10 45418.6 2350.73   2
  13 -10 -10 49360.3 2882.16   2
  13 -10 -10 42768.1 2092.30   4
  10 -13 -10 41558.5 2719.56   2
  -3  13 -10 44953.5 2027.82   2
 -13   3 -10 43244.4 1589.99   4
 -10  -3 -10 45701.0 1912.40   4
  10 -13 -10 43328.7 2200.55   4
  -3  13 -10 47297.6 2168.54   3
   3  10 -10 49571.3 2205.26   3
   3  10 -10 49359.7 1967.79   1
  -3  13 -10 49275.7 2174.11   1
 -13   3 -10 48392.8 2574.24   1
  13 -10  -7 1862.09 516.361   3
  -3  13  -7 1941.38 568.527   1
  -3  13  -7 1368.56 410.657   2
   3  10  -7 2333.41 495.968   1
  13 -10  -7 2057.62 595.256   4
 -13   3  -7 1698.94 739.860   1
  10 -13  -7 1473.63 446.115   3
  13 -10  -7 1794.95 816.624   2
   3  10  -7 1044.17 212.165   4
 -10  -3  -7 1406.63 499.487   4
  10 -13  -7 856.555 800.888   2
   3  10  -7 867.705 527.108   3
 -13   3  -7 1470.20 450.566   4
 -13   3  -7 2469.97 619.937   2
 -10  -3  -7 593.315 581.698   2
  10 -13  -7 1087.48 582.789   4
 -10  -3  -7 1344.96 320.473   3
 -13   3  -4 102642. 2101.31   4
  10 -13  -4 100367. 2807.94   2
  -3  13  -4 102828. 2186.67   1
  10 -13  -4 102130. 1871.93   3
 -13   3  -4 103333. 2595.35   1
  10 -13  -4 99286.3 2505.42   4
  -3  13  -4 103215. 1402.84   4
 -10  -3  -4 104938. 2350.43   4
  13 -10  -4 94495.8 1817.94   1
   3  10  -4 94365.1 2197.14   3
   3  10  -4 102558. 1753.74   4
 -13   3  -4 96444.0 2163.78   2
 -10  -3  -4 98264.5 2561.86   2
  -3  13  -4 99472.1 1730.57   2
   3  10  -4 101571. 2232.45   2
 -10  -3  -4 106558. 1663.68   3
   3  10  -4 105442. 1864.41   1
 -13   3  -4 102686. 2043.22   3
  13 -10  -4 101878. 2119.80   3
   3  10  -1 11586.6 683.459   1
  -3  13  -1 11453.5 718.379   2
 -13   3  -1 10661.1 767.565   2
  -3  13  -1 11073.5 673.481   4
  10 -13  -1 10406.8 711.428   3
  10 -13  -1 9712.06 781.308   4
  -3  13  -1 11412.0 752.115   1
  10 -13  -1 9318.20 750.832   2
 -13   3  -1 11186.3 706.700   3
   3  10  -1 11249.0 713.428   4
   3  10  -1 11583.4 687.394   3
 -10  -3  -1 12469.2 816.074   4
  13 -10  -1 11204.4 761.469   3
 -10  -3  -1 10601.6 845.120   2
 -13   3  -1 10439.5 713.688   4
   3  10  -1 11962.7 848.542   2
  13 -10  -1 11792.1 701.732   1
 -10  -3  -1 11376.9 637.852   3
  10 -13  -1 10819.0 747.531   1
 -13   3  -1 12697.5 726.133   1
  -3  13   2 227688. 3736.33   2
 -10  -3   2 204031. 2854.74   4
   3  10   2 213625. 3681.81   2
  13 -10   2 210230. 3129.23   3
  10 -13   2 218214. 2629.27   4
  -3  13   2 218098. 2256.10   3
  -3  13   2 214702. 3276.79   4
  -3  13   2 226108. 3372.39   1
  13 -10   2 224088. 2735.24   4
 -10  -3   2 212231. 2988.78   3
   3  10   2 221025. 2024.25   3
  13 -10   2 231804. 2294.80   2
  13 -10   2 222710. 3336.10   1
  13 -10   5 10119.6 559.980   2
  13 -10   5 10175.2 592.226   4
  10 -13   5 8801.24 390.667   4
  10 -13   5 9441.96 380.107   4
  13 -10   8 41273.9 1059.40   4
  -4  13 -11 36.1111 734.220   1
   4   9 -11 1502.31 666.655   1
   9 -13 -11 568.082 744.534   4
  13  -9 -11-478.983 991.830   2
  -9  -4 -11 742.465 646.143   4
 -13   4 -11 607.362 696.982   2
   9 -13 -11-682.487 997.607   2
  13  -9 -11 154.662 639.056   4
 -13   4 -11 1049.38 1026.21   1
  -9  -4 -11 2293.95 946.658   2
   4   9 -11 974.210 652.273   3
   4   9 -11-269.509 815.671   2
  -4  13 -11 1520.22 792.754   3
  13  -9 -11 752.607 618.879   3
   9 -13  -8 7045.14 574.731   3
   9 -13  -8 6815.95 1199.19   2
  -4  13  -8 7308.32 885.017   1
   4   9  -8 6470.71 401.131   4
  13  -9  -8 6699.74 886.735   4
 -13   4  -8 5912.52 832.690   2
  13  -9  -8 7242.07 1214.53   2
  -4  13  -8 7999.32 801.549   2
  13  -9  -8 5338.20 700.128   3
  -9  -4  -8 8430.13 855.593   4
  -4  13  -8 4906.20 592.362   2
 -13   4  -8 6951.09 664.875   4
  -9  -4  -8 6746.93 1039.79   2
   4   9  -8 7398.53 917.981   3
   4   9  -8 7742.96 745.020   1
   9 -13  -8 9198.24 1016.22   4
 -13   4  -8 6261.34 1061.57   1
 -13   4  -5 2615.69 452.238   3
   9 -13  -5 3729.49 425.736   3
 -13   4  -5 4198.29 739.881   1
  -9  -4  -5 3320.51 333.586   3
  -4  13  -5 2194.93 500.023   1
   9 -13  -5 2803.97 602.523   4
   9 -13  -5 3421.28 779.043   2
  13  -9  -5 2395.71 411.160   1
   4   9  -5 2473.93 362.632   4
  -9  -4  -5 3884.07 721.458   2
   4   9  -5 2914.46 575.562   3
 -13   4  -5 2834.45 509.248   2
 -13   4  -5 2476.16 430.911   4
  -4  13  -5 2630.79 330.469   2
   4   9  -5 3342.57 433.831   1
  13  -9  -5 3358.52 539.388   3
  -9  -4  -5 3678.62 579.062   4
   9 -13  -2 25751.6 1090.34   1
 -13   4  -2 26035.0 1139.86   1
   4   9  -2 24001.4 867.575   1
   9 -13  -2 25296.2 955.426   3
  13  -9  -2 24906.7 1073.65   3
   9 -13  -2 24177.2 1234.63   2
   4   9  -2 25491.7 976.651   4
 -13   4  -2 24752.7 1043.60   2
  -4  13  -2 24584.4 865.739   2
  -4  13  -2 24637.7 892.894   4
 -13   4  -2 23514.2 999.818   4
   9 -13  -2 22999.7 1144.02   4
  -9  -4  -2 24970.4 839.800   3
  -9  -4  -2 26096.9 1247.85   2
  -9  -4  -2 25277.2 1133.15   4
   4   9  -2 26059.1 1135.14   2
  -4  13  -2 25302.1 1065.95   1
   4   9  -2 24398.5 1011.94   3
 -13   4  -2 25328.5 1025.21   3
  13  -9  -2 24877.3 902.666   1
  -9  -4   1 43300.4 1502.16   2
  13  -9   1 42439.4 1424.73   3
  -4  13   1 44778.6 1532.32   2
  -9  -4   1 42307.5 907.487   1
  -4  13   1 45214.5 1163.68   3
  -4  13   1 41911.4 1424.53   1
   9 -13   1 45025.3 1285.93   4
   4   9   1 43972.0 1605.97   2
  13  -9   1 41965.9 1379.36   1
  -4  13   1 41090.9 1402.89   4
  -9  -4   1 45954.0 1354.00   4
   9 -13   1 44230.4 959.252   2
  13  -9   1 43353.6 1104.95   2
   4   9   1 42401.0 1026.16   3
  -9  -4   1 42240.1 1276.42   3
   9 -13   1 41407.6 1410.63   1
   4   9   1 42765.8 1353.22   1
 -13   4   1 45369.4 1331.83   3
 -13   4   1 42484.8 913.552   1
   4   9   1 41491.2 1390.38   4
  13  -9   4 38916.2 1055.94   2
  13  -9   4 38081.9 1137.90   4
  -4  13   4 38831.8 747.439   3
  -4  13   4 36760.4 1507.48   1
   9 -13   4 38521.0 867.685   4
  13  -9   7 2851.47 404.994   4
   8 -13 -12 4139.39 1318.71   2
  -8  -5 -12 5754.24 929.967   4
   5   8 -12 5736.95 1044.48   3
   8 -13 -12 5823.99 1119.77   4
  13  -8 -12 6384.18 1047.66   4
  13  -8 -12 5062.41 1399.64   2
  -5  13 -12 7017.82 1094.20   3
 -13   5 -12 3819.96 1200.22   1
  -8  -5 -12 2795.09 1103.38   2
  -5  13 -12 4365.66 999.157   1
   5   8 -12 4707.08 1287.23   2
   5   8  -9 8313.68 981.672   3
   8 -13  -9 7684.85 542.822   3
 -13   5  -9 8790.33 716.153   4
   5   8  -9 9455.47 848.357   1
 -13   5  -9 8437.84 1190.14   1
   8 -13  -9 7341.38 962.560   4
  -8  -5  -9 8691.57 950.356   4
 -13   5  -9 7036.21 864.809   2
  -8  -5  -9 6915.33 1083.67   2
   8 -13  -9 7141.79 1239.76   2
  -5  13  -9 8513.89 841.975   2
  -5  13  -9 8714.27 1024.12   1
  13  -8  -9 10726.1 1425.80   2
  13  -8  -9 9016.58 876.027   3
  13  -8  -9 7814.56 978.968   4
   5   8  -6 16364.9 799.844   1
  13  -8  -6 14888.5 937.740   3
  -5  13  -6 14732.2 761.741   2
  -8  -5  -6 16830.4 1114.71   4
 -13   5  -6 16266.9 863.763   4
  -5  13  -6 16628.0 1055.99   1
   8 -13  -6 16743.1 1397.53   2
   5   8  -6 16697.5 731.258   4
  -8  -5  -6 15026.8 496.331   3
   8 -13  -6 16803.2 713.987   3
  -8  -5  -6 16618.5 1279.89   2
   5   8  -6 17050.0 1091.03   3
  13  -8  -6 15545.8 800.676   1
 -13   5  -6 16088.0 988.704   2
 -13   5  -6 17913.3 1361.48   1
   8 -13  -6 17011.1 1197.43   4
  -5  13  -6 15601.8 691.052   2
  13  -8  -3 112114. 1701.74   1
   5   8  -3 105852. 1881.64   4
  -5  13  -3 106465. 2213.42   1
   8 -13  -3 106891. 1780.93   3
  -8  -5  -3 110385. 1540.67   3
   8 -13  -3 108699. 2497.83   4
   8 -13  -3 109298. 2655.16   2
 -13   5  -3 107689. 2035.13   4
 -13   5  -3 107471. 2380.37   1
  -8  -5  -3 109335. 2574.89   2
 -13   5  -3 106703. 2091.27   3
  -5  13  -3 109233. 1502.27   2
  -8  -5  -3 109611. 2343.52   4
   8 -13  -3 103849. 2220.56   1
   5   8  -3 106863. 2175.57   3
   5   8  -3 112564. 1647.45   1
  13  -8  -3 107562. 2136.08   3
   5   8  -3 110436. 2313.30   2
 -13   5  -3 104637. 1990.28   2
   8 -13   0 25884.9 1076.54   1
  13  -8   0 26008.6 1084.01   3
   5   8   0 27028.7 1001.81   1
  13  -8   0 27419.7 978.317   2
  -5  13   0 29050.8 1093.58   2
  -5  13   0 25060.5 1072.89   1
   5   8   0 27597.6 936.218   3
   5   8   0 27280.6 1235.64   2
   8 -13   0 27170.5 961.603   2
 -13   5   0 26811.5 1029.80   3
  13  -8   0 27442.5 1028.47   1
   5   8   0 28838.2 1100.18   4
 -13   5   0 27218.3 894.762   1
  -8  -5   0 29573.9 1118.36   4
   8 -13   0 27145.1 1064.84   4
  -5  13   0 28414.9 1074.70   4
  -8  -5   0 29019.3 1011.95   3
  -8  -5   0 28298.7 918.231   1
  -8  -5   0 25662.9 1157.01   2
   8 -13   3 9053.36 488.752   4
  13  -8   3 8372.91 699.084   3
  -8  -5   3 7809.86 347.222   1
  -5  13   3 6604.58 696.129   1
 -13   5   3 8276.70 381.890   1
  -5  13   3 8316.51 851.042   2
  13  -8   3 8143.81 580.203   4
  13  -8   3 8539.91 578.124   2
  -8  -5   3 7947.28 600.543   4
  -5  13   3 8524.47 463.335   3
   5   8   3 8278.53 380.407   3
  13  -8   6 6950.55 634.348   2
  13  -8   6 7446.01 570.436   4
   7 -13 -10 15616.5 1820.75   2
  13  -7 -10 14857.5 1711.93   2
  13  -7 -10 17392.0 1353.72   4
  -6  13 -10 15860.0 1122.33   2
  -6  13 -10 16102.9 1389.97   1
  -7  -6 -10 17936.4 1645.93   2
   7 -13 -10 18892.1 1487.75   4
  -6  13 -10 17779.7 1405.17   3
 -13   6 -10 19597.3 1689.67   1
 -13   6 -10 13657.9 1194.68   2
  -7  -6 -10 19737.1 1360.85   4
   6   7 -10 20466.2 1427.56   3
   6   7 -10 17218.1 1140.35   1
  13  -7 -10 17475.2 1185.70   3
   6   7  -7 1885.81 612.311   3
  13  -7  -7 1474.72 396.893   1
   7 -13  -7 2223.03 319.787   3
  -7  -6  -7 921.406 673.102   2
   6   7  -7 1752.55 419.472   1
  -6  13  -7 910.980 326.712   2
   7 -13  -7 998.837 781.857   2
  13  -7  -7 1358.68 489.528   4
   7 -13  -7 1700.05 634.545   4
  -6  13  -7 1787.70 400.307   2
 -13   6  -7 1506.12 372.931   4
   6   7  -7 1418.70 342.721   4
  -7  -6  -7 1865.13 575.385   4
 -13   6  -7 2439.98 550.666   2
 -13   6  -7 972.204 722.523   1
  13  -7  -7 1120.76 444.235   3
  -6  13  -7 1666.87 555.380   1
   7 -13  -4 98522.4 2734.51   2
   7 -13  -4 97166.4 1535.27   3
  13  -7  -4 94726.5 1505.04   1
  -7  -6  -4 94735.0 1211.97   3
  -6  13  -4 91515.0 1175.23   2
 -13   6  -4 98363.8 2087.95   3
 -13   6  -4 93084.5 2418.37   1
   6   7  -4 94959.9 1783.70   4
 -13   6  -4 96933.6 1899.55   4
  -7  -6  -4 96161.1 2289.82   4
  -7  -6  -4 92990.3 2541.29   2
   6   7  -4 101267. 1470.70   1
   6   7  -4 96851.7 2198.35   3
 -13   6  -4 92815.7 1825.71   2
   7 -13  -4 89080.4 2350.06   4
  -6  13  -4 97775.3 2227.61   1
  13  -7  -4 96963.3 2102.13   3
  13  -7  -1 5243.92 573.581   3
 -13   6  -1 4677.08 481.152   2
  13  -7  -1 5046.18 529.741   2
  -6  13  -1 5539.85 498.711   4
   7 -13  -1 5007.69 573.179   1
   6   7  -1 5167.59 448.957   1
   6   7  -1 4721.00 499.435   3
  -6  13  -1 5264.88 443.030   2
  -7  -6  -1 4739.88 534.637   4
  -7  -6  -1 6093.88 550.401   1
   7 -13  -1 4405.95 531.815   4
   7 -13  -1 6059.89 623.273   2
   6   7  -1 5245.34 603.540   2
   6   7  -1 4724.48 519.170   4
  -7  -6  -1 4256.00 594.766   2
  -7  -6  -1 5309.30 438.821   3
  -6  13  -1 3981.65 547.793   1
  13  -7  -1 4972.93 443.105   1
 -13   6  -1 4425.64 529.355   3
 -13   6  -1 4562.44 490.152   1
 -13   6   2 79456.5 1258.15   1
  -6  13   2 81075.5 1473.66   3
  13  -7   2 77161.1 1863.50   3
  -7  -6   2 82097.7 1986.12   2
  -7  -6   2 87701.8 1285.66   1
   6   7   2 84624.4 2019.31   4
  -6  13   2 81756.0 2150.27   2
  13  -7   2 84426.7 2018.76   1
   7 -13   2 79948.5 1043.45   2
  -6  13   2 83400.5 1976.03   1
   6   7   2 72474.4 2112.53   2
  -7  -6   2 84192.1 1890.26   3
 -13   6   2 78672.2 1749.19   3
   7 -13   2 84098.8 1992.70   1
   7 -13   2 76419.7 1478.27   4
  -7  -6   2 82671.5 1710.12   4
  13  -7   2 80738.0 1649.97   2
   6   7   2 82664.4 1286.95   3
  -6  13   2 81109.6 2007.67   4
  13  -7   2 80269.9 1692.26   4
  13  -7   5 18659.7 872.249   4
  -6  13   5 16931.1 540.502   3
  13  -7   5 19224.2 951.252   2
  13  -7   8 17498.2 909.753   4
  13  -6 -11 158.272 626.929   4
   6 -13 -11 368.547 667.163   4
   7   6 -11 1710.27 852.945   2
 -13   7 -11 301.668 598.228   2
 -13   7 -11 993.510 935.310   1
  -6  -7 -11 2269.81 1128.18   2
   6 -13 -11 867.412 1028.85   2
  13  -6 -11 1109.27 617.838   3
  13  -6 -11 2296.50 1167.11   2
  -6  -7 -11 1298.46 644.580   4
  -7  13 -11 2149.93 813.981   3
   7   6 -11 1902.23 734.668   3
  -7  13 -11 949.286 751.758   1
  -7  13  -8 22023.1 1407.55   1
  13  -6  -8 16844.3 889.332   1
   6 -13  -8 17578.2 525.444   3
  -7  13  -8 18978.6 866.978   2
   6 -13  -8 21806.4 1444.92   4
  -6  -7  -8 21602.2 1307.82   4
  13  -6  -8 20438.6 1298.46   4
  -6  -7  -8 21589.2 1651.12   2
 -13   7  -8 24902.4 1710.21   1
   6 -13  -8 19272.2 1742.82   2
   7   6  -8 19110.4 886.982   4
  13  -6  -8 21896.7 1210.63   3
 -13   7  -8 22651.3 952.262   4
 -13   7  -8 21500.0 1201.67   2
  -7  13  -8 22663.8 1027.97   2
   7   6  -8 21725.6 1338.50   3
   7   6  -8 22186.2 999.016   1
  -7  13  -5 15094.3 491.454   2
 -13   7  -5 18677.3 1235.22   1
  -6  -7  -5 18181.4 1103.10   4
  13  -6  -5 15982.1 630.914   1
   6 -13  -5 17085.3 1317.75   2
   7   6  -5 18832.8 659.908   1
   7   6  -5 19652.3 1081.39   3
  -6  -7  -5 19040.5 1307.21   2
  13  -6  -5 16707.2 957.467   3
 -13   7  -5 16344.2 798.883   4
   7   6  -5 18350.7 849.222   4
  -7  13  -5 17312.0 1073.42   1
  -7  13  -5 15809.5 452.489   2
 -13   7  -5 18200.6 855.815   2
   6 -13  -5 16726.4 588.197   3
   6 -13  -5 17100.8 1133.96   4
 -13   7  -2 75061.0 1758.83   3
   6 -13  -2 74731.3 1933.47   4
  -7  13  -2 75266.1 1861.22   1
   7   6  -2 73371.8 1189.95   1
  -7  13  -2 71123.5 1057.78   2
   7   6  -2 74462.1 1927.42   2
 -13   7  -2 74719.6 1489.38   2
   6 -13  -2 74985.3 2002.91   2
   7   6  -2 74072.9 1725.28   3
  -6  -7  -2 72607.1 1884.39   4
  -6  -7  -2 75339.8 2112.19   2
   7   6  -2 73353.4 1657.04   4
  13  -6  -2 76399.0 1265.19   1
   6 -13  -2 76381.0 1895.98   1
  -6  -7  -2 77700.6 1301.36   3
  -6  -7  -2 76130.8 1856.15   1
  13  -6  -2 76428.1 1818.40   3
 -13   7  -2 78627.7 1861.61   1
  -6  -7   1 7297.18 666.040   2
  13  -6   1 6376.99 602.955   3
 -13   7   1 6950.31 486.630   1
  -7  13   1 5620.00 509.550   3
  -7  13   1 5367.89 561.894   4
   6 -13   1 6024.92 457.834   2
  13  -6   1 5952.27 574.716   1
   6 -13   1 5496.56 494.280   4
   7   6   1 5712.93 689.090   2
  -7  13   1 6019.64 602.611   2
   7   6   1 6292.95 617.859   4
  -6  -7   1 6271.71 572.315   4
   7   6   1 4932.46 429.221   3
  13  -6   1 5065.30 499.194   4
 -13   7   1 5479.12 552.782   3
  -6  -7   1 6776.75 451.095   1
  -6  -7   1 6210.14 546.379   3
  13  -6   1 6637.94 549.156   2
  -7  13   1 5744.84 630.826   1
   6 -13   1 6487.94 636.386   1
   7   6   4 97384.4 1275.06   3
  13  -6   4 98674.9 2071.77   2
  13  -6   4 94504.6 2071.31   3
  -6  -7   4 99806.9 1551.53   1
 -13   7   4 99562.6 1560.98   1
  -7  13   4 98052.6 1490.66   3
   6 -13   4 95078.9 1157.72   4
  13  -6   4 92083.4 1881.22   4
  -7  13   4 94116.6 2296.59   1
  13  -6   7 701.829 363.417   4
  13  -6   7 617.257 503.063   2
  -7  13   7 466.941 220.325   3
   8   5 -12 2215.73 1027.03   2
  -8  13 -12 3343.29 997.885   1
   8   5 -12 1840.52 831.315   3
   5 -13 -12 2649.07 900.849   4
  -5  -8 -12 3586.76 868.917   4
  -5  -8 -12 1714.30 1043.15   2
  -8  13 -12 2218.05 798.298   3
  13  -5 -12 2155.47 1297.82   2
   5 -13 -12 2824.21 1245.18   2
  13  -5 -12 1871.73 742.163   3
 -13   8 -12 1843.61 1015.26   1
  -5  -8  -9 11692.5 1113.12   4
  13  -5  -9 12708.0 983.336   1
   5 -13  -9 11898.4 1141.16   4
 -13   8  -9 13682.8 1415.19   1
   5 -13  -9 11141.1 1455.99   2
  13  -5  -9 8842.22 1351.74   2
  -5  -8  -9 13021.9 1446.00   2
  13  -5  -9 12659.5 1093.94   4
   8   5  -9 12181.6 805.208   4
  -8  13  -9 11280.5 1135.18   1
   8   5  -9 11921.7 1093.90   3
   8   5  -9 10042.5 785.116   1
 -13   8  -9 11853.8 979.669   2
  13  -5  -9 13042.7 1047.66   3
  -8  13  -9 11757.9 840.055   2
   8   5  -6 7375.66 453.196   1
   8   5  -6 7188.87 785.379   3
   5 -13  -6 6281.58 789.917   4
  -8  13  -6 7005.40 378.004   2
  -5  -8  -6 6640.76 799.366   4
 -13   8  -6 7160.87 885.529   1
   8   5  -6 6594.94 596.476   4
  -5  -8  -6 7345.70 998.177   2
  13  -5  -6 6687.58 446.102   1
   5 -13  -6 6719.11 996.268   2
 -13   8  -6 6146.12 558.340   2
  13  -5  -6 6323.71 713.279   3
  -8  13  -6 6236.88 808.767   1
  -8  13  -6 6181.60 330.672   2
   8   5  -3 9568.62 775.078   2
 -13   8  -3 8680.98 513.530   2
 -13   8  -3 9791.27 738.236   3
   5 -13  -3 9042.65 791.043   4
  13  -5  -3 8737.97 392.802   1
  -5  -8  -3 10353.5 947.049   2
  -5  -8  -3 9536.67 779.229   4
   5 -13  -3 8876.53 871.849   2
   8   5  -3 8890.33 643.197   4
 -13   8  -3 10129.7 804.977   1
   8   5  -3 9885.83 384.051   1
  13  -5  -3 10036.7 749.650   3
   8   5  -3 10965.8 756.744   3
  -8  13  -3 10158.1 794.851   1
  -5  -8   0 28306.9 984.217   1
 -13   8   0 29596.2 1106.94   3
  -8  13   0 28581.7 1070.20   3
  13  -5   0 26768.8 1065.27   4
   5 -13   0 27022.5 1041.17   2
   5 -13   0 30164.4 1156.79   1
  13  -5   0 26082.8 1056.52   3
   5 -13   0 27306.0 1066.89   4
  -5  -8   0 29301.4 1105.70   4
  13  -5   0 28745.8 1109.20   2
   8   5   0 29725.7 1142.20   4
  13  -5   0 28834.2 981.537   1
  -8  13   0 23494.5 1041.70   1
   8   5   0 29743.5 1260.29   2
   8   5   0 28255.9 963.669   3
  -5  -8   0 27186.9 1191.52   2
 -13   8   0 26506.6 948.234   1
  -8  13   0 29366.9 1020.25   2
  13  -5   3 107667. 2199.86   2
  13  -5   3 100081. 2057.73   3
 -13   8   3 100697. 1649.55   1
 -13   8   3 99143.0 2020.22   3
   5 -13   3 98686.9 2215.79   1
   5 -13   3 101404. 1484.67   4
  13  -5   3 100740. 2011.48   4
  -5  -8   3 99776.8 1766.43   4
  -5  -8   3 108604. 1665.13   1
  -8  13   3 98212.4 2221.70   1
  -8  13   3 102760. 1683.91   3
   8   5   3 107488. 1547.61   3
  13  -5   6 13808.0 995.208   2
  13  -5   6 14347.8 851.971   4
  -8  13   6 13886.9 607.460   3
  -4  -9 -10 9674.03 1354.04   2
  -4  -9 -10 10528.6 1117.27   4
  13  -4 -10 8382.51 973.149   4
   4 -13 -10 10732.3 1514.35   2
  13  -4 -10 7805.53 1357.79   2
  -9  13 -10 10280.7 1269.92   1
   4 -13 -10 11153.0 1192.30   4
 -13   9 -10 8838.55 1224.08   1
 -13   9 -10 9944.39 961.557   2
   9   4 -10 8826.72 1034.95   3
  13  -4 -10 11415.8 1059.41   3
   9   4  -7 1885.41 449.477   4
  -4  -9  -7 2016.71 757.193   2
  -9  13  -7 1340.14 230.105   2
   4 -13  -7 2495.17 653.446   4
 -13   9  -7 2449.20 434.979   2
  13  -4  -7 2558.48 593.128   3
   4 -13  -7 852.521 688.290   2
  -9  13  -7 1947.27 308.985   2
  13  -4  -7 1834.32 310.086   1
 -13   9  -7 1989.83 718.960   1
  -4  -9  -7 1332.89 522.221   4
   9   4  -7 1474.27 553.909   3
   9   4  -7 1843.81 326.948   1
  -9  13  -7 2734.63 689.559   1
 -13   9  -4 39193.1 1565.00   1
   4 -13  -4 36723.6 1555.52   4
   4 -13  -4 40906.8 1821.86   2
  -4  -9  -4 38360.3 1535.16   4
   9   4  -4 38207.0 1246.31   4
  -4  -9  -4 38195.3 1739.64   2
   9   4  -4 38888.8 1407.45   3
  -9  13  -4 40082.9 1505.55   1
  13  -4  -4 38912.3 1390.72   3
 -13   9  -4 38880.7 950.339   2
  13  -4  -1 36160.5 1249.61   4
  13  -4  -1 37139.9 1318.92   2
   4 -13  -1 36785.1 1311.16   4
  -9  13  -1 41868.4 1386.62   1
  -4  -9  -1 39614.6 1359.71   4
  -9  13  -1 41063.5 1367.57   3
   4 -13  -1 36750.8 1375.55   2
   9   4  -1 37213.2 1238.46   4
   4 -13  -1 39974.1 1353.64   1
   9   4  -1 38253.2 1419.08   2
 -13   9  -1 36651.1 1254.02   3
  -4  -9  -1 37006.1 1435.00   2
 -13   9  -1 38364.2 1240.38   1
  -4  -9  -1 40134.5 1270.04   1
   9   4  -1 38597.5 1208.85   3
  13  -4  -1 39300.6 1311.75   3
  -9  13   2 27982.6 961.636   3
  -4  -9   2 29495.1 965.723   1
  -9  13   2 28582.7 1167.35   1
  13  -4   2 26659.3 1112.88   2
   9   4   2 26767.5 1322.54   2
   9   4   2 27891.9 1197.97   4
  -4  -9   2 28913.0 1014.81   4
  13  -4   2 27851.7 1077.74   4
 -13   9   2 28563.7 958.554   1
   4 -13   2 27683.1 1144.61   1
   4 -13   2 25685.2 880.446   4
  -4  -9   2 29480.2 1182.86   2
  13  -4   2 31708.5 1168.59   3
 -13   9   2 25374.4 1028.95   3
   9   4   2 27701.1 877.836   3
   4 -13   2 28558.3 886.383   2
   9   4   5 2658.83 314.033   3
  -9  13   5 2278.35 531.217   1
  -4  -9   5 2709.69 428.741   1
  13  -4   5 2711.39 465.427   4
  13  -4   5 2010.73 522.064   2
  -9  13   5 2763.15 351.605   3
  -9  13   8 5026.17 491.946   3
  10   3 -11 1245.32 968.201   2
  10   3 -11 2184.03 797.998   3
  -3 -10 -11 2000.36 1030.34   2
  13  -3 -11 1605.73 616.678   4
   3 -13 -11 628.826 684.876   4
  -3 -10 -11 1544.60 731.573   4
   3 -13 -11 2449.09 1082.37   2
  13  -3 -11 2018.51 1049.34   2
 -13  10 -11 3510.84 1006.81   1
 -10  13 -11 3818.59 986.282   1
  13  -3 -11 2036.71 784.885   3
  13  -3  -8 51383.3 1869.24   3
  10   3  -8 54844.6 2015.82   3
  -3 -10  -8 49962.4 2522.56   2
 -10  13  -8 51330.9 2161.72   1
 -13  10  -8 57460.6 2388.57   1
   3 -13  -8 55525.0 2209.27   4
  -3 -10  -8 52278.7 2076.65   4
   3 -13  -8 49345.6 2569.53   2
 -13  10  -8 51339.4 1545.53   2
 -10  13  -8 52137.3 1297.34   2
  10   3  -8 44663.0 1191.77   1
  13  -3  -8 49599.1 1371.97   1
 -13  10  -5 8495.58 878.316   1
   3 -13  -5 9006.03 890.424   4
  -3 -10  -5 11399.9 920.227   4
   3 -13  -5 10081.1 1132.80   2
 -10  13  -5 11991.0 986.931   1
  10   3  -5 9545.62 708.150   4
  -3 -10  -5 10641.6 1088.79   2
  13  -3  -5 10112.8 817.986   3
 -13  10  -5 11293.6 523.811   2
  10   3  -5 11667.3 886.447   3
 -13  10  -2 208322. 3088.37   3
  10   3  -2 220955. 2985.38   4
  13  -3  -2 226888. 3114.31   3
  13  -3  -2 216190. 3300.99   2
   3 -13  -2 221209. 3539.98   2
   3 -13  -2 219613. 3330.18   4
  10   3  -2 221791. 3020.74   3
  -3 -10  -2 226182. 3634.01   2
  -3 -10  -2 229913. 3372.11   4
  13  -3  -2 213039. 3023.70   4
  -3 -10  -2 237181. 3319.49   1
 -13  10  -2 227473. 3197.24   1
  13  -3   1 10867.6 724.513   3
 -10  13   1 10313.4 667.055   3
   3 -13   1 9852.87 647.799   4
   3 -13   1 10923.3 754.226   1
  -3 -10   1 12032.5 671.580   1
  10   3   1 8811.59 689.384   4
  -3 -10   1 10440.3 674.987   4
  13  -3   1 9291.29 696.752   4
 -13  10   1 10929.6 681.454   1
 -13  10   1 11158.3 714.961   3
 -10  13   1 9692.65 728.738   1
   3 -13   1 9919.40 631.655   2
  10   3   1 10486.2 837.548   2
  13  -3   1 11747.6 781.993   2
  10   3   1 10081.5 610.550   3
  -3 -10   1 10574.6 750.114   2
  13  -3   4 88161.8 1935.38   3
  -3 -10   4 102572. 1919.88   1
  13  -3   4 100084. 2407.77   2
  13  -3   4 92658.3 2072.98   4
 -10  13   4 96875.1 2234.94   1
   3 -13   4 97608.4 1277.11   4
  -3 -10   4 96623.0 1598.09   4
 -13  10   4 94609.3 1979.11   3
 -13  10   4 98616.2 1916.93   1
  10   3   4 98387.5 1657.32   3
 -10  13   4 97521.0 1764.69   3
 -10  13   7 762.265 333.004   3
  13  -2 -12 1025.66 773.076   3
  13  -2 -12 1644.82 1221.93   2
   2 -13 -12 1360.56 783.755   4
 -13  11 -12-730.358 986.557   1
  -2 -11 -12-24.7814 732.496   4
   2 -13 -12 1532.33 1179.49   2
  -2 -11 -12 820.409 1070.80   2
  11   2 -12 1261.47 1129.97   2
 -11  13 -12 1601.66 940.305   1
  11   2 -12 457.566 731.791   3
  11   2  -9 4583.28 668.847   4
   2 -13  -9 5323.06 882.296   4
  13  -2  -9 5133.10 760.482   4
  -2 -11  -9 5584.34 847.313   4
  13  -2  -9 4059.11 548.717   1
   2 -13  -9 6270.43 1187.14   2
 -11  13  -9 4605.86 911.705   1
 -11  13  -9 4528.59 517.624   2
  11   2  -9 4609.42 776.265   3
 -13  11  -9 4519.34 592.648   2
  -2 -11  -9 7853.69 1275.09   2
  11   2  -9 3919.44 509.302   1
  13  -2  -9 3466.67 727.466   3
 -13  11  -9 6293.41 1096.38   1
  13  -2  -6 14217.4 972.581   3
   2 -13  -6 14281.6 1103.85   4
  -2 -11  -6 17063.8 1184.14   4
  -2 -11  -6 16813.0 1387.81   2
 -13  11  -6 17784.6 1274.59   1
 -11  13  -6 15228.7 1124.08   1
  11   2  -6 17432.4 1100.77   3
 -13  11  -6 16182.9 613.247   2
   2 -13  -6 14747.6 1385.88   2
   2 -13  -3 31568.7 1392.44   4
  -2 -11  -3 30771.4 1350.49   4
   2 -13  -3 32142.3 1553.27   2
  11   2  -3 29585.3 1165.60   4
  -2 -11  -3 33347.7 1565.56   2
 -13  11  -3 36385.0 1432.29   1
  11   2  -3 31615.3 1246.25   3
 -11  13  -3 32239.8 1350.61   1
  13  -2  -3 32946.7 1290.86   3
 -11  13   0 19757.7 943.832   3
  11   2   0 19205.8 977.545   4
   2 -13   0 18672.6 945.858   2
 -13  11   0 20057.4 929.355   1
 -13  11   0 20237.1 955.232   3
   2 -13   0 19703.6 953.303   4
   2 -13   0 20245.5 967.577   1
  -2 -11   0 18767.9 878.189   1
  13  -2   0 19448.0 1028.24   2
  11   2   0 18525.3 1048.37   2
  -2 -11   0 18800.3 929.324   4
  -2 -11   0 17894.7 988.462   2
  11   2   0 18613.6 864.908   3
 -11  13   0 17106.2 897.548   1
  13  -2   0 20371.6 974.568   4
  13  -2   0 17849.2 900.064   3
  11   2   3 12757.3 696.419   3
  13  -2   3 15301.3 838.832   3
   2 -13   3 12890.6 709.992   2
  -2 -11   3 13734.0 825.339   2
 -13  11   3 12277.7 736.630   1
   2 -13   3 13685.6 617.803   4
 -11  13   3 14659.1 883.516   1
   2 -13   3 14502.1 883.040   1
  13  -2   3 13752.2 955.011   2
  -2 -11   3 15121.6 796.456   1
  -2 -11   3 12063.7 628.661   4
 -13  11   3 12499.7 779.556   3
 -11  13   3 14467.2 764.540   3
 -11  13   6 11325.1 701.614   3
  -2 -11   6 12826.6 908.933   1
  12   1 -10 5396.11 769.357   4
  13  -1 -10 4684.07 736.567   4
   1 -13 -10 6492.25 976.955   4
   1 -13 -10 3506.68 1068.94   2
  -1 -12 -10 6472.69 1359.77   2
 -13  12 -10 6126.44 1171.64   1
  -1 -12 -10 6274.02 991.153   4
 -12  13 -10 5675.34 1044.93   1
  13  -1 -10 5423.43 864.870   3
  12   1 -10 3916.15 769.836   3
   1 -13  -7 17806.4 1268.18   4
  -1 -12  -7 19188.1 1290.56   4
   1 -13  -7 17301.6 1539.15   2
  -1 -12  -7 16884.9 1545.97   2
 -12  13  -7 20737.9 1431.65   1
 -12  13  -7 14605.3 494.911   2
 -13  12  -7 16501.2 648.499   2
  12   1  -7 20456.3 1227.45   3
  13  -1  -7 18472.5 1174.44   3
 -13  12  -7 20358.1 1418.00   1
  -1 -12  -4 4658.41 654.988   4
   1 -13  -4 4402.03 660.875   4
 -13  12  -4 4640.44 703.047   1
   1 -13  -4 4876.94 795.079   2
  -1 -12  -4 4944.96 785.296   2
 -12  13  -4 4096.00 656.715   1
  12   1  -4 5891.53 674.636   3
  13  -1  -4 3616.02 571.679   3
 -12  13  -1 22696.1 1078.97   1
  12   1  -1 22145.8 1041.67   4
   1 -13  -1 25122.8 1149.38   4
  -1 -12  -1 22665.7 1077.56   4
 -13  12  -1 23636.7 1064.31   1
  12   1  -1 23483.3 1043.68   3
   1 -13  -1 21400.4 1040.24   1
  -1 -12  -1 22165.3 1166.88   2
  -1 -12  -1 21819.4 1019.15   1
  13  -1  -1 23185.9 1030.75   3
   1 -13  -1 23302.1 1142.48   2
  13  -1  -1 20452.7 1109.92   2
  -1 -12   2 27121.6 1098.61   2
  13  -1   2 23286.7 988.187   3
  -1 -12   2 24416.6 1009.70   1
   1 -13   2 23657.7 912.765   4
 -13  12   2 23556.5 1015.57   1
  12   1   2 21017.7 1191.59   2
  13  -1   2 25043.2 1247.48   2
 -12  13   2 24178.6 1068.28   1
  -1 -12   2 25288.3 954.679   4
 -13  12   2 23129.2 1002.78   3
   1 -13   2 25346.7 1088.69   1
 -12  13   2 23098.6 995.209   3
   1 -13   2 25085.5 992.477   2
  12   1   2 24758.4 968.497   3
  12   1   5 10857.1 676.883   3
 -12  13   5 10476.0 867.294   1
  13  -1   5 10996.9 718.324   3
 -13  12   5 10689.8 798.912   1
  -1 -12   5 11131.3 506.231   4
   1 -13   5 10992.9 434.914   4
 -12  13   5 8779.95 644.255   3
  -1 -12   5 10044.8 800.814   1
   0 -13 -11-548.473 993.021   2
   0 -13 -11 42.4050 696.700   4
  13   0 -11-87.0049 938.845   2
 -13  13 -11 319.765 804.043   1
  13   0 -11 263.476 641.208   3
  13   0  -8 71291.2 2300.50   3
   0 -13  -8 71938.4 2544.39   4
   0 -13  -8 72437.9 3074.38   2
 -13  13  -8 78199.6 2751.26   1
   0 -13  -5 880.443 548.827   4
 -13  13  -5 17.6854 496.538   1
  13   0  -5 493.688 473.627   3
   0 -13  -5 20.8276 584.757   2
   0 -13  -2 108731. 2470.39   4
   0 -13  -2 112197. 2665.82   2
  13   0  -2 118773. 2343.58   3
 -13  13  -2 120109. 2453.94   1
  13   0   1 867.459 364.177   3
   0 -13   1 263.878 331.411   1
 -13  13   1-103.892 331.382   3
   0 -13   1-290.116 308.756   4
   0 -13   1 250.427 349.693   2
  13   0   1 263.179 406.727   2
 -13  13   1 482.422 360.744   1
 -13  13   4 202724. 2865.36   3
   0 -13   4 208963. 2279.64   4
   0 -13   4 201593. 3126.73   1
 -13  13   4 203667. 3136.73   1
  14 -14 -11 600.349 695.493   4
 -14   0 -11 1589.14 1004.22   1
   0  14 -11 531.345 756.192   1
   0  14 -11-588.999 735.284   3
 -14   0 -11 518.128 560.677   4
 -14   0 -11 86.3077 769.125   2
  14 -14 -11-1194.17 1065.30   2
  14 -14  -8 2996.64 616.480   3
  14 -14  -8 1435.00 657.130   4
   0  14  -8 998.967 524.927   1
 -14   0  -8 1921.58 601.631   4
  14 -14  -8 1372.20 918.022   2
   0  14  -8 1762.96 662.436   3
 -14   0  -8 2287.03 705.670   2
 -14   0  -8 2129.03 923.561   1
  14 -14  -5 276.866 422.078   3
   0  14  -5 24.0737 233.553   4
  14 -14  -5-244.243 464.532   4
 -14   0  -5 343.147 324.870   3
   0  14  -5 436.090 453.627   3
 -14   0  -5-295.418 374.504   4
  14 -14  -5-147.672 659.916   2
 -14   0  -5 501.969 453.878   2
   0  14  -5-100.145 377.093   1
   0  14  -5 194.607 402.585   2
  14 -14  -2 30384.9 1258.57   1
   0  14  -2 32212.5 1198.15   4
  14 -14  -2 30482.7 1253.68   3
   0  14  -2 33237.9 1336.51   2
 -14   0  -2 33879.7 1390.68   4
   0  14  -2 33818.4 1267.88   1
 -14   0  -2 30609.3 1143.03   3
  14 -14  -2 32845.2 1506.54   2
 -14   0  -2 29972.8 1365.36   2
  14 -14   1-459.213 383.390   3
 -14   0   1 426.684 438.280   2
 -14   0   1 619.752 233.405   1
  14 -14   1 662.410 283.965   2
   0  14   1-314.669 433.899   1
 -14   0   1 337.229 358.546   4
   0  14   1-87.2243 250.679   3
   0  14   4 2836.20 185.819   3
   0  14   4 2767.30 209.647   3
  14 -14   7-249.704 175.174   4
  13 -14  -9 11867.3 923.968   3
  13 -14  -9 12698.6 1580.05   2
  -1  14  -9 13172.8 1203.51   2
  13 -14  -9 11707.7 1214.51   4
 -13  -1  -9 12553.1 1055.13   4
 -13  -1  -9 14560.3 1515.58   1
  14 -13  -9 16715.8 1792.78   2
  14 -13  -9 12035.4 1212.14   4
 -14   1  -9 13883.0 1497.26   1
 -14   1  -9 13865.7 1054.00   4
 -13  -1  -9 12372.0 1283.95   2
   1  13  -9 12978.0 1217.08   3
 -14   1  -9 13284.0 1291.81   2
  14 -13  -9 12902.5 972.796   3
  -1  14  -9 12090.2 1208.13   3
  -1  14  -9 14895.5 1207.25   1
   1  13  -9 12435.2 1083.58   1
  14 -13  -6 3541.74 593.727   3
 -13  -1  -6 3545.82 475.114   3
  -1  14  -6 3889.96 594.519   1
  13 -14  -6 2839.97 505.291   3
   1  13  -6 3195.43 557.271   1
  -1  14  -6 2832.75 201.540   4
  14 -13  -6 2863.69 654.509   4
  13 -14  -6 3970.96 900.657   2
  -1  14  -6 2745.16 493.803   2
 -13  -1  -6 3472.01 619.406   4
  14 -13  -6 2916.97 844.667   2
 -14   1  -6 3597.07 584.820   4
 -14   1  -6 3417.95 532.723   3
  -1  14  -6 3588.37 701.515   3
   1  13  -6 3793.11 684.969   3
 -14   1  -6 4104.81 696.637   2
   1  13  -6 3778.94 334.053   4
 -13  -1  -6 2858.45 670.244   2
 -14   1  -6 2454.62 725.442   1
  13 -14  -6 3284.68 694.389   4
  13 -14  -3 24663.8 1306.35   4
  13 -14  -3 24997.3 1111.20   3
  14 -13  -3 25284.8 1092.73   1
  -1  14  -3 25939.3 977.418   4
 -14   1  -3 23688.7 1153.13   4
   1  13  -3 26177.0 1008.29   4
 -13  -1  -3 26859.7 1263.68   4
   1  13  -3 24872.1 1134.21   2
  -1  14  -3 28226.4 1168.13   1
  14 -13  -3 26458.8 1479.00   2
   1  13  -3 25180.3 1069.88   1
  14 -13  -3 26990.0 1156.43   3
   1  13  -3 26817.8 1213.81   3
  13 -14  -3 25333.2 1437.39   2
 -13  -1  -3 28752.0 1038.30   3
 -13  -1  -3 24684.8 1285.92   2
 -14   1  -3 26836.1 1073.37   3
 -14   1  -3 22504.3 1210.26   2
  -1  14  -3 26934.4 1120.24   2
  -1  14   0 7366.45 723.122   2
 -13  -1   0 6400.96 692.969   2
 -14   1   0 5248.75 637.637   2
  14 -13   0 6573.16 710.201   3
  13 -14   0 6636.04 672.354   3
  13 -14   0 6747.34 610.444   2
  -1  14   0 6682.88 682.962   4
 -14   1   0 7298.12 527.430   1
 -13  -1   0 5885.08 630.077   4
 -14   1   0 5728.49 635.136   4
   1  13   0 7090.76 692.254   1
  14 -13   0 7729.51 686.696   1
  -1  14   0 7275.08 679.407   1
   1  13   0 5664.59 687.829   2
   1  13   0 6996.98 554.157   3
   1  13   0 7687.50 688.223   4
 -13  -1   0 7597.28 632.213   3
  -1  14   3 27484.1 755.126   3
  14 -13   3 28712.3 1028.79   4
  -1  14   3 26650.5 704.816   3
   1  13   3 29056.8 698.698   3
  -1  14   3 29513.7 1402.36   1
  13 -14   6 242.573 191.674   4
  14 -13   6 101.217 240.654   4
  14 -12 -10 15057.2 1782.94   2
 -12  -2 -10 18670.8 1758.55   1
   2  12 -10 17036.1 1549.40   2
 -12  -2 -10 13233.5 1127.66   4
  12 -14 -10 14973.7 1403.93   4
 -14   2 -10 17158.5 1755.95   1
  12 -14 -10 13490.7 1781.96   2
 -14   2 -10 15641.7 1084.63   4
  -2  14 -10 16216.2 1383.17   2
 -12  -2 -10 17485.3 1576.94   2
  -2  14 -10 16483.4 1401.23   3
 -14   2 -10 15650.9 1413.74   2
   2  12 -10 17025.0 1409.64   3
   2  12 -10 15548.3 1247.11   1
  14 -12 -10 15879.7 1422.78   4
  -2  14 -10 16572.3 1369.61   1
  14 -12 -10 14916.6 1108.15   3
  12 -14  -7 49791.8 1518.64   3
   2  12  -7 50976.0 1659.27   1
 -14   2  -7 48568.0 1696.47   4
  12 -14  -7 44311.9 1972.21   4
  -2  14  -7 40832.8 1443.65   2
  14 -12  -7 46788.8 2003.34   4
  14 -12  -7 48908.5 1683.91   3
  12 -14  -7 47875.6 2490.15   2
   2  12  -7 47674.2 1922.47   3
 -14   2  -7 45499.0 1891.98   2
  14 -12  -7 48698.1 2534.37   2
 -12  -2  -7 45084.2 1759.11   4
  -2  14  -7 50204.6 2070.53   3
 -12  -2  -7 45192.6 2072.75   2
 -14   2  -7 49691.2 2295.60   1
 -12  -2  -7 41981.0 1194.71   3
  -2  14  -7 50116.8 1829.29   1
 -14   2  -4 24638.1 1047.50   3
  14 -12  -4 22765.7 1087.95   3
  12 -14  -4 20396.8 966.063   3
 -12  -2  -4 26333.8 948.836   3
 -14   2  -4 23102.0 1337.36   1
  -2  14  -4 25222.6 1148.27   1
   2  12  -4 26181.9 1059.92   1
  12 -14  -4 24020.0 1546.68   2
  14 -12  -4 22201.0 1022.51   1
  -2  14  -4 26357.2 836.457   4
   2  12  -4 24870.0 937.995   4
  12 -14  -4 25602.0 1402.23   4
   2  12  -4 28075.9 1310.31   3
 -14   2  -4 25656.8 1243.35   2
 -12  -2  -4 26508.7 1277.51   4
  -2  14  -4 25121.2 1026.66   2
 -12  -2  -4 23533.9 1325.79   2
   2  12  -4 22204.1 1106.97   2
 -14   2  -4 25928.4 1199.72   4
  -2  14  -1 150670. 2496.61   4
 -14   2  -1 148695. 2395.25   1
  12 -14  -1 151918. 2616.92   3
  -2  14  -1 148854. 2619.28   2
 -14   2  -1 146986. 2417.55   3
  12 -14  -1 152602. 2836.20   4
  14 -12  -1 145660. 2601.56   3
  12 -14  -1 150846. 2701.70   2
   2  12  -1 150979. 2565.94   4
  -2  14  -1 153286. 2644.65   1
 -12  -2  -1 150695. 2704.49   4
 -14   2  -1 156630. 2712.91   4
   2  12  -1 147278. 2796.34   2
   2  12  -1 149330. 2403.81   3
  14 -12  -1 151966. 2513.99   1
 -14   2  -1 150234. 2715.49   2
 -12  -2  -1 150151. 2346.81   3
   2  12  -1 152999. 2462.67   1
 -12  -2  -1 142714. 2831.77   2
  12 -14  -1 148904. 2652.27   1
  14 -12   2 106386. 2357.81   3
   2  12   2 108473. 2437.97   1
 -12  -2   2 112545. 2281.08   4
   2  12   2 112800. 1561.97   3
  -2  14   2 113802. 2491.52   1
  14 -12   2 113351. 1547.87   2
  14 -12   5 97825.5 1768.18   4
  12 -14   5 97860.8 1445.34   4
  14 -11 -11-43.3815 595.098   3
  11 -14 -11 2006.45 890.150   4
  -3  14 -11 480.272 736.979   1
   3  11 -11 1223.46 729.904   1
  14 -11 -11 3185.79 1158.98   2
  11 -14 -11 1515.82 1152.33   2
 -14   3 -11 184.597 856.691   1
 -11  -3 -11 1684.96 634.440   4
  -3  14 -11 1674.40 746.061   3
 -11  -3 -11 1225.83 842.810   2
   3  11 -11 55.0821 698.406   3
 -14   3 -11 346.974 724.432   2
 -11  -3 -11 418.768 971.522   1
   3  11 -11 325.459 845.457   2
  14 -11 -11 1071.76 740.512   4
  14 -11  -8 4188.50 1048.20   2
  11 -14  -8 2323.74 453.227   3
 -14   3  -8 2099.83 925.398   1
  11 -14  -8 3233.98 733.231   4
   3  11  -8 2840.19 589.376   1
  -3  14  -8 2841.28 601.240   2
  14 -11  -8 3019.93 723.748   4
  11 -14  -8 3448.89 1035.83   2
 -11  -3  -8 3405.97 641.187   4
 -14   3  -8 2521.57 497.330   4
  -3  14  -8 2170.50 592.133   1
  -3  14  -8 2753.96 741.301   3
   3  11  -8 3197.13 758.410   3
 -11  -3  -8 4382.31 902.496   2
 -14   3  -8 2353.07 669.361   2
  14 -11  -8 4004.33 656.509   3
  14 -11  -5 3133.15 484.380   1
 -14   3  -5 1859.08 457.000   3
  14 -11  -5 2177.21 471.098   3
  11 -14  -5 3414.69 460.523   3
  -3  14  -5 3884.94 576.737   1
 -14   3  -5 3278.76 522.585   4
  11 -14  -5 2580.81 616.079   4
  14 -11  -5 1972.73 540.334   4
   3  11  -5 3540.22 494.292   1
   3  11  -5 2921.86 379.070   4
  11 -14  -5 3600.99 790.541   2
 -14   3  -5 2565.60 726.472   1
 -11  -3  -5 3128.48 581.411   4
 -11  -3  -5 2597.91 359.747   3
   3  11  -5 3140.78 581.409   3
  -3  14  -5 3298.21 436.434   2
 -11  -3  -5 3002.47 669.995   2
 -14   3  -5 2472.50 505.846   2
 -14   3  -2 22647.8 1059.62   2
   3  11  -2 23722.8 940.280   1
  11 -14  -2 23823.4 1019.87   3
  11 -14  -2 21036.6 1068.67   1
 -11  -3  -2 23922.3 907.939   3
  -3  14  -2 23608.4 978.603   2
   3  11  -2 22715.9 978.392   4
 -14   3  -2 24656.0 1131.44   1
 -11  -3  -2 26057.3 1164.47   4
 -14   3  -2 23449.5 1068.35   4
 -14   3  -2 23079.9 999.759   3
   3  11  -2 21709.6 1014.13   3
   3  11  -2 21972.0 1105.85   2
  -3  14  -2 23199.7 916.782   4
 -11  -3  -2 23198.2 1194.01   2
  11 -14  -2 24926.6 1254.61   2
  14 -11  -2 23571.4 975.964   1
  -3  14  -2 23439.9 1060.37   1
  14 -11  -2 21622.8 1049.16   3
  11 -14  -2 23077.4 1203.25   4
  -3  14   1 2119.45 545.952   2
  14 -11   1 1945.76 316.284   2
 -11  -3   1 2477.25 296.574   1
   3  11   1 3198.43 378.174   3
  11 -14   1 2200.18 449.767   4
  14 -11   1 2285.30 513.147   3
 -11  -3   1 2569.80 526.238   2
  14 -11   1 2634.53 513.631   1
   3  11   1 2425.42 593.387   2
  11 -14   1 2884.83 338.107   2
  -3  14   1 2766.02 511.045   1
 -11  -3   1 1985.48 449.791   4
  -3  14   1 2512.34 529.579   4
 -14   3   1 2601.33 285.372   1
 -11  -3   1 2679.50 445.241   3
   3  11   1 2841.21 512.961   1
  14 -11   4 20397.1 881.942   4
  14 -11   4 21301.2 687.483   2
  -3  14   4 21319.0 555.850   3
  11 -14   4 20725.6 751.265   4
  14 -11   7 5763.69 478.353   4
  -4  14 -12 677.590 904.560   1
 -10  -4 -12 232.885 908.154   1
   4  10 -12 941.628 1054.06   2
  14 -10 -12 90.9462 1093.42   2
  10 -14 -12 1553.82 1140.04   2
  10 -14 -12 348.240 834.591   4
 -14   4 -12 1784.67 1013.26   1
  14 -10 -12 607.081 770.685   4
 -10  -4 -12 1489.11 1046.06   2
   4  10  -9 10656.3 1081.55   3
  10 -14  -9 8062.09 641.153   3
  10 -14  -9 7395.45 1043.70   4
  -4  14  -9 8257.48 1084.96   3
  14 -10  -9 8099.15 1342.70   2
  -4  14  -9 9021.12 887.496   2
  10 -14  -9 7863.70 1343.00   2
 -14   4  -9 9262.25 1310.74   1
 -14   4  -9 9567.41 783.649   4
 -10  -4  -9 8719.20 917.039   4
 -10  -4  -9 6822.62 1136.31   2
 -14   4  -9 7032.78 918.440   2
  -4  14  -9 9224.59 1021.17   1
  14 -10  -9 7940.64 965.074   4
   4  10  -9 10535.4 922.941   1
  14 -10  -9 7992.34 849.135   3
  14 -10  -6 2561.85 521.691   3
  -4  14  -6 1532.46 345.101   2
  14 -10  -6 1700.33 598.942   4
  10 -14  -6 1359.28 366.545   3
 -10  -4  -6 1463.02 607.219   2
  -4  14  -6 1808.85 547.896   1
 -14   4  -6 2450.36 725.135   1
 -10  -4  -6 1897.69 543.838   4
  10 -14  -6 1067.14 528.732   4
   4  10  -6 1898.21 443.481   1
  10 -14  -6 2117.53 805.978   2
 -14   4  -6 2063.43 467.562   4
   4  10  -6 2727.99 617.987   3
   4  10  -6 1724.86 325.383   4
  14 -10  -6 2039.44 441.871   1
 -14   4  -6 1804.18 510.162   2
 -10  -4  -6 1444.12 289.146   3
  14 -10  -3 8525.44 592.997   1
  14 -10  -3 9302.98 726.984   3
  10 -14  -3 8125.16 613.703   3
   4  10  -3 8313.49 615.498   4
  -4  14  -3 9735.05 762.520   1
  -4  14  -3 9314.02 548.771   4
  10 -14  -3 6521.44 770.054   4
 -14   4  -3 9075.49 831.854   1
  10 -14  -3 8728.38 947.470   2
 -14   4  -3 9413.82 720.559   4
 -10  -4  -3 8787.57 774.121   4
   4  10  -3 8999.76 601.946   1
 -10  -4  -3 9231.11 858.501   2
 -10  -4  -3 9100.26 552.495   3
  -4  14  -3 9276.49 585.793   2
   4  10  -3 7932.87 707.054   2
   4  10  -3 9334.81 728.098   3
 -14   4  -3 10501.2 752.657   2
 -14   4  -3 9227.60 707.713   3
 -10  -4   0 7017.29 699.717   2
  14 -10   0 7502.85 688.247   3
 -14   4   0 5363.68 562.432   3
 -10  -4   0 7312.85 501.231   1
  14 -10   0 7467.07 573.574   2
  10 -14   0 6830.70 633.396   4
  -4  14   0 5675.88 592.268   4
   4  10   0 6810.53 725.259   2
   4  10   0 7324.89 670.237   4
   4  10   0 7643.73 552.098   3
  -4  14   0 6534.86 644.154   2
  14 -10   0 7178.01 608.129   1
 -10  -4   0 7016.40 661.950   4
 -10  -4   0 6378.44 568.422   3
 -14   4   0 6459.50 502.467   1
   4  10   0 6556.90 592.906   1
  10 -14   0 5586.82 521.531   2
  -4  14   0 7001.48 638.567   1
  10 -14   0 6675.31 676.817   1
  14 -10   3 1333.26 304.295   2
 -14   4   3 549.036 111.134   1
  -4  14   3 622.824 211.510   3
  14 -10   3 550.090 405.802   3
  -4  14   3 605.618 441.823   1
  14 -10   3 643.348 295.061   4
  10 -14   3 382.584 249.372   4
   4  10   3 906.249 191.807   3
  14 -10   6 8884.73 608.440   4
  14 -10   6 10154.1 673.519   2
  -5  14 -10 4733.30 913.086   3
   5   9 -10 2962.04 657.045   1
  14  -9 -10 3161.14 701.547   3
  14  -9 -10 4050.96 1233.50   2
  -9  -5 -10 4162.25 746.281   4
  14  -9 -10 4167.13 857.320   4
   9 -14 -10 4462.37 966.031   4
 -14   5 -10 2847.96 771.937   2
 -14   5 -10 3179.10 961.896   1
 -14   5 -10 3409.65 546.627   4
   9 -14 -10 4339.88 1182.97   2
  -9  -5 -10 3106.41 961.764   2
   5   9 -10 4610.58 907.096   3
  -5  14 -10 5754.88 968.314   1
   9 -14  -7 29576.3 991.934   3
  14  -9  -7 26656.9 1277.26   3
   9 -14  -7 28918.8 1640.47   4
 -14   5  -7 29816.0 1204.15   4
 -14   5  -7 33656.4 1857.79   1
  -9  -5  -7 31144.9 1824.67   2
   5   9  -7 26155.1 888.045   4
   5   9  -7 31496.2 1173.62   1
  -9  -5  -7 28000.9 1460.58   4
   9 -14  -7 30649.5 2022.98   2
  14  -9  -7 28528.4 1518.67   4
  14  -9  -7 24665.2 1087.66   1
  -9  -5  -7 24168.5 629.057   3
  -5  14  -7 29480.3 1479.67   1
  14  -9  -7 31117.7 2094.61   2
   5   9  -7 30116.9 1496.91   3
  -5  14  -7 29300.4 1159.78   2
 -14   5  -7 30765.3 1426.72   2
  -5  14  -7 27357.9 997.907   2
  -5  14  -4 4124.92 575.196   1
  -9  -5  -4 4514.05 635.005   4
   9 -14  -4 4289.20 461.650   3
  14  -9  -4 3921.28 428.654   1
   9 -14  -4 4264.98 697.973   4
 -14   5  -4 4566.45 731.001   1
 -14   5  -4 4617.72 530.887   2
   5   9  -4 3593.94 449.744   4
   5   9  -4 4968.26 446.491   1
 -14   5  -4 4061.69 508.702   4
  -5  14  -4 4198.75 367.918   2
  -9  -5  -4 3885.83 691.220   2
  -9  -5  -4 3722.60 355.936   3
   5   9  -4 4439.94 622.589   3
   9 -14  -4 3243.90 709.226   2
  14  -9  -4 4037.87 567.553   3
  14  -9  -1 58441.6 1645.06   3
  14  -9  -1 63455.8 1464.15   1
   9 -14  -1 60993.4 1707.02   1
   5   9  -1 62308.7 1811.40   2
  -9  -5  -1 63400.4 1871.08   2
 -14   5  -1 63304.4 1536.21   1
  -5  14  -1 63740.9 1707.12   1
   5   9  -1 61210.3 1601.30   4
  -9  -5  -1 65282.0 1767.56   4
   9 -14  -1 61063.3 1676.67   2
   5   9  -1 59802.3 1513.63   3
  -9  -5  -1 63564.4 1435.33   3
 -14   5  -1 62641.8 1624.43   2
  -5  14  -1 63423.4 1548.62   4
  -5  14  -1 64115.2 1498.11   2
  -9  -5  -1 61588.7 1510.94   1
 -14   5  -1 60532.5 1609.39   3
   9 -14  -1 61868.6 1752.03   4
   5   9  -1 61493.7 1411.25   1
  -5  14   2 17766.8 730.809   3
  14  -9   2 17649.1 1001.10   3
  -9  -5   2 17485.3 1027.10   2
  -9  -5   2 19217.4 571.433   1
   9 -14   2 18924.3 811.729   4
 -14   5   2 17133.7 571.824   1
  -5  14   2 16599.7 1085.52   2
  -5  14   2 19776.2 1097.09   1
  14  -9   2 18456.2 866.274   4
   9 -14   2 16537.7 422.387   2
   5   9   2 19125.5 657.711   3
  14  -9   2 17824.6 783.683   2
  -9  -5   2 19004.9 911.131   4
  14  -9   2 16704.0 1016.50   1
   9 -14   5 59819.3 835.352   4
  14  -9   5 66438.0 1567.13   4
   9 -14   5 61953.7 806.718   4
  14  -9   5 65336.7 1554.79   2
  -8  -6 -11 10519.6 1491.54   2
 -14   6 -11 12548.3 1549.32   1
  -6  14 -11 12924.1 1360.01   3
   6   8 -11 13348.5 1532.11   2
 -14   6 -11 11502.6 1211.77   2
  14  -8 -11 9687.76 1167.68   4
   6   8 -11 15304.2 1336.00   3
  -8  -6 -11 13702.9 1255.50   4
   8 -14 -11 12223.6 1781.11   2
   8 -14 -11 12707.8 1379.10   4
  -6  14 -11 10460.6 1261.03   1
  14  -8 -11 18262.8 1978.24   2
  14  -8 -11 11622.4 1099.74   3
  -8  -6  -8 6834.49 860.214   4
  14  -8  -8 6158.53 1151.03   2
   8 -14  -8 6749.11 976.104   4
   8 -14  -8 5930.54 447.685   3
 -14   6  -8 6726.77 794.412   2
   6   8  -8 7318.58 682.094   1
  -6  14  -8 7487.43 681.499   2
   6   8  -8 8073.62 925.129   3
  14  -8  -8 7042.50 864.837   4
   8 -14  -8 5905.19 1085.46   2
  -8  -6  -8 6419.15 1069.54   2
 -14   6  -8 6789.81 639.244   4
  -6  14  -8 7439.10 935.086   1
  14  -8  -8 8785.31 838.182   3
 -14   6  -8 7536.25 1082.52   1
  -6  14  -5 44746.3 944.741   2
   8 -14  -5 48235.1 1161.88   3
 -14   6  -5 48796.7 1917.09   1
  -8  -6  -5 47457.2 1752.66   4
   6   8  -5 50017.5 1168.83   1
   6   8  -5 45707.0 1296.71   4
   8 -14  -5 48422.0 1886.65   4
 -14   6  -5 49338.2 1445.78   4
  -8  -6  -5 44421.4 844.181   3
  -8  -6  -5 45943.4 1950.62   2
   6   8  -5 50923.8 1738.14   3
 -14   6  -5 45327.2 1437.66   2
  14  -8  -5 44171.9 1147.83   1
   8 -14  -5 45443.2 2090.15   2
  -6  14  -5 47289.6 1672.37   1
  14  -8  -5 47787.5 1580.57   3
 -14   6  -2 4853.15 511.217   2
 -14   6  -2 4181.40 544.032   1
  -8  -6  -2 4915.80 597.325   1
  -6  14  -2 4672.45 574.186   1
   8 -14  -2 4652.79 605.885   4
   8 -14  -2 3551.20 560.757   2
  -6  14  -2 4437.98 372.059   2
   6   8  -2 3879.38 469.339   4
  -8  -6  -2 4610.64 408.423   3
   6   8  -2 4607.61 415.635   1
   6   8  -2 4787.73 546.763   3
  -8  -6  -2 5775.79 727.588   2
  14  -8  -2 4714.95 436.748   1
   6   8  -2 4483.30 588.624   2
  -8  -6  -2 5203.05 596.764   4
 -14   6  -2 3646.66 513.800   3
  14  -8  -2 4845.69 582.005   3
   6   8   1 140603. 2903.73   2
  -8  -6   1 145366. 2715.93   2
  14  -8   1 140564. 2464.77   1
  14  -8   1 143540. 2374.42   4
  14  -8   1 145950. 2572.22   3
  -6  14   1 146890. 2211.92   3
  -8  -6   1 143766. 2348.12   3
  -6  14   1 142124. 2586.12   4
  -6  14   1 149005. 2687.28   2
   6   8   1 140372. 2589.90   4
   6   8   1 142501. 1945.93   3
   8 -14   1 146704. 1874.43   2
  -8  -6   1 148974. 1871.58   1
 -14   6   1 143841. 1857.56   1
   8 -14   1 142499. 2278.47   4
   8 -14   1 140523. 2594.45   1
 -14   6   1 144547. 2408.18   3
  14  -8   1 148737. 2257.87   2
  14  -8   4 16735.3 998.981   3
  -8  -6   4 17170.8 584.177   1
   8 -14   4 17272.6 586.272   4
   6   8   4 16932.5 500.662   3
  14  -8   4 16144.7 836.666   4
  14  -8   4 16791.2 842.787   2
  -6  14   4 17504.9 635.938   3
  -6  14   4 18467.8 1120.63   1
  14  -8   7 10804.4 874.764   2
  14  -8   7 8958.54 664.973   4
  14  -7 -12 782.052 1041.23   2
   7 -14 -12 325.708 1052.64   2
  -7  -7 -12 708.476 693.363   4
   7 -14 -12 869.151 821.642   4
 -14   7 -12 138.459 1012.11   1
   7   7 -12-131.510 708.294   3
  -7  -7 -12-605.496 891.906   2
  -7  14 -12-232.281 765.751   3
   7   7 -12-248.686 930.548   2
  -7  14 -12 1004.95 833.300   1
  14  -7 -12-37.5433 681.592   3
  14  -7  -9 8568.54 982.710   4
   7   7  -9 9308.45 664.815   4
   7 -14  -9 9806.40 1121.28   4
  14  -7  -9 7798.83 1322.90   2
   7 -14  -9 11706.5 1472.11   2
  -7  -7  -9 9779.91 999.431   4
  -7  -7  -9 9789.19 1326.67   2
 -14   7  -9 9827.67 730.706   4
   7   7  -9 11950.4 1129.01   3
 -14   7  -9 10027.8 973.984   2
  -7  14  -9 8431.98 1034.86   1
 -14   7  -9 10433.5 1303.16   1
  14  -7  -9 8943.71 900.375   3
  -7  14  -9 9052.15 762.462   2
   7   7  -9 10094.5 817.787   1
  -7  14  -6 2737.78 597.253   1
  -7  -7  -6 3521.20 666.677   4
   7   7  -6 3992.06 410.707   1
   7 -14  -6 3523.16 334.334   3
   7 -14  -6 4027.21 905.311   2
  14  -7  -6 3071.26 396.927   1
  -7  -7  -6 3918.64 793.279   2
 -14   7  -6 3252.32 731.226   1
   7 -14  -6 3862.30 747.861   4
 -14   7  -6 3791.80 486.066   4
 -14   7  -6 3900.08 528.751   2
   7   7  -6 2863.71 600.147   3
  -7  14  -6 3481.47 289.866   2
  -7  14  -6 3462.12 339.586   2
  14  -7  -6 3147.31 586.461   3
   7   7  -6 3430.82 458.363   4
   7   7  -3 87032.9 1314.70   1
 -14   7  -3 83798.7 1669.77   2
  -7  14  -3 88862.4 2094.62   1
  -7  -7  -3 88976.6 1338.19   3
   7   7  -3 90519.6 1874.40   4
  14  -7  -3 84187.1 1360.01   1
  14  -7  -3 86174.2 1994.29   3
   7 -14  -3 76468.6 2144.19   4
  -7  14  -3 76866.7 981.780   2
 -14   7  -3 88722.4 2184.24   1
   7 -14  -3 85096.2 2380.29   2
  -7  -7  -3 85552.5 2404.61   2
  -7  -7  -3 87893.4 2176.42   4
   7   7  -3 89330.4 2071.21   3
  -7  14   0 1223.50 365.065   2
  -7  -7   0 1435.84 522.647   2
  14  -7   0 1910.43 468.819   3
  -7  14   0 1305.33 408.173   4
  14  -7   0 1723.04 415.237   4
  -7  14   0 1565.87 462.525   1
  -7  14   0 1607.48 419.718   3
   7 -14   0 919.348 350.127   4
  14  -7   0 1692.13 388.587   2
   7   7   0 1679.32 421.881   4
  -7  -7   0 1461.08 354.874   3
   7 -14   0 1364.24 437.831   1
  14  -7   0 1603.57 382.705   1
  -7  -7   0 934.374 374.782   4
   7 -14   0 1216.66 356.548   2
   7   7   0 1277.22 439.547   2
 -14   7   0 1354.12 402.544   3
 -14   7   0 1764.16 376.741   1
   7   7   0 1447.98 334.354   3
  -7  -7   0 1840.73 355.228   1
  -7  14   3 85916.2 1490.02   3
  14  -7   3 89772.2 2096.80   3
  14  -7   3 85495.3 1842.39   4
   7 -14   3 83126.3 1438.10   4
  14  -7   3 86311.7 1893.29   2
  -7  -7   3 84090.6 1723.09   4
  -7  -7   3 88755.0 1364.08   1
  -7  14   3 82139.8 2120.71   1
   7   7   3 86344.3 1323.59   3
 -14   7   3 84996.9 1366.70   1
  14  -7   6 3809.86 504.144   4
  -7  14   6 3151.31 299.754   3
  14  -7   6 4333.26 611.838   2
   6 -14 -10 1582.98 690.275   4
  14  -6 -10 1069.45 852.052   2
  14  -6 -10 2573.66 745.847   4
  -6  -8 -10 1606.99 644.848   4
   6 -14 -10 1962.14 1028.94   2
 -14   8 -10 2422.44 908.317   1
  -6  -8 -10 2333.35 1020.26   2
  -8  14 -10 1928.88 798.707   1
 -14   8 -10 2136.07 672.449   2
   8   6 -10 2824.96 745.205   3
  14  -6 -10 2163.82 721.328   3
  -8  14  -7 9609.53 484.010   2
  -6  -8  -7 11245.8 999.243   4
 -14   8  -7 12102.1 1199.85   1
  -8  14  -7 11447.2 578.027   2
   8   6  -7 9306.91 691.033   4
  -6  -8  -7 11619.6 1253.84   2
   8   6  -7 12863.8 1079.51   3
   6 -14  -7 11913.8 1107.72   4
  14  -6  -7 11139.2 634.081   1
   6 -14  -7 10856.9 1282.11   2
 -14   8  -7 12555.9 838.680   2
  -8  14  -7 10529.9 998.918   1
   8   6  -7 12225.8 639.411   1
  14  -6  -7 12053.8 938.770   3
  -6  -8  -4 16625.7 1067.43   4
   6 -14  -4 16961.6 1119.01   4
   6 -14  -4 16402.7 1208.75   2
 -14   8  -4 15804.0 1078.98   1
  -6  -8  -4 15693.8 1168.09   2
   8   6  -4 18793.5 1045.40   3
  14  -6  -4 16145.2 559.857   1
   8   6  -4 15875.4 837.638   4
  14  -6  -4 16657.2 959.952   3
  -8  14  -4 15706.6 1014.86   1
 -14   8  -4 16483.8 754.526   2
   8   6  -4 17297.5 535.466   1
   6 -14  -1 142867. 2595.63   2
  14  -6  -1 146257. 2001.57   1
  -8  14  -1 142151. 2485.95   3
  -6  -8  -1 142486. 2593.53   4
   6 -14  -1 137543. 2563.96   4
   6 -14  -1 142478. 2555.58   1
  -8  14  -1 144594. 1938.82   2
  -8  14  -1 149798. 2591.64   1
  -6  -8  -1 146636. 2390.84   1
   8   6  -1 137075. 2411.54   4
  -6  -8  -1 143746. 2032.10   3
 -14   8  -1 144828. 2353.65   1
   8   6  -1 131312. 2210.48   3
  -6  -8  -1 145550. 2811.96   2
   8   6  -1 135012. 2717.48   2
  14  -6  -1 136219. 2462.62   4
  14  -6  -1 138224. 2484.62   2
 -14   8  -1 139181. 2422.14   3
  14  -6  -1 139790. 2488.28   3
  -8  14   2 4199.14 449.487   3
   6 -14   2 4684.09 456.350   4
  14  -6   2 4904.69 561.366   3
  -6  -8   2 5410.50 642.994   2
  -6  -8   2 5262.09 422.874   1
  -8  14   2 4404.92 647.004   2
  14  -6   2 5162.21 554.809   4
  -6  -8   2 5369.00 518.323   4
 -14   8   2 5472.41 458.223   1
  14  -6   2 5646.13 586.749   2
  -8  14   2 5681.83 641.830   1
   6 -14   2 4461.17 362.516   2
   8   6   2 4649.90 401.865   3
   8   6   5 40663.4 823.352   3
  14  -6   5 45743.4 1580.85   2
  14  -6   5 43883.5 1397.35   4
  -8  14   5 41672.6 1010.36   3
  -6  -8   5 45425.2 1216.75   1
  14  -5 -11 23419.3 1577.02   4
  -9  14 -11 23190.1 1761.20   1
   5 -14 -11 25968.4 1852.96   4
 -14   9 -11 23933.9 1976.87   1
  -5  -9 -11 21146.4 1555.12   4
  14  -5 -11 20813.3 2126.75   2
   5 -14 -11 20610.1 2117.05   2
   9   5 -11 22261.3 1579.61   3
  -5  -9 -11 21930.3 2055.53   2
   9   5 -11 19102.3 1892.20   2
  14  -5 -11 23919.5 1520.36   3
   9   5  -8 16637.3 786.431   1
 -14   9  -8 20392.9 1530.85   1
   5 -14  -8 22097.4 1467.80   4
  -5  -9  -8 21875.5 1392.83   4
 -14   9  -8 16659.9 988.378   2
  14  -5  -8 17891.3 1212.88   4
  -9  14  -8 16627.3 746.514   2
  -5  -9  -8 15925.1 1562.27   2
   9   5  -8 19330.4 1289.48   3
   5 -14  -8 17070.5 1612.53   2
  14  -5  -8 19487.2 1222.42   3
  -9  14  -8 21548.1 1423.19   1
   5 -14  -5 65618.5 2154.14   4
   9   5  -5 63198.2 1919.75   3
  -5  -9  -5 62768.3 2057.17   4
 -14   9  -5 63746.1 2179.66   1
   5 -14  -5 61213.8 2404.99   2
   9   5  -5 58393.4 1585.13   4
  -5  -9  -5 64498.2 2376.89   2
   9   5  -5 55334.3 877.696   1
  -9  14  -5 61652.7 1991.41   1
  14  -5  -5 61812.7 1823.36   3
 -14   9  -5 61946.8 1364.91   2
  -5  -9  -2 14402.9 1003.20   2
  -9  14  -2 15981.2 948.973   1
 -14   9  -2 14872.2 913.526   1
   5 -14  -2 14472.2 995.713   2
  14  -5  -2 16504.3 593.878   1
   9   5  -2 14356.1 818.247   4
   5 -14  -2 15949.7 1013.54   4
  -5  -9  -2 17025.2 998.748   4
  -5  -9  -2 15976.9 923.526   1
   9   5  -2 17089.9 915.481   3
  14  -5  -2 18408.3 975.402   3
   5 -14   1 57222.7 1644.47   1
  14  -5   1 57357.6 1615.58   3
  -9  14   1 58320.1 1482.51   3
   9   5   1 53375.8 1599.92   4
 -14   9   1 57348.0 1350.57   1
   9   5   1 57132.8 1315.41   3
   5 -14   1 55211.1 1439.03   4
  -5  -9   1 60262.0 1546.58   4
  -5  -9   1 58967.9 1343.72   1
   9   5   1 55858.3 1853.03   2
   5 -14   1 57976.3 1346.86   2
  -9  14   1 56083.7 1634.30   1
  14  -5   1 54249.5 1521.74   4
  14  -5   1 56000.6 1563.75   2
 -14   9   1 56020.5 1550.13   3
  -5  -9   1 54911.3 1650.52   2
  -9  14   4 3766.81 405.964   3
   9   5   4 4258.06 379.009   3
  14  -5   4 4218.86 559.254   3
 -14   9   4 4355.07 446.936   1
  14  -5   4 4685.44 626.180   2
  -9  14   4 4184.43 639.724   1
   5 -14   4 4268.37 311.982   4
  -5  -9   4 4529.40 440.892   1
  14  -5   4 3101.42 488.015   4
  -5  -9   4 3839.65 428.119   4
  -9  14   7 23657.7 832.837   3
   4 -14 -12 1683.18 907.239   4
  -4 -10 -12 1098.35 802.345   4
  14  -4 -12 2529.88 1286.56   2
   4 -14 -12 421.282 1102.88   2
  10   4 -12 2266.64 1165.41   2
  -4 -10 -12 149.883 950.645   2
 -14  10 -12 2404.36 1132.94   1
 -10  14 -12 1557.33 943.222   1
  10   4 -12 1645.39 822.665   3
  14  -4 -12 1327.23 745.846   3
 -10  14  -9 15567.9 1381.00   1
  10   4  -9 20087.6 1380.44   3
  14  -4  -9 15305.6 1197.89   4
  14  -4  -9 15366.6 922.730   1
  -4 -10  -9 18489.5 1359.76   4
   4 -14  -9 13813.3 1598.82   2
 -14  10  -9 18673.4 1552.46   1
  -4 -10  -9 18022.4 1656.39   2
  14  -4  -9 18124.0 1254.27   3
 -14  10  -9 15935.4 1013.24   2
   4 -14  -9 15716.7 1326.91   4
  10   4  -9 15897.4 828.634   1
  14  -4  -6 7583.84 412.299   1
  14  -4  -6 6835.56 343.916   1
   4 -14  -6 9098.74 950.936   4
 -14  10  -6 8716.98 565.838   2
  10   4  -6 6446.31 306.623   1
  -4 -10  -6 9379.89 937.960   4
   4 -14  -6 10231.2 1195.73   2
  10   4  -6 7613.10 680.237   4
  -4 -10  -6 7953.24 1050.51   2
 -10  14  -6 10503.2 983.392   1
 -14  10  -6 8795.26 993.981   1
  10   4  -6 9540.43 849.328   3
  14  -4  -6 10062.4 857.185   3
 -10  14  -3 1124.34 477.605   1
  -4 -10  -3 854.400 423.862   4
   4 -14  -3 1226.09 526.841   2
  -4 -10  -3 1191.67 549.844   2
  10   4  -3 566.829 362.878   4
 -14  10  -3 801.787 475.851   1
  10   4  -3 900.777 457.364   3
   4 -14  -3 782.179 434.396   4
  14  -4  -3 938.719 430.403   3
 -14  10   0 5921.73 567.805   1
 -10  14   0 5993.60 612.944   3
  14  -4   0 5854.34 581.080   4
  10   4   0 5776.82 677.040   2
  10   4   0 5373.81 577.209   4
   4 -14   0 4784.69 546.643   4
 -10  14   0 6175.06 674.970   1
  -4 -10   0 4903.25 543.628   4
   4 -14   0 5931.73 634.595   1
   4 -14   0 6271.95 598.685   2
  -4 -10   0 7066.28 579.376   1
  -4 -10   0 6468.84 659.610   2
  10   4   0 6190.11 542.890   3
  14  -4   0 6398.70 635.236   2
 -14  10   0 4802.45 553.021   3
  14  -4   0 5052.81 598.026   3
  10   4   3 9221.30 579.771   3
  14  -4   3 7771.70 674.723   3
  -4 -10   3 7928.03 701.390   2
 -14  10   3 8294.64 611.508   1
  14  -4   3 8711.38 778.821   2
   4 -14   3 8266.53 516.884   4
  14  -4   3 8881.49 705.926   4
 -10  14   3 7824.03 746.656   1
  -4 -10   3 8387.16 584.586   4
  -4 -10   3 7578.15 571.227   1
   4 -14   3 9469.69 533.475   2
 -10  14   3 7119.37 566.729   3
  -4 -10   6 1939.44 466.532   1
 -10  14   6 1511.67 351.563   3
 -11  14 -10 7637.98 1184.84   1
  14  -3 -10 5162.39 1215.19   2
  14  -3 -10 9065.20 1024.42   3
  14  -3 -10 8210.51 972.086   4
  11   3 -10 8190.92 799.563   4
   3 -14 -10 9145.14 1129.48   4
   3 -14 -10 7313.85 1350.24   2
  -3 -11 -10 9021.06 1081.07   4
 -14  11 -10 9645.95 1384.94   1
  -3 -11 -10 7017.92 1281.63   2
  11   3 -10 8913.67 1056.76   3
  11   3  -7 4108.27 285.018   1
  11   3  -7 4607.69 295.860   1
  14  -3  -7 4607.14 296.105   1
   3 -14  -7 6493.66 865.731   4
 -14  11  -7 6680.29 537.761   2
  -3 -11  -7 6134.81 842.492   4
   3 -14  -7 7823.30 1189.20   2
  14  -3  -7 4856.86 357.317   1
  -3 -11  -7 7410.85 1106.68   2
  11   3  -7 6512.60 843.528   3
 -14  11  -7 8511.25 1018.38   1
 -11  14  -7 7405.93 922.888   1
  14  -3  -7 6565.87 827.423   3
 -14  11  -4 21448.5 611.538   2
  14  -3  -4 21115.6 1090.78   3
   3 -14  -4 18905.9 1170.55   4
  -3 -11  -4 20642.9 1215.84   4
  -3 -11  -4 18134.2 1325.62   2
 -14  11  -4 21926.1 1242.97   1
  11   3  -4 22565.5 1147.06   3
 -11  14  -4 20855.8 1190.42   1
   3 -14  -4 20162.0 1330.93   2
  -3 -11  -1 3709.03 537.310   1
  14  -3  -1 2985.71 498.691   2
   3 -14  -1 3115.37 536.508   4
  11   3  -1 2159.24 435.757   4
  -3 -11  -1 2798.86 509.543   4
 -11  14  -1 2415.81 548.191   1
   3 -14  -1 3949.82 567.618   2
  -3 -11  -1 2964.57 591.297   2
  11   3  -1 3839.50 513.853   3
 -14  11  -1 3682.43 520.888   1
  14  -3  -1 2759.66 514.066   3
 -11  14   2 23275.7 1110.89   1
 -11  14   2 22627.6 939.930   3
  -3 -11   2 23212.6 1078.40   2
  14  -3   2 23644.8 1067.82   3
  -3 -11   2 23513.6 960.284   1
   3 -14   2 21386.1 876.724   4
 -14  11   2 21407.5 940.285   1
  14  -3   2 23481.2 1167.57   2
   3 -14   2 23511.7 935.990   2
   3 -14   2 21615.9 1067.89   1
  -3 -11   2 23260.2 941.260   4
  11   3   2 22765.6 890.909   3
  14  -3   5 2477.27 461.929   3
 -11  14   5 2077.30 566.733   1
  11   3   5 2091.33 363.353   3
 -14  11   5 2446.10 456.465   1
 -11  14   5 2173.00 380.400   3
  -3 -11   5 1829.85 430.502   1
   3 -14   5 2139.46 189.199   4
  12   2 -11 21117.5 1570.49   3
  14  -2 -11 20461.3 2088.61   2
  12   2 -11 15805.1 1839.09   2
 -14  12 -11 21913.8 1853.11   1
  -2 -12 -11 20764.0 1634.65   4
   2 -14 -11 20254.3 2159.61   2
 -12  14 -11 21752.4 1798.44   1
  14  -2 -11 19199.5 1457.93   3
   2 -14 -11 21273.1 1671.10   4
  -2 -12 -11 17151.1 1990.69   2
  -2 -12  -8 47449.3 2072.32   4
   2 -14  -8 48826.5 2132.32   4
   2 -14  -8 42830.9 2470.15   2
  -2 -12  -8 52596.6 2603.28   2
 -14  12  -8 51535.7 2294.18   1
  14  -2  -8 51139.5 1953.92   3
 -14  12  -8 46272.7 1239.01   2
  12   2  -8 51673.6 1993.02   3
 -12  14  -8 49811.6 2197.08   1
  -2 -12  -5 101345. 3064.43   2
   2 -14  -5 103046. 3098.15   2
   2 -14  -5 102505. 2738.75   4
  -2 -12  -5 105586. 2701.61   4
 -14  12  -5 85519.7 2480.79   1
 -12  14  -5 108577. 2727.90   1
  12   2  -5 100451. 2449.07   3
  14  -2  -5 97826.1 2389.28   3
  -2 -12  -2 106351. 2652.68   2
  -2 -12  -2 108375. 2450.48   4
   2 -14  -2 112264. 2513.82   4
   2 -14  -2 101373. 2531.21   2
 -14  12  -2 110008. 2367.35   1
  12   2  -2 110058. 2258.09   3
  14  -2  -2 101292. 2179.96   3
 -12  14  -2 110079. 2401.72   1
  -2 -12   1 153280. 2458.97   1
 -12  14   1 144130. 2469.32   3
  -2 -12   1 155353. 2704.86   2
   2 -14   1 153679. 2648.90   1
 -14  12   1 147399. 2469.05   1
 -12  14   1 157485. 2664.68   1
   2 -14   1 154147. 2465.04   4
  14  -2   1 148753. 2843.40   2
   2 -14   1 157482. 2530.09   2
  -2 -12   1 148635. 2459.19   4
  12   2   1 150767. 2345.28   3
  14  -2   1 156448. 2579.93   3
  12   2   4 23241.2 949.231   3
  14  -2   4 24130.8 1101.09   3
  -2 -12   4 24939.0 1083.36   1
   2 -14   4 21402.2 710.587   4
  -2 -12   4 22239.6 816.720   4
 -14  12   4 21626.6 1030.31   1
 -12  14   4 22988.6 968.814   3
 -12  14   4 20960.0 1140.70   1
 -12  14   7 37733.0 1274.65   3
  -1 -13  -9 7329.32 1257.03   2
 -13  14  -9 7341.73 1096.50   1
   1 -14  -9 5231.06 894.766   4
  -1 -13  -9 8025.53 1033.12   4
 -14  13  -9 9057.52 1178.60   1
   1 -14  -9 9130.88 1437.02   2
  13   1  -9 8166.28 1003.59   3
  14  -1  -9 7488.83 984.732   3
 -14  13  -6 465.798 563.394   1
   1 -14  -6 126.892 507.279   4
  -1 -13  -6 1376.72 581.754   4
   1 -14  -6 807.258 628.481   2
  -1 -13  -6 1104.54 690.169   2
  13   1  -6 261.981 454.823   3
  14  -1  -6-167.412 470.133   3
 -13  14  -6 1153.04 593.788   1
   1 -14  -3 33898.0 1485.77   4
  -1 -13  -3 26588.2 1323.53   4
  13   1  -3 24727.9 1175.46   3
 -14  13  -3 31266.5 1406.28   1
  -1 -13  -3 29058.8 1553.34   2
 -13  14  -3 32479.3 1441.70   1
  14  -1  -3 34260.2 1383.86   3
   1 -14  -3 30787.6 1582.39   2
  -1 -13   0 6991.46 681.490   4
 -13  14   0 5466.32 664.994   1
   1 -14   0 7226.47 687.223   2
 -14  13   0 5411.82 615.857   1
  13   1   0 6436.82 610.344   3
  -1 -13   0 6261.17 642.991   1
   1 -14   0 6826.78 659.141   4
  -1 -13   0 5554.97 668.058   2
  14  -1   0 5797.09 626.861   3
  13   1   3 31234.0 1136.31   3
  14  -1   3 27100.1 1113.84   3
 -13  14   3 27511.1 1203.16   1
   1 -14   3 28281.6 1082.14   2
  -1 -13   3 27812.9 1167.98   2
   1 -14   3 28484.5 973.598   4
 -14  13   3 26965.3 1146.79   1
  -1 -13   3 27538.2 981.367   4
  -1 -13   3 27685.7 1155.45   1
   1 -14   3 29902.1 1257.50   1
 -13  14   3 25689.0 1078.83   3
  14   0 -10 8483.93 934.450   4
   0 -14 -10 9349.17 1502.76   2
 -14  14 -10 11394.1 1424.62   1
   0 -14 -10 11121.9 1233.29   4
  14   0 -10 9014.11 1051.00   3
   0 -14  -7-482.300 783.256   2
   0 -14  -7-875.889 622.767   4
 -14  14  -7-578.387 555.527   1
  14   0  -7 220.888 482.431   3
 -14  14  -4 3363.99 654.650   1
   0 -14  -4 3137.30 771.080   2
  14   0  -4 3038.59 609.436   3
   0 -14  -4 4199.83 707.760   4
 -14  14  -1 6.18560 405.969   1
   0 -14  -1-335.657 394.482   4
   0 -14  -1 717.063 456.336   2
  14   0  -1-179.731 353.214   3
   0 -14   2 31036.5 1247.28   1
   0 -14   2 33168.1 1148.68   4
  14   0   2 31319.7 1193.89   3
 -14  14   2 31061.7 1246.23   1
   0 -14   2 34529.4 1281.05   2
 -14  14   5 79.5317 414.783   1
  14   0   5-31.7469 345.909   3
   0 -14   5-138.625 204.891   4
  15 -15  -9-239.428 551.749   3
   0  15  -9 967.044 706.385   3
   0  15  -9 391.645 619.334   1
  15 -15  -9 182.811 631.480   4
  15 -15  -9-537.612 991.020   2
 -15   0  -9 161.777 812.769   1
 -15   0  -9 494.094 551.176   4
 -15   0  -9-3.05060 742.756   2
  15 -15  -6 17757.9 1589.44   2
   0  15  -6 17338.1 1063.28   1
  15 -15  -6 14288.1 1242.04   4
   0  15  -6 14915.2 604.411   4
 -15   0  -6 14282.7 1067.66   4
   0  15  -6 15904.6 1239.30   3
  15 -15  -6 16046.3 1000.33   3
 -15   0  -6 19014.8 1300.75   2
 -15   0  -3-28.5935 415.866   2
   0  15  -3 404.921 357.971   1
  15 -15  -3 181.245 407.267   3
  15 -15  -3 713.580 510.230   4
  15 -15  -3-89.8660 520.090   2
   0  15  -3 116.930 319.070   4
 -15   0  -3 774.788 442.950   4
   0  15  -3-28.2219 381.323   3
   0  15  -3-327.313 402.864   2
  15 -15   0 36464.6 1472.38   3
   0  15   0 38202.5 1447.05   1
 -15   0   0 36841.4 1531.08   2
 -15   0   0 37654.7 1149.06   1
 -15   0   0 38555.6 1495.03   4
  15 -15   0 37639.6 1336.38   2
   0  15   3 43.7333 453.869   1
   0  15   3 112.261 204.850   3
  15 -15   6 19348.1 773.856   4
  14 -15 -10 6251.71 1406.61   2
   1  14 -10 6396.25 946.984   1
  15 -14 -10 4982.53 795.959   3
  15 -14 -10 6506.79 1132.24   4
  15 -14 -10 7161.11 1415.69   2
  -1  15 -10 3627.78 857.456   2
  14 -15 -10 5062.53 1012.07   4
 -14  -1 -10 6171.09 1289.65   1
 -15   1 -10 5294.67 1151.39   1
  -1  15 -10 6976.01 1093.69   3
 -14  -1 -10 5009.60 813.431   4
 -15   1 -10 6179.60 824.791   4
   1  14 -10 6110.63 1099.63   2
   1  14 -10 5179.69 948.760   3
 -14  -1 -10 4449.79 1042.03   2
 -15   1 -10 4699.42 969.464   2
  -1  15 -10 6711.13 984.266   1
  15 -14  -7 19011.6 1117.58   3
  14 -15  -7 18336.9 1055.37   3
  -1  15  -7 18862.7 1198.43   1
   1  14  -7 20167.6 1180.17   1
  14 -15  -7 19290.9 1435.81   4
  15 -14  -7 17638.5 1378.18   4
  14 -15  -7 18949.9 1709.31   2
  15 -14  -7 19679.5 1773.43   2
 -14  -1  -7 20584.9 1268.10   4
 -15   1  -7 21022.0 1630.11   1
 -15   1  -7 20013.6 1202.62   4
   1  14  -7 20416.7 1376.15   3
  -1  15  -7 22102.7 1460.23   3
 -14  -1  -7 18262.5 1412.70   2
 -15   1  -7 18117.4 1286.61   2
  15 -14  -4 37116.4 1427.84   3
  14 -15  -4 41225.8 1450.26   3
  15 -14  -4 41579.9 2022.86   2
 -15   1  -4 40674.2 1749.20   1
  15 -14  -4 35127.9 1644.09   4
  14 -15  -4 40016.1 1951.19   2
  -1  15  -4 38683.5 1144.96   4
   1  14  -4 38424.3 1200.88   4
  -1  15  -4 38240.0 1442.36   1
  14 -15  -4 38613.6 1735.10   4
   1  14  -4 39962.4 1394.75   1
 -14  -1  -4 39405.7 1566.98   4
   1  14  -4 36154.5 1552.89   3
 -14  -1  -4 38226.5 1253.59   3
  -1  15  -4 36966.1 1351.40   2
   1  14  -4 39255.0 1483.18   2
 -14  -1  -4 38858.9 1683.46   2
 -15   1  -4 40023.9 1547.87   4
 -15   1  -4 37356.9 1564.88   2
 -14  -1  -1 33072.2 1432.70   2
 -15   1  -1 30506.1 1412.06   2
   1  14  -1 33451.5 1314.43   4
  15 -14  -1 32006.4 1344.78   3
  14 -15  -1 32775.2 1347.15   3
   1  14  -1 35690.4 1314.69   1
  -1  15  -1 33674.5 1338.44   4
   1  14  -1 34713.4 1479.47   2
  -1  15  -1 33099.7 1334.56   1
 -14  -1  -1 32458.1 1406.04   4
   1  14  -1 33380.1 1237.62   3
 -15   1  -1 33065.0 1367.63   4
  -1  15  -1 32509.8 1400.09   2
 -15   1  -1 34540.3 1248.15   1
  14 -15  -1 33583.9 1403.60   2
   1  14   2 37729.5 991.589   3
  14 -15   2 34369.9 757.628   2
  15 -14   2 30075.2 1380.56   3
  -1  15   2 39524.9 1585.81   1
   1  14   2 38226.1 1551.64   1
 -15   1   2 29620.6 573.888   1
  15 -14   2 38760.4 893.252   2
  14 -15   2 37503.4 724.319   2
 -14  -1   2 30941.8 541.392   1
  15 -14   5 45916.0 1264.23   4
  14 -15   5 45789.3 1170.12   4
 -13  -2 -11 3788.28 1140.47   2
  -2  15 -11 2017.16 830.420   1
   2  13 -11 2405.37 806.632   1
  15 -13 -11 2420.92 1191.73   2
   2  13 -11 2221.14 979.876   2
  15 -13 -11 3082.58 927.489   4
 -13  -2 -11 1870.46 1018.51   1
 -15   2 -11 2426.81 1077.04   1
 -15   2 -11 1294.73 815.169   2
  13 -15 -11 1558.52 1112.43   2
 -13  -2 -11 1907.52 712.415   4
  13 -15 -11 2375.70 869.138   4
  -2  15 -11 2583.72 870.910   3
   2  13 -11 2670.97 952.218   3
  15 -13  -8 4417.37 1114.82   2
  13 -15  -8 6182.21 690.991   3
   2  13  -8 6017.89 741.683   1
 -13  -2  -8 5977.61 809.157   4
  15 -13  -8 7150.00 994.961   4
 -15   2  -8 7547.67 1162.46   1
  13 -15  -8 4938.20 856.448   4
  -2  15  -8 5783.65 926.041   3
   2  13  -8 6479.71 941.275   3
 -13  -2  -8 6181.85 977.860   2
 -15   2  -8 5154.48 883.963   2
 -15   2  -8 6010.26 736.871   4
  13 -15  -8 7710.48 1307.25   2
  -2  15  -8 6500.01 850.303   1
  15 -13  -8 5829.19 734.855   3
  15 -13  -5 5148.29 660.143   3
  13 -15  -5 5839.56 817.007   4
  15 -13  -5 5875.32 1008.61   2
  15 -13  -5 5569.19 792.188   4
  -2  15  -5 6890.65 440.865   4
 -15   2  -5 8294.21 997.998   1
   2  13  -5 6426.22 511.223   4
  13 -15  -5 7480.66 1038.43   2
   2  13  -5 5745.22 617.268   1
 -13  -2  -5 6196.64 743.990   4
 -15   2  -5 6630.86 675.083   4
   2  13  -5 6670.34 779.526   3
  13 -15  -5 5901.71 625.983   3
 -13  -2  -5 6548.65 837.519   2
  -2  15  -5 6859.59 619.696   2
 -15   2  -5 5920.17 764.760   2
 -13  -2  -5 6370.32 558.426   3
  -2  15  -5 6858.16 733.478   1
   2  13  -2 27003.0 1092.99   1
 -15   2  -2 28739.3 1292.09   2
  15 -13  -2 28644.8 1235.50   3
  13 -15  -2 27565.8 1360.00   4
 -15   2  -2 29878.0 1285.98   1
  13 -15  -2 29351.4 1419.02   2
  -2  15  -2 29955.5 1133.08   4
   2  13  -2 28299.6 1151.06   4
 -13  -2  -2 31372.7 1339.42   4
  -2  15  -2 29764.9 1205.94   2
 -15   2  -2 27370.1 1218.22   4
   2  13  -2 28550.6 1227.21   3
   2  13  -2 30471.7 1336.01   2
 -13  -2  -2 29716.4 1097.36   3
  13 -15  -2 27323.3 1178.69   3
  15 -13  -2 29451.4 1197.45   1
 -13  -2  -2 28127.6 1367.82   2
  -2  15  -2 27777.9 1208.27   1
  15 -13   1 28446.4 904.011   2
 -13  -2   1 26504.8 1306.05   2
  15 -13   1 25867.3 1265.76   3
 -13  -2   1 29568.9 808.535   1
 -15   2   1 28010.6 779.879   1
  -2  15   1 26238.5 1371.13   2
  -2  15   1 28150.2 1307.58   1
 -13  -2   1 30582.5 1289.82   4
   2  13   1 27958.6 1260.98   1
   2  13   1 27233.2 926.891   3
  13 -15   1 28430.9 903.077   2
  -2  15   4 17485.4 517.084   3
   2  13   4 12802.8 384.039   3
  15 -13   4 12718.3 396.670   2
  15 -13   4 15783.1 786.231   4
  13 -15   4 19607.2 787.249   4
  -2  15   4 14660.7 449.216   3
   2  13   4 15045.5 368.314   3
  15 -13   7 17222.3 739.581   4
  15 -12  -9 1152.83 557.776   3
  -3  15  -9 1727.36 626.169   2
  12 -15  -9 1030.84 427.065   3
  15 -12  -9 700.307 617.881   4
  -3  15  -9 1359.67 669.187   1
  12 -15  -9 993.997 658.689   4
  12 -15  -9 2635.76 1069.22   2
 -12  -3  -9-407.925 575.233   4
   3  12  -9-73.4308 533.486   1
 -15   3  -9 1418.06 514.233   4
  -3  15  -9 603.625 697.005   3
   3  12  -9 1329.52 729.395   3
  15 -12  -9 463.040 832.925   2
 -12  -3  -9 1184.84 733.400   2
 -15   3  -9 1110.81 673.687   2
 -15   3  -9 720.333 852.432   1
  15 -12  -6 6175.90 1030.52   2
  -3  15  -6 6436.18 750.599   1
  12 -15  -6 6492.51 634.431   3
   3  12  -6 7276.76 673.466   1
  15 -12  -6 6361.52 833.610   4
 -15   3  -6 5895.97 930.625   1
  -3  15  -6 5378.70 578.884   2
  12 -15  -6 5109.82 780.352   4
   3  12  -6 6274.90 484.231   4
 -12  -3  -6 5736.81 731.365   4
 -15   3  -6 5506.23 664.217   4
  12 -15  -6 6915.89 1082.94   2
   3  12  -6 6674.52 792.055   3
 -12  -3  -6 6054.42 846.366   2
 -15   3  -6 5868.54 765.204   2
 -12  -3  -6 5684.22 504.131   3
  15 -12  -6 5729.72 725.008   3
  15 -12  -3 10424.1 715.014   1
  15 -12  -3 9138.73 763.645   3
  12 -15  -3 9751.70 960.243   2
  -3  15  -3 10127.6 635.268   4
  12 -15  -3 9836.58 709.322   3
 -15   3  -3 9894.31 793.489   4
 -12  -3  -3 10518.8 834.536   4
  12 -15  -3 8667.79 881.990   4
   3  12  -3 10597.6 710.435   4
 -15   3  -3 11266.9 905.231   1
   3  12  -3 10071.6 780.030   3
   3  12  -3 10519.7 696.936   1
   3  12  -3 9345.34 782.995   2
 -12  -3  -3 9779.41 618.843   3
 -12  -3  -3 9214.63 883.479   2
  -3  15  -3 10067.0 766.181   1
  -3  15  -3 10408.4 692.735   2
 -15   3  -3 10119.8 826.518   2
   3  12   0 37883.8 1333.33   1
 -12  -3   0 37337.0 1506.80   2
  -3  15   0 40339.6 1466.19   1
  15 -12   0 37758.6 1415.00   3
 -12  -3   0 39119.8 1110.34   1
 -15   3   0 36754.6 1445.00   2
  12 -15   0 38685.0 1386.73   3
  12 -15   0 37343.3 1399.07   4
 -15   3   0 39226.2 1106.08   1
  -3  15   0 39949.2 1470.63   2
 -12  -3   0 36386.8 1361.61   4
   3  12   0 36399.7 1568.59   2
  12 -15   0 36248.3 1201.81   2
  15 -12   0 40061.6 1397.14   1
   3  12   0 38659.6 1174.81   3
 -12  -3   0 40182.6 1301.49   3
  -3  15   0 37952.3 1378.24   4
  -3  15   3 20343.6 708.807   3
  15 -12   3 19396.5 1094.26   3
  12 -15   3 19749.2 853.516   4
  15 -12   3 20472.5 707.654   2
  -3  15   3 21116.9 1232.08   1
  15 -12   3 19583.6 883.987   4
   3  12   3 20172.5 595.895   3
  15 -12   6 3641.29 433.511   4
  12 -15   6 2941.65 228.480   4
  12 -15   6 4085.90 268.694   4
  11 -15 -10 18281.9 1515.38   4
  15 -11 -10 22028.1 2091.61   2
 -15   4 -10 19801.3 1843.36   1
  11 -15 -10 22685.5 2121.98   2
  15 -11 -10 21043.3 1578.81   4
 -15   4 -10 19066.1 1134.77   4
 -11  -4 -10 19313.2 1751.15   2
  -4  15 -10 26470.0 1768.00   3
 -15   4 -10 18207.1 1450.72   2
   4  11 -10 19798.9 1531.68   3
 -11  -4 -10 20477.3 1394.16   4
  -4  15 -10 20506.0 1520.84   1
  15 -11 -10 19014.2 1306.09   3
   4  11 -10 22341.8 1354.22   1
 -11  -4  -7 46098.4 1859.77   4
  11 -15  -7 50805.4 1451.27   3
 -15   4  -7 53422.4 2361.65   1
   4  11  -7 52545.8 1609.87   1
  15 -11  -7 49770.5 2575.52   2
  15 -11  -7 47328.7 2038.02   4
  11 -15  -7 49115.5 2102.72   4
  11 -15  -7 49601.8 2531.39   2
   4  11  -7 43675.4 1087.76   4
 -15   4  -7 47296.8 1633.53   4
  -4  15  -7 44734.9 1367.02   2
 -11  -4  -7 47791.3 2170.84   2
   4  11  -7 50636.7 1989.51   3
 -15   4  -7 48378.5 1857.33   2
 -11  -4  -7 46153.1 1088.52   3
  -4  15  -7 49942.9 1897.71   1
  15 -11  -7 48658.8 1751.09   3
  15 -11  -4 37082.0 1405.11   3
  11 -15  -4 37599.1 1245.15   3
  15 -11  -4 34791.4 1188.69   1
  -4  15  -4 40815.8 1504.60   1
  11 -15  -4 37800.2 1676.99   4
 -15   4  -4 38978.4 1696.71   1
  11 -15  -4 37876.4 1906.61   2
   4  11  -4 36793.3 1191.05   4
 -11  -4  -4 39994.4 1564.05   4
 -15   4  -4 34453.1 1339.74   4
   4  11  -4 37943.5 1183.48   1
  -4  15  -4 39948.2 1159.67   2
   4  11  -4 38952.5 1497.40   3
  -4  15  -4 40287.8 1017.35   4
 -11  -4  -4 41040.4 1745.24   2
 -11  -4  -4 37058.4 1053.43   3
 -15   4  -4 37036.9 1413.21   2
  15 -11  -1 46577.6 1550.68   3
  11 -15  -1 45126.5 1511.92   2
 -15   4  -1 46288.2 1495.90   2
  -4  15  -1 43755.3 1376.65   4
  11 -15  -1 45770.3 1458.91   3
  11 -15  -1 47292.7 1621.51   4
 -15   4  -1 49133.9 1410.88   1
 -11  -4  -1 43130.1 1518.95   4
 -11  -4  -1 48860.7 1386.42   1
   4  11  -1 50304.5 1408.27   1
  -4  15  -1 46524.2 1541.59   1
   4  11  -1 48924.7 1699.33   2
   4  11  -1 47594.9 1392.76   3
  15 -11  -1 47040.8 1406.49   1
  -4  15  -1 49520.9 1474.85   2
 -11  -4  -1 47385.1 1324.95   3
 -11  -4  -1 49716.1 1728.63   2
   4  11  -1 47389.5 1492.02   4
  15 -11   2 25807.6 1061.04   4
  -4  15   2 26531.5 920.529   3
  15 -11   2 25218.1 1258.62   3
 -15   4   2 25785.2 643.357   1
 -11  -4   2 26003.6 1296.52   2
  11 -15   2 26476.0 1033.68   4
 -11  -4   2 24186.2 594.770   1
  15 -11   2 25594.8 891.146   2
 -11  -4   2 26140.4 1131.22   4
   4  11   2 24709.4 782.379   3
  -4  15   2 26591.8 1306.23   1
  11 -15   5 113528. 1412.12   4
  11 -15   5 110832. 1460.62   4
  15 -11   5 110678. 1772.59   2
  15 -11   5 115022. 2078.67   4
  -5  15 -11 5923.15 1006.27   1
  15 -10 -11 6246.21 1028.02   4
  10 -15 -11 7841.76 1176.64   4
 -15   5 -11 6209.55 1310.73   1
  15 -10 -11 5811.44 1410.42   2
  10 -15 -11 7026.54 1439.65   2
 -10  -5 -11 5342.29 902.640   4
   5  10 -11 3391.53 1064.49   2
  -5  15 -11 6035.73 1127.18   3
 -15   5 -11 6740.94 1061.23   2
 -10  -5 -11 4493.89 1121.35   2
   5  10 -11 4592.67 958.541   3
  15 -10 -11 4457.49 826.406   3
  15 -10  -8 2026.49 525.315   3
  -5  15  -8 3834.72 786.601   1
  10 -15  -8 1981.37 401.464   3
  -5  15  -8 2705.06 541.987   2
 -15   5  -8 2214.76 793.443   1
 -10  -5  -8 2557.86 678.870   4
 -15   5  -8 3713.58 573.605   4
  15 -10  -8 2093.46 640.787   4
 -15   5  -8 1749.06 588.477   2
   5  10  -8 2538.71 532.662   1
  10 -15  -8 1044.45 851.997   2
 -10  -5  -8 2729.59 805.908   2
   5  10  -8 3327.23 710.667   3
  10 -15  -8 2933.74 756.704   4
  15 -10  -8 1723.50 909.484   2
  -5  15  -5 28154.1 1323.02   1
  10 -15  -5 29184.7 1041.72   3
  10 -15  -5 25779.1 1656.52   2
  -5  15  -5 26907.9 880.264   2
  15 -10  -5 26754.7 1031.30   1
 -15   5  -5 29615.6 1225.65   4
   5  10  -5 26379.5 1000.16   4
 -10  -5  -5 27287.0 1355.51   4
 -10  -5  -5 26951.5 1572.59   2
   5  10  -5 26827.8 1311.48   3
  10 -15  -5 24613.4 1421.22   4
   5  10  -5 29491.5 1023.94   1
 -10  -5  -5 27328.4 830.418   3
 -15   5  -5 26736.3 1220.10   2
 -15   5  -5 27611.0 1555.33   1
  15 -10  -5 26182.8 1254.30   3
  15 -10  -2 15056.0 923.348   3
 -15   5  -2 14413.0 869.221   2
  10 -15  -2 14880.2 817.175   3
  10 -15  -2 15747.7 1036.14   4
   5  10  -2 16226.1 865.764   4
  15 -10  -2 15573.4 780.181   1
  -5  15  -2 15143.9 752.807   2
  10 -15  -2 15152.8 1018.38   2
   5  10  -2 15109.8 729.840   1
 -15   5  -2 14794.0 908.548   1
 -10  -5  -2 16431.7 1019.35   4
   5  10  -2 15542.1 884.813   3
  -5  15  -2 15260.6 776.928   4
 -10  -5  -2 15963.4 746.703   3
   5  10  -2 15152.0 978.052   2
 -10  -5  -2 13794.8 993.994   2
  -5  15  -2 15848.6 927.470   1
 -10  -5   1 182475. 2877.49   4
  -5  15   1 183597. 3182.43   2
 -10  -5   1 185846. 3196.81   2
  15 -10   1 176867. 2991.13   3
  -5  15   1 181314. 2509.04   3
  -5  15   1 187153. 3088.52   1
  15 -10   1 179609. 2927.18   1
  10 -15   1 184335. 2757.56   4
  10 -15   1 181501. 2092.31   2
  15 -10   1 170957. 2681.25   4
 -10  -5   1 184891. 2068.37   1
 -10  -5   1 180896. 2798.20   3
   5  10   1 181926. 2264.49   3
 -15   5   1 181071. 2024.48   1
  15 -10   1 175516. 2409.09   2
  -5  15   4 15362.2 1092.42   1
  15 -10   4 14491.0 793.835   4
   5  10   4 13511.2 426.143   3
  10 -15   4 13607.7 601.874   4
  15 -10   4 14070.8 719.277   2
  -5  15   4 15188.5 576.514   3
  15 -10   7 6050.12 562.095   4
  15 -10   7 4860.30 592.355   2
  15  -9  -9 290.105 554.850   4
   9 -15  -9 295.338 926.181   2
  15  -9  -9-444.383 964.231   2
   6   9  -9 25.1016 422.539   1
 -15   6  -9 343.612 699.996   1
   9 -15  -9 42.7952 584.279   4
  -6  15  -9-278.758 609.130   1
  -6  15  -9 273.125 448.910   2
  -9  -6  -9 396.855 524.475   4
  -9  -6  -9 457.282 742.092   2
 -15   6  -9 923.370 451.906   4
   6   9  -9 1035.28 670.091   3
 -15   6  -9 857.210 573.208   2
  15  -9  -9-385.020 492.493   3
   9 -15  -6 21751.8 1393.51   4
   9 -15  -6 22230.5 848.562   3
  -6  15  -6 20286.2 808.765   2
  15  -9  -6 16268.3 808.857   1
 -15   6  -6 21181.6 1445.29   1
   6   9  -6 20261.6 880.664   4
  -9  -6  -6 20659.3 1248.77   4
 -15   6  -6 20447.0 1092.36   2
  15  -9  -6 21833.6 1178.51   3
   9 -15  -6 22438.2 1684.79   2
  -9  -6  -6 19869.7 1421.20   2
   6   9  -6 20169.6 1253.78   3
  -9  -6  -6 17108.1 541.608   3
  -6  15  -6 20931.8 730.740   2
  -6  15  -6 22494.1 1271.75   1
 -15   6  -6 21173.6 1034.98   4
   6   9  -6 23206.7 910.112   1
   6   9  -3 10538.8 581.144   1
  -6  15  -3 11592.2 860.100   1
   9 -15  -3 9979.82 628.251   3
   9 -15  -3 11618.3 943.476   4
   9 -15  -3 9494.85 960.590   2
 -15   6  -3 11484.8 897.474   1
   6   9  -3 10930.4 714.793   4
  -9  -6  -3 10935.9 827.615   4
  -6  15  -3 10582.6 529.046   2
 -15   6  -3 10629.9 723.716   2
   6   9  -3 10909.7 810.853   3
  -9  -6  -3 9860.89 546.015   3
  -9  -6  -3 9932.86 906.817   2
  15  -9  -3 11056.0 622.577   1
  15  -9  -3 10309.8 776.815   3
  15  -9   0 16161.7 981.607   3
  15  -9   0 17654.7 875.939   2
  -6  15   0 16639.9 914.768   2
  -6  15   0 14893.1 831.870   3
   9 -15   0 15622.7 916.880   4
   6   9   0 14983.7 759.059   3
  -9  -6   0 16277.6 760.620   1
 -15   6   0 15820.7 749.176   1
   6   9   0 14614.4 890.852   4
  15  -9   0 16230.6 884.710   1
  -6  15   0 16009.5 891.191   4
  -6  15   0 16710.2 969.868   1
  -9  -6   0 17139.8 977.300   4
   9 -15   0 15753.9 811.729   2
   6   9   0 16468.2 841.543   1
  -9  -6   0 15061.6 802.579   3
  -9  -6   0 18219.2 1077.01   2
  -6  15   3 8390.79 804.052   1
  15  -9   3 6810.30 700.956   3
  -9  -6   3 6548.95 363.241   1
  15  -9   3 7509.32 634.719   2
 -15   6   3 7429.79 402.899   1
  -6  15   3 7028.64 480.836   3
  15  -9   3 7629.73 633.101   4
  -9  -6   3 7542.67 613.834   4
   9 -15   3 7672.88 519.831   4
   6   9   3 7429.85 429.483   3
  15  -9   6 15537.4 896.427   2
  15  -9   6 15624.5 845.958   4
  15  -8 -10 17978.2 1903.67   2
  15  -8 -10 17542.3 1418.34   4
  -8  -7 -10 19882.7 1443.25   4
  -8  -7 -10 16996.8 1716.93   2
   8 -15 -10 18442.2 1525.55   4
   8 -15 -10 15141.6 1778.32   2
 -15   7 -10 17313.1 1309.60   2
   7   8 -10 20049.9 1491.15   3
  -7  15 -10 19147.9 1500.41   1
 -15   7 -10 22413.1 1846.13   1
  15  -8 -10 17067.4 1240.06   3
   7   8  -7 36485.5 1150.60   1
   8 -15  -7 31432.6 883.120   3
  -7  15  -7 30855.8 973.767   2
 -15   7  -7 37736.9 1968.71   1
   8 -15  -7 34398.9 1780.94   4
  15  -8  -7 30078.8 1067.70   1
   8 -15  -7 31016.8 2022.41   2
  -8  -7  -7 35306.3 1662.76   4
  -8  -7  -7 38335.2 2030.67   2
 -15   7  -7 36965.8 1321.44   4
  -7  15  -7 35740.1 1669.40   1
   7   8  -7 37645.3 1696.48   3
   7   8  -7 29685.6 1112.97   4
 -15   7  -7 34131.4 1412.65   2
  -7  15  -7 31401.7 881.974   2
  15  -8  -7 31760.9 1433.61   3
  -8  -7  -4 38834.9 1780.13   2
  -7  15  -4 42581.0 1568.78   1
   8 -15  -4 40654.3 1713.96   4
  15  -8  -4 39398.3 1461.05   3
   8 -15  -4 37429.3 1060.66   3
   8 -15  -4 41739.0 1870.30   2
 -15   7  -4 42273.4 1695.10   1
   7   8  -4 38455.1 1267.48   4
  -8  -7  -4 38144.1 1565.31   4
  -7  15  -4 36015.9 698.940   2
   7   8  -4 42488.3 1560.17   3
  -8  -7  -4 40725.8 899.697   3
   7   8  -4 43569.5 1011.28   1
  15  -8  -4 40293.0 1035.51   1
 -15   7  -4 40827.0 1280.57   2
  15  -8  -1 189299. 2958.40   3
  15  -8  -1 187039. 2913.52   2
  -7  15  -1 184742. 2980.34   1
   7   8  -1 182996. 2368.31   1
  -7  15  -1 183973. 2886.52   3
   8 -15  -1 189035. 3094.42   4
  -7  15  -1 188442. 2467.23   2
   7   8  -1 182221. 2871.73   4
  -8  -7  -1 193786. 3085.52   4
 -15   7  -1 196506. 2768.89   1
   8 -15  -1 186489. 2974.12   2
  15  -8  -1 193078. 2511.80   1
  -8  -7  -1 192710. 2486.41   3
   7   8  -1 184573. 2665.45   3
  -8  -7  -1 186926. 3258.20   2
  -8  -7  -1 193368. 2764.40   1
  -7  15   2 35379.8 1407.85   1
  -7  15   2 36534.4 1102.74   3
   8 -15   2 34823.0 790.615   2
  15  -8   2 36301.9 1398.21   3
  -8  -7   2 35758.9 1430.95   2
  -8  -7   2 37952.4 947.438   1
  -7  15   2 33526.1 1503.56   2
   8 -15   2 36837.7 1139.72   4
  -8  -7   2 33353.8 1187.05   4
  15  -8   2 33235.6 1213.95   4
 -15   7   2 34158.2 932.577   1
  15  -8   2 34435.4 1190.39   2
   7   8   2 34368.4 938.220   3
  15  -8   2 34679.8 1431.87   1
  15  -8   5 54192.6 1555.46   4
   8 -15   5 52413.1 729.847   4
   8 -15   5 52555.0 710.793   4
  -7  15   5 55133.7 1059.26   3
   8   7 -11 16320.5 1725.66   2
  -7  -8 -11 13146.1 1650.98   2
  15  -7 -11 14858.9 1861.01   2
  -8  15 -11 15033.4 1505.52   1
   7 -15 -11 15960.5 1560.02   4
  15  -7 -11 12255.6 1274.83   4
   7 -15 -11 14133.3 1817.51   2
 -15   8 -11 19117.1 1829.29   1
  -7  -8 -11 16733.0 1417.03   4
  -8  15 -11 16409.0 1513.91   3
   8   7 -11 14301.5 1384.65   3
  15  -7 -11 12733.1 1198.21   3
   8   7  -8 8250.11 625.562   1
  -7  -8  -8 8995.86 966.226   4
  15  -7  -8 8355.01 970.106   4
   7 -15  -8 11388.4 1142.98   4
   7 -15  -8 9890.38 1329.25   2
  -8  15  -8 6530.39 532.613   2
  -7  -8  -8 10035.5 1242.44   2
 -15   8  -8 8723.73 816.093   2
   8   7  -8 8785.87 948.262   3
  -8  15  -8 7941.41 974.656   1
 -15   8  -8 10162.4 1161.07   1
  15  -7  -8 8696.97 885.006   3
  15  -7  -5 56490.8 1150.68   1
   8   7  -5 54267.2 1520.08   4
   7 -15  -5 58067.7 2070.68   4
   7 -15  -5 58351.0 2376.32   2
 -15   8  -5 59646.8 2136.27   1
  -7  -8  -5 56263.6 1934.96   4
   8   7  -5 59317.2 1103.92   1
  15  -7  -5 57884.2 1796.55   3
   8   7  -5 59849.5 1893.21   3
  -7  -8  -5 59206.1 2269.93   2
 -15   8  -5 60098.4 1518.92   2
  -8  15  -5 59035.3 1945.66   1
   7 -15  -2 32890.2 1401.10   4
  -8  15  -2 33497.5 833.354   2
  -7  -8  -2 32001.3 1288.97   1
 -15   8  -2 33335.6 1098.48   2
  -7  -8  -2 35121.0 1409.71   4
  -8  15  -2 37136.5 1410.79   1
  -7  -8  -2 28030.8 1394.17   2
   7 -15  -2 33647.5 1450.99   2
  15  -7  -2 33658.6 951.399   1
   8   7  -2 34201.2 1243.99   4
 -15   8  -2 32609.2 1279.48   1
  -7  -8  -2 34725.7 984.732   3
   8   7  -2 37111.7 1293.14   3
   8   7  -2 34887.2 932.515   1
  15  -7  -2 32650.3 1284.30   3
  15  -7   1 195321. 3019.62   3
 -15   8   1 190015. 2361.09   1
  -8  15   1 190813. 2656.63   3
  15  -7   1 190622. 2935.22   1
  -8  15   1 191675. 3078.84   2
   7 -15   1 192695. 2731.38   4
  -7  -8   1 197279. 2379.20   1
  -7  -8   1 191577. 2830.40   3
  -7  -8   1 201323. 2955.80   4
   7 -15   1 192770. 2351.50   2
  15  -7   1 184727. 2833.03   4
   8   7   1 190845. 2382.66   3
  15  -7   1 186205. 2763.10   2
  -7  -8   1 191405. 3188.17   2
  -8  15   1 189672. 3050.81   1
   7 -15   4 43543.4 948.516   4
   8   7   4 43353.5 966.575   3
  15  -7   4 39456.0 1462.12   3
 -15   8   4 43642.3 1094.18   1
  -7  -8   4 41812.4 1042.36   1
  15  -7   4 38394.5 1331.27   4
  15  -7   4 42925.1 1471.22   2
  -8  15   4 38428.9 1588.67   1
  -7  -8   4 43246.6 1286.11   4
  -8  15   4 42754.7 1103.37   3
  15  -7   7 23850.2 1339.82   2
  -8  15   7 22504.2 691.186   3
  15  -6  -9 4865.93 1133.28   2
  15  -6  -9 4761.11 682.579   1
   6 -15  -9 4007.82 801.598   4
 -15   9  -9 3863.43 946.639   1
  -6  -9  -9 4892.02 813.002   4
  -6  -9  -9 5831.68 1135.85   2
   6 -15  -9 5114.57 1166.45   2
 -15   9  -9 4312.60 684.422   2
   9   6  -9 6424.83 902.326   3
  15  -6  -9 5927.62 793.115   3
  15  -6  -9 4957.68 809.263   4
   9   6  -9 4016.78 520.322   1
  -9  15  -9 5038.03 955.235   1
  15  -6  -6 15170.6 601.461   1
   6 -15  -6 19186.7 1531.65   2
   9   6  -6 17079.3 593.168   1
  -6  -9  -6 18660.2 1227.91   4
 -15   9  -6 20239.4 1400.62   1
   9   6  -6 15294.2 883.902   4
  -6  -9  -6 15707.8 1366.46   2
   9   6  -6 18866.6 1192.10   3
  -9  15  -6 18692.1 1207.88   1
 -15   9  -6 18442.2 885.490   2
   6 -15  -6 18268.0 1289.16   4
  15  -6  -6 15892.2 1042.52   3
   6 -15  -3 5932.03 818.478   2
 -15   9  -3 6263.62 493.314   2
   6 -15  -3 6827.00 758.091   4
  15  -6  -3 6296.80 383.451   1
  -6  -9  -3 5579.39 787.812   2
 -15   9  -3 6272.41 708.854   1
  -6  -9  -3 7432.67 753.874   4
   9   6  -3 6951.30 624.504   4
   9   6  -3 5549.19 660.938   3
   9   6  -3 6192.40 358.669   1
  -9  15  -3 6329.33 701.168   1
  15  -6  -3 6800.99 700.116   3
  15  -6   0 14155.8 879.562   2
  15  -6   0 13674.6 884.075   3
  -9  15   0 15086.2 873.671   3
  -9  15   0 14118.3 809.067   2
  15  -6   0 13563.5 770.836   1
   6 -15   0 14977.0 836.239   2
 -15   9   0 14662.8 801.562   1
  -6  -9   0 15134.4 790.603   1
   6 -15   0 12762.6 803.817   4
  -6  -9   0 15140.4 899.318   4
  -9  15   0 14871.7 896.537   1
   9   6   0 14217.8 746.627   3
  -6  -9   0 15150.2 986.866   2
  15  -6   3 11577.7 831.125   3
 -15   9   3 12547.6 652.867   1
  -6  -9   3 10873.0 851.931   2
  -6  -9   3 11660.8 696.130   4
  15  -6   3 10927.4 809.830   2
  -9  15   3 10219.0 868.432   1
  -6  -9   3 10805.8 602.591   1
   6 -15   3 11486.5 601.607   4
   9   6   3 12256.3 612.888   3
  -9  15   3 11211.3 643.059   3
  15  -6   6 17254.8 1110.36   2
  -9  15   6 16589.1 688.487   3
  -5 -10 -10 2625.41 738.755   4
   5 -15 -10 2469.24 1022.90   2
  15  -5 -10 2755.25 734.818   4
  15  -5 -10 2498.40 1050.92   2
  -5 -10 -10 4439.30 1192.75   2
 -15  10 -10 1940.31 873.594   1
  10   5 -10 3908.73 832.340   3
  15  -5 -10 2943.64 731.534   3
 -10  15 -10 3355.24 836.801   1
   5 -15 -10 2596.34 814.377   4
  10   5  -7 4218.50 735.278   3
  15  -5  -7 2708.15 318.315   1
   5 -15  -7 4397.54 1060.78   2
  10   5  -7 3695.09 328.649   1
   5 -15  -7 5409.63 814.771   4
  -5 -10  -7 5164.66 796.888   4
 -15  10  -7 5031.83 885.172   1
  -5 -10  -7 4438.29 915.660   2
 -10  15  -7 4801.89 830.927   1
 -15  10  -7 3582.83 480.296   2
  15  -5  -7 5208.19 714.526   3
 -15  10  -4 14191.0 635.173   2
   5 -15  -4 15048.9 1116.74   4
  10   5  -4 13777.2 958.772   3
  -5 -10  -4 13057.1 1014.83   4
 -15  10  -4 15952.5 1100.91   1
  15  -5  -4 10586.0 361.577   1
   5 -15  -4 14544.3 1215.30   2
  10   5  -4 13685.1 856.160   4
  -5 -10  -4 13479.8 1166.20   2
  15  -5  -4 15721.9 987.780   3
 -10  15  -4 13036.9 973.129   1
  15  -5  -1 161616. 2874.22   2
  10   5  -1 176859. 2650.85   3
  -5 -10  -1 179091. 2770.54   1
 -10  15  -1 175250. 2988.96   1
   5 -15  -1 171970. 2969.39   4
  -5 -10  -1 172438. 2941.10   4
  -5 -10  -1 182290. 3251.62   2
 -15  10  -1 179528. 2768.56   1
   5 -15  -1 182158. 3042.43   2
  15  -5  -1 169310. 2813.97   3
 -10  15   2 16139.3 810.176   3
  -5 -10   2 15437.7 953.792   2
  -5 -10   2 16221.8 762.011   1
 -10  15   2 16583.6 1010.87   1
   5 -15   2 16970.2 815.386   4
 -15  10   2 16253.7 787.636   1
  -5 -10   2 17012.2 857.170   4
  15  -5   2 15359.7 938.516   2
  15  -5   2 15138.9 924.381   3
   5 -15   2 16836.3 743.637   2
  10   5   2 15199.9 739.928   3
  10   5   5 26034.7 834.248   3
  15  -5   5 25603.4 1187.59   3
 -10  15   5 27196.5 1379.14   1
  -5 -10   5 23816.9 996.099   1
  15  -5   5 24330.5 1304.36   2
   5 -15   5 23326.0 506.516   4
 -10  15   5 23244.3 890.505   3
 -15  11 -11 17744.4 1741.89   1
   4 -15 -11 12585.7 1408.01   4
  -4 -11 -11 15942.2 1438.85   4
  15  -4 -11 13183.3 1245.50   4
   4 -15 -11 15553.5 1893.76   2
  -4 -11 -11 18211.9 2029.41   2
 -11  15 -11 11506.6 1423.52   1
  11   4 -11 15514.5 1401.53   3
  15  -4 -11 14114.2 1288.46   3
  15  -4 -11 13574.5 1862.99   2
  -4 -11  -8 8623.55 974.640   4
  11   4  -8 6544.62 412.892   1
  15  -4  -8 7724.59 547.295   1
   4 -15  -8 11094.9 1110.10   4
   4 -15  -8 9813.18 1303.02   2
 -15  11  -8 11259.8 1211.71   1
  -4 -11  -8 8981.26 1257.47   2
 -11  15  -8 9360.76 1076.79   1
 -15  11  -8 8993.62 682.252   2
  11   4  -8 10567.1 1035.90   3
  15  -4  -8 9844.63 991.298   3
 -15  11  -5 112495. 1585.31   2
   4 -15  -5 111465. 3219.92   2
  -4 -11  -5 112654. 3234.87   2
   4 -15  -5 118078. 2945.33   4
  -4 -11  -5 118542. 2877.58   4
 -15  11  -5 117926. 2951.55   1
  11   4  -5 119070. 2671.56   3
 -11  15  -5 119337. 2832.60   1
  15  -4  -5 113194. 2548.76   3
   4 -15  -2 29034.8 1327.83   4
  -4 -11  -2 28082.5 1313.90   4
   4 -15  -2 31939.1 1475.55   2
  -4 -11  -2 30624.7 1483.47   2
 -15  11  -2 30245.0 1269.52   1
  11   4  -2 30955.9 1230.45   3
  15  -4  -2 31035.9 1289.56   3
  15  -4   1 41276.9 1426.92   3
 -11  15   1 38199.3 1295.67   3
 -15  11   1 43069.3 1312.93   1
   4 -15   1 41662.0 1324.33   4
  -4 -11   1 42245.7 1275.87   1
  15  -4   1 42533.9 1516.14   2
 -11  15   1 40908.3 1485.96   1
   4 -15   1 42282.3 1276.30   2
  11   4   1 43835.7 1267.53   3
  -4 -11   1 42834.2 1370.19   4
  -4 -11   1 43269.6 1521.02   2
  11   4   4 41970.4 1184.66   3
  15  -4   4 39221.3 1425.99   3
   4 -15   4 41681.2 972.347   4
  -4 -11   4 38629.1 1264.19   1
  15  -4   4 39187.2 1624.73   2
  -4 -11   4 41086.1 1172.08   4
 -11  15   4 38229.2 1538.00   1
 -15  11   4 41641.0 1310.40   1
 -11  15   4 41739.0 1238.76   3
 -11  15   7 34005.3 1122.53   3
  15  -3  -9 979.951 565.112   4
  -3 -12  -9 70.1371 596.511   4
 -15  12  -9-106.809 716.803   1
  -3 -12  -9 1229.24 834.180   2
   3 -15  -9 319.631 887.597   2
  12   3  -9 1523.89 633.338   3
 -12  15  -9 410.053 684.102   1
  15  -3  -9 285.951 526.335   3
   3 -15  -9 277.763 671.190   4
 -15  12  -6 4225.56 807.667   1
  -3 -12  -6 5869.36 822.611   4
   3 -15  -6 6729.39 907.487   4
  -3 -12  -6 5936.29 1015.25   2
   3 -15  -6 4734.26 902.094   2
 -12  15  -6 4583.55 778.935   1
  15  -3  -6 5094.68 712.230   3
  12   3  -6 4973.48 698.700   3
 -15  12  -6 5169.74 360.772   2
  15  -3  -3 17858.5 1032.32   3
   3 -15  -3 17259.4 1122.82   4
  -3 -12  -3 19882.9 1211.24   4
 -15  12  -3 16516.8 1045.14   1
   3 -15  -3 19301.6 1263.59   2
  12   3  -3 19211.0 1041.90   3
 -12  15  -3 21582.1 1178.89   1
  -3 -12  -3 19937.7 1327.50   2
 -15  12   0 33572.3 1243.73   1
   3 -15   0 33542.2 1276.90   4
   3 -15   0 33947.5 1306.19   2
 -12  15   0 33376.0 1329.97   1
  -3 -12   0 34664.3 1314.03   4
  -3 -12   0 34329.1 1237.25   1
  -3 -12   0 34497.4 1408.85   2
  12   3   0 34565.7 1208.70   3
  15  -3   0 33071.5 1299.93   3
  12   3   3 12197.8 703.888   3
   3 -15   3 10115.1 599.111   4
  15  -3   3 10395.4 778.970   3
   3 -15   3 11738.0 664.669   2
 -15  12   3 12238.7 777.924   1
  -3 -12   3 11145.1 822.833   2
 -12  15   3 10905.4 847.625   1
  -3 -12   3 11110.9 688.223   4
  15  -3   3 8614.26 867.487   2
  -3 -12   3 10635.0 726.173   1
 -12  15   3 10611.0 714.174   3
  -3 -12   6 6514.15 689.710   1
 -12  15   6 4712.98 535.346   3
   2 -15 -10 1101.51 691.631   4
  13   2 -10 44.5031 465.378   4
  15  -2 -10 695.342 573.138   4
  13   2 -10 875.850 670.705   3
  -2 -13 -10 380.637 677.520   4
   2 -15 -10 568.650 909.830   2
  -2 -13 -10 157.121 961.516   2
 -15  13 -10 537.134 866.761   1
 -13  15 -10 844.397 797.545   1
  15  -2 -10-57.9448 566.860   3
   2 -15  -7 21698.4 1747.30   2
   2 -15  -7 19889.3 1394.88   4
  -2 -13  -7 20229.7 1405.69   4
  13   2  -7 21438.4 1337.25   3
  -2 -13  -7 17333.3 1533.51   2
 -15  13  -7 19472.1 1486.32   1
 -15  13  -7 14563.1 523.479   2
 -13  15  -7 18484.2 1353.22   1
  15  -2  -7 19555.5 1231.75   3
  -2 -13  -4 17504.4 1159.80   4
  -2 -13  -4 17385.9 1307.78   2
   2 -15  -4 17325.8 1186.19   4
   2 -15  -4 19863.0 1385.04   2
 -15  13  -4 17862.4 1158.04   1
  13   2  -4 17923.1 1092.19   3
 -13  15  -4 19938.4 1203.23   1
  15  -2  -4 17543.9 1068.95   3
 -13  15  -1 25932.9 1211.27   1
  -2 -13  -1 27314.6 1245.61   4
   2 -15  -1 23476.8 1155.73   4
   2 -15  -1 29398.8 1349.11   2
  -2 -13  -1 26605.1 1316.56   2
  13   2  -1 24811.1 1103.16   3
  15  -2  -1 25437.1 1164.83   3
 -15  13  -1 25976.9 1210.42   1
  -2 -13   2 31248.2 1285.08   2
  15  -2   2 30112.1 1209.66   3
  -2 -13   2 28232.0 1131.70   1
   2 -15   2 29077.6 1083.09   4
  -2 -13   2 30049.0 1110.25   4
 -15  13   2 25806.9 1099.22   1
 -13  15   2 28114.5 1236.37   1
   2 -15   2 28822.6 1146.92   2
  13   2   2 28263.7 1081.76   3
 -13  15   2 26239.8 1099.77   3
 -15  13   5 5496.88 642.069   1
  13   2   5 5613.48 546.282   3
  15  -2   5 4806.43 610.856   3
  -2 -13   5 3485.18 576.697   1
   2 -15   5 4892.17 342.531   4
  -2 -13   5 5404.41 437.209   4
 -13  15   5 5417.24 706.935   1
 -13  15   5 3940.63 517.181   3
   1 -15 -11 20276.2 2156.30   2
  15  -1 -11 24129.4 2286.84   2
 -15  14 -11 22241.3 1890.31   1
   1 -15 -11 23101.0 1825.38   4
  -1 -14 -11 23252.3 1764.57   4
  -1 -14 -11 23570.1 2237.52   2
 -14  15 -11 23157.4 1886.20   1
  14   1 -11 21186.1 1584.19   3
  15  -1 -11 24609.4 1712.89   3
  -1 -14  -8 9431.82 1360.66   2
  -1 -14  -8 12445.0 1193.93   4
  14   1  -8 10933.7 1084.88   3
 -14  15  -8 12290.3 1285.80   1
   1 -15  -8 12168.8 1197.10   4
   1 -15  -8 14298.8 1567.61   2
 -15  14  -8 10515.2 1207.18   1
  15  -1  -8 9710.22 1026.76   3
   1 -15  -5 53674.4 2344.54   2
  -1 -14  -5 52601.2 2341.62   2
 -15  14  -5 46633.7 1880.19   1
 -14  15  -5 54781.2 2039.64   1
  14   1  -5 56577.5 1918.83   3
  15  -1  -5 50861.3 1836.34   3
   1 -15  -5 56875.6 2117.40   4
  -1 -14  -5 51480.2 2002.63   4
 -14  15  -2 37194.3 1490.77   1
  14   1  -2 32737.3 1336.33   3
   1 -15  -2 36470.9 1528.56   4
   1 -15  -2 37355.9 1661.48   2
  -1 -14  -2 36651.5 1529.97   4
  -1 -14  -2 35877.6 1618.69   2
  15  -1  -2 35790.2 1389.74   3
 -15  14  -2 34918.8 1449.40   1
  -1 -14   1 31526.9 1254.37   1
 -15  14   1 30118.8 1223.53   1
   1 -15   1 30673.3 1200.15   4
  -1 -14   1 30108.2 1201.28   4
 -14  15   1 29019.4 1268.43   1
   1 -15   1 31789.7 1276.12   2
  -1 -14   1 31206.9 1303.97   2
  14   1   1 30761.1 1207.96   3
  15  -1   1 29464.5 1203.31   3
  14   1   4 38750.1 1312.73   3
  15  -1   4 38042.3 1378.37   3
  -1 -14   4 37638.8 1116.94   4
   1 -15   4 37813.0 1062.28   4
 -15  14   4 35829.3 1416.67   1
 -14  15   4 37239.7 1488.95   1
   0 -15  -9 673.729 687.512   4
   0 -15  -9 493.920 857.112   2
 -15  15  -9-321.717 732.765   1
  15   0  -9 401.889 643.858   3
   0 -15  -6 19564.5 1598.64   2
   0 -15  -6 21263.9 1457.73   4
 -15  15  -6 23708.2 1492.63   1
  15   0  -6 22537.3 1333.93   3
 -15  15  -3 511.233 503.179   1
   0 -15  -3-215.942 488.176   4
   0 -15  -3 53.5232 502.298   2
  15   0  -3 347.548 424.987   3
 -15  15   0 37676.7 1427.67   1
   0 -15   0 36591.2 1406.64   4
   0 -15   0 40269.7 1529.14   2
  15   0   0 37237.6 1373.93   3
 -15  15   3 205.729 394.864   1
  15   0   3 677.916 399.793   3
   0 -15   3 7.01332 343.092   2
   0 -15   3 264.002 300.050   4
  15   0   6 12862.4 844.359   3
   0  16 -10 35794.0 1897.50   1
  16 -16 -10 30687.6 2035.79   4
 -16   0 -10 39306.6 2520.07   1
  16 -16 -10 29212.9 2506.73   2
 -16   0 -10 37567.5 1820.22   4
   0  16 -10 38148.6 2182.15   3
 -16   0 -10 30633.9 2006.77   2
 -16   0  -7 160.703 452.208   4
  16 -16  -7 490.969 511.491   3
   0  16  -7-730.467 527.816   1
 -16   0  -7 368.271 728.709   1
  16 -16  -7-548.566 898.882   2
   0  16  -7 1033.89 711.747   3
 -16   0  -7 72.5800 525.740   2
  16 -16  -7-173.523 606.550   4
  16 -16  -4 96272.1 2320.52   3
   0  16  -4 94573.5 2523.19   3
  16 -16  -4 91112.7 2698.99   4
 -16   0  -4 87079.7 2401.77   4
  16 -16  -4 94015.1 3040.36   2
   0  16  -4 83494.3 1887.00   4
   0  16  -4 93024.5 2230.35   1
   0  16  -4 89980.7 2276.64   2
 -16   0  -4 87897.1 2507.24   2
   0  16  -1-88.3751 424.652   1
 -16   0  -1 312.446 453.214   2
  16 -16  -1 67.4534 427.834   3
  16 -16  -1-166.940 447.124   2
 -16   0  -1-62.9459 343.994   1
   0  16  -1 347.644 365.517   3
 -16   0  -1 276.803 416.681   4
  16 -16   2 164969. 1946.21   2
   0  16   2 166773. 2213.28   3
  16 -16   2 162250. 1768.92   2
  16 -16   5 367.838 313.880   4
  16 -15 -11 1622.73 949.696   4
  15 -16 -11 625.175 866.222   4
  -1  16 -11 2578.78 862.711   1
 -15  -1 -11 1480.25 983.400   1
  16 -15 -11 319.253 1095.93   2
 -15  -1 -11 1145.81 695.941   4
  15 -16 -11 506.537 1026.80   2
 -16   1 -11 2221.59 1099.84   1
  -1  16 -11 559.536 750.439   3
   1  15 -11 872.454 840.966   3
 -15  -1 -11 1774.78 949.159   2
 -16   1 -11 1821.77 907.681   2
  16 -15  -8 3678.43 677.680   3
  -1  16  -8 5152.59 816.325   1
  15 -16  -8 4116.08 663.985   3
   1  15  -8 6999.84 820.544   1
  16 -15  -8 3838.69 845.048   4
  15 -16  -8 3457.36 887.175   4
 -16   1  -8 5077.62 928.260   2
   1  15  -8 3526.86 845.147   3
 -15  -1  -8 4510.51 760.940   4
 -16   1  -8 4431.90 740.238   4
  15 -16  -8 4956.26 1194.51   2
  -1  16  -8 4949.13 925.413   3
 -16   1  -8 3962.15 1039.56   1
 -15  -1  -8 5042.89 900.130   2
  16 -15  -8 5772.25 1238.09   2
 -16   1  -5 10899.9 932.393   4
  16 -15  -5 11008.6 876.355   3
  15 -16  -5 10901.1 854.524   3
  15 -16  -5 13325.3 1320.34   2
  16 -15  -5 10316.3 1068.64   4
 -16   1  -5 12650.5 1150.52   1
  15 -16  -5 9694.23 1050.09   4
   1  15  -5 11057.1 843.811   1
  -1  16  -5 11415.7 637.685   4
   1  15  -5 9128.72 644.683   4
 -15  -1  -5 10323.6 1041.20   2
 -15  -1  -5 10524.3 931.974   4
  -1  16  -5 12875.6 1057.59   3
   1  15  -5 11524.9 1016.32   3
  -1  16  -5 9371.78 797.172   2
  -1  16  -5 12562.1 918.018   1
 -16   1  -5 11446.8 1027.96   2
 -15  -1  -5 9238.68 710.917   3
  16 -15  -5 10712.7 1312.96   2
   1  15  -2 2112.03 468.829   3
 -15  -1  -2 1558.10 519.195   2
  16 -15  -2 3273.36 603.077   3
 -16   1  -2 2768.99 580.808   2
   1  15  -2 2087.59 542.694   2
  15 -16  -2 2025.44 543.975   3
  16 -15  -2 1929.85 574.933   2
  15 -16  -2 2066.06 570.511   4
   1  15  -2 3027.20 525.080   4
  15 -16  -2 2345.65 615.832   2
  -1  16  -2 2153.65 448.696   4
 -16   1  -2 1948.88 522.569   1
 -15  -1  -2 1963.10 514.753   4
 -16   1  -2 2715.89 530.695   4
   1  15  -2 2332.62 453.493   1
  -1  16  -2 2742.44 544.160   2
  -1  16  -2 2478.54 566.061   1
 -15  -1   1 15379.3 617.312   1
  16 -15   1 15692.7 710.561   2
 -15  -1   1 14398.8 1075.87   2
  16 -15   1 13948.5 999.165   3
  15 -16   1 14443.5 1002.34   3
 -15  -1   1 15178.2 637.113   1
  15 -16   1 14934.7 742.758   2
 -16   1   1 14593.1 601.181   1
  -1  16   1 15034.5 1022.62   1
 -15  -1   1 15393.6 997.691   4
   1  15   1 13769.8 724.755   3
   1  15   1 14792.8 1001.28   1
  -1  16   4 2081.89 246.592   3
   1  15   4 1851.23 207.461   3
  16 -15   4 2568.18 424.727   4
  15 -16   4 2156.32 403.479   4
  -1  16   4 1735.68 204.591   3
   1  15   4 1704.66 190.708   3
  15 -16   7 2652.07 273.820   4
  16 -14  -9 4621.05 758.268   3
  -2  16  -9 6275.98 907.703   1
  14 -16  -9 8287.94 1106.09   4
  14 -16  -9 5508.95 700.624   3
   2  14  -9 6237.68 881.645   1
  -2  16  -9 5935.31 921.713   2
  16 -14  -9 5789.16 966.571   4
  16 -14  -9 7557.27 1435.73   2
  14 -16  -9 3234.82 1132.53   2
 -16   2  -9 6051.65 1169.86   1
 -14  -2  -9 7498.48 903.988   4
 -16   2  -9 6854.26 828.680   4
  -2  16  -9 6974.60 1098.64   3
   2  14  -9 6374.67 1019.87   3
 -16   2  -9 6726.23 997.295   2
 -14  -2  -9 5949.22 1037.30   2
  16 -14  -6 10681.3 909.466   3
  16 -14  -6 8501.44 984.704   4
  14 -16  -6 9246.15 779.736   3
  14 -16  -6 8741.05 1213.47   2
  -2  16  -6 11563.1 955.373   1
  16 -14  -6 9154.39 1237.23   2
  14 -16  -6 11460.4 1135.88   4
   2  14  -6 8854.09 772.762   1
 -16   2  -6 9349.35 852.322   4
 -16   2  -6 9442.86 964.113   2
   2  14  -6 9114.05 562.585   4
 -14  -2  -6 11635.8 987.111   4
 -16   2  -6 9299.48 1148.84   1
   2  14  -6 10341.0 998.399   3
 -14  -2  -6 8137.40 984.445   2
  -2  16  -6 8669.74 739.545   2
 -14  -2  -6 8842.76 664.633   3
  16 -14  -3 26033.1 1179.70   1
  14 -16  -3 29917.0 1656.58   2
  16 -14  -3 30919.5 1331.58   3
 -14  -2  -3 31438.3 1433.98   4
  14 -16  -3 29469.3 1257.55   3
  14 -16  -3 32391.0 1574.12   4
 -16   2  -3 32096.1 1375.18   4
  -2  16  -3 31483.6 1319.72   1
   2  14  -3 29596.7 1199.07   1
   2  14  -3 29226.0 1182.16   4
  -2  16  -3 30157.4 1255.92   2
   2  14  -3 30187.5 1330.63   3
   2  14  -3 29015.3 1332.49   2
  -2  16  -3 30443.9 1118.12   4
 -14  -2  -3 32158.1 1160.85   3
 -14  -2  -3 27536.1 1438.90   2
 -16   2  -3 32241.1 1483.16   1
 -16   2  -3 29790.1 1377.50   2
 -16   2   0 5100.54 646.032   4
 -14  -2   0 3856.93 628.272   2
  16 -14   0 3901.94 605.273   3
  -2  16   0 3212.70 554.301   1
 -16   2   0 4048.03 681.043   2
  -2  16   0 5212.61 707.815   2
  14 -16   0 3926.25 580.103   3
  14 -16   0 4128.94 597.768   4
  14 -16   0 3449.80 493.310   2
 -16   2   0 3920.73 443.436   1
 -14  -2   0 3741.04 595.007   4
   2  14   0 4892.97 519.419   3
   2  14   0 4452.50 621.740   1
  -2  16   3 48467.5 1111.89   3
  16 -14   3 41600.8 1341.97   4
   2  14   3 45116.4 951.353   3
  -2  16   3 45810.3 1803.15   1
  16 -14   3 41221.6 900.068   2
  14 -16   6 5512.06 412.567   4
  16 -14   6 4429.55 477.001   4
  14 -16   6 4520.11 368.673   4
   3  13 -10 40304.2 1835.06   1
  16 -13 -10 33127.7 1994.25   4
  16 -13 -10 37088.9 2743.32   2
 -16   3 -10 39926.5 2476.10   1
  13 -16 -10 35808.9 2137.31   4
  13 -16 -10 36494.9 2683.54   2
  -3  16 -10 42020.5 2093.60   1
 -13  -3 -10 38244.8 1910.08   4
 -16   3 -10 39476.6 1703.08   4
  -3  16 -10 35895.0 2089.54   3
 -13  -3 -10 36471.9 2312.78   2
  16 -13 -10 36014.5 1705.54   3
   3  13 -10 42425.5 2187.62   3
 -16   3 -10 34580.1 1976.69   2
  16 -13  -7 3618.92 662.200   3
  -3  16  -7 4155.63 729.898   1
  13 -16  -7 2928.33 537.441   3
   3  13  -7 4927.64 637.748   1
  13 -16  -7 2487.56 726.058   4
  16 -13  -7 4922.54 935.617   4
  16 -13  -7 4388.01 1037.61   2
  13 -16  -7 3967.43 1019.53   2
 -16   3  -7 5024.64 948.384   1
   3  13  -7 4376.66 784.705   3
 -13  -3  -7 3997.74 716.995   4
 -13  -3  -7 4175.32 882.527   2
 -16   3  -7 4163.82 737.167   2
 -16   3  -7 3909.70 633.292   4
  16 -13  -4 104984. 2408.32   3
 -16   3  -4 114546. 2888.96   1
  -3  16  -4 111549. 1878.56   4
  13 -16  -4 105024. 2207.94   3
  16 -13  -4 100004. 2152.64   1
 -16   3  -4 104048. 2490.78   2
   3  13  -4 110196. 2146.93   1
  13 -16  -4 102630. 3108.47   2
 -13  -3  -4 110204. 2627.31   4
 -16   3  -4 107012. 2424.61   4
  13 -16  -4 105973. 2824.52   4
  -3  16  -4 108203. 2134.00   2
   3  13  -4 106610. 2566.83   3
 -13  -3  -4 101931. 2788.00   2
  -3  16  -4 108243. 2434.33   1
 -13  -3  -4 106440. 1952.05   3
   3  13  -4 107195. 2101.90   4
  16 -13  -1 8886.85 746.287   1
  16 -13  -1 10085.3 806.860   3
 -16   3  -1 9413.24 824.983   2
  13 -16  -1 9771.62 797.480   3
  13 -16  -1 8945.22 817.079   4
  -3  16  -1 9959.54 769.810   4
  13 -16  -1 8687.10 771.427   2
 -16   3  -1 8810.67 680.653   1
  -3  16  -1 11423.0 849.945   2
   3  13  -1 11336.9 781.983   1
 -13  -3  -1 10652.9 835.120   4
 -16   3  -1 8625.83 775.216   4
   3  13  -1 9950.68 728.273   3
 -13  -3  -1 8884.77 691.168   3
  -3  16  -1 9140.94 775.473   1
 -13  -3  -1 10550.5 923.722   2
  16 -13   2 120472. 2665.76   3
  -3  16   2 116759. 1943.50   3
  13 -16   2 122111. 2298.49   4
 -13  -3   2 110289. 1180.82   1
 -13  -3   2 114335. 2441.29   4
  16 -13   2 109080. 2181.79   4
   3  13   2 118697. 1764.72   3
  16 -13   2 121902. 1827.46   2
 -16   3   2 109333. 1221.52   1
  -3  16   2 114178. 2677.78   1
  13 -16   5 5570.27 441.509   4
  16 -13   5 4650.55 523.598   4
  13 -16   5 6136.40 444.189   4
  16 -12 -11 2651.58 760.199   3
   4  12 -11 3590.11 994.705   2
  -4  16 -11 2956.80 917.370   1
  16 -12 -11 1356.42 819.948   4
  12 -16 -11 2871.83 979.048   4
  16 -12 -11 2362.63 1254.03   2
  12 -16 -11 2759.76 1299.67   2
  -4  16 -11 3319.07 997.218   3
 -16   4 -11 3001.19 1087.52   1
 -12  -4 -11 2721.97 982.561   2
   4  12 -11 2717.21 817.741   3
 -16   4 -11 2444.69 845.839   2
 -12  -4 -11 2862.66 792.499   4
   4  12  -8 4933.00 682.892   1
  12 -16  -8 3436.82 514.512   3
  -4  16  -8 3409.63 767.549   1
  16 -12  -8 4942.71 1169.17   2
  16 -12  -8 4865.51 887.736   4
  12 -16  -8 4345.81 842.844   4
 -16   4  -8 5350.76 1021.94   1
  12 -16  -8 4498.71 1231.80   2
 -12  -4  -8 4070.31 714.851   4
 -16   4  -8 3938.53 618.720   4
  -4  16  -8 5266.18 717.910   2
   4  12  -8 5196.46 849.220   3
 -16   4  -8 4942.29 782.278   2
 -12  -4  -8 3200.62 894.327   2
  16 -12  -8 4624.16 721.893   3
  16 -12  -5 24825.9 1233.58   3
   4  12  -5 21288.8 1230.25   3
 -12  -4  -5 25841.3 1514.51   2
  12 -16  -5 24374.6 1048.29   3
  -4  16  -5 26217.5 1341.26   1
  16 -12  -5 21246.2 1018.70   1
 -16   4  -5 24174.0 1519.19   1
  12 -16  -5 28278.8 1567.62   4
   4  12  -5 24002.2 1029.46   1
   4  12  -5 23921.5 983.102   4
 -12  -4  -5 25732.3 1358.43   4
 -16   4  -5 27132.5 1245.11   4
  -4  16  -5 26143.3 999.972   2
  12 -16  -5 25962.4 1702.55   2
 -12  -4  -5 25281.1 923.981   3
 -16   4  -5 24770.7 1248.93   2
 -16   4  -2 20670.9 1097.72   2
  16 -12  -2 21332.8 1119.83   3
  12 -16  -2 21525.0 1033.26   3
  12 -16  -2 24197.9 1297.32   4
  -4  16  -2 21406.0 978.742   4
 -12  -4  -2 21795.1 1235.32   2
 -16   4  -2 22231.0 1114.48   1
   4  12  -2 19835.5 1009.75   4
  16 -12  -2 20988.9 976.313   1
  -4  16  -2 22929.9 1024.53   2
 -12  -4  -2 23371.5 1217.16   4
  -4  16  -2 20884.4 1100.69   1
 -16   4  -2 19600.9 1087.30   4
   4  12  -2 22650.0 1073.51   3
 -12  -4  -2 21544.1 936.909   3
  12 -16  -2 23336.3 1281.04   2
   4  12  -2 23063.2 988.599   1
  16 -12   1 50066.7 1299.39   2
 -12  -4   1 55733.5 1876.26   2
  16 -12   1 46514.3 1643.73   3
  -4  16   1 49519.2 1800.97   2
  12 -16   1 51830.0 1587.30   4
 -12  -4   1 53762.8 1119.17   1
 -12  -4   1 48528.5 1616.98   4
   4  12   1 48637.4 1615.63   1
  12 -16   1 49759.1 1162.61   2
   4  12   1 52200.5 1292.89   3
 -16   4   1 49151.8 1076.43   1
  -4  16   1 45413.6 1659.69   1
  -4  16   4 10318.0 478.068   3
  12 -16   4 9837.24 594.226   4
   4  12   4 8807.17 339.309   3
  -4  16   4 10027.9 965.789   1
  16 -12   4 9414.71 539.231   2
  16 -12   4 8964.43 671.915   4
  16 -12   7 14852.5 805.807   4
  16 -11  -9 2016.71 658.218   3
  -5  16  -9 1911.54 682.913   1
  16 -11  -9 2701.60 999.115   2
   5  11  -9 2690.88 621.300   1
  11 -16  -9 2697.72 760.936   4
  11 -16  -9 1542.24 957.256   2
 -16   5  -9 2631.64 921.625   1
  -5  16  -9 2819.97 615.041   2
 -11  -5  -9 3482.74 749.353   4
  16 -11  -9 3775.32 822.588   4
 -16   5  -9 3064.49 580.982   4
   5  11  -9 3109.26 804.794   3
  -5  16  -9 2439.47 767.037   3
 -11  -5  -9 3021.78 880.599   2
 -16   5  -9 2122.30 675.150   2
  -5  16  -6 11385.4 964.675   1
  11 -16  -6 10469.2 700.945   3
  11 -16  -6 8714.99 955.656   4
  16 -11  -6 8520.49 691.075   1
 -16   5  -6 10938.6 1168.84   1
  11 -16  -6 8694.14 1220.56   2
   5  11  -6 9145.24 644.573   4
 -11  -5  -6 11712.5 999.741   4
   5  11  -6 10494.5 723.909   1
 -16   5  -6 11218.1 842.325   4
 -11  -5  -6 8103.53 1024.23   2
   5  11  -6 10308.9 980.689   3
  -5  16  -6 9552.63 617.756   2
 -11  -5  -6 9696.99 539.627   3
  16 -11  -6 9172.27 829.008   3
 -16   5  -6 9337.01 832.942   2
   5  11  -3 3035.60 471.926   4
 -16   5  -3 3365.57 547.847   2
 -16   5  -3 3046.50 519.813   4
   5  11  -3 3383.98 435.106   1
  11 -16  -3 2950.62 493.348   3
  -5  16  -3 3885.58 431.566   4
  -5  16  -3 3398.17 428.792   2
  11 -16  -3 2593.84 674.312   2
  16 -11  -3 2584.58 519.891   3
 -11  -5  -3 3803.67 605.100   4
 -16   5  -3 2859.14 551.316   1
  -5  16  -3 2697.02 517.098   1
  11 -16  -3 2626.33 581.784   4
   5  11  -3 3738.11 583.250   3
 -11  -5  -3 3565.88 438.992   3
  16 -11  -3 2748.07 426.110   1
 -11  -5  -3 2951.39 643.573   2
 -11  -5   0 14617.2 1009.17   2
  16 -11   0 14355.8 881.427   1
  16 -11   0 13686.1 929.033   3
  16 -11   0 13808.9 785.845   2
   5  11   0 15173.1 777.449   3
  11 -16   0 14060.1 902.220   4
  11 -16   0 14793.8 820.352   2
 -11  -5   0 14117.7 914.827   4
 -16   5   0 13742.3 716.746   1
 -11  -5   0 13997.5 811.991   3
   5  11   0 14615.4 870.431   1
  -5  16   0 15009.3 947.769   2
 -11  -5   0 13196.4 696.962   1
  -5  16   0 13606.5 926.896   1
  -5  16   0 16759.5 965.959   4
  -5  16   3 4493.36 422.149   3
  16 -11   3 5262.64 672.256   3
  -5  16   3 6680.61 793.582   1
  11 -16   3 5173.09 480.119   4
 -16   5   3 4494.70 272.107   1
  16 -11   3 5084.71 509.639   2
  16 -11   3 4894.12 536.908   4
 -11  -5   3 3596.94 222.970   1
 -11  -5   3 5483.70 606.391   4
   5  11   3 6294.08 381.169   3
  16 -11   6 1227.32 385.829   2
  16 -11   6 919.551 373.415   4
 -10  -6 -10 18286.4 1363.37   4
  16 -10 -10 21028.0 2093.37   2
  10 -16 -10 19931.2 2025.45   2
  16 -10 -10 18394.8 1464.60   4
  -6  16 -10 19882.5 1608.64   3
  10 -16 -10 21326.5 1679.81   4
   6  10 -10 20508.1 1510.98   3
 -16   6 -10 20287.4 1847.29   1
  -6  16 -10 19252.7 1529.53   1
 -10  -6 -10 18724.8 1764.11   2
 -16   6 -10 18260.1 1370.39   2
  16 -10 -10 18383.7 1330.46   3
  16 -10  -7 2375.20 634.601   4
  -6  16  -7 2466.58 723.493   1
  10 -16  -7 1892.77 388.551   3
  -6  16  -7 1982.33 392.331   2
  10 -16  -7 1406.54 641.827   4
 -10  -6  -7 2298.47 654.303   4
  10 -16  -7 1996.98 885.371   2
   6  10  -7 1592.45 376.713   4
 -16   6  -7 4010.90 838.666   1
   6  10  -7 1988.48 431.303   1
 -16   6  -7 2136.37 543.138   2
 -16   6  -7 2272.01 498.286   4
 -10  -6  -7 1461.74 197.104   3
  16 -10  -7 1459.45 560.774   3
 -10  -6  -7 2198.17 772.699   2
  16 -10  -7 2011.07 455.097   1
   6  10  -7 4245.28 741.650   3
  -6  16  -7 1875.83 337.556   2
  -6  16  -4 52693.5 1769.05   1
  10 -16  -4 49545.5 1362.27   3
  10 -16  -4 50190.8 1950.32   4
  10 -16  -4 53154.2 2171.13   2
   6  10  -4 50052.6 1473.95   4
 -10  -6  -4 52033.3 1873.10   4
  -6  16  -4 50327.4 1121.87   2
 -16   6  -4 53399.2 1629.56   4
   6  10  -4 53277.4 1787.34   3
 -10  -6  -4 53867.6 2080.97   2
 -10  -6  -4 52348.4 1190.73   3
   6  10  -4 54037.0 1293.54   1
 -16   6  -4 55437.8 1960.33   1
 -16   6  -4 46287.7 1499.58   2
  16 -10  -4 50412.3 1321.13   1
  16 -10  -4 47871.9 1648.26   3
  16 -10  -1 40278.4 1466.56   3
 -10  -6  -1 44669.1 1377.73   1
 -16   6  -1 38193.2 1367.02   2
  16 -10  -1 42181.8 1433.01   2
  10 -16  -1 44687.9 1585.00   4
 -10  -6  -1 45346.0 1312.13   3
  -6  16  -1 41959.6 1371.36   4
   6  10  -1 42428.1 1264.69   1
  -6  16  -1 45696.8 1366.01   2
  10 -16  -1 43369.2 1500.05   2
   6  10  -1 40107.6 1416.40   4
 -10  -6  -1 45835.5 1589.35   4
  16 -10  -1 40905.1 1288.62   1
 -16   6  -1 45516.9 1396.00   1
  -6  16  -1 46899.5 1572.59   1
   6  10  -1 44622.9 1372.49   3
 -10  -6  -1 43467.9 1655.33   2
  -6  16   2 30491.7 1034.23   3
  16 -10   2 29696.1 1332.61   3
 -10  -6   2 30731.7 1411.73   2
  10 -16   2 32308.7 1138.57   4
 -10  -6   2 31430.4 812.712   1
  -6  16   2 27379.5 1327.13   1
 -10  -6   2 29866.7 1196.94   4
  10 -16   2 28233.0 664.772   2
   6  10   2 30330.9 897.394   3
  16 -10   2 30127.2 1089.28   2
 -16   6   2 29913.1 820.145   1
  10 -16   5 16091.3 523.086   4
  16 -10   5 16415.0 852.986   2
  16 -10   5 15371.3 869.386   4
  10 -16   5 15009.8 528.512   4
  -6  16   5 14318.1 518.375   3
  16  -9 -11 3541.16 832.576   3
  -7  16 -11 4783.20 984.435   1
  16  -9 -11 3122.10 1300.85   2
  -7  16 -11 3620.34 966.276   3
   9 -16 -11 379.723 1059.40   2
  -9  -7 -11 3455.61 838.173   4
 -16   7 -11 2384.63 1162.59   1
  -9  -7 -11 2893.46 1099.42   2
  16  -9 -11 3687.56 898.198   4
   7   9 -11 3425.20 877.148   3
   7   9 -11 2015.51 958.578   2
   9 -16 -11 1348.84 776.120   4
   7   9  -8 11123.0 769.291   1
   9 -16  -8 8102.72 496.510   3
   9 -16  -8 8385.20 1032.54   4
  -7  16  -8 8819.16 623.108   2
 -16   7  -8 8264.06 1153.18   1
   9 -16  -8 9972.27 1390.15   2
  -9  -7  -8 8416.85 1241.66   2
  16  -9  -8 7265.85 1269.98   2
  -9  -7  -8 10201.7 1034.10   4
  16  -9  -8 11689.5 1120.41   4
   7   9  -8 10419.5 1066.13   3
 -16   7  -8 8282.46 858.256   2
  -7  16  -8 11559.3 1094.57   1
 -16   7  -8 12722.3 858.507   4
  16  -9  -8 9611.05 942.294   3
  -7  16  -5 27436.5 1362.52   1
  16  -9  -5 23882.8 885.489   1
   9 -16  -5 23162.3 1429.80   4
   9 -16  -5 27570.2 957.630   3
   9 -16  -5 26051.6 1678.87   2
 -16   7  -5 27407.1 1541.76   1
   7   9  -5 23580.9 1044.84   4
  -9  -7  -5 25877.9 1374.78   4
  -7  16  -5 21931.8 623.183   2
 -16   7  -5 27014.2 1175.35   4
   7   9  -5 27153.0 888.229   1
  -9  -7  -5 27372.0 1606.15   2
  -9  -7  -5 23684.8 686.314   3
   7   9  -5 25730.7 1362.41   3
 -16   7  -5 24487.3 1098.08   2
  16  -9  -5 25560.0 1270.55   3
  16  -9  -2 41867.2 1499.76   3
  -7  16  -2 37829.7 1455.32   1
   9 -16  -2 40276.5 1569.28   4
  16  -9  -2 42587.1 1209.94   1
   9 -16  -2 39918.8 1610.22   2
   7   9  -2 42364.6 1431.92   4
   7   9  -2 41692.4 1127.79   1
  -9  -7  -2 40698.1 1473.48   1
  -9  -7  -2 46278.5 1636.22   4
 -16   7  -2 41513.1 1456.00   1
  -9  -7  -2 41832.4 1159.00   3
   7   9  -2 45731.7 1474.18   3
 -16   7  -2 38479.6 1280.29   2
  -9  -7  -2 40603.8 1710.50   2
  -7  16  -2 43999.0 1132.62   2
  -9  -7   1 23652.5 1224.57   2
  -7  16   1 20311.2 1143.07   1
  16  -9   1 24042.8 1177.16   3
  -7  16   1 22992.2 973.078   3
   9 -16   1 26001.4 885.273   2
  -7  16   1 23814.9 1227.33   2
   9 -16   1 23078.2 1022.53   4
  -9  -7   1 25403.7 1142.68   4
   7   9   1 25416.2 921.872   3
  -9  -7   1 26808.5 887.640   1
  16  -9   1 24503.7 1178.16   1
  16  -9   1 24959.1 1050.51   2
 -16   7   1 26328.9 889.449   1
   7   9   4 20845.4 633.366   3
  16  -9   4 18639.1 1110.57   3
  16  -9   4 17418.0 936.830   4
   9 -16   4 20055.0 721.520   4
  -9  -7   4 17327.1 606.335   1
  16  -9   4 20307.3 990.091   2
  -7  16   4 18237.9 1177.02   1
 -16   7   4 18983.6 656.895   1
  -7  16   4 19280.9 750.848   3
  16  -9   7 6373.61 744.454   2
  -8  -8  -9 2000.79 870.640   2
  -8  16  -9 686.874 602.376   1
  16  -8  -9 1220.99 646.670   4
  16  -8  -9 1050.76 832.253   2
   8   8  -9 709.343 397.839   1
 -16   8  -9 533.246 751.864   1
   8 -16  -9 1804.15 738.591   4
   8 -16  -9 1516.82 872.713   2
  -8  -8  -9 57.3788 542.492   4
   8   8  -9 2684.49 754.446   3
 -16   8  -9 1245.99 552.635   2
  16  -8  -9 944.208 593.489   3
   8   8  -6 17870.7 708.195   1
  16  -8  -6 14343.2 694.038   1
   8 -16  -6 15627.4 1444.36   2
 -16   8  -6 17520.5 1343.23   1
   8 -16  -6 14713.2 1237.15   4
  -8  -8  -6 18168.2 1267.48   4
   8   8  -6 16071.8 885.628   4
  -8  -8  -6 18763.0 1451.63   2
   8   8  -6 18221.0 1182.22   3
 -16   8  -6 16431.6 928.243   2
  -8  16  -6 19014.3 1265.60   1
  16  -8  -6 16439.0 1059.94   3
   8   8  -3 1246.09 385.004   4
  16  -8  -3 1118.77 488.250   3
 -16   8  -3 1801.28 394.726   2
  -8  16  -3 1551.61 199.064   2
   8   8  -3 1051.58 269.634   1
  -8  16  -3 1053.50 458.274   1
 -16   8  -3 1626.40 476.300   1
   8 -16  -3 1032.95 508.601   2
  -8  -8  -3 1736.55 531.445   4
  -8  -8  -3 1121.41 288.190   3
   8   8  -3 925.848 416.554   3
  16  -8  -3 1745.90 315.299   1
  -8  -8  -3 1377.60 627.440   2
   8 -16  -3 1211.48 465.424   4
  16  -8   0 61209.3 1673.18   2
  16  -8   0 60043.2 1773.38   3
  -8  16   0 60284.6 1657.69   3
  -8  -8   0 63394.5 1525.86   1
  16  -8   0 62781.0 1643.23   1
  -8  16   0 59707.9 1650.78   2
  -8  -8   0 60234.8 1767.70   4
  -8  -8   0 59873.4 1563.53   3
  -8  16   0 65981.9 1876.30   1
   8 -16   0 58337.3 1568.90   2
   8 -16   0 59613.4 1697.39   4
   8   8   0 56108.8 1461.87   3
 -16   8   0 59767.0 1470.97   1
  -8  -8   0 64582.0 1970.61   2
  -8  -8   3 1854.95 296.528   1
  -8  16   3 1503.61 534.695   1
  -8  16   3 1599.14 347.289   3
   8 -16   3 1435.00 320.997   4
  16  -8   3 1412.67 514.792   3
  -8  -8   3 1266.42 334.673   4
  16  -8   3 2257.75 462.373   2
 -16   8   3 1814.38 317.783   1
   8   8   3 1612.49 298.751   3
  -8  16   6 13379.9 555.712   3
  16  -8   6 14134.4 968.904   2
  16  -7 -10 7533.55 1026.31   4
   7 -16 -10 8094.65 1159.46   4
   7 -16 -10 8996.24 1508.20   2
 -16   9 -10 10079.0 1401.55   1
  -7  -9 -10 7601.43 995.919   4
  16  -7 -10 6769.75 1407.72   2
  -7  -9 -10 4567.40 1148.30   2
  -9  16 -10 7086.75 1129.86   1
   9   7 -10 8044.58 1045.91   3
  16  -7 -10 8482.99 983.220   3
 -16   9  -7 7052.16 672.490   2
  16  -7  -7 5020.74 447.986   1
   7 -16  -7 8472.43 1305.27   2
  -7  -9  -7 6033.01 1039.93   2
   7 -16  -7 9159.10 1038.57   4
   9   7  -7 6967.53 477.305   1
  16  -7  -7 6746.28 816.120   3
  -7  -9  -7 8945.80 945.858   4
   9   7  -7 8444.53 917.539   3
  -9  16  -7 8200.24 974.529   1
 -16   9  -7 8019.64 1076.42   1
  -9  16  -4 23821.8 1266.20   1
 -16   9  -4 21569.2 887.717   2
  -7  -9  -4 22766.6 1289.23   4
   7 -16  -4 22517.0 1365.77   4
   7 -16  -4 20456.5 1437.02   2
   9   7  -4 22333.1 1058.02   4
   9   7  -4 21646.3 633.191   1
  16  -7  -4 22892.7 703.958   1
  -7  -9  -4 23734.0 1475.40   2
   9   7  -4 24503.6 1251.71   3
  16  -7  -4 22559.4 1176.38   3
 -16   9  -4 23574.1 1322.41   1
  16  -7  -1 23868.1 1154.15   3
  16  -7  -1 22137.9 1113.49   2
  16  -7  -1 23937.5 939.291   1
  -9  16  -1 24390.6 908.146   2
   7 -16  -1 22814.8 1144.53   4
  -9  16  -1 23331.1 1173.57   1
  -7  -9  -1 22013.1 1020.63   1
  -7  -9  -1 24604.9 1176.68   4
   7 -16  -1 25068.0 1189.34   2
 -16   9  -1 22407.1 1028.31   1
   9   7  -1 25909.8 1096.39   3
  -7  -9  -1 23083.9 1254.21   2
  -7  -9  -1 22569.6 914.957   3
  -9  16   2 48232.3 1346.92   3
  16  -7   2 52836.3 1676.81   3
  -7  -9   2 51900.3 1256.52   1
  -9  16   2 46633.2 1667.90   1
  -9  16   2 47864.4 1799.92   2
   7 -16   2 46932.8 1319.22   4
  -7  -9   2 49287.8 1476.82   4
 -16   9   2 48377.7 1252.06   1
  16  -7   2 48464.9 1555.37   2
  -7  -9   2 44220.7 1634.67   2
   9   7   2 52569.7 1251.07   3
   7 -16   2 51044.6 1138.57   2
   9   7   5 25631.3 729.464   3
  16  -7   5 27465.8 1287.67   3
  -7  -9   5 25116.2 929.030   1
  -9  16   5 27582.6 1445.13   1
   7 -16   5 22900.4 551.953   4
  16  -7   5 22874.2 1206.83   2
  -9  16   5 23090.4 835.896   3
 -10  16 -11 3306.71 997.057   1
  16  -6 -11 1867.91 773.038   4
  16  -6 -11 3889.67 1284.99   2
   6 -16 -11 1987.68 892.868   4
   6 -16 -11 3147.71 1234.93   2
 -16  10 -11 2600.24 1035.66   1
  -6 -10 -11 2626.34 1084.76   2
  10   6 -11 3686.45 875.120   3
  -6 -10 -11 2074.12 858.893   4
  16  -6 -11 2147.62 777.606   3
  16  -6  -8 34581.8 1629.36   3
  10   6  -8 27589.0 851.355   1
  16  -6  -8 30904.3 1130.13   1
   6 -16  -8 35481.8 1931.34   4
 -10  16  -8 33830.9 1806.77   1
   6 -16  -8 27019.2 2086.65   2
  -6 -10  -8 33628.1 1761.55   4
 -16  10  -8 41513.4 2172.88   1
  -6 -10  -8 35637.9 2161.19   2
  10   6  -8 33644.6 1739.17   3
 -16  10  -8 30989.4 1267.29   2
 -16  10  -5 17317.8 779.026   2
   6 -16  -5 14693.6 1151.05   4
  -6 -10  -5 18045.9 1242.36   4
   6 -16  -5 14599.4 1304.46   2
  16  -6  -5 12353.0 450.820   1
 -16  10  -5 16019.5 1196.31   1
  10   6  -5 12719.2 384.032   1
  -6 -10  -5 17374.6 1348.87   2
  10   6  -5 16105.5 1078.10   3
 -10  16  -5 15964.0 1162.16   1
  16  -6  -5 15858.5 1038.16   3
 -10  16  -2 37168.7 1470.75   1
  16  -6  -2 38466.7 1000.28   1
   6 -16  -2 35817.2 1489.58   4
  -6 -10  -2 37363.3 1510.54   4
   6 -16  -2 34443.6 1572.65   2
 -16  10  -2 36873.6 1407.05   1
  -6 -10  -2 34965.4 1575.28   2
  10   6  -2 35239.6 1342.49   3
  16  -6  -2 36383.8 1403.42   3
  -6 -10   1 40541.9 1210.39   1
  16  -6   1 38974.2 1425.48   3
 -16  10   1 38138.9 1200.26   1
   6 -16   1 40224.2 1331.71   4
  -6 -10   1 41081.5 1400.82   4
 -10  16   1 38717.5 1299.60   3
   6 -16   1 39592.4 1210.47   2
 -10  16   1 38531.2 1462.18   1
  10   6   1 39011.8 1180.76   3
  16  -6   1 38699.7 1426.64   2
  -6 -10   1 41549.2 1547.56   2
  10   6   4 56724.1 1277.55   3
 -10  16   4 52039.6 1850.21   1
  16  -6   4 57352.5 1794.49   3
   6 -16   4 55875.5 1146.39   4
  -6 -10   4 55080.2 1374.09   1
  16  -6   4 55587.0 1856.82   2
  -6 -10   4 55312.1 1456.49   4
 -16  10   4 56600.0 1419.29   1
 -10  16   4 53447.2 1384.40   3
 -10  16   7 1495.58 336.345   3
  16  -5  -9 3834.16 797.965   4
   5 -16  -9 6767.63 1041.87   4
   5 -16  -9 4316.36 1131.93   2
  -5 -11  -9 4971.15 1108.73   2
 -16  11  -9 3947.67 932.628   1
 -11  16  -9 5631.50 962.683   1
  11   5  -9 5779.97 881.075   3
 -16  11  -9 4006.75 593.370   2
  -5 -11  -9 4692.61 888.091   4
  16  -5  -9 4687.44 773.153   3
 -11  16  -6 649.782 505.127   1
 -16  11  -6 1187.30 301.346   2
  16  -5  -6 350.857 117.260   1
   5 -16  -6 454.358 600.934   4
   5 -16  -6 710.885 716.389   2
  16  -5  -6 1173.35 535.130   3
  -5 -11  -6 132.409 588.169   2
 -16  11  -6 782.489 628.763   1
  11   5  -6 1670.84 634.058   3
  -5 -11  -6 992.873 538.159   4
  16  -5  -6 361.157 105.789   1
 -11  16  -3 4645.53 707.866   1
  16  -5  -3 4603.72 631.807   3
   5 -16  -3 4568.98 665.831   4
  -5 -11  -3 4549.30 641.299   4
   5 -16  -3 5043.08 775.561   2
 -16  11  -3 5557.81 701.736   1
  -5 -11  -3 4279.55 758.002   2
  11   5  -3 5338.68 642.530   3
  16  -5   0 10474.9 796.503   3
 -16  11   0 11674.5 750.431   1
   5 -16   0 10430.5 781.709   4
  -5 -11   0 11922.0 827.973   4
 -11  16   0 11507.7 851.866   1
   5 -16   0 13417.7 831.849   2
  -5 -11   0 11208.2 731.162   1
  11   5   0 11449.8 734.775   3
  -5 -11   0 11042.7 884.051   2
  16  -5   0 10060.4 815.809   2
   5 -16   3 2584.96 350.978   2
 -11  16   3 2868.40 593.423   1
  -5 -11   3 4336.22 627.839   2
  16  -5   3 3152.70 541.145   3
   5 -16   3 3590.86 415.957   4
  -5 -11   3 3481.01 450.373   4
  16  -5   3 2504.96 552.125   2
 -16  11   3 2395.50 406.132   1
  -5 -11   3 3550.30 471.949   1
 -11  16   3 3135.63 443.482   3
  11   5   3 3363.00 418.224   3
  -5 -11   6 8598.37 737.529   1
 -11  16   6 8019.42 582.211   3
  -4 -12 -10 2019.48 797.635   4
   4 -16 -10 1938.18 760.748   4
  16  -4 -10 2412.37 727.768   4
   4 -16 -10 4943.54 1272.38   2
  -4 -12 -10 3444.77 1150.39   2
 -16  12 -10 1786.22 901.462   1
  12   4 -10 3682.13 861.707   3
  16  -4 -10 2619.07 735.341   3
 -12  16 -10 2357.77 928.499   1
   4 -16  -7 16050.6 1589.71   2
 -16  12  -7 20255.5 1489.31   1
  -4 -12  -7 20814.9 1667.03   2
 -12  16  -7 19279.9 1378.86   1
   4 -16  -7 19182.8 1429.98   4
  12   4  -7 18129.3 1277.51   3
  -4 -12  -7 17734.8 1315.10   4
  16  -4  -7 17499.0 1216.01   3
 -16  12  -7 17355.8 740.491   2
   4 -16  -4 9811.43 928.494   4
  -4 -12  -4 10161.0 940.689   4
   4 -16  -4 9007.74 1047.90   2
  16  -4  -4 11113.3 912.137   3
  -4 -12  -4 9291.31 998.001   2
 -16  12  -4 11177.2 1008.69   1
  12   4  -4 10267.5 879.652   3
 -12  16  -4 11740.3 991.254   1
  -4 -12  -1 50143.6 1816.41   2
 -12  16  -1 44593.8 1605.55   1
   4 -16  -1 46519.2 1629.49   4
   4 -16  -1 51449.8 1732.50   2
  -4 -12  -1 46401.0 1605.96   4
  12   4  -1 49429.1 1536.91   3
 -16  12  -1 47815.0 1556.02   1
  16  -4  -1 46380.3 1600.22   3
 -12  16   2 22916.3 1028.83   3
  -4 -12   2 26795.0 1246.69   2
  16  -4   2 26707.9 1191.29   3
  -4 -12   2 27363.1 1085.24   1
   4 -16   2 25705.4 1032.64   4
  -4 -12   2 25141.9 1050.66   4
 -16  12   2 23230.1 1027.66   1
  16  -4   2 23128.8 1244.83   2
 -12  16   2 27744.7 1298.54   1
   4 -16   2 25975.3 1027.44   2
  12   4   2 25319.9 996.832   3
  12   4   5 28142.6 1002.75   3
  16  -4   5 24644.3 1202.29   3
  -4 -12   5 24964.9 1099.29   1
   4 -16   5 24980.0 653.250   4
  -4 -12   5 28751.4 989.060   4
 -12  16   5 23003.8 1300.94   1
 -12  16   5 25076.2 1030.60   3
 -16  12   5 25902.3 1134.37   1
   3 -16 -11 1194.84 868.510   4
  16  -3 -11 1133.93 796.904   3
  16  -3 -11 486.931 678.425   4
  16  -3 -11 1816.27 1084.99   2
  -3 -13 -11 54.7992 690.601   4
   3 -16 -11-191.332 1035.51   2
  -3 -13 -11 631.657 979.734   2
 -16  13 -11 916.152 849.624   1
  13   3 -11-291.463 757.638   3
 -13  16 -11 2034.76 899.581   1
  -3 -13  -8 57325.6 2357.13   4
   3 -16  -8 55191.0 2355.77   4
 -13  16  -8 58672.8 2426.54   1
  13   3  -8 54168.2 2150.33   3
   3 -16  -8 54581.9 2809.11   2
  -3 -13  -8 55761.2 2750.47   2
 -16  13  -8 58283.3 2534.68   1
  16  -3  -8 53684.4 2070.62   3
   3 -16  -5 7477.87 900.919   4
   3 -16  -5 8446.03 1119.17   2
  -3 -13  -5 6227.71 849.961   4
  -3 -13  -5 6086.94 958.756   2
 -16  13  -5 5837.19 840.880   1
  13   3  -5 5281.13 732.595   3
 -13  16  -5 6977.53 902.602   1
  16  -3  -5 6075.48 794.698   3
  -3 -13  -2 120802. 2963.83   2
 -13  16  -2 123265. 2667.11   1
  -3 -13  -2 126151. 2768.11   4
   3 -16  -2 120907. 2705.58   4
   3 -16  -2 123583. 2904.26   2
  13   3  -2 118508. 2453.60   3
 -16  13  -2 119325. 2577.64   1
  16  -3  -2 115316. 2487.97   3
  16  -3   1 8932.93 793.795   3
 -16  13   1 9397.60 725.304   1
  -3 -13   1 9753.00 713.036   1
  -3 -13   1 8747.67 725.288   4
 -13  16   1 10864.1 850.799   1
   3 -16   1 9281.46 721.483   2
   3 -16   1 9729.33 737.651   4
  13   3   1 10840.7 727.136   3
  -3 -13   1 10531.6 836.623   2
  13   3   4 113843. 2107.76   3
  16  -3   4 112514. 2429.75   3
  -3 -13   4 107833. 2261.35   1
   3 -16   4 109535. 1741.90   4
  -3 -13   4 112979. 1973.34   4
 -16  13   4 112873. 2316.73   1
 -13  16   4 109211. 2588.06   1
   2 -16  -9 6418.99 1115.59   4
  -2 -14  -9 5972.97 947.723   4
 -16  14  -9 6439.95 1129.80   1
  -2 -14  -9 5903.98 1226.82   2
  14   2  -9 6920.79 937.062   3
  16  -2  -9 7005.91 1001.79   3
   2 -16  -9 4956.09 1241.57   2
 -14  16  -9 4624.24 994.647   1
   2 -16  -6 5813.56 842.132   4
  -2 -14  -6 6974.31 954.914   4
   2 -16  -6 6770.99 1062.16   2
  -2 -14  -6 4669.37 977.853   2
 -16  14  -6 7405.51 932.459   1
 -14  16  -6 5977.82 862.325   1
  14   2  -6 5573.07 820.406   3
  16  -2  -6 5733.04 776.092   3
   2 -16  -3 47486.9 2008.30   2
   2 -16  -3 49956.9 1872.82   4
  -2 -14  -3 47048.1 1834.49   4
  -2 -14  -3 46608.5 2000.70   2
 -16  14  -3 47695.3 1770.66   1
  14   2  -3 46569.6 1663.15   3
  16  -2  -3 43289.1 1624.50   3
 -14  16  -3 48900.5 1823.31   1
 -16  14   0 3801.30 577.669   1
 -14  16   0 3979.63 604.200   1
   2 -16   0 5138.87 637.527   4
  -2 -14   0 3864.95 555.366   4
   2 -16   0 4269.36 607.866   2
  -2 -14   0 4410.50 638.268   2
  14   2   0 4643.12 576.007   3
  16  -2   0 5888.77 636.809   3
  14   2   3 29642.7 1161.21   3
  16  -2   3 29370.7 1258.79   3
 -14  16   3 29133.9 1344.61   1
   2 -16   3 28908.4 1150.87   2
 -16  14   3 28765.7 1228.26   1
  -2 -14   3 32139.3 1357.12   2
   2 -16   3 29498.4 1059.45   4
  -2 -14   3 28753.8 1083.55   4
  -2 -14   3 28449.3 1212.89   1
  14   2   6 9265.19 691.871   3
  -1 -15 -10 2484.74 832.098   4
  16  -1 -10 2239.87 679.651   4
   1 -16 -10 2461.67 884.316   4
   1 -16 -10 1433.51 975.249   2
  -1 -15 -10 4468.86 1249.44   2
 -16  15 -10 2889.20 864.505   1
  15   1 -10 2091.06 658.398   4
  15   1 -10 3989.68 877.500   3
 -15  16 -10 896.830 802.835   1
  16  -1 -10 1983.58 726.330   3
  16  -1  -7 2927.91 671.407   3
   1 -16  -7 4337.29 822.219   4
   1 -16  -7 2887.53 907.055   2
  -1 -15  -7 3431.78 792.540   4
  -1 -15  -7 1873.68 803.113   2
 -16  15  -7 4190.39 789.988   1
  15   1  -7 3019.30 715.906   3
 -15  16  -7 3852.39 874.606   1
 -16  15  -4 2570.32 677.742   1
  -1 -15  -4 2458.90 625.262   4
   1 -16  -4 1718.43 565.350   4
  -1 -15  -4 1015.35 605.006   2
 -15  16  -4 3728.12 701.651   1
  15   1  -4 1765.72 592.755   3
   1 -16  -4 1931.42 702.115   2
  16  -1  -4 2725.36 589.155   3
  15   1  -1 15296.1 949.334   3
 -16  15  -1 16581.8 1018.11   1
 -15  16  -1 14380.3 997.384   1
  -1 -15  -1 14158.3 992.856   4
   1 -16  -1 13603.5 1001.20   2
  -1 -15  -1 14828.0 1091.20   2
   1 -16  -1 13430.6 1007.50   4
  16  -1  -1 14774.5 970.721   3
  16  -1   2 2733.79 502.928   3
 -16  15   2 2113.48 484.494   1
   1 -16   2 2395.65 476.306   2
 -15  16   2 2622.42 555.385   1
   1 -16   2 2148.65 442.334   4
  -1 -15   2 3285.48 481.622   4
  15   1   2 2965.23 486.191   3
  -1 -15   2 3551.14 568.670   2
  15   1   5 9789.59 750.621   3
  16  -1   5 7547.08 736.597   3
 -16  15   5 9609.28 848.887   1
 -15  16   5 7807.08 842.390   1
   1 -16   5 9218.91 521.202   4
  -1 -15   5 9634.33 573.217   4
   0 -16 -11-398.491 801.080   4
   0 -16 -11 460.761 1077.57   2
  16   0 -11 370.068 780.866   3
 -16  16 -11 1998.41 980.691   1
   0 -16  -8 63447.9 2563.43   4
   0 -16  -8 58121.5 2955.39   2
 -16  16  -8 65914.9 2658.27   1
  16   0  -8 57512.0 2246.75   3
 -16  16  -5 1006.41 592.340   1
   0 -16  -5 682.771 571.232   4
   0 -16  -5 198.378 691.700   2
  16   0  -5 207.412 562.110   3
   0 -16  -2 173400. 3585.92   2
 -16  16  -2 162282. 3186.17   1
   0 -16  -2 169663. 3313.62   4
  16   0  -2 166645. 3076.70   3
   0 -16   1-151.554 434.464   2
  16   0   1 306.219 359.049   3
   0 -16   1-14.0140 391.394   4
 -16  16   1 730.607 447.023   1
   0 -16   4 91606.7 1794.19   4
 -16  16   4 89291.6 2333.91   1
  17 -17  -8 13234.4 1069.91   3
   0  17  -8 13461.2 1142.33   1
 -17   0  -8 9332.69 1423.89   1
  17 -17  -8 12518.6 1605.82   2
 -17   0  -8 13042.2 1111.55   4
   0  17  -8 14724.3 1322.72   3
 -17   0  -8 14772.4 1370.00   2
  17 -17  -8 14996.0 1394.14   4
 -17   0  -5-1444.39 598.374   2
  17 -17  -5 552.852 445.666   3
  17 -17  -5-513.170 553.026   4
  17 -17  -5-821.996 798.573   2
   0  17  -5 529.708 501.181   3
 -17   0  -5 309.796 480.317   4
   0  17  -5 622.689 493.209   1
   0  17  -5 136.090 337.639   4
 -17   0  -2 23184.7 1331.12   2
   0  17  -2 23514.7 1228.66   1
  17 -17  -2 24042.5 1272.32   3
 -17   0  -2 24262.6 1262.13   1
  17 -17  -2 23064.9 1420.96   2
 -17   0  -2 24833.7 1316.68   4
   0  17  -2 24818.8 1243.50   3
  17 -17  -2 24321.9 1428.68   4
   0  17   1 103.941 466.807   1
   0  17   1 416.452 312.445   3
  17 -17   1-133.315 238.666   2
  17 -17   1 744.192 505.200   3
 -17   0   1 760.039 275.661   1
  17 -17   1 505.243 359.034   2
   0  17   4 1130.83 229.386   3
  17 -17   4 987.201 362.213   4
   0  17   4 1043.47 197.731   3
  17 -17   7 38.9722 246.740   4
  17 -16  -9 2468.61 1081.02   2
  17 -16  -9 2684.15 858.751   4
  17 -16  -9 2668.88 677.035   3
  16 -17  -9 3213.97 687.263   3
 -17   1  -9 3769.30 1094.07   1
 -17   1  -9 4900.42 802.382   4
  -1  17  -9 2549.27 840.990   3
  -1  17  -9 4079.82 838.802   1
  16 -17  -9 3143.47 1191.26   2
 -16  -1  -9 2775.41 715.283   4
 -16  -1  -9 4621.93 1093.81   1
  16 -17  -9 3383.42 916.423   4
   1  16  -9 2262.02 720.147   1
   1  16  -9 4276.18 895.216   3
 -17   1  -9 1845.16 752.038   2
 -16  -1  -9 2601.27 866.376   2
  16 -17  -6 4933.66 1069.19   2
  -1  17  -6 4580.80 712.535   1
  17 -16  -6 3600.75 666.880   3
  16 -17  -6 4190.55 654.463   3
  -1  17  -6 3970.16 383.960   4
   1  16  -6 3281.86 420.299   4
  16 -17  -6 3716.37 840.144   4
  17 -16  -6 3619.50 990.738   2
   1  16  -6 4742.78 674.998   1
 -17   1  -6 4149.56 665.947   4
 -16  -1  -6 4245.90 713.220   4
  -1  17  -6 3371.60 730.671   3
   1  16  -6 4145.96 788.221   3
 -17   1  -6 2738.24 845.596   1
  17 -16  -6 2676.26 727.131   4
 -16  -1  -6 3545.85 742.597   2
 -17   1  -6 3186.28 756.334   2
 -16  -1  -3 19510.5 1198.68   4
  17 -16  -3 17451.1 1109.34   3
  16 -17  -3 18029.2 1070.64   3
  16 -17  -3 18818.7 1287.46   4
  17 -16  -3 19903.4 1461.04   2
 -17   1  -3 18552.3 1228.91   1
  -1  17  -3 17683.8 974.293   4
   1  16  -3 17581.1 992.734   4
  16 -17  -3 17485.0 1324.90   2
 -17   1  -3 19580.2 1154.40   4
  -1  17  -3 15052.6 1027.55   2
   1  16  -3 20666.9 1199.56   3
  -1  17  -3 17817.5 1069.14   1
   1  16  -3 17707.0 1023.09   1
 -16  -1  -3 17799.9 1218.05   2
 -17   1  -3 17228.7 1173.45   2
 -16  -1   0 15918.2 817.880   1
  16 -17   0 16602.5 964.434   2
 -16  -1   0 15813.5 1112.11   2
 -17   1   0 15280.3 1112.02   2
  17 -16   0 16585.3 1077.18   3
  16 -17   0 15571.0 1066.38   3
   1  16   0 15477.7 851.763   3
 -17   1   0 16580.9 806.053   1
  -1  17   0 16486.4 1077.54   1
 -16  -1   0 18039.2 1115.46   4
 -17   1   0 11738.6 919.015   4
   1  16   0 15364.4 1019.72   1
  -1  17   3 4184.47 411.524   3
  -1  17   3 4595.86 757.517   1
  17 -16   3 3014.28 217.627   2
  -1  17   3 3720.72 365.670   3
   1  16   3 5204.67 412.806   3
  17 -16   6 11238.9 711.643   4
  16 -17   6 10904.0 646.100   4
  17 -15 -10 10272.6 1075.67   3
  -2  17 -10 12537.7 1238.36   1
  17 -15 -10 13451.9 1911.27   2
   2  15 -10 12578.2 1186.19   1
 -15  -2 -10 14073.0 1239.49   4
 -17   2 -10 11736.4 1362.43   2
 -15  -2 -10 10235.3 1516.14   1
 -17   2 -10 15327.6 1772.94   1
  15 -17 -10 11065.2 1364.36   4
  15 -17 -10 7354.47 1538.42   2
  -2  17 -10 13031.9 1395.48   3
 -17   2 -10 13171.1 1114.05   4
   2  15 -10 12995.8 1378.24   3
 -15  -2 -10 12402.4 1475.25   2
  17 -15 -10 12661.9 1438.82   4
  17 -15  -7 48098.0 1850.26   3
 -17   2  -7 52393.0 2128.04   2
 -17   2  -7 56064.3 2529.65   1
  15 -17  -7 51932.5 1747.78   3
   2  15  -7 55998.7 2210.95   3
  15 -17  -7 51783.1 2732.16   2
  -2  17  -7 53567.2 1994.05   1
   2  15  -7 54717.3 1839.64   1
  17 -15  -7 51535.8 2294.25   4
  17 -15  -7 55479.1 2810.96   2
  15 -17  -7 51151.7 2273.31   4
 -15  -2  -7 51887.6 2046.57   4
 -17   2  -7 49181.3 1899.47   4
  -2  17  -7 57586.3 2323.93   3
 -15  -2  -7 48073.4 2240.51   2
  -2  17  -4 14175.9 775.627   4
  17 -15  -4 14153.8 1008.84   3
  15 -17  -4 14442.3 953.824   3
   2  15  -4 15306.7 1097.87   3
  15 -17  -4 12340.0 1148.20   4
  17 -15  -4 16574.2 1404.46   2
 -17   2  -4 14850.4 1095.22   2
  17 -15  -4 19344.3 1326.19   4
 -17   2  -4 16005.5 1222.95   1
  15 -17  -4 13920.1 1269.03   2
   2  15  -4 15485.6 888.362   4
   2  15  -4 16088.7 957.040   1
 -15  -2  -4 14508.7 1075.51   4
 -17   2  -4 14855.3 1036.51   4
  -2  17  -4 14324.7 982.751   1
  -2  17  -4 13965.3 913.865   2
 -15  -2  -4 12865.8 833.544   3
 -15  -2  -4 14851.8 1158.37   2
 -15  -2  -1 27033.4 1431.08   2
  -2  17  -1 28369.1 1314.68   1
 -17   2  -1 24317.3 1289.53   2
  17 -15  -1 27124.2 1310.96   3
  15 -17  -1 24645.0 1240.71   3
 -15  -2  -1 27784.0 1325.71   4
  15 -17  -1 28643.1 1434.19   4
 -17   2  -1 27381.8 1135.31   1
   2  15  -1 28218.4 1242.61   1
  -2  17  -1 27540.9 1357.42   2
 -17   2  -1 29384.5 1376.35   4
   2  15  -1 28482.5 1187.03   3
  15 -17  -1 28872.9 1343.99   2
  15 -17   2 49440.6 834.137   2
  -2  17   2 54523.0 1954.50   1
  17 -15   2 50927.1 1860.83   3
 -15  -2   2 44176.8 741.108   1
   2  15   2 53263.9 1884.91   1
  15 -17   2 47378.2 924.694   2
   2  15   2 57127.8 1308.53   3
 -15  -2   2 47463.2 781.578   1
  17 -15   2 57867.1 1238.45   2
 -17   2   2 46512.0 764.604   1
  15 -17   5 33420.5 1102.84   4
  15 -17   5 32069.2 1038.27   4
  -3  17 -11 10.5032 758.632   1
 -14  -3 -11 352.437 916.738   1
  14 -17 -11 438.377 832.201   4
  17 -14 -11-768.701 1073.55   2
 -17   3 -11 747.363 905.576   1
  14 -17 -11-1844.83 1218.76   2
 -14  -3 -11-87.8606 637.517   4
  -3  17 -11-1142.23 867.507   3
   3  14 -11 1597.63 871.835   3
 -14  -3 -11 833.826 873.857   2
 -17   3 -11-348.541 711.552   2
  17 -14 -11 744.344 783.283   4
  17 -14  -8 5611.96 797.757   3
  -3  17  -8 7372.18 928.731   1
  14 -17  -8 7723.15 782.524   3
 -17   3  -8 8554.56 1195.63   1
   3  14  -8 7567.57 836.039   1
  17 -14  -8 6012.77 1066.17   4
  14 -17  -8 6922.97 1068.34   4
  14 -17  -8 8873.57 1432.28   2
  17 -14  -8 6904.45 1285.87   2
 -14  -3  -8 6893.59 908.479   4
 -17   3  -8 8275.27 849.192   4
  -3  17  -8 9294.06 1133.31   3
 -14  -3  -8 7950.84 1124.45   2
 -17   3  -8 7388.30 932.212   2
   3  14  -8 8033.79 1036.89   3
 -17   3  -5 2539.99 604.919   2
  14 -17  -5 2471.45 706.774   4
  17 -14  -5 2635.02 614.255   3
  14 -17  -5 2332.50 544.729   3
 -14  -3  -5 2594.28 674.213   2
  -3  17  -5 2016.47 339.141   4
  17 -14  -5 1751.81 603.285   4
  17 -14  -5 1673.60 900.087   2
   3  14  -5 2748.25 444.880   4
  14 -17  -5 2535.14 880.983   2
 -17   3  -5 1207.34 646.874   1
 -14  -3  -5 2142.53 579.504   4
  -3  17  -5 2504.24 623.104   1
 -17   3  -5 1601.41 556.161   4
   3  14  -5 1303.65 399.868   1
   3  14  -5 2179.96 635.423   3
  -3  17  -5 2169.54 465.503   2
 -14  -3  -5 1798.67 415.469   3
 -14  -3  -2 3382.96 659.779   2
   3  14  -2 2219.25 461.235   1
  17 -14  -2 2067.38 537.018   3
 -17   3  -2 2294.71 544.673   2
  -3  17  -2 3120.86 586.091   1
  14 -17  -2 1726.98 478.192   3
  14 -17  -2 2228.48 583.513   4
  -3  17  -2 1928.58 433.267   4
 -17   3  -2 3700.81 610.999   1
  14 -17  -2 3162.54 634.774   2
  -3  17  -2 3312.93 561.582   2
 -14  -3  -2 2080.51 515.450   4
 -17   3  -2 3464.53 567.011   4
   3  14  -2 3051.96 525.991   3
  17 -14   1 18642.8 822.805   2
  14 -17   1 20072.7 813.946   2
 -14  -3   1 20422.4 1225.72   2
  17 -14   1 20242.0 1185.62   3
 -14  -3   1 21129.1 1140.59   4
  14 -17   1 20160.7 1073.15   4
 -14  -3   1 24000.8 793.143   1
  -3  17   1 22332.3 1211.72   1
 -17   3   1 20041.4 713.281   1
   3  14   1 21168.7 877.901   3
   3  14   1 20107.6 1149.84   1
  -3  17   4 24142.9 714.553   3
  14 -17   4 23674.2 971.089   4
  17 -14   4 16993.5 577.124   2
  17 -14   4 20087.6 959.125   4
  -3  17   4 19004.3 1294.48   1
   3  14   4 22698.2 543.833   3
 -17   4  -9 5816.39 1158.85   1
  17 -13  -9 4869.89 939.539   4
   4  13  -9 3852.29 657.168   1
  13 -17  -9 4814.96 911.822   4
 -17   4  -9 5001.03 728.735   4
 -13  -4  -9 6320.16 890.797   4
  13 -17  -9 6783.60 1408.34   2
  17 -13  -9 4569.86 793.271   3
  -4  17  -9 6156.63 1053.69   3
   4  13  -9 3339.88 901.493   3
 -13  -4  -9 6318.76 1111.14   2
  17 -13  -9 5313.23 1203.90   2
  -4  17  -9 6526.28 965.027   1
 -17   4  -9 4513.21 849.157   2
  17 -13  -6 3511.12 643.690   3
  13 -17  -6 4160.99 565.021   3
  -4  17  -6 4023.63 701.989   1
  17 -13  -6 2334.34 869.364   2
 -17   4  -6 3893.45 628.432   4
  17 -13  -6 3405.07 714.942   4
 -17   4  -6 4287.68 883.458   1
  13 -17  -6 4437.18 806.347   4
   4  13  -6 3492.54 449.641   4
   4  13  -6 5029.10 612.522   1
 -13  -4  -6 2949.76 681.145   4
   4  13  -6 4351.09 725.324   3
  -4  17  -6 3088.23 483.207   2
 -13  -4  -6 3108.52 433.515   3
 -17   4  -6 4674.85 726.544   2
  13 -17  -6 4353.97 978.710   2
 -13  -4  -6 2614.02 811.146   2
 -17   4  -3 15008.0 982.409   2
   4  13  -3 14747.5 822.424   1
  17 -13  -3 14291.0 960.360   3
 -17   4  -3 14676.7 975.496   4
  13 -17  -3 13182.6 859.192   3
  -4  17  -3 14480.2 792.581   4
  13 -17  -3 14712.3 1163.44   2
 -17   4  -3 15554.5 1084.14   1
   4  13  -3 13590.7 858.000   4
  -4  17  -3 15390.6 1012.60   1
 -13  -4  -3 14371.7 1011.80   4
  -4  17  -3 13895.6 836.166   2
   4  13  -3 12455.6 925.729   3
 -13  -4  -3 15128.2 1132.10   2
 -13  -4  -3 15059.3 819.375   3
  13 -17  -3 14779.4 1162.60   4
  17 -13  -3 13386.4 842.093   1
  -4  17   0 7173.63 768.100   2
 -13  -4   0 6151.39 805.503   2
  17 -13   0 6423.01 733.313   3
  -4  17   0 6456.19 757.886   1
  17 -13   0 5898.90 579.289   2
  13 -17   0 7736.85 748.521   4
 -13  -4   0 6325.72 534.886   1
  13 -17   0 6199.53 595.005   2
   4  13   0 6350.88 692.889   1
 -17   4   0 7621.41 581.939   1
 -13  -4   0 5893.73 722.138   4
   4  13   0 6451.75 583.463   3
  -4  17   3 20088.7 782.184   3
  17 -13   3 23147.1 1284.08   3
  13 -17   3 22590.8 986.083   4
  -4  17   3 22840.1 1339.00   1
  17 -13   3 21434.1 842.853   2
   4  13   3 21453.8 685.526   3
  17 -13   6 908.945 271.551   2
  13 -17   6 1047.65 197.105   4
  17 -13   6 1168.82 378.219   4
  13 -17   6 982.364 200.472   4
  17 -12 -10 1814.35 698.634   3
  17 -12 -10 4231.33 1261.53   2
  -5  17 -10 2866.51 822.946   1
  17 -12 -10 3288.48 894.623   4
  12 -17 -10 2016.51 848.294   4
  12 -17 -10 1646.12 1077.84   2
 -17   5 -10 3815.61 1092.60   1
 -12  -5 -10 1987.63 713.564   4
 -17   5 -10 1992.60 568.523   4
  -5  17 -10 2493.36 856.691   3
   5  12 -10 2425.87 854.819   3
 -12  -5 -10 1740.54 925.601   2
 -17   5 -10 2032.88 824.530   2
  -5  17  -7 37315.3 1720.90   1
   5  12  -7 36559.6 1339.18   1
  12 -17  -7 30444.5 2137.90   2
 -12  -5  -7 33873.4 1951.96   2
  12 -17  -7 31583.5 1191.18   3
  17 -12  -7 36212.7 2294.17   2
 -17   5  -7 34201.7 1945.81   1
  12 -17  -7 36560.4 1902.34   4
 -17   5  -7 34839.2 1470.62   4
 -12  -5  -7 33767.5 1672.83   4
  17 -12  -7 33004.6 1785.99   4
   5  12  -7 32240.7 1707.88   3
 -17   5  -7 33018.0 1593.33   2
  17 -12  -7 32523.2 1549.35   3
  17 -12  -4 5506.95 698.677   3
  12 -17  -4 6112.03 832.832   4
  12 -17  -4 7495.78 647.639   3
  -5  17  -4 6186.03 710.578   1
  12 -17  -4 6375.51 893.876   2
   5  12  -4 6226.71 622.065   4
 -17   5  -4 7447.14 919.327   1
 -12  -5  -4 6834.49 833.121   4
  -5  17  -4 7459.12 575.984   2
 -17   5  -4 6588.78 704.142   4
   5  12  -4 8128.44 823.038   3
 -12  -5  -4 7375.33 567.233   3
 -12  -5  -4 7843.96 950.806   2
   5  12  -4 7226.44 593.051   1
 -17   5  -4 7341.43 762.697   2
  17 -12  -4 7516.46 654.975   1
   5  12  -1 35632.2 1258.74   1
  17 -12  -1 32049.4 1418.36   3
 -17   5  -1 40454.8 1491.82   2
  -5  17  -1 35408.0 1348.31   4
  12 -17  -1 38151.4 1580.70   4
  12 -17  -1 37802.5 1454.47   2
  -5  17  -1 39666.3 1412.18   2
 -17   5  -1 38205.4 1313.74   1
 -12  -5  -1 41776.3 1589.72   4
  17 -12  -1 34971.0 1302.52   1
   5  12  -1 38126.5 1335.28   3
  -5  17  -1 38297.0 1503.05   1
 -12  -5  -1 37193.7 1291.90   3
 -12  -5  -1 39902.4 1339.28   1
 -12  -5  -1 38013.6 1644.87   2
  -5  17   2 13122.5 719.858   3
  17 -12   2 14521.0 1017.32   3
 -12  -5   2 14009.9 1055.72   2
 -17   5   2 13580.1 545.155   1
 -12  -5   2 14603.9 538.250   1
 -12  -5   2 13526.6 896.606   4
  12 -17   2 14369.2 845.822   4
  12 -17   2 12287.7 421.702   2
  -5  17   2 13677.5 1041.32   1
   5  12   2 14006.3 652.185   3
  17 -12   2 15122.0 785.389   2
  12 -17   5 56885.4 1179.82   4
  17 -12   5 50632.3 1275.19   2
  17 -12   5 49578.0 1515.63   4
  12 -17   5 54227.6 1097.57   4
  -5  17   5 46164.3 809.730   3
  17 -11 -11 3691.90 880.437   3
  -6  17 -11 4391.23 1017.40   1
  17 -11 -11 4575.05 1365.29   2
  17 -11 -11 4210.26 970.383   4
 -17   6 -11 5441.29 1216.92   1
  11 -17 -11 2086.42 871.576   4
  11 -17 -11 3427.90 1363.48   2
 -11  -6 -11 5227.38 952.124   4
 -11  -6 -11 4345.22 1174.69   2
   6  11 -11 3962.23 976.085   3
  -6  17 -11 5102.66 1051.80   3
  -6  17  -8 3160.13 503.614   2
  -6  17  -8 2863.30 735.824   1
  11 -17  -8 1892.46 424.784   3
   6  11  -8 2732.13 553.305   1
  17 -11  -8 3952.45 853.242   4
 -17   6  -8 3114.80 672.937   2
  11 -17  -8 1942.71 714.916   4
  17 -11  -8 2617.08 1018.79   2
  11 -17  -8 2643.79 1049.37   2
 -17   6  -8 2752.18 940.705   1
 -11  -6  -8 2170.60 687.878   4
 -17   6  -8 2502.92 543.325   4
   6  11  -8 1062.11 618.269   3
 -11  -6  -8 1566.92 776.100   2
  17 -11  -8 3532.00 718.363   3
  -6  17  -5 40241.7 1060.78   2
  17 -11  -5 36696.4 1214.99   1
  -6  17  -5 45124.5 1740.57   1
  11 -17  -5 42794.7 1337.51   3
  11 -17  -5 42618.2 1932.83   4
 -17   6  -5 44458.1 1940.96   1
  11 -17  -5 45779.3 2221.36   2
   6  11  -5 37610.3 1311.64   4
 -17   6  -5 42259.3 1547.13   4
   6  11  -5 42901.6 1248.32   1
   6  11  -5 37697.9 1639.65   3
 -11  -6  -5 42996.8 1996.38   2
 -11  -6  -5 40902.1 1074.90   3
 -17   6  -5 42533.3 1547.45   2
 -11  -6  -5 41766.0 1749.00   4
  17 -11  -5 38882.3 1592.89   3
  17 -11  -2 13670.2 964.823   3
 -17   6  -2 14988.3 907.759   2
  11 -17  -2 14017.5 1046.43   2
  11 -17  -2 13689.1 1039.06   4
  -6  17  -2 14906.1 798.024   2
 -17   6  -2 14795.1 950.170   1
  -6  17  -2 14260.8 989.492   1
 -11  -6  -2 16192.6 1056.31   4
  -6  17  -2 14697.9 816.913   4
  17 -11  -2 14412.2 809.293   1
   6  11  -2 15647.0 927.174   3
 -11  -6  -2 14841.2 799.093   3
   6  11  -2 13926.8 773.714   1
 -11  -6  -2 13783.0 1077.63   2
 -11  -6   1 65961.9 1360.50   1
 -11  -6   1 71496.4 2156.26   2
  17 -11   1 68740.2 2019.08   3
  -6  17   1 65788.1 1649.62   3
  -6  17   1 59301.0 1886.04   1
  -6  17   1 65572.2 2038.21   2
  11 -17   1 67075.3 1797.30   4
  11 -17   1 64269.2 1371.56   2
 -11  -6   1 68382.1 1890.77   4
   6  11   1 63780.5 1459.82   3
 -17   6   1 63610.4 1325.38   1
  17 -11   1 63719.3 1599.65   2
  17 -11   4 14342.9 1027.93   3
  11 -17   4 13111.8 663.580   4
  17 -11   4 14298.9 796.750   2
  -6  17   4 14597.1 1115.53   1
   6  11   4 14261.8 516.696   3
  -6  17   4 13703.3 627.165   3
  17 -11   7 4486.09 599.174   2
  17 -10  -9-95.2469 557.605   3
  -7  17  -9 982.999 717.359   1
  17 -10  -9-412.585 624.846   4
  17 -10  -9 18.0747 859.667   2
  10 -17  -9-1113.92 689.755   4
   7  10  -9 796.746 472.412   1
  10 -17  -9 158.045 864.364   2
 -10  -7  -9 679.736 597.445   4
 -17   7  -9 1249.71 910.250   1
 -17   7  -9 179.655 408.637   4
 -10  -7  -9-136.669 751.235   2
   7  10  -9-8.92958 591.255   3
 -17   7  -9 552.180 547.881   2
  17 -10  -6 4077.70 489.599   1
  10 -17  -6 5373.42 518.024   3
  -7  17  -6 4244.07 358.638   2
  10 -17  -6 5602.74 874.913   4
 -17   7  -6 6595.68 969.946   1
 -17   7  -6 4411.84 585.586   4
   7  10  -6 3765.97 522.105   4
  -7  17  -6 4452.99 350.714   2
 -10  -7  -6 5800.99 787.395   4
   7  10  -6 6798.17 565.741   1
 -10  -7  -6 7913.15 1014.01   2
 -10  -7  -6 3706.06 299.578   3
   7  10  -6 5608.31 783.226   3
 -17   7  -6 5791.30 673.218   2
  17 -10  -6 6466.48 810.381   3
  -7  17  -6 6403.47 827.167   1
  10 -17  -6 5821.13 1062.95   2
  17 -10  -3 3462.78 555.892   3
 -17   7  -3 2998.48 470.179   2
  10 -17  -3 3515.31 644.411   4
  -7  17  -3 3944.34 389.049   2
   7  10  -3 4306.38 559.010   4
 -17   7  -3 3536.79 591.582   1
  10 -17  -3 2309.36 641.581   2
 -10  -7  -3 3685.72 627.317   4
   7  10  -3 5434.44 491.817   1
  17 -10  -3 4236.78 477.948   1
 -10  -7  -3 4164.19 440.358   3
   7  10  -3 3707.29 578.485   3
  -7  17  -3 4552.09 656.918   1
 -10  -7  -3 4668.74 778.348   2
  17 -10   0 16047.1 899.940   2
  17 -10   0 14659.1 1021.18   3
  -7  17   0 14563.6 873.565   3
  10 -17   0 15175.2 947.588   4
  17 -10   0 16369.6 971.182   1
  -7  17   0 15785.6 955.904   2
  10 -17   0 15229.8 855.790   2
 -10  -7   0 15151.1 963.049   4
 -10  -7   0 15152.5 863.223   3
 -10  -7   0 16590.8 821.501   1
 -17   7   0 14977.6 782.664   1
   7  10   0 15707.4 829.694   3
  -7  17   0 14607.4 965.059   1
 -10  -7   0 13964.1 1029.53   2
  -7  17   3 3297.14 419.546   3
 -17   7   3 3679.41 345.843   1
  17 -10   3 3541.06 601.749   3
  17 -10   3 3392.89 520.798   2
  10 -17   3 4033.63 446.855   4
  -7  17   3 3599.87 668.373   1
 -10  -7   3 3781.55 328.377   1
   7  10   3 3408.37 353.731   3
 -10  -7   3 4084.66 526.942   4
  -7  17   6 81.6821 143.332   3
  17 -10   6 406.517 430.767   2
  -8  17 -10 3742.38 864.326   1
  17  -9 -10 4894.10 1270.17   2
   9 -17 -10 5689.63 1050.66   4
  17  -9 -10 5501.27 958.074   4
  -9  -8 -10 5825.53 921.167   4
   9 -17 -10 6155.78 1483.09   2
 -17   8 -10 6598.32 1221.93   1
  -9  -8 -10 4801.51 1138.91   2
   8   9 -10 4884.54 959.254   3
 -17   8 -10 4082.09 773.817   2
  17  -9 -10 5108.76 916.094   3
  -8  17  -7 7885.81 390.386   2
  -9  -8  -7 9951.25 1005.94   4
   9 -17  -7 12034.1 1149.03   4
   9 -17  -7 9822.19 1279.88   2
 -17   8  -7 13452.1 1270.64   1
  -9  -8  -7 10846.2 1239.21   2
   8   9  -7 13428.3 1121.48   3
 -17   8  -7 10156.0 845.391   2
   8   9  -7 10668.2 641.824   1
  -8  17  -7 11626.7 1088.47   1
  17  -9  -7 10807.1 983.262   3
 -17   8  -4 10030.9 718.931   2
   9 -17  -4 10184.4 996.448   4
 -17   8  -4 10025.0 954.007   1
  -8  17  -4 10575.6 899.349   1
  -9  -8  -4 9150.60 511.351   3
   8   9  -4 9788.30 543.391   1
  -9  -8  -4 10313.1 938.051   4
   9 -17  -4 9573.97 1047.94   2
   8   9  -4 7986.92 694.329   4
  -9  -8  -4 9248.09 1048.07   2
   8   9  -4 10232.9 901.610   3
  17  -9  -4 9570.94 583.952   1
  17  -9  -4 10750.8 891.887   3
  17  -9  -1 39817.8 1267.14   1
  17  -9  -1 38754.3 1482.26   3
  -8  17  -1 38239.5 1257.90   2
   9 -17  -1 39227.9 1554.18   4
  -9  -8  -1 37835.4 1519.49   4
  -8  17  -1 38793.1 1524.82   1
  -9  -8  -1 40315.6 1259.96   3
 -17   8  -1 36528.0 1304.28   1
  -9  -8  -1 38007.6 1342.47   1
   9 -17  -1 38457.0 1475.92   2
   8   9  -1 39809.3 1344.24   3
  -9  -8  -1 36611.0 1599.27   2
  -9  -8   2 17046.9 947.127   4
  -8  17   2 17111.7 849.866   3
  17  -9   2 17465.8 1085.69   3
  -9  -8   2 15681.6 1061.67   2
  -9  -8   2 16208.9 700.743   1
  -8  17   2 14107.0 1019.51   1
  17  -9   2 15224.1 893.839   2
   9 -17   2 16181.2 610.874   2
   8   9   2 15924.3 717.213   3
   9 -17   2 14622.6 809.519   4
 -17   8   2 15815.5 712.265   1
   8   9   5 37683.6 749.590   3
   9 -17   5 40824.5 836.966   4
  17  -9   5 40945.7 1481.35   2
  -8  17   5 38028.3 1751.45   1
  -8  17   5 38569.6 999.326   3
  17  -8 -11 10178.3 1157.73   3
  17  -8 -11 10545.0 1747.42   2
  17  -8 -11 7198.97 1086.35   4
   8 -17 -11 10961.5 1363.27   4
   8 -17 -11 12095.9 1829.62   2
 -17   9 -11 10533.4 1512.21   1
  -8  -9 -11 10724.1 1249.66   4
  -8  -9 -11 10772.4 1546.35   2
  -9  17 -11 10081.1 1326.43   3
  -9  17 -11 10413.2 1311.61   1
   9   8 -11 9617.96 1241.15   3
  -9  17  -8 1984.57 671.875   1
  17  -8  -8 1697.62 637.380   4
   8 -17  -8 976.652 864.674   2
   8 -17  -8 1259.54 652.440   4
  -8  -9  -8 951.328 571.764   4
 -17   9  -8 1996.33 813.318   1
   9   8  -8 1019.94 327.350   1
  -8  -9  -8 2718.22 893.518   2
   9   8  -8 2057.25 678.558   3
 -17   9  -8 1249.61 489.133   2
  17  -8  -8 1239.11 560.153   3
   9   8  -5 38851.0 890.903   1
   9   8  -5 43186.4 1711.03   3
   8 -17  -5 38704.9 1846.11   4
   8 -17  -5 35762.9 1944.13   2
  -8  -9  -5 42336.2 1797.61   4
 -17   9  -5 43822.9 1901.70   1
  -8  -9  -5 38110.6 1913.37   2
  17  -8  -5 36704.1 954.327   1
  17  -8  -5 38781.7 1586.50   3
 -17   9  -5 39271.4 1289.66   2
  -9  17  -5 42080.7 1736.96   1
  -8  -9  -2 16675.1 1189.23   2
  -9  17  -2 19755.2 1116.27   1
   8 -17  -2 18131.1 1168.18   4
  17  -8  -2 19042.7 817.729   1
   8 -17  -2 18262.4 1161.99   2
  -8  -9  -2 19943.3 1150.29   4
  -9  17  -2 17879.1 687.115   2
 -17   9  -2 19710.3 1068.69   1
  -8  -9  -2 20894.4 878.461   3
   9   8  -2 19919.2 1036.52   3
  17  -8  -2 19794.0 1098.70   3
  -8  -9   1 37317.1 1546.00   2
  17  -8   1 42492.5 1553.65   3
 -17   9   1 37855.2 1172.57   1
  -9  17   1 38673.9 1335.60   3
  -9  17   1 38701.9 1513.03   2
   8 -17   1 39003.7 1352.29   4
  -8  -9   1 38290.4 1392.40   4
  -8  -9   1 42509.2 1224.88   1
  17  -8   1 37989.9 1451.56   1
   8 -17   1 41865.0 1200.27   2
   9   8   1 39322.0 1196.77   3
  17  -8   1 38671.5 1422.61   2
  -9  17   1 37179.1 1507.26   1
   9   8   4 11651.4 586.455   3
 -17   9   4 11234.6 632.927   1
  17  -8   4 11302.3 903.886   3
  -9  17   4 11297.1 968.121   1
  -8  -9   4 11794.1 611.897   1
   8 -17   4 12006.6 598.849   4
  17  -8   4 10248.1 851.655   2
  -9  17   4 12662.2 700.953   3
  -8  -9   4 11829.8 763.457   4
  -9  17   7 9302.72 489.381   3
  17  -7  -9 8037.62 1028.76   4
   7 -17  -9 8618.86 1124.39   4
  -7 -10  -9 8810.42 1063.89   4
 -17  10  -9 8051.43 1238.95   1
  -7 -10  -9 7120.68 1265.51   2
   7 -17  -9 7661.61 1388.36   2
  10   7  -9 7729.50 1012.26   3
 -10  17  -9 8942.00 1160.42   1
 -17  10  -9 6726.36 737.248   2
  17  -7  -9 7221.71 925.755   3
 -17  10  -6 302.092 343.707   2
  17  -7  -6 161.642 207.430   1
 -10  17  -6 145.986 550.968   1
   7 -17  -6 375.625 552.159   4
   7 -17  -6 843.000 756.571   2
  10   7  -6 332.913 163.880   1
  -7 -10  -6 393.703 696.193   2
  10   7  -6 989.797 557.206   3
  -7 -10  -6 450.536 519.735   4
 -17  10  -6 63.0363 607.652   1
  17  -7  -6 134.613 503.749   3
  17  -7  -3 3005.66 557.348   3
 -10  17  -3 3572.46 631.703   1
   7 -17  -3 3444.12 693.453   4
  17  -7  -3 3612.41 359.908   1
   7 -17  -3 3617.16 678.800   2
  -7 -10  -3 3135.06 611.406   4
 -17  10  -3 3622.78 633.335   1
  10   7  -3 4019.52 601.611   3
  -7 -10  -3 2442.04 611.032   2
  17  -7   0 17882.7 1063.73   3
   7 -17   0 16896.0 994.035   4
  -7 -10   0 17360.9 1003.61   4
   7 -17   0 15284.0 893.493   2
 -10  17   0 15692.6 1028.33   1
  10   7   0 14915.6 837.625   3
  17  -7   0 13455.0 910.726   2
  -7 -10   0 15366.4 1048.13   2
 -17  10   0 15277.6 854.828   1
  -7 -10   0 15750.0 851.460   1
 -10  17   3 3501.96 449.561   3
 -17  10   3 3574.56 462.449   1
   7 -17   3 3539.85 325.733   2
  17  -7   3 2939.65 586.638   3
  -7 -10   3 3773.11 504.535   4
  -7 -10   3 4304.99 657.575   2
   7 -17   3 4207.44 448.376   4
  17  -7   3 3259.08 596.057   2
  -7 -10   3 4740.67 487.438   1
 -10  17   3 3685.15 652.170   1
  10   7   3 3355.07 425.673   3
 -10  17   6 5101.76 460.894   3
 -11  17 -10 3921.94 913.058   1
  17  -6 -10 3564.41 858.936   4
   6 -17 -10 3321.35 878.633   4
  17  -6 -10 2720.10 1226.53   2
  -6 -11 -10 3636.97 872.518   4
   6 -17 -10 1654.28 973.484   2
  -6 -11 -10 4268.23 1183.19   2
 -17  11 -10 4423.47 1090.06   1
  11   6 -10 4982.34 979.522   3
  17  -6 -10 1883.86 720.748   3
  17  -6  -7 3875.87 339.937   1
   6 -17  -7 7370.71 962.162   4
  -6 -11  -7 5977.08 866.674   4
   6 -17  -7 6258.17 1174.25   2
 -17  11  -7 4314.40 854.819   1
  -6 -11  -7 4535.10 1013.94   2
  11   6  -7 5609.24 793.016   3
 -11  17  -7 6032.24 866.905   1
  17  -6  -7 4668.26 779.309   3
 -17  11  -7 5052.02 519.445   2
 -11  17  -4 15260.9 1076.22   1
 -17  11  -4 13153.3 662.245   2
  17  -6  -4 10592.5 401.443   1
  -6 -11  -4 12472.2 1035.84   4
   6 -17  -4 13371.9 1228.81   2
  -6 -11  -4 12823.5 1171.78   2
 -17  11  -4 12620.2 1047.28   1
  11   6  -4 14606.6 1014.08   3
   6 -17  -4 14103.6 1123.83   4
  17  -6  -4 12037.7 960.135   3
   6 -17  -1 58636.1 1849.31   4
 -11  17  -1 57969.2 1852.77   1
  -6 -11  -1 60919.8 1889.49   4
   6 -17  -1 62393.9 1909.21   2
  11   6  -1 59057.9 1657.39   3
  -6 -11  -1 60261.3 1998.76   2
 -17  11  -1 60151.7 1699.61   1
  17  -6  -1 56315.5 1769.38   3
 -11  17   2 15387.7 856.354   3
  -6 -11   2 17418.0 1074.06   2
  17  -6   2 15965.9 999.005   3
 -11  17   2 19162.8 1122.48   1
  -6 -11   2 17134.1 844.172   1
   6 -17   2 17398.4 880.237   4
  -6 -11   2 18966.1 953.076   4
 -17  11   2 17245.5 852.576   1
  17  -6   2 15161.1 997.384   2
   6 -17   2 17552.0 796.114   2
  11   6   2 17945.4 822.291   3
  11   6   5 46652.6 1172.25   3
  17  -6   5 45741.6 1672.98   3
 -17  11   5 42753.2 1340.35   1
  -6 -11   5 39344.3 1268.25   1
   6 -17   5 41780.5 844.726   4
 -11  17   5 41158.3 1251.71   3
 -11  17   5 44896.0 1823.47   1
   5 -17 -11 15207.6 1961.61   2
  17  -5 -11 12571.1 1837.07   2
  17  -5 -11 12567.7 1254.70   4
   5 -17 -11 11946.6 1452.00   4
  -5 -12 -11 12571.6 1370.19   4
 -17  12 -11 15870.7 1744.83   1
  -5 -12 -11 16998.4 2144.92   2
 -12  17 -11 15742.7 1609.03   1
  12   5 -11 13011.3 1390.54   3
  17  -5 -11 13765.0 1269.02   3
   5 -17  -8 9121.36 1105.02   4
  -5 -12  -8 9826.88 1115.37   4
   5 -17  -8 11083.4 1444.82   2
 -17  12  -8 10063.8 1171.02   1
  -5 -12  -8 9996.50 1300.83   2
 -12  17  -8 8621.07 1041.81   1
  12   5  -8 8691.79 1000.45   3
  17  -5  -8 7552.38 921.552   3
 -17  12  -8 9237.44 631.461   2
 -17  12  -5 52857.1 1150.93   2
   5 -17  -5 59079.4 2221.52   4
  -5 -12  -5 59013.7 2169.82   4
   5 -17  -5 57196.2 2428.80   2
 -17  12  -5 56966.5 2175.16   1
  -5 -12  -5 56409.7 2378.19   2
  12   5  -5 58180.7 1977.13   3
 -12  17  -5 55850.8 2083.92   1
  17  -5  -5 58097.6 1937.96   3
 -12  17  -2 9563.84 864.486   1
  -5 -12  -2 10908.7 994.683   2
   5 -17  -2 11366.5 931.339   4
  -5 -12  -2 10704.7 907.459   4
   5 -17  -2 10967.8 964.301   2
 -17  12  -2 10463.2 853.729   1
  12   5  -2 12613.6 881.195   3
  17  -5  -2 11482.4 897.634   3
  17  -5   1 40541.4 1520.34   3
 -17  12   1 38005.4 1304.01   1
  12   5   1 38821.8 1267.23   3
  -5 -12   1 39701.7 1316.08   1
  -5 -12   1 42018.5 1457.84   4
 -12  17   1 43388.8 1594.80   1
   5 -17   1 41078.5 1342.71   2
   5 -17   1 43457.4 1431.60   4
  -5 -12   1 41704.0 1614.43   2
  12   5   4 8765.77 618.003   3
  17  -5   4 9167.86 840.580   3
  -5 -12   4 7865.53 668.182   1
   5 -17   4 7901.45 519.086   4
  -5 -12   4 7802.36 599.658   4
 -17  12   4 9392.22 697.383   1
 -12  17   4 6832.28 778.065   1
 -12  17   4 8044.62 670.255   3
 -13  17  -9 2906.72 876.711   1
   4 -17  -9 2582.87 782.373   4
  -4 -13  -9 3130.50 856.382   4
   4 -17  -9 1969.55 1100.20   2
  -4 -13  -9 802.458 883.528   2
 -17  13  -9 3564.21 924.102   1
  13   4  -9 2605.48 757.398   3
  17  -4  -9 2867.74 734.367   3
 -13  17  -6 675.702 589.619   1
 -17  13  -6 525.864 203.737   2
   4 -17  -6 972.930 543.159   4
  -4 -13  -6 679.843 550.502   4
   4 -17  -6 1510.11 821.004   2
  -4 -13  -6-578.761 656.246   2
 -17  13  -6 241.861 573.421   1
  13   4  -6 142.204 500.938   3
  17  -4  -6 1132.45 578.109   3
  -4 -13  -3 18653.2 1180.92   4
 -13  17  -3 22022.3 1282.37   1
   4 -17  -3 19124.6 1255.16   4
   4 -17  -3 21260.5 1395.19   2
  -4 -13  -3 21490.5 1406.99   2
 -17  13  -3 24843.4 1311.74   1
  13   4  -3 21730.2 1199.93   3
  17  -4  -3 19607.6 1153.67   3
 -17  13   0 7548.05 699.054   1
   4 -17   0 6524.21 688.209   4
 -13  17   0 6219.34 720.149   1
  -4 -13   0 7992.53 743.062   4
   4 -17   0 7571.32 695.631   2
  -4 -13   0 8488.01 818.736   2
  13   4   0 7242.60 687.921   3
  17  -4   0 7435.31 753.086   3
  13   4   3 12575.0 752.847   3
 -17  13   3 13317.2 850.339   1
   4 -17   3 13962.6 749.447   2
  17  -4   3 13456.6 933.323   3
  -4 -13   3 14633.0 994.572   2
 -13  17   3 13433.6 991.152   1
   4 -17   3 13370.7 746.126   4
  -4 -13   3 13930.2 805.477   4
  -4 -13   3 11979.4 807.506   1
  13   4   6 4558.92 472.423   3
 -13  17   6 3054.05 494.829   3
  17  -3 -10 685.065 589.369   4
   3 -17 -10 1057.32 702.945   4
  -3 -14 -10 2081.77 758.137   4
   3 -17 -10 1990.95 1076.43   2
  -3 -14 -10 2327.38 1054.67   2
 -17  14 -10 729.271 827.668   1
  14   3 -10 2068.01 782.669   3
  17  -3 -10 847.889 661.200   3
 -14  17 -10 2153.00 931.128   1
 -14  17  -7 3595.66 781.142   1
   3 -17  -7 3110.72 945.969   2
   3 -17  -7 3939.51 857.255   4
  -3 -14  -7 3655.13 800.084   4
  -3 -14  -7 4265.50 1001.96   2
  14   3  -7 4455.05 782.730   3
 -17  14  -7 3512.45 875.134   1
  17  -3  -7 6352.46 871.715   3
   3 -17  -4 22299.1 1381.37   4
  -3 -14  -4 22731.2 1374.81   4
   3 -17  -4 20056.3 1464.78   2
  -3 -14  -4 23152.4 1543.75   2
 -17  14  -4 22948.7 1358.42   1
  14   3  -4 22049.9 1238.79   3
  17  -3  -4 19620.9 1173.69   3
 -14  17  -4 25564.5 1413.76   1
 -17  14  -1 16599.4 1019.33   1
 -14  17  -1 18940.1 1142.22   1
  -3 -14  -1 20093.0 1146.39   4
   3 -17  -1 16459.9 1119.46   2
  -3 -14  -1 17224.2 1162.62   2
  14   3  -1 19685.7 1057.38   3
   3 -17  -1 17096.3 1072.49   4
  17  -3  -1 18698.4 1079.93   3
  14   3   2 2001.77 440.489   3
  17  -3   2 1531.40 474.490   3
  -3 -14   2 1612.54 471.779   2
 -17  14   2 2017.26 453.249   1
   3 -17   2 2228.08 470.897   2
  -3 -14   2 2047.55 493.334   1
   3 -17   2 1827.26 407.458   4
  -3 -14   2 2052.91 438.932   4
 -14  17   2 2764.66 569.985   1
  14   3   5 2094.69 464.895   3
 -14  17   5 1324.31 510.602   1
  17  -3   5 1952.79 545.883   3
   3 -17   5 1507.99 276.639   4
 -17  14   5 1486.21 517.369   1
  -3 -14   5 1328.91 331.735   4
   2 -17 -11 9350.50 1310.46   4
  -2 -15 -11 6693.09 1177.15   4
  -2 -15 -11 10431.8 1671.03   2
   2 -17 -11 7052.02 1565.81   2
 -17  15 -11 8511.45 1397.80   1
 -15  17 -11 9328.60 1365.21   1
  15   2 -11 6202.62 1112.18   3
  17  -2 -11 8384.41 1196.48   3
   2 -17  -8 7743.14 1115.64   4
  -2 -15  -8 8496.07 1291.38   2
 -17  15  -8 10260.7 1223.17   1
 -15  17  -8 8574.60 1119.66   1
  -2 -15  -8 10459.2 1168.74   4
  15   2  -8 10629.6 1090.16   3
  17  -2  -8 7297.46 925.648   3
   2 -17  -8 8893.34 1355.91   2
   2 -17  -5 37867.0 1851.11   4
  -2 -15  -5 40322.0 1892.26   4
   2 -17  -5 34982.1 2013.03   2
  -2 -15  -5 36622.2 2014.74   2
 -17  15  -5 40515.1 1867.70   1
 -15  17  -5 37683.2 1771.16   1
  15   2  -5 36432.0 1611.80   3
  17  -2  -5 37153.3 1641.68   3
 -15  17  -2 57547.2 1935.50   1
   2 -17  -2 62097.5 2067.69   4
  -2 -15  -2 56240.9 1954.61   4
   2 -17  -2 59527.7 2141.11   2
  -2 -15  -2 59683.3 2178.40   2
  15   2  -2 60976.2 1874.75   3
  17  -2  -2 57683.6 1859.41   3
 -17  15  -2 60674.6 1984.56   1
   2 -17   1 35008.2 1370.22   4
 -17  15   1 34444.8 1372.60   1
  -2 -15   1 32546.0 1339.24   4
 -15  17   1 31983.6 1405.67   1
   2 -17   1 35897.9 1396.00   2
  -2 -15   1 32742.9 1431.68   2
  15   2   1 32304.1 1263.39   3
  17  -2   1 33345.3 1365.65   3
  15   2   4 14424.4 885.808   3
  17  -2   4 13524.2 941.814   3
   2 -17   4 13519.8 713.647   4
 -17  15   4 13489.0 938.943   1
 -15  17   4 13663.2 1042.09   1
  -2 -15   4 16208.4 834.118   4
 -16  17  -9 9430.05 1273.09   1
  -1 -16  -9 10405.0 1265.78   4
   1 -17  -9 7691.60 1456.26   2
  -1 -16  -9 10012.7 1479.76   2
   1 -17  -9 9129.57 1182.24   4
 -17  16  -9 8461.59 1222.95   1
  16   1  -9 9641.21 1141.15   3
  17  -1  -9 10796.5 1177.38   3
   1 -17  -6 12292.9 1174.17   4
  -1 -16  -6 13162.5 1215.31   4
   1 -17  -6 12906.7 1409.05   2
  -1 -16  -6 15105.1 1476.42   2
 -17  16  -6 13380.1 1209.33   1
 -16  17  -6 12271.1 1173.05   1
  16   1  -6 12662.3 1091.48   3
  17  -1  -6 12474.0 1076.57   3
   1 -17  -3 6711.27 845.884   4
  -1 -16  -3 5685.79 766.345   4
   1 -17  -3 4478.71 813.383   2
  -1 -16  -3 6365.86 920.471   2
  16   1  -3 4843.63 703.245   3
 -17  16  -3 5649.80 751.364   1
  17  -1  -3 6410.93 772.606   3
 -16  17  -3 5483.89 794.990   1
 -17  16   0 15135.7 1014.67   1
 -16  17   0 15816.9 1041.79   1
   1 -17   0 14279.4 969.803   4
  -1 -16   0 14433.2 962.524   4
   1 -17   0 15263.3 1027.81   2
  -1 -16   0 14311.4 1047.44   2
  16   1   0 17609.0 1021.39   3
  17  -1   0 14591.2 972.994   3
  16   1   3 20602.1 1058.35   3
  17  -1   3 19322.2 1070.99   3
   1 -17   3 19738.8 1079.51   2
  -1 -16   3 18304.3 1091.92   2
 -17  16   3 18778.6 1095.06   1
 -16  17   3 17664.7 1118.10   1
   1 -17   3 17772.8 895.081   4
  -1 -16   3 19176.9 932.894   4
  16   1   6 4062.72 585.232   3
  17  -1   6 3672.86 610.629   3
 -16  17   6 3250.47 642.800   1
 -17  16   6 2743.30 628.795   1
   0 -17 -10 7480.71 1179.13   4
   0 -17 -10 3531.56 1238.96   2
 -17  17 -10 4975.92 1135.85   1
  17   0 -10 5147.20 973.648   3
   0 -17  -7-220.907 635.500   4
   0 -17  -7-44.6922 783.265   2
  17   0  -7 648.046 559.819   3
 -17  17  -7-409.545 628.243   1
 -17  17  -4 1316.56 608.859   1
   0 -17  -4-71.6591 539.795   4
  17   0  -4 423.566 510.313   3
 -17  17  -1 389.534 442.531   1
   0 -17  -1 96.5923 426.602   4
   0 -17  -1 248.955 503.378   2
  17   0  -1 247.096 474.607   3
  17   0   2 26255.6 1224.39   3
   0 -17   2 29201.4 1234.00   4
 -17  17   2 27634.7 1350.17   1
   0 -17   2 29675.3 1336.28   2
  17   0   5 45.7445 390.484   3
 -17  17   5 847.013 563.192   1
   0 -17   5-7.67767 274.521   4
  18 -18  -9 461.179 566.067   3
 -18   0  -9 106.155 842.597   1
  18 -18  -9 1888.05 1184.66   2
   0  18  -9 926.221 714.631   1
 -18   0  -9-302.766 591.561   4
   0  18  -9 509.772 744.184   3
  18 -18  -9 111.748 725.982   4
 -18   0  -9 886.873 732.185   2
  18 -18  -6 48922.2 2704.21   2
  18 -18  -6 52113.3 1906.28   3
 -18   0  -6 54870.6 2508.00   1
  18 -18  -6 46983.1 2287.36   4
   0  18  -6 49789.1 1863.83   1
   0  18  -6 56287.7 2257.76   3
 -18   0  -6 51830.4 2040.33   4
 -18   0  -6 49245.6 2127.65   2
 -18   0  -3 590.409 488.902   2
 -18   0  -3-224.504 505.215   1
  18 -18  -3 520.580 493.625   3
  18 -18  -3 970.208 579.828   4
  18 -18  -3 721.445 676.638   2
   0  18  -3-106.661 411.296   1
 -18   0  -3-109.305 488.496   4
   0  18  -3-246.946 464.021   3
 -18   0   0 29477.9 1529.17   2
  18 -18   0 31531.1 1509.29   3
 -18   0   0 32732.9 1159.98   1
  18 -18   0 31471.2 1365.31   2
   0  18   0 31656.3 1276.92   3
   0  18   0 32095.6 1501.46   1
 -18   0   0 34408.4 1557.97   4
   0  18   3 404.019 265.762   3
   0  18   3-477.207 489.268   1
  17 -18 -10 7936.95 1550.46   2
  17 -18 -10 6092.08 1128.67   4
 -17  -1 -10 6006.51 933.877   4
   1  17 -10 6083.51 957.373   1
  18 -17 -10 6447.89 1219.60   4
 -17  -1 -10 7120.08 1455.58   1
 -18   1 -10 4756.76 1266.26   1
  -1  18 -10 5641.16 982.127   1
  -1  18 -10 7297.99 1178.52   3
   1  17 -10 7468.35 1266.17   3
  18 -17 -10 6239.72 1531.49   2
 -17  -1 -10 7293.66 1184.46   2
 -18   1 -10 4497.48 829.389   4
 -18   1 -10 4107.08 1002.64   2
  17 -18  -7 41335.1 2585.12   2
  18 -17  -7 47797.3 1867.23   3
  17 -18  -7 46481.7 1804.12   3
  17 -18  -7 43873.5 2233.01   4
  18 -17  -7 47602.4 2327.28   4
 -18   1  -7 51172.3 2502.31   1
  18 -17  -7 52765.0 2839.99   2
   1  17  -7 49219.9 1870.40   1
  -1  18  -7 50338.8 1940.88   1
 -17  -1  -7 47086.1 2021.57   4
 -18   1  -7 45542.5 1912.97   4
  -1  18  -7 51534.6 2269.18   3
   1  17  -7 50076.7 2208.50   3
 -17  -1  -7 42059.2 2098.54   2
 -18   1  -7 44002.3 2080.05   2
  18 -17  -4 15971.4 1092.48   3
  17 -18  -4 13323.1 993.781   3
  18 -17  -4 14163.9 1356.48   2
  18 -17  -4 16213.5 1287.01   4
  -1  18  -4 15072.2 1047.49   1
   1  17  -4 14110.2 1091.26   3
 -18   1  -4 16244.1 1228.30   1
   1  17  -4 13099.8 862.212   4
  17 -18  -4 13371.1 1201.42   4
 -17  -1  -4 14330.5 1105.32   4
  -1  18  -4 12993.0 837.050   4
 -18   1  -4 13914.9 1063.18   4
  -1  18  -4 15557.5 1166.64   3
  17 -18  -4 14822.5 1373.83   2
   1  17  -4 14023.1 966.137   1
 -17  -1  -4 15029.2 1187.53   2
 -18   1  -4 13436.1 1125.39   2
 -17  -1  -1 68633.4 2285.03   2
 -18   1  -1 70205.8 2248.91   2
 -17  -1  -1 77032.9 1974.09   1
  18 -17  -1 69765.4 2150.58   3
  17 -18  -1 71721.2 2139.16   3
  17 -18  -1 73701.2 2213.81   2
  -1  18  -1 72501.0 2128.95   1
  17 -18  -1 65454.0 2214.59   4
  18 -17  -1 70126.4 2221.85   2
   1  17  -1 74244.3 2097.04   1
 -17  -1  -1 68516.3 2165.74   4
 -18   1  -1 74468.4 2232.30   4
   1  17  -1 73489.6 1985.65   3
 -18   1  -1 74306.3 1922.73   1
   1  17   2 12069.5 1049.91   1
 -18   1   2 10711.8 412.713   1
 -17  -1   2 10549.4 390.807   1
  18 -17   2 11940.3 1053.10   3
  18 -17   2 12116.6 649.855   2
  17 -18   2 12180.3 560.869   2
  -1  18   2 10961.3 1073.67   1
 -17  -1   2 9141.36 349.943   1
  -1  18   2 13835.5 746.976   3
   1  17   2 13145.7 716.405   3
 -18   1   2 9510.73 361.649   1
  18 -17   2 11849.0 591.543   2
  17 -18   2 11404.5 489.802   2
  18 -17   5 33406.9 1259.10   4
  17 -18   5 34230.4 1182.84   4
  16 -18  -8 4290.10 702.476   3
  18 -16  -8 2038.24 654.686   3
  18 -16  -8 3481.02 924.719   4
  18 -16  -8 3110.17 1113.57   2
  16 -18  -8 4541.92 1165.48   2
 -18   2  -8 3363.55 1021.75   1
   2  16  -8 4147.72 757.938   1
  -2  18  -8 3938.89 781.183   1
  16 -18  -8 3309.07 817.897   4
 -16  -2  -8 3403.97 739.946   4
 -18   2  -8 3799.87 701.540   4
  -2  18  -8 3902.94 888.916   3
   2  16  -8 3746.04 843.958   3
 -16  -2  -8 3514.59 875.376   2
 -18   2  -8 4224.64 840.360   2
  18 -16  -5 6621.03 787.429   3
  16 -18  -5 6956.52 750.440   3
  18 -16  -5 7343.49 958.115   4
  18 -16  -5 6457.05 1106.15   2
  -2  18  -5 6239.02 558.517   4
  16 -18  -5 6045.29 922.697   4
 -18   2  -5 6946.73 985.240   1
  16 -18  -5 7042.55 1102.89   2
   2  16  -5 5493.50 582.182   4
  -2  18  -5 7296.24 811.994   1
 -16  -2  -5 6867.60 855.400   4
 -18   2  -5 7786.07 845.593   4
   2  16  -5 6861.31 722.516   1
   2  16  -5 7927.08 888.046   3
  -2  18  -5 5622.19 661.558   2
 -16  -2  -5 6273.15 883.945   2
 -18   2  -5 6877.12 861.921   2
 -18   2  -2 25389.6 1378.42   2
 -18   2  -2 25672.2 1264.26   1
  18 -16  -2 22590.1 1276.22   3
  16 -18  -2 21520.9 1202.13   3
   2  16  -2 24832.8 1194.23   1
  16 -18  -2 20580.9 1331.00   4
  16 -18  -2 25015.3 1416.26   2
  -2  18  -2 22599.1 1244.63   2
 -16  -2  -2 21425.9 1247.29   4
 -18   2  -2 23885.2 1277.27   4
   2  16  -2 23187.9 1211.01   3
  -2  18  -2 25187.1 1277.81   1
 -16  -2  -2 23140.9 1377.04   2
 -16  -2   1 2535.99 338.033   1
 -16  -2   1 2806.81 563.121   4
  18 -16   1 1804.91 358.792   2
  18 -16   1 2001.52 575.511   3
 -16  -2   1 2274.11 601.269   2
 -16  -2   1 2563.16 373.477   1
  16 -18   1 1178.96 481.279   4
  16 -18   1 2658.39 411.653   2
 -18   2   1 3622.66 389.067   1
   2  16   1 1518.48 510.860   1
   2  16   1 2955.19 433.820   3
  -2  18   1 2072.05 580.542   1
  -2  18   4 3299.79 336.656   3
   2  16   4 2923.53 299.123   3
  16 -18   4 2768.14 433.525   4
  -2  18   4 2982.07 294.833   3
   2  16   4 3287.18 267.706   3
  16 -18   7 877.689 219.034   4
  15 -18  -9-187.358 721.775   4
  18 -15  -9 723.928 650.737   3
  18 -15  -9 1058.59 756.145   4
  -3  18  -9 819.797 769.592   3
  18 -15  -9 608.152 1059.12   2
  -3  18  -9 1097.77 734.355   1
  15 -18  -9 631.697 1049.19   2
 -18   3  -9 2025.19 985.491   1
   3  15  -9 469.318 561.701   1
 -15  -3  -9 845.371 565.302   4
 -18   3  -9 1765.87 620.663   4
   3  15  -9 3132.49 1067.38   3
 -15  -3  -9 2640.09 910.303   2
 -18   3  -9 1234.97 705.545   2
  18 -15  -6 12259.7 1024.59   3
  15 -18  -6 11569.7 898.333   3
  15 -18  -6 13290.1 1445.31   2
  -3  18  -6 14541.6 1093.79   1
  18 -15  -6 12349.0 1188.22   4
  15 -18  -6 12755.8 1212.16   4
 -18   3  -6 15669.1 1428.07   1
   3  15  -6 10857.9 703.660   4
   3  15  -6 14412.7 945.414   1
 -15  -3  -6 12609.0 1083.83   4
 -18   3  -6 13402.3 1042.51   4
   3  15  -6 13592.3 1155.12   3
  -3  18  -6 11422.7 842.043   2
 -15  -3  -6 10121.7 1158.96   2
 -18   3  -6 13497.0 1114.02   2
  18 -15  -6 11092.3 1477.67   2
 -18   3  -3 5425.80 731.712   2
   3  15  -3 5859.18 658.401   1
  18 -15  -3 5869.83 760.074   3
 -18   3  -3 6438.32 762.002   4
  15 -18  -3 5341.73 657.544   3
  15 -18  -3 6886.98 900.519   4
  15 -18  -3 6924.36 924.864   2
 -18   3  -3 6520.93 792.750   1
 -15  -3  -3 5691.32 728.731   4
  -3  18  -3 5590.80 677.265   2
  -3  18  -3 6876.82 743.898   1
  -3  18  -3 5197.60 593.200   4
   3  15  -3 5839.44 722.259   3
 -15  -3  -3 4772.12 754.307   2
 -15  -3   0 41739.7 1745.64   2
   3  15   0 37354.5 1498.94   1
  18 -15   0 37173.6 1581.09   3
  18 -15   0 35928.6 1274.61   2
  15 -18   0 40429.8 1583.98   3
 -18   3   0 39571.4 1648.68   2
  15 -18   0 42346.1 1664.42   4
 -18   3   0 37165.0 1177.96   1
  15 -18   0 38005.4 1353.57   2
  -3  18   0 39375.5 1601.25   1
 -15  -3   0 39590.3 1600.59   4
   3  15   0 38912.8 1310.26   3
 -15  -3   0 35829.9 1169.03   1
  -3  18   3 5438.69 472.764   3
  18 -15   3 5485.55 796.044   3
  15 -18   3 5827.31 622.429   4
   3  15   3 5855.47 417.220   3
  -3  18   3 6040.52 851.209   1
  18 -15   3 5105.64 430.121   2
  15 -18   6 17194.5 709.194   4
  15 -18   6 17740.9 703.033   4
  18 -14 -10 9313.71 1079.06   3
  -4  18 -10 9062.30 1144.19   1
  18 -14 -10 9864.43 1242.45   4
  14 -18 -10 9492.32 1266.84   4
 -18   4 -10 10867.9 1509.82   1
 -14  -4 -10 10102.6 1145.45   4
  18 -14 -10 7689.59 1540.96   2
 -18   4 -10 8907.87 977.877   4
  14 -18 -10 7891.91 1521.41   2
  -4  18 -10 9796.27 1295.05   3
 -14  -4 -10 9000.18 1363.69   2
   4  14 -10 10448.3 1316.63   3
 -18   4 -10 7387.66 1055.89   2
  18 -14  -7 12960.5 1067.58   3
  14 -18  -7 14678.5 954.705   3
  -4  18  -7 16448.0 1241.71   1
  18 -14  -7 16513.9 1407.24   4
  18 -14  -7 17040.0 1738.80   2
  14 -18  -7 16349.8 1391.82   4
   4  14  -7 18288.7 1066.80   1
 -14  -4  -7 15459.3 1204.89   4
  14 -18  -7 13719.9 1619.31   2
   4  14  -7 16289.0 1327.28   3
 -14  -4  -7 15589.2 1432.67   2
 -18   4  -7 17495.9 1160.31   4
 -18   4  -7 13416.6 1381.64   1
 -18   4  -7 13321.5 1129.09   2
  18 -14  -4 30952.7 1437.64   3
  14 -18  -4 31322.6 1306.60   3
  -4  18  -4 30423.9 1096.85   4
  14 -18  -4 31894.5 1709.44   4
 -18   4  -4 30923.6 1606.90   1
   4  14  -4 28558.1 1222.26   4
  -4  18  -4 29727.5 1403.01   1
 -14  -4  -4 31358.6 1531.49   4
  -4  18  -4 30075.8 1208.27   2
 -18   4  -4 30335.4 1433.55   4
   4  14  -4 30227.9 1447.05   3
  14 -18  -4 31476.4 1818.64   2
 -14  -4  -4 30427.4 1160.84   3
 -14  -4  -4 27713.8 1572.79   2
   4  14  -4 32295.0 1242.06   1
 -18   4  -4 28675.7 1416.51   2
  18 -14  -1 11464.0 963.232   3
 -18   4  -1 11172.3 934.340   2
  14 -18  -1 12255.4 915.958   3
  14 -18  -1 14347.2 1043.51   4
  14 -18  -1 10662.7 874.230   2
 -14  -4  -1 11141.1 772.062   1
 -18   4  -1 14585.1 870.427   1
  -4  18  -1 11550.1 888.810   2
 -14  -4  -1 11671.6 944.980   4
   4  14  -1 12361.7 811.301   3
   4  14  -1 12635.8 853.448   1
  -4  18  -1 9741.73 846.961   1
 -14  -4  -1 10722.7 969.399   2
 -18   4   2 41153.1 869.861   1
  18 -14   2 42418.7 1725.49   3
  -4  18   2 41840.1 1275.56   3
 -14  -4   2 42358.2 1784.50   2
  14 -18   2 42691.9 1495.31   4
 -14  -4   2 42035.0 842.633   1
 -14  -4   2 45283.0 1669.01   4
   4  14   2 43444.5 1150.70   3
  18 -14   2 39981.7 1190.99   2
  -4  18   2 43458.0 1766.14   1
  14 -18   5 13804.3 704.721   4
  14 -18   5 13863.3 674.594   4
  -4  18   5 10370.9 355.987   3
  18 -14   5 10109.5 492.250   2
  -4  18   5 10703.6 365.406   3
  13 -18 -11 2071.22 1235.63   2
  -5  18 -11 11.0629 809.630   1
  18 -13 -11 127.600 670.667   4
   5  13 -11 2570.75 973.224   3
  13 -18 -11 378.616 747.302   4
  18 -13 -11 1991.10 1341.71   2
 -18   5 -11 2101.89 1030.40   1
 -13  -5 -11 1876.23 812.280   4
  -5  18 -11 724.966 819.194   3
 -13  -5 -11-5.72421 964.111   2
  -5  18  -8 13167.3 1177.84   1
  13 -18  -8 9289.59 761.111   3
  -5  18  -8 11612.2 869.419   2
  18 -13  -8 11711.3 1277.02   4
  18 -13  -8 15348.6 1768.34   2
  13 -18  -8 9627.98 1235.68   4
 -18   5  -8 15700.1 1527.95   1
  13 -18  -8 13284.8 1682.92   2
 -13  -5  -8 13198.1 1168.33   4
   5  13  -8 11177.9 884.865   1
 -18   5  -8 11169.5 933.498   4
 -13  -5  -8 11224.5 1310.24   2
 -18   5  -8 12245.6 1108.33   2
   5  13  -8 13529.6 1229.46   3
  18 -13  -8 9273.70 974.516   3
  18 -13  -5 8907.05 895.088   3
  18 -13  -5 6935.50 672.404   1
  13 -18  -5 9107.87 742.176   3
  -5  18  -5 10834.8 969.492   1
 -18   5  -5 9149.55 1038.82   1
  13 -18  -5 9040.37 1048.44   4
  13 -18  -5 9834.64 1189.54   2
   5  13  -5 9104.11 724.559   4
 -13  -5  -5 9100.95 932.225   4
 -18   5  -5 9251.18 870.953   4
  -5  18  -5 9039.69 651.854   2
   5  13  -5 9659.59 727.027   1
   5  13  -5 11172.3 977.182   3
 -13  -5  -5 9104.69 1026.65   2
 -13  -5  -5 8521.42 627.498   3
 -18   5  -5 8099.04 834.371   2
  18 -13  -2 22375.9 1211.57   3
 -18   5  -2 20643.3 1124.23   2
  13 -18  -2 19380.4 1040.94   3
  -5  18  -2 20681.0 1055.72   4
  13 -18  -2 21649.5 1309.23   4
 -18   5  -2 20292.9 1148.41   1
  13 -18  -2 20537.5 1269.57   2
  -5  18  -2 20841.4 1036.45   2
 -13  -5  -2 20982.1 1243.57   4
   5  13  -2 19125.6 958.826   1
  -5  18  -2 19796.0 1151.80   1
  18 -13  -2 17346.5 971.406   1
   5  13  -2 19154.2 1068.08   3
 -13  -5  -2 19302.5 966.969   3
 -13  -5  -2 19515.4 1254.44   2
  18 -13   1 25859.9 1041.10   2
 -13  -5   1 25978.5 1390.85   2
  18 -13   1 22121.3 1260.90   3
 -13  -5   1 27118.5 874.927   1
  -5  18   1 26044.6 1097.42   3
  13 -18   1 29783.3 1307.14   4
 -18   5   1 28337.5 893.209   1
  -5  18   1 30685.8 1436.17   1
   5  13   1 26252.0 993.320   3
  13 -18   1 27988.9 946.872   2
 -13  -5   1 27347.6 1277.92   4
  -5  18   4 13624.2 621.304   3
  -5  18   4 12475.6 1088.59   1
  13 -18   4 12975.5 734.223   4
  18 -13   4 13243.7 697.027   2
   5  13   4 12680.2 479.775   3
  18 -12  -9 3386.31 740.349   3
   6  12  -9 5124.01 690.764   1
  -6  18  -9 4474.88 891.185   1
  18 -12  -9 5744.00 979.457   4
  18 -12  -9 4289.89 1201.26   2
 -18   6  -9 7075.20 1226.42   1
  12 -18  -9 4196.24 925.408   4
  12 -18  -9 7046.09 1422.79   2
 -12  -6  -9 6202.89 926.978   4
 -18   6  -9 4943.96 716.181   4
   6  12  -9 4214.01 863.266   3
 -12  -6  -9 5526.50 1119.59   2
 -18   6  -9 5080.03 829.874   2
  -6  18  -6 11146.1 1035.21   1
  18 -12  -6 7218.99 674.536   1
  12 -18  -6 9090.42 713.722   3
 -18   6  -6 9307.56 842.635   4
  12 -18  -6 11227.9 1181.10   4
  12 -18  -6 10026.6 1316.77   2
   6  12  -6 8132.34 702.527   4
 -12  -6  -6 7157.68 918.824   4
   6  12  -6 9783.96 709.351   1
  -6  18  -6 7630.96 549.037   2
   6  12  -6 9508.15 952.030   3
 -12  -6  -6 9239.78 1111.86   2
 -12  -6  -6 6532.32 485.851   3
 -18   6  -6 9672.05 859.668   2
 -18   6  -6 8323.41 1056.08   1
  18 -12  -6 9593.32 911.521   3
  18 -12  -3 22426.8 1225.75   3
 -18   6  -3 23884.4 1170.34   2
  12 -18  -3 23260.5 1066.79   3
  -6  18  -3 25912.8 1052.95   4
  12 -18  -3 25687.5 1443.33   4
   6  12  -3 25573.3 1006.45   1
 -18   6  -3 22794.5 1308.92   1
  -6  18  -3 25327.8 989.466   2
 -12  -6  -3 24893.5 1387.27   4
  12 -18  -3 25068.0 1471.93   2
   6  12  -3 25053.4 1252.86   3
 -12  -6  -3 23524.8 984.129   3
  18 -12  -3 22749.9 1021.41   1
  -6  18  -3 27811.8 1356.96   1
 -12  -6  -3 22542.4 1385.88   2
 -12  -6   0 16038.0 1101.35   2
  18 -12   0 19124.5 1169.68   3
  18 -12   0 17030.2 935.999   2
  -6  18   0 19156.6 1129.47   2
   6  12   0 17015.7 977.099   1
  12 -18   0 19706.3 1138.18   4
  12 -18   0 19181.8 965.072   2
 -12  -6   0 17747.2 1086.26   4
 -12  -6   0 20379.2 919.599   1
 -18   6   0 19404.1 879.889   1
   6  12   0 19268.3 941.514   3
  -6  18   0 17209.2 1091.38   1
  -6  18   3 12440.6 689.698   3
  -6  18   3 13715.7 1080.76   1
 -18   6   3 13427.7 502.259   1
  18 -12   3 15523.7 1086.73   3
  12 -18   3 14877.2 816.184   4
 -12  -6   3 15539.0 976.563   4
  18 -12   3 15057.4 855.382   2
   6  12   3 14449.7 607.919   3
  12 -18   6 938.436 150.904   4
  -6  18   6 857.688 111.892   3
  18 -11 -10 3552.12 780.885   3
  -7  18 -10 5080.61 967.473   1
  18 -11 -10 5178.26 963.682   4
  18 -11 -10 4830.85 1378.94   2
  11 -18 -10 3844.55 1003.47   4
 -18   7 -10 7046.91 1377.89   1
  11 -18 -10 3653.26 1238.82   2
 -11  -7 -10 4386.90 892.084   4
  -7  18 -10 6377.52 1124.05   3
 -11  -7 -10 4084.15 1080.42   2
   7  11 -10 4193.23 941.862   3
 -18   7 -10 3778.77 799.897   2
  -7  18  -7 12795.6 1105.23   1
  11 -18  -7 11057.2 1165.05   4
  11 -18  -7 12743.4 721.190   3
 -18   7  -7 16816.3 1451.95   1
  -7  18  -7 10244.7 569.727   2
  11 -18  -7 13372.9 1532.45   2
  18 -11  -7 11904.1 1181.62   4
   7  11  -7 13395.6 782.004   1
 -11  -7  -7 13031.7 1174.61   4
 -18   7  -7 13413.4 948.637   4
 -11  -7  -7 10664.8 1317.62   2
   7  11  -7 13261.8 1146.66   3
 -18   7  -7 13521.1 1002.59   2
  18 -11  -7 12613.9 1048.07   3
  11 -18  -4 47808.5 2161.00   2
 -18   7  -4 47013.0 1564.95   2
   7  11  -4 44409.2 1214.88   1
  11 -18  -4 45170.2 1382.17   3
  -7  18  -4 50432.6 1826.29   1
  11 -18  -4 45672.8 1929.24   4
 -18   7  -4 49823.1 1937.33   1
  -7  18  -4 45223.9 1076.58   2
 -11  -7  -4 43656.1 1830.03   4
 -11  -7  -4 44445.4 1197.04   3
   7  11  -4 46871.5 1740.63   3
 -11  -7  -4 45958.3 2019.01   2
  18 -11  -4 44420.0 1302.32   1
  18 -11  -4 45805.8 1708.75   3
  18 -11  -1 34487.4 1478.07   3
  -7  18  -1 31970.8 1300.00   4
  11 -18  -1 38721.6 1604.82   4
  11 -18  -1 36953.5 1462.17   2
  18 -11  -1 36494.3 1318.31   1
 -11  -7  -1 37491.0 1545.58   4
  -7  18  -1 36836.5 1338.54   2
 -18   7  -1 35485.5 1320.58   1
  -7  18  -1 35981.8 1501.60   1
 -11  -7  -1 36083.9 1269.54   3
   7  11  -1 37079.6 1321.20   3
 -11  -7  -1 36933.8 1650.07   2
   7  11  -1 32624.4 1193.61   1
 -11  -7  -1 36298.3 1325.62   1
  11 -18   2 42479.0 1389.17   4
  -7  18   2 45563.7 1355.09   3
  18 -11   2 43135.2 1683.88   3
 -11  -7   2 44559.1 1790.78   2
 -11  -7   2 45699.1 1076.11   1
  -7  18   2 44152.3 1741.89   1
 -11  -7   2 46440.7 1579.83   4
  11 -18   2 41029.1 899.224   2
  18 -11   2 39042.8 1345.35   2
   7  11   2 43243.7 1155.49   3
 -18   7   2 43174.7 1074.48   1
  11 -18   5 18721.4 683.404   4
  -7  18   5 18064.5 1308.01   1
  18 -11   5 18738.6 959.786   2
  -7  18   5 18970.7 683.133   3
  -8  18 -11 4176.66 1001.70   1
  18 -10 -11 10210.0 1789.81   2
 -10  -8 -11 6268.98 997.875   4
  10 -18 -11 5069.84 1083.97   4
 -18   8 -11 7120.49 1392.03   1
  10 -18 -11 3186.77 1261.26   2
  18 -10 -11 4768.82 1015.07   4
  -8  18 -11 8665.88 1263.59   3
 -10  -8 -11 5147.98 1300.65   2
   8  10 -11 4595.43 1009.71   3
  18 -10 -11 6925.98 1030.72   3
  10 -18  -8 19962.5 1862.51   2
  18 -10  -8 20485.6 1478.06   4
 -18   8  -8 25990.7 1874.72   1
  10 -18  -8 22490.7 1688.25   4
 -10  -8  -8 22089.0 1466.89   4
   8  10  -8 20400.8 924.606   1
 -10  -8  -8 20979.3 1711.14   2
   8  10  -8 24205.9 1542.74   3
 -18   8  -8 20484.5 1200.84   2
  -8  18  -8 23060.8 1495.83   1
  18 -10  -8 17747.2 1246.37   3
   8  10  -5 31119.4 968.735   1
  -8  18  -5 28611.5 1467.15   1
  10 -18  -5 29624.6 1854.38   2
 -10  -8  -5 26104.6 793.074   3
 -10  -8  -5 29205.0 1766.76   2
   8  10  -5 29124.2 1475.03   3
  10 -18  -5 26501.6 1578.89   4
  18 -10  -5 27475.2 978.820   1
 -10  -8  -5 28176.2 1512.27   4
  18 -10  -5 27672.0 1390.53   3
 -18   8  -5 26583.0 1187.93   2
  18 -10  -2 40840.2 1589.15   3
  -8  18  -2 44527.8 1231.43   2
 -18   8  -2 45943.4 1487.20   2
  10 -18  -2 39605.8 1688.22   4
  -8  18  -2 44141.6 1677.58   1
  10 -18  -2 47479.4 1794.87   2
  18 -10  -2 41419.3 1285.46   1
 -10  -8  -2 31936.4 1471.42   4
 -18   8  -2 42859.6 1579.95   1
   8  10  -2 43350.4 1239.22   1
 -10  -8  -2 43973.9 1297.10   3
   8  10  -2 38935.8 1440.25   3
 -10  -8  -2 39555.9 1754.80   2
 -18   8   1 27398.6 964.985   1
 -10  -8   1 30715.3 1467.93   2
  -8  18   1 23386.0 1248.36   1
  18 -10   1 26176.3 1312.56   3
  -8  18   1 26478.2 1139.73   3
  -8  18   1 26146.9 1334.46   2
  10 -18   1 27334.8 1202.02   4
 -10  -8   1 27264.0 1253.34   4
  10 -18   1 26532.4 954.267   2
 -10  -8   1 27643.5 991.613   1
   8  10   1 24699.7 978.187   3
  18 -10   1 27151.8 1204.37   2
  18 -10   4 35190.0 1374.91   2
  18 -10   4 37913.0 1612.56   3
 -18   8   4 34649.6 908.285   1
  10 -18   4 37717.9 1093.76   4
  -8  18   4 34060.3 1653.70   1
 -10  -8   4 33022.1 841.187   1
 -10  -8   4 39312.2 1410.32   4
  -8  18   4 34733.6 1074.66   3
   8  10   4 38934.3 952.778   3
  18  -9  -9 4331.79 799.032   3
  -9  18  -9 4214.99 890.615   1
  18  -9  -9 4605.72 894.071   4
   9 -18  -9 5729.20 1267.00   2
   9 -18  -9 4712.92 1036.39   4
 -18   9  -9 5523.48 1195.06   1
  -9  -9  -9 3749.00 836.737   4
  -9  -9  -9 2854.86 1082.02   2
   9   9  -9 7057.63 1008.03   3
 -18   9  -9 4226.70 684.055   2
  18  -9  -9 5495.85 1271.55   2
  18  -9  -6 3552.76 656.716   3
  18  -9  -6 2193.67 368.892   1
  -9  18  -6 3800.28 697.495   1
   9 -18  -6 4397.44 865.083   4
 -18   9  -6 4683.61 871.376   1
  -9  -9  -6 4267.96 766.000   4
   9 -18  -6 4021.53 973.700   2
  -9  -9  -6 3623.21 852.413   2
   9   9  -6 3488.65 695.235   3
   9   9  -6 3357.87 358.119   1
 -18   9  -6 4306.64 574.182   2
 -18   9  -3 17562.2 900.475   2
  -9  18  -3 17856.2 1125.18   1
  -9  18  -3 13208.0 494.050   2
   9 -18  -3 17815.9 1210.24   4
   9 -18  -3 15173.5 1210.48   2
   9   9  -3 17187.5 719.329   1
  -9  -9  -3 17095.4 1132.19   4
  18  -9  -3 16188.4 750.021   1
 -18   9  -3 16237.6 1105.41   1
  -9  -9  -3 17268.3 771.792   3
   9   9  -3 17025.3 1054.67   3
  -9  -9  -3 15381.5 1206.20   2
  18  -9  -3 17524.6 1097.83   3
  18  -9   0 24853.3 1190.42   2
  18  -9   0 25843.4 1284.82   3
  -9  -9   0 27346.2 1087.83   1
  -9  18   0 28926.7 1243.15   2
  -9  -9   0 27315.3 1277.53   4
  18  -9   0 27242.1 1208.69   1
   9 -18   0 27933.8 1306.79   4
   9 -18   0 25127.4 1100.54   2
  -9  18   0 27529.1 1380.42   1
   9   9   0 29464.5 1124.36   3
 -18   9   0 26090.3 1051.18   1
  -9  -9   0 27574.7 1399.10   2
  -9  18   3 14716.2 782.153   3
  18  -9   3 16925.9 1091.65   3
  -9  -9   3 17625.3 1174.59   2
  18  -9   3 14696.2 959.285   2
  -9  18   3 15761.2 1106.39   1
  -9  -9   3 15674.2 706.353   1
   9   9   3 15475.1 709.155   3
  -9  -9   3 15655.9 908.892   4
 -18   9   3 16042.5 739.606   1
   9 -18   3 15960.6 800.078   4
  18  -9   6 2467.10 587.510   2
  -9  18   6 2175.33 322.309   3
  18  -8 -10 7248.13 1085.34   4
  18  -8 -10 8641.23 1551.45   2
  -8 -10 -10 6716.54 1026.36   4
 -18  10 -10 8717.97 1345.18   1
   8 -18 -10 6654.47 1419.07   2
   8 -18 -10 7506.12 1184.02   4
  -8 -10 -10 5751.32 1234.86   2
  10   8 -10 9276.06 1156.94   3
 -10  18 -10 5821.04 1059.81   1
  18  -8 -10 4508.08 898.931   3
   8 -18  -7 19005.4 1792.31   2
  -8 -10  -7 22649.2 1482.40   4
 -18  10  -7 22110.0 1604.19   1
 -18  10  -7 19460.8 1005.59   2
  -8 -10  -7 20300.5 1675.86   2
  10   8  -7 23992.8 1467.20   3
  10   8  -7 17295.9 631.818   1
 -10  18  -7 22482.0 1456.04   1
  18  -8  -7 22243.4 1330.93   3
   8 -18  -7 21329.9 1550.58   4
 -10  18  -4 42511.6 1742.44   1
 -18  10  -4 37357.3 1226.25   2
   8 -18  -4 32483.1 1661.25   4
   8 -18  -4 38621.0 1928.89   2
  -8 -10  -4 41488.5 1786.71   4
 -18  10  -4 40779.9 1747.20   1
  18  -8  -4 37653.8 967.468   1
  10   8  -4 37940.6 877.479   1
  -8 -10  -4 37026.4 1889.94   2
  10   8  -4 40325.1 1608.56   3
  18  -8  -4 38894.1 1609.45   3
  18  -8  -1 24310.5 1260.87   3
 -10  18  -1 26194.2 1014.65   2
  18  -8  -1 28043.8 1094.47   1
   8 -18  -1 27996.3 1351.50   4
 -10  18  -1 25597.9 1290.72   1
  -8 -10  -1 27138.2 1313.19   4
   8 -18  -1 27788.6 1318.46   2
 -18  10  -1 27818.5 1197.85   1
  10   8  -1 27267.9 1174.79   3
  -8 -10  -1 27439.6 1463.96   2
 -10  18   2 45917.0 1423.55   3
  -8 -10   2 46836.9 1766.54   2
  18  -8   2 43301.4 1657.12   3
  -8 -10   2 46213.0 1277.60   1
 -10  18   2 43966.6 1723.99   1
 -18  10   2 43111.8 1262.77   1
   8 -18   2 45655.9 1406.70   4
  -8 -10   2 43106.6 1478.86   4
  18  -8   2 41450.4 1556.44   2
   8 -18   2 46910.5 1185.44   2
  10   8   2 43553.5 1225.92   3
 -10  18   5 25922.7 1503.35   1
  10   8   5 31674.5 898.814   3
  18  -8   5 33140.6 1504.56   3
  -8 -10   5 29794.5 1004.32   1
   8 -18   5 29140.3 758.593   4
  18  -8   5 27975.3 1399.99   2
 -10  18   5 25680.5 954.337   3
  18  -7 -11 8880.68 1656.42   2
  18  -7 -11 8577.06 1161.63   4
   7 -18 -11 8730.44 1320.79   4
  -7 -11 -11 9169.04 1240.82   4
 -18  11 -11 8114.40 1424.54   1
   7 -18 -11 8346.85 1683.60   2
  -7 -11 -11 9567.33 1551.56   2
  11   7 -11 9942.78 1315.01   3
 -11  18 -11 11179.0 1461.36   1
  18  -7 -11 6792.39 1104.31   3
   7 -18  -8 10989.7 1232.60   4
   7 -18  -8 8909.12 1452.58   2
  -7 -11  -8 12376.5 1214.49   4
 -18  11  -8 12244.9 1347.42   1
  -7 -11  -8 12387.1 1487.98   2
  11   7  -8 11692.4 1124.34   3
 -11  18  -8 12705.9 1198.41   1
 -18  11  -8 10633.9 770.087   2
  18  -7  -8 10550.9 1058.16   3
 -18  11  -5 21590.2 885.833   2
   7 -18  -5 20015.6 1610.14   2
   7 -18  -5 21469.8 1504.41   4
  -7 -11  -5 24332.0 1436.82   4
 -18  11  -5 23174.0 1481.38   1
  -7 -11  -5 22470.4 1613.26   2
  11   7  -5 22111.8 1299.48   3
  18  -7  -5 22789.6 1289.84   3
 -11  18  -5 20864.7 1345.76   1
   7 -18  -2 45827.8 1776.31   4
  18  -7  -2 45264.5 1204.07   1
 -11  18  -2 45967.5 1734.07   1
  -7 -11  -2 43616.9 1744.87   4
   7 -18  -2 45822.3 1828.47   2
 -18  11  -2 45119.1 1626.00   1
  -7 -11  -2 43496.9 1859.52   2
  11   7  -2 44010.9 1574.81   3
  18  -7  -2 41649.7 1650.92   3
   7 -18   1 36550.1 1352.31   4
  18  -7   1 36060.8 1501.75   3
 -18  11   1 36848.5 1250.32   1
  -7 -11   1 38864.7 1272.00   1
  -7 -11   1 38929.2 1465.99   4
   7 -18   1 37107.5 1226.91   2
 -11  18   1 36207.5 1528.56   1
  11   7   1 35968.1 1212.20   3
  -7 -11   1 38708.9 1622.72   2
  11   7   4 47965.0 1262.73   3
 -11  18   4 45650.2 1829.15   1
  18  -7   4 48561.7 1763.98   3
   7 -18   4 47882.4 1191.63   4
  -7 -11   4 46981.3 1440.49   4
  -7 -11   4 45039.6 1307.37   1
 -18  11   4 46386.1 1368.41   1
 -11  18   4 45426.9 1373.67   3
  18  -6  -9 11756.8 1182.30   4
  -6 -12  -9 8536.93 1070.40   4
   6 -18  -9 10231.9 1561.03   2
   6 -18  -9 11525.4 1251.90   4
 -18  12  -9 12776.4 1459.42   1
  -6 -12  -9 10179.8 1458.70   2
  12   6  -9 13203.7 1225.51   3
 -12  18  -9 12431.1 1284.49   1
  18  -6  -9 10869.2 1105.47   3
 -12  18  -6 2098.81 664.510   1
 -18  12  -6 1354.56 320.300   2
   6 -18  -6 1005.42 532.769   4
 -18  12  -6 1325.66 728.075   1
  -6 -12  -6 1930.20 634.895   4
   6 -18  -6 2065.72 844.340   2
  -6 -12  -6 2079.24 817.143   2
  12   6  -6 2023.19 622.807   3
  18  -6  -6 934.770 495.665   3
 -12  18  -3 17904.4 1172.15   1
   6 -18  -3 16382.0 1180.57   4
  -6 -12  -3 17286.2 1178.96   4
   6 -18  -3 17610.2 1277.62   2
  -6 -12  -3 15277.0 1237.42   2
  12   6  -3 15716.4 1017.15   3
  18  -6  -3 16707.5 1089.41   3
 -18  12  -3 14044.9 1034.09   1
  18  -6   0 20502.3 1145.57   3
 -18  12   0 19722.8 986.727   1
 -12  18   0 20916.6 1166.46   1
  -6 -12   0 17778.5 1058.44   4
   6 -18   0 18048.8 1016.86   2
  -6 -12   0 18609.0 968.224   1
  12   6   0 19596.5 992.204   3
   6 -18   0 19041.0 1091.30   4
  -6 -12   0 22933.2 1283.11   2
   6 -18   3 25383.2 909.834   2
  18  -6   3 22621.1 1257.27   3
  -6 -12   3 26879.1 1376.59   2
   6 -18   3 23748.9 982.059   4
 -12  18   3 22666.2 1298.59   1
  -6 -12   3 25560.6 1117.58   4
  -6 -12   3 23360.0 1030.18   1
  12   6   3 26161.8 1009.53   3
 -12  18   3 21275.9 1011.25   3
 -18  12   3 22642.3 1037.09   1
  -6 -12   6 10931.8 803.128   1
 -12  18   6 8374.48 638.729   3
   5 -18 -10 6654.08 1150.79   4
   5 -18 -10 7671.89 1553.43   2
 -18  13 -10 8355.46 1266.74   1
  -5 -13 -10 4780.93 1206.39   2
 -13  18 -10 6424.22 1131.01   1
  13   5 -10 8182.13 1118.35   3
  18  -5 -10 6142.34 964.560   4
  -5 -13 -10 7288.13 1115.52   4
  18  -5 -10 6683.33 979.936   3
 -18  13  -7 9602.91 556.486   2
   5 -18  -7 10303.2 1150.36   4
  -5 -13  -7 11676.0 1146.85   4
   5 -18  -7 12096.9 1421.70   2
 -18  13  -7 11177.5 1244.20   1
  -5 -13  -7 8524.02 1265.03   2
  13   5  -7 10938.5 1081.80   3
 -13  18  -7 12247.9 1172.40   1
  18  -5  -7 9624.87 957.592   3
 -13  18  -4 14521.0 1098.74   1
  -5 -13  -4 14561.0 1142.40   4
   5 -18  -4 13067.1 1235.24   2
  -5 -13  -4 12156.6 1209.61   2
 -18  13  -4 12698.8 1099.01   1
   5 -18  -4 13801.0 1123.30   4
  13   5  -4 13279.3 1027.44   3
  18  -5  -4 11726.7 965.710   3
 -13  18  -1 26634.9 1338.56   1
  -5 -13  -1 27027.0 1343.57   4
   5 -18  -1 26254.0 1315.73   4
   5 -18  -1 26251.9 1312.92   2
  -5 -13  -1 27156.1 1437.38   2
  13   5  -1 29220.1 1243.48   3
 -18  13  -1 29432.0 1321.74   1
  18  -5  -1 30805.8 1391.08   3
 -13  18   2 21280.7 1214.33   1
  -5 -13   2 19645.4 1176.88   2
  18  -5   2 18730.7 1102.25   3
  -5 -13   2 19851.1 992.900   1
   5 -18   2 17985.1 938.276   4
  -5 -13   2 21429.8 1061.67   4
 -18  13   2 20328.4 1015.33   1
   5 -18   2 19115.9 923.022   2
  13   5   2 18700.8 930.886   3
  13   5   5 9250.00 675.584   3
  18  -5   5 9323.41 849.912   3
  -5 -13   5 7162.60 682.680   1
 -13  18   5 9033.84 956.583   1
 -18  13   5 7549.76 704.364   1
   5 -18   5 8466.27 454.865   4
  -5 -13   5 7399.21 602.059   4
 -13  18   5 5790.40 618.335   3
 -18  14 -11 11659.2 1628.96   1
  18  -4 -11 9605.32 1755.50   2
  18  -4 -11 7358.27 1066.87   4
   4 -18 -11 10266.4 1378.87   4
  -4 -14 -11 9204.21 1302.59   4
  -4 -14 -11 8580.43 1687.54   2
   4 -18 -11 9060.06 1718.33   2
 -14  18 -11 10840.1 1467.48   1
  14   4 -11 11169.4 1363.58   3
  18  -4 -11 7486.77 1143.09   3
  -4 -14  -8 6182.61 1046.68   4
   4 -18  -8 6160.37 1210.82   2
 -18  14  -8 10340.4 1263.36   1
   4 -18  -8 5310.53 1020.57   4
  -4 -14  -8 5095.40 1137.38   2
 -14  18  -8 7731.97 1061.82   1
  14   4  -8 6602.00 931.620   3
  18  -4  -8 6859.27 903.041   3
   4 -18  -5 13670.6 1190.94   4
  -4 -14  -5 12601.7 1138.66   4
   4 -18  -5 13719.0 1332.74   2
  -4 -14  -5 11725.2 1247.34   2
 -18  14  -5 11393.2 1143.20   1
  14   4  -5 14069.7 1079.27   3
  18  -4  -5 12416.6 1034.95   3
 -14  18  -5 13284.8 1137.09   1
 -14  18  -2 42977.7 1717.68   1
  -4 -14  -2 40187.8 1821.36   2
   4 -18  -2 39222.4 1699.13   4
  -4 -14  -2 46014.2 1779.34   4
   4 -18  -2 43141.1 1848.30   2
  14   4  -2 41255.4 1589.09   3
 -18  14  -2 42840.2 1634.52   1
  18  -4  -2 41887.3 1634.64   3
  18  -4   1 16631.9 1033.63   3
 -18  14   1 17361.3 985.399   1
   4 -18   1 16615.6 969.244   4
  -4 -14   1 18399.5 1022.78   4
 -14  18   1 16001.2 1069.03   1
   4 -18   1 17983.6 986.159   2
  14   4   1 16744.7 935.028   3
  -4 -14   1 19426.2 1181.60   2
  14   4   4 33785.9 1246.94   3
  18  -4   4 33408.7 1465.27   3
   4 -18   4 32692.4 1067.80   4
 -18  14   4 32680.5 1345.09   1
  -4 -14   4 29157.6 1239.76   1
 -14  18   4 34082.4 1598.75   1
  -4 -14   4 34561.4 1192.65   4
 -15  18  -9 3719.76 1049.87   1
   3 -18  -9 3673.33 932.213   4
  -3 -15  -9 3734.62 847.324   4
   3 -18  -9 2814.61 1072.14   2
  -3 -15  -9 3065.51 1073.16   2
 -18  15  -9 3131.40 970.413   1
  15   3  -9 3099.74 895.655   3
  18  -3  -9 4012.43 816.602   3
   3 -18  -6 20881.3 1483.86   4
  -3 -15  -6 21652.6 1492.82   4
   3 -18  -6 20565.5 1679.39   2
  -3 -15  -6 19325.9 1689.28   2
 -18  15  -6 23901.4 1567.70   1
  15   3  -6 19450.4 1317.74   3
 -15  18  -6 20751.0 1450.67   1
  18  -3  -6 20989.8 1350.14   3
  -3 -15  -3 6588.43 868.959   4
 -15  18  -3 3214.14 674.880   1
   3 -18  -3 4144.58 778.399   4
   3 -18  -3 5982.90 894.235   2
  -3 -15  -3 5592.06 897.570   2
 -18  15  -3 5950.00 786.847   1
  15   3  -3 5067.25 691.074   3
  18  -3  -3 3720.51 688.319   3
 -18  15   0 37683.9 1485.43   1
   3 -18   0 38579.0 1539.68   4
 -15  18   0 36112.2 1548.81   1
  -3 -15   0 40632.1 1564.39   4
   3 -18   0 39269.2 1530.76   2
  -3 -15   0 40233.5 1680.17   2
  15   3   0 41270.4 1466.17   3
  18  -3   0 39780.7 1556.18   3
  15   3   3 5765.39 614.286   3
 -18  15   3 6356.13 691.905   1
  18  -3   3 5268.64 665.632   3
   3 -18   3 6232.10 604.591   2
  -3 -15   3 8024.99 819.409   2
 -15  18   3 5121.51 727.669   1
   3 -18   3 5818.30 578.224   4
  -3 -15   3 5929.74 589.173   4
  15   3   6 10613.1 742.255   3
  18  -3   6 11174.6 906.039   3
 -15  18   6 10662.2 1031.17   1
   3 -18   6 9959.33 409.502   4
 -16  18 -10 987.818 839.341   1
  18  -2 -10 592.933 630.610   4
   2 -18 -10 851.909 747.045   4
  -2 -16 -10 1374.05 801.373   4
   2 -18 -10 1455.23 1089.48   2
  -2 -16 -10 502.722 992.298   2
 -18  16 -10 1938.10 952.343   1
  16   2 -10 1454.28 800.504   3
  18  -2 -10-58.4655 679.163   3
 -16  18  -7 1240.77 679.542   1
  18  -2  -7 906.310 602.414   3
   2 -18  -7 1721.98 718.354   4
  -2 -16  -7 1546.53 702.802   4
  -2 -16  -7 2484.61 877.004   2
  16   2  -7 1696.30 660.724   3
   2 -18  -7 1523.11 884.791   2
 -18  16  -7 829.783 682.280   1
 -18  16  -4 2778.14 660.698   1
   2 -18  -4 2044.07 647.242   4
  -2 -16  -4 2875.72 685.473   4
   2 -18  -4 2694.31 797.399   2
  -2 -16  -4 2194.09 719.199   2
  16   2  -4 2848.43 666.249   3
 -16  18  -4 3664.42 776.932   1
  18  -2  -4 2360.64 659.201   3
  18  -2  -1 2858.81 623.540   3
 -18  16  -1 1439.98 521.864   1
   2 -18  -1 3291.90 605.911   4
  -2 -16  -1 2398.24 562.371   4
 -16  18  -1 3328.63 641.090   1
   2 -18  -1 3586.22 652.087   2
  -2 -16  -1 3112.33 675.474   2
  16   2  -1 3482.44 579.745   3
  -2 -16   2 26999.2 1341.43   2
  18  -2   2 24973.8 1255.89   3
   2 -18   2 27726.8 1198.15   4
  -2 -16   2 27383.7 1206.32   4
 -18  16   2 23724.6 1203.22   1
 -16  18   2 25714.7 1326.50   1
   2 -18   2 28657.4 1271.43   2
  16   2   2 26187.7 1188.80   3
  16   2   5 7208.15 712.226   3
  18  -2   5 6395.00 765.849   3
 -18  16   5 5660.05 716.419   1
 -16  18   5 7087.81 843.889   1
   2 -18   5 6597.26 489.479   4
  -2 -16   5 7103.08 552.690   4
   1 -18  -8 30217.8 1891.21   4
  -1 -17  -8 32670.8 1951.98   4
  -1 -17  -8 29465.0 2217.84   2
 -18  17  -8 30181.2 1934.56   1
 -17  18  -8 35530.2 2032.95   1
  17   1  -8 30263.3 1759.27   3
  18  -1  -8 31045.8 1754.06   3
   1 -18  -5 41898.2 2023.44   4
  -1 -17  -5 45191.5 2046.33   4
   1 -18  -5 40279.4 2199.68   2
  -1 -17  -5 43899.2 2261.78   2
 -18  17  -5 45881.6 2019.93   1
  17   1  -5 40852.5 1796.21   3
 -17  18  -5 38394.1 1871.84   1
  18  -1  -5 38604.3 1744.66   3
 -18  17  -2 10888.0 944.563   1
 -17  18  -2 10499.4 963.042   1
   1 -18  -2 11876.0 1031.59   4
  -1 -17  -2 10961.1 1004.84   4
   1 -18  -2 12149.7 1115.91   2
  -1 -17  -2 13291.0 1142.30   2
  17   1  -2 10620.7 915.445   3
  18  -1  -2 11703.3 1016.98   3
  -1 -17   1 74065.4 2046.06   4
   1 -18   1 69558.0 1999.82   4
 -18  17   1 67046.7 1984.73   1
 -17  18   1 64780.5 2038.97   1
   1 -18   1 71149.6 2072.56   2
  -1 -17   1 71074.7 2131.70   2
  17   1   1 67351.1 1926.00   3
  18  -1   1 63192.0 1929.64   3
  17   1   4 13006.7 925.679   3
  18  -1   4 12501.9 943.070   3
 -17  18   4 13991.0 1086.25   1
  -1 -17   4 13208.7 778.505   4
 -18  17   4 11219.3 960.232   1
   1 -18   4 13969.5 795.080   4
   0 -18  -9 757.685 741.228   4
   0 -18  -9 793.703 994.611   2
  18   0  -9 644.956 694.421   3
 -18  18  -9 474.543 833.396   1
   0 -18  -6 43873.7 2145.11   4
   0 -18  -6 42847.7 2349.36   2
 -18  18  -6 42745.9 2073.70   1
  18   0  -6 45104.3 1983.78   3
   0 -18  -3 820.546 516.597   4
   0 -18  -3-476.475 645.845   2
 -18  18  -3 19.0166 507.296   1
  18   0  -3 767.613 516.536   3
   0 -18   0 27912.7 1393.03   4
 -18  18   0 31102.8 1444.92   1
   0 -18   0 31102.8 1499.19   2
  18   0   0 29889.0 1383.66   3
  18   0   3 1140.17 486.280   3
   0 -18   3-328.938 440.321   2
   0 -18   3 332.111 328.867   4
 -18  18   3-78.4550 429.942   1
 -18  18   6 42038.4 1859.81   1
   0 -18   6 40824.8 1092.93   4
   0  19 -10 17874.4 1486.72   1
 -19   0 -10 15223.5 1820.77   1
  19 -19 -10 12122.6 1536.37   4
  19 -19 -10 19211.2 2234.92   2
 -19   0 -10 17855.0 1437.41   4
   0  19 -10 21658.8 1834.23   3
 -19   0 -10 14917.3 1582.28   2
  19 -19  -7 1153.31 607.511   3
   0  19  -7 969.139 711.461   3
  19 -19  -7 294.316 853.084   2
 -19   0  -7-50.6011 750.391   1
  19 -19  -7 189.855 697.485   4
 -19   0  -7 59.9006 508.324   4
   0  19  -7 263.109 520.136   1
 -19   0  -7 435.804 634.228   2
 -19   0  -4 1985.82 681.964   2
  19 -19  -4 1007.90 603.719   3
   0  19  -4 2193.51 617.513   1
  19 -19  -4 47.9566 555.701   4
 -19   0  -4 939.662 609.967   1
 -19   0  -4 2030.02 606.999   4
   0  19  -4 2570.20 662.406   3
  19 -19  -4 723.008 753.576   2
 -19   0  -1-251.865 546.880   2
  19 -19  -1 1210.10 560.827   3
  19 -19  -1-248.410 507.357   2
 -19   0  -1 774.450 444.608   1
   0  19  -1 1008.90 539.426   1
 -19   0  -1 1194.62 525.510   4
   0  19  -1 309.455 413.838   3
  19 -19   2 32598.5 988.384   2
 -19   0   2 28422.9 635.624   1
   0  19   2 36316.3 1182.77   3
   0  19   2 39554.4 1824.86   1
  19 -19   2 34449.1 944.276   2
  19 -18  -8 1092.72 602.653   3
  18 -19  -8 1846.87 626.985   3
  19 -18  -8 2371.46 839.365   4
 -18  -1  -8 1010.32 858.851   1
  19 -18  -8 1471.58 1065.76   2
  18 -19  -8 1883.64 820.984   4
 -18  -1  -8 1939.74 744.167   4
 -19   1  -8 698.201 600.323   4
  -1  19  -8 1905.64 699.983   1
  -1  19  -8 2422.13 774.392   3
   1  18  -8 2586.83 847.402   3
   1  18  -8 1583.33 617.067   1
  18 -19  -8 1067.67 987.110   2
 -19   1  -8 2233.77 904.841   1
 -18  -1  -8 2875.65 832.940   2
 -19   1  -8 3230.40 840.551   2
  -1  19  -5 2177.91 598.196   1
 -18  -1  -5 2851.48 720.225   2
 -19   1  -5 1486.67 620.539   2
  18 -19  -5 4603.49 725.543   3
  19 -18  -5 2656.70 815.079   4
  19 -18  -5 2064.23 630.011   3
   1  18  -5 1840.86 550.628   1
 -19   1  -5 3698.49 858.107   1
  18 -19  -5 2955.96 709.723   4
  19 -18  -5 1740.22 876.461   2
  18 -19  -5 1453.44 871.793   2
 -18  -1  -5 2432.60 691.330   4
 -19   1  -5 1666.94 549.720   4
  -1  19  -5 1501.87 747.989   3
   1  18  -5 902.844 549.647   3
  -1  19  -2 4093.85 738.606   1
 -18  -1  -2 3348.83 726.968   2
 -19   1  -2 2564.18 643.522   2
 -18  -1  -2 2772.47 684.347   4
  19 -18  -2 2988.82 666.044   3
  18 -19  -2 2674.25 633.684   3
   1  18  -2 3424.63 631.857   1
  18 -19  -2 3180.87 717.578   4
  19 -18  -2 3156.88 745.037   2
 -19   1  -2 2466.99 582.696   1
  18 -19  -2 2716.13 713.110   2
 -19   1  -2 2786.29 617.910   4
  -1  19  -2 3349.35 616.833   3
   1  18  -2 3132.76 580.571   3
  19 -18   1 10839.9 676.159   2
  19 -18   1 11656.8 1050.81   3
  18 -19   1 12113.5 1046.43   3
 -18  -1   1 11714.0 1097.00   2
  19 -18   1 13141.9 849.134   2
   1  18   1 11338.1 1028.63   1
  18 -19   1 11064.2 734.600   2
 -18  -1   1 12547.3 634.881   1
 -18  -1   1 12604.2 635.571   1
 -19   1   1 11714.6 601.578   1
 -18  -1   1 13431.2 1075.14   4
  -1  19   1 11970.0 793.536   3
   1  18   1 13880.9 824.309   3
  -1  19   1 12467.8 1092.22   1
  -1  19   4 2437.28 331.699   3
   1  18   4 1924.78 290.592   3
   1  18   4 1882.79 260.378   3
  18 -19   7 1277.06 326.507   4
  19 -17  -9 6313.13 917.004   3
  19 -17  -9 5682.57 1027.71   4
   2  17  -9 4518.10 823.351   1
  17 -19  -9 4391.96 961.525   4
 -17  -2  -9 5159.42 1229.24   1
  19 -17  -9 2263.25 1177.77   2
  17 -19  -9 4140.33 1329.04   2
 -19   2  -9 6299.01 1298.57   1
 -17  -2  -9 5672.69 929.212   4
  -2  19  -9 3526.52 826.940   1
 -19   2  -9 6266.00 919.481   4
   2  17  -9 6160.07 1072.23   3
  -2  19  -9 4876.81 1007.50   3
 -17  -2  -9 4958.62 1016.12   2
 -19   2  -9 3934.61 876.803   2
  19 -17  -6 9815.42 977.755   3
  17 -19  -6 8533.52 874.749   3
  19 -17  -6 7452.29 1113.86   4
  19 -17  -6 11355.8 1443.35   2
  17 -19  -6 10063.0 1160.19   4
 -19   2  -6 11605.6 1290.73   1
  17 -19  -6 10517.7 1416.24   2
  -2  19  -6 9739.94 972.985   1
 -17  -2  -6 10264.7 1057.21   4
   2  17  -6 10021.0 906.646   1
 -19   2  -6 11162.8 1003.14   4
  -2  19  -6 9173.27 1102.63   3
   2  17  -6 8369.49 1041.62   3
 -17  -2  -6 8038.10 1040.37   2
 -19   2  -6 8184.22 976.137   2
 -19   2  -3 14975.6 1116.23   2
   2  17  -3 16612.5 1026.58   1
  19 -17  -3 15076.9 1074.04   3
 -19   2  -3 17922.8 1206.07   1
  17 -19  -3 15404.3 1071.74   3
  17 -19  -3 15245.4 1290.47   2
  17 -19  -3 17255.2 1316.07   4
 -17  -2  -3 16923.5 1175.47   4
  -2  19  -3 14643.2 1073.89   2
 -19   2  -3 15638.4 1138.71   4
  19 -17  -3 13542.2 1268.50   2
   2  17  -3 13158.4 999.499   3
  -2  19  -3 14455.9 1059.15   1
 -17  -2  -3 16149.6 1227.41   2
   2  17   0 15359.3 1056.64   1
 -17  -2   0 12545.4 1084.02   2
  19 -17   0 12636.3 1081.88   3
 -19   2   0 13564.2 1077.02   2
  17 -19   0 13606.4 1049.79   3
  17 -19   0 13194.9 900.887   2
 -17  -2   0 13532.5 776.211   1
  -2  19   0 14575.7 1077.83   1
 -17  -2   0 14496.2 1064.79   4
  17 -19   0 12530.0 1007.01   4
   2  17   0 13538.2 837.172   3
 -19   2   0 14905.5 820.903   1
  -2  19   3 7617.12 955.588   1
  -2  19   3 7031.17 557.700   3
  17 -19   3 7605.74 729.613   4
  19 -17   3 6561.41 407.590   2
  19 -17   3 5956.44 407.378   2
  -2  19   3 7734.30 537.754   3
   2  17   3 7998.92 517.805   3
  17 -19   6 7532.95 598.092   4
  19 -16 -10 11620.2 1181.27   3
  -3  19 -10 15542.6 1420.60   1
  19 -16 -10 15746.8 2099.63   2
  16 -19 -10 14643.4 1528.74   4
 -16  -3 -10 18711.3 1906.09   1
  19 -16 -10 15608.5 1575.08   4
 -19   3 -10 15087.5 1749.61   1
  16 -19 -10 13236.6 1962.39   2
 -16  -3 -10 15472.2 1372.61   4
 -19   3 -10 16475.9 1249.07   4
  -3  19 -10 17125.8 1617.38   3
   3  16 -10 17634.5 1642.33   3
 -16  -3 -10 18777.2 1738.65   2
 -19   3 -10 12834.4 1381.02   2
 -19   3  -7 2347.13 717.542   2
  19 -16  -7 1987.98 631.214   3
  16 -19  -7 1954.20 586.656   3
  19 -16  -7 2658.43 822.234   4
  16 -19  -7 1885.67 872.918   4
  19 -16  -7 2416.63 1028.33   2
  16 -19  -7 1480.96 999.888   2
 -19   3  -7 3747.74 1029.39   1
  -3  19  -7 4124.66 828.652   1
 -16  -3  -7 2135.44 672.588   4
 -19   3  -7 2562.87 626.693   4
  -3  19  -7 3259.40 832.560   3
   3  16  -7 3764.50 816.541   3
   3  16  -7 2010.77 544.188   1
 -16  -3  -7 2351.63 783.067   2
  19 -16  -4 35132.1 1615.62   3
  16 -19  -4 33137.4 1464.62   3
  19 -16  -4 34275.4 2004.95   2
  -3  19  -4 32716.7 1235.15   4
  16 -19  -4 28118.7 1650.83   4
 -19   3  -4 36079.7 1757.02   1
  -3  19  -4 33333.1 1536.26   1
 -16  -3  -4 36250.4 1688.83   4
  -3  19  -4 31316.7 1383.71   2
 -19   3  -4 34331.1 1616.04   4
  16 -19  -4 33082.6 1901.51   2
   3  16  -4 37332.0 1636.13   3
 -16  -3  -4 31359.9 1663.08   2
   3  16  -4 35804.5 1410.61   1
 -19   3  -4 33935.8 1619.50   2
 -16  -3  -1 1266.17 550.180   2
  19 -16  -1 1115.25 520.553   3
 -19   3  -1 894.880 543.174   2
  16 -19  -1 931.903 523.179   3
   3  16  -1 266.920 443.500   1
  16 -19  -1 916.753 504.184   4
  16 -19  -1 1184.30 484.673   2
 -19   3  -1 1139.07 415.990   1
 -16  -3  -1 233.870 451.264   4
   3  16  -1 1154.47 440.584   3
  -3  19  -1 464.314 553.221   1
  16 -19   2 33809.3 713.373   2
 -19   3   2 32212.9 737.777   1
  -3  19   2 38729.0 1750.33   1
  19 -16   2 39610.2 1738.48   3
  -3  19   2 36283.5 1248.67   3
  16 -19   2 36933.1 1479.16   4
 -16  -3   2 31318.2 720.708   1
 -16  -3   2 39448.0 1629.66   4
 -16  -3   2 34161.0 747.153   1
   3  16   2 38631.5 1159.66   3
  16 -19   2 31784.3 753.310   2
  19 -16   2 35758.0 1101.84   2
  16 -19   5 1243.01 351.257   4
  -3  19   5 1025.63 140.039   3
  19 -15  -8 1666.42 631.877   3
  15 -19  -8 2593.83 583.188   3
  19 -15  -8 2009.62 760.043   4
  15 -19  -8 2646.90 837.840   4
  19 -15  -8 2362.57 1093.27   2
  -4  19  -8 1868.32 719.154   1
  15 -19  -8 2740.57 1115.76   2
 -19   4  -8 2666.49 904.181   1
 -19   4  -8 2263.73 634.587   4
   4  15  -8 2360.93 777.058   3
   4  15  -8 2950.76 625.619   1
 -15  -4  -8 1357.40 646.267   4
 -15  -4  -8 2106.60 913.907   2
  -4  19  -8 1145.04 738.637   3
 -19   4  -8 1238.62 646.533   2
  19 -15  -5 8190.63 904.738   3
  15 -19  -5 7805.14 766.942   3
  19 -15  -5 8680.59 1207.29   2
  15 -19  -5 9133.97 1107.11   4
 -19   4  -5 8664.59 1063.55   1
  15 -19  -5 10651.8 1272.83   2
  -4  19  -5 8981.10 910.260   1
   4  15  -5 7199.63 686.637   4
 -19   4  -5 7338.92 823.672   4
  -4  19  -5 6693.67 671.808   2
   4  15  -5 9833.62 980.523   3
   4  15  -5 9858.77 790.392   1
 -15  -4  -5 8535.57 713.801   3
 -15  -4  -5 8078.09 990.224   2
 -19   4  -5 8175.41 878.959   2
 -15  -4  -5 8086.65 931.640   4
  19 -15  -2 3076.50 597.561   3
 -19   4  -2 3029.04 606.113   2
  15 -19  -2 2923.88 590.686   3
 -19   4  -2 3365.96 638.932   4
  15 -19  -2 3301.88 706.315   4
 -19   4  -2 3233.59 588.380   1
  15 -19  -2 3621.88 718.785   2
  -4  19  -2 3319.44 605.990   2
   4  15  -2 3669.06 590.052   1
  -4  19  -2 3745.67 640.199   1
   4  15  -2 2591.28 521.179   3
 -15  -4  -2 3792.00 742.123   2
 -15  -4  -2 3906.63 746.051   4
   4  15   1 1498.66 531.587   1
  19 -15   1 752.992 356.801   2
  19 -15   1 1567.23 619.093   3
 -15  -4   1 68.3536 496.134   2
  15 -19   1 595.497 411.350   4
 -15  -4   1 844.765 291.819   1
  15 -19   1 1412.18 349.742   2
 -15  -4   1 1643.89 486.394   4
   4  15   1 735.645 316.170   3
  -4  19   1 568.939 543.305   1
 -19   4   1 1026.50 298.079   1
  -4  19   4 3080.24 378.046   3
  -4  19   4 2356.70 687.816   1
  15 -19   4 3852.69 533.666   4
  19 -15   4 2483.83 319.495   2
   4  15   4 3055.23 275.737   3
  19 -14  -9 3412.69 875.157   4
  19 -14  -9 2233.39 757.023   3
  -5  19  -9 2645.82 786.363   1
  14 -19  -9 2588.98 896.635   4
  14 -19  -9 2096.54 1102.18   2
 -19   5  -9 2691.20 1005.80   1
 -14  -5  -9 2239.24 705.951   4
 -19   5  -9 2212.35 652.235   4
  -5  19  -9 2740.21 872.184   3
   5  14  -9 3236.41 658.675   1
   5  14  -9 1778.88 847.280   3
 -14  -5  -9 2764.85 930.736   2
 -19   5  -9 3855.36 827.228   2
  19 -14  -9 2762.88 1161.34   2
 -19   5  -6 657.204 520.186   2
  19 -14  -6 84.7053 508.119   3
   5  14  -6 346.197 403.254   1
  14 -19  -6 334.189 403.406   3
  19 -14  -6 612.685 578.161   4
  14 -19  -6-960.521 695.265   4
  14 -19  -6 1259.26 842.570   2
 -19   5  -6 682.069 634.578   1
  -5  19  -6 191.535 569.212   1
 -14  -5  -6-143.048 544.386   4
  19 -14  -6-150.164 782.666   2
 -19   5  -6 951.116 523.956   4
   5  14  -6 175.251 528.855   3
 -14  -5  -6 489.692 717.621   2
  14 -19  -3 28778.8 1573.41   4
   5  14  -3 30047.9 1195.44   1
 -19   5  -3 27943.5 1366.43   2
  19 -14  -3 28950.6 1432.13   3
  14 -19  -3 27535.7 1279.39   3
  -5  19  -3 26705.5 1154.33   4
  14 -19  -3 29609.8 1616.79   2
 -19   5  -3 31215.6 1482.91   1
  -5  19  -3 28885.5 1214.78   2
  -5  19  -3 31989.8 1461.14   1
 -14  -5  -3 31054.6 1508.37   4
 -19   5  -3 29391.7 1406.32   4
   5  14  -3 31459.2 1417.48   3
 -14  -5  -3 26418.3 1131.60   3
 -14  -5  -3 31865.7 1651.52   2
  14 -19   0 1397.68 512.075   4
   5  14   0 1698.78 506.691   1
  19 -14   0 939.436 518.352   3
 -14  -5   0 1443.21 557.199   2
  19 -14   0 1830.10 427.249   2
  -5  19   0 1888.74 512.389   2
 -14  -5   0 2108.58 547.078   4
  14 -19   0 1535.50 424.384   2
 -14  -5   0 1570.28 404.523   1
   5  14   0 1471.26 420.325   3
 -19   5   0 1119.53 370.425   1
  -5  19   0 2712.39 617.634   1
  -5  19   3 11669.0 689.266   3
  19 -14   3 11055.9 1014.73   3
  -5  19   3 12788.1 1101.50   1
  14 -19   3 12250.5 815.594   4
 -14  -5   3 12633.5 922.640   4
  19 -14   3 9902.21 694.187   2
   5  14   3 12051.4 591.318   3
  19 -14   6 66.9876 235.994   2
  14 -19   6 62.8496 193.342   4
  14 -19   6-212.039 197.002   4
  -6  19 -10 11958.5 1357.05   1
  19 -13 -10 13719.4 1886.08   2
  19 -13 -10 13903.5 1458.20   4
  13 -19 -10 12453.2 1447.37   4
 -19   6 -10 19217.9 1871.71   1
 -13  -6 -10 14370.2 1343.28   4
  13 -19 -10 11409.6 1768.73   2
  -6  19 -10 17895.5 1640.54   3
 -13  -6 -10 13895.8 1641.12   2
   6  13 -10 11946.2 1386.91   3
 -19   6 -10 13862.7 1274.57   2
  19 -13 -10 15390.2 1345.96   3
 -19   6  -7 21604.0 1258.22   4
  -6  19  -7 23664.9 1466.20   1
  13 -19  -7 21310.2 1057.17   3
  19 -13  -7 17012.5 1702.38   2
  19 -13  -7 19676.2 1503.40   4
  13 -19  -7 22391.9 1913.23   2
  13 -19  -7 19895.4 1528.72   4
 -19   6  -7 23556.9 1711.70   1
 -13  -6  -7 21212.9 1422.26   4
   6  13  -7 20693.9 1046.29   1
   6  13  -7 22806.7 1470.75   3
 -13  -6  -7 19559.9 1573.99   2
 -19   6  -7 18836.5 1228.12   2
  19 -13  -7 20051.1 1309.61   3
 -19   6  -4 29232.7 1358.45   2
  19 -13  -4 30923.6 1478.85   3
 -19   6  -4 30805.5 1425.14   4
   6  13  -4 29030.1 1122.36   1
  13 -19  -4 32559.7 1874.02   2
  13 -19  -4 30685.8 1260.36   3
  13 -19  -4 28314.1 1639.54   4
 -19   6  -4 31748.8 1635.67   1
  -6  19  -4 31201.4 1100.79   2
 -13  -6  -4 34554.2 1664.63   4
   6  13  -4 30012.4 1466.71   3
 -13  -6  -4 29764.0 1108.32   3
 -13  -6  -4 27976.9 1632.92   2
  19 -13  -4 27370.9 1154.64   1
  -6  19  -4 29239.9 1458.43   1
  19 -13  -1 26172.7 1344.00   3
  13 -19  -1 29772.2 1475.78   4
 -13  -6  -1 25994.3 1162.52   1
 -13  -6  -1 28800.8 1407.88   4
  -6  19  -1 26207.0 1249.06   2
   6  13  -1 26942.1 1183.17   1
  13 -19  -1 25161.4 1255.99   2
 -19   6  -1 29381.5 1208.66   1
   6  13  -1 26762.9 1172.73   3
  -6  19  -1 31386.9 1436.71   1
 -13  -6  -1 26980.5 1478.91   2
  -6  19   2 76303.5 1770.83   3
  19 -13   2 81927.3 2377.94   3
 -13  -6   2 82530.9 2489.31   2
 -19   6   2 78713.8 1367.01   1
  13 -19   2 79733.1 2003.58   4
 -13  -6   2 78775.0 1330.87   1
 -13  -6   2 82484.4 2194.33   4
  -6  19   2 77625.4 2381.73   1
  13 -19   2 70737.9 1104.18   2
   6  13   2 82589.5 1614.15   3
  19 -13   2 71310.7 1757.34   2
  19 -13   5 6868.58 578.010   2
  -6  19   5 6542.37 421.037   3
  19 -12 -11 2744.96 847.041   3
  12 -19 -11 2503.49 976.801   4
  -7  19 -11 3804.31 1018.58   1
  19 -12 -11 3807.59 969.879   4
  19 -12 -11 6060.93 1643.09   2
  12 -19 -11 3912.41 1300.45   2
 -12  -7 -11 5184.23 1006.37   4
 -19   7 -11 6727.77 1374.75   1
  -7  19 -11 5513.16 1203.50   3
 -12  -7 -11 3618.79 1119.50   2
   7  12 -11 3980.75 995.231   3
 -19   7  -8 1887.55 593.877   2
  19 -12  -8 1748.01 639.051   3
  19 -12  -8 2051.87 716.249   4
  -7  19  -8 1543.04 672.496   1
  19 -12  -8 1737.17 943.681   2
  12 -19  -8 3384.33 888.149   4
  12 -19  -8 2486.07 982.352   2
 -12  -7  -8 1359.34 657.665   4
 -19   7  -8 2390.36 928.042   1
 -19   7  -8 1547.87 546.194   4
   7  12  -8 493.121 654.973   3
 -12  -7  -8 1075.74 823.061   2
   7  12  -8 1308.86 442.928   1
  19 -12  -5 21831.4 1286.68   3
  -7  19  -5 22862.3 1340.49   1
  12 -19  -5 23102.0 1034.60   3
  12 -19  -5 23260.7 1531.44   4
  12 -19  -5 23298.3 1711.16   2
 -19   7  -5 22752.2 1493.96   1
  -7  19  -5 20825.7 757.006   2
 -12  -7  -5 22181.8 1427.13   4
 -12  -7  -5 20586.2 849.214   3
   7  12  -5 24943.3 1394.56   3
 -12  -7  -5 21122.1 1523.92   2
  19 -12  -5 19604.6 965.666   1
 -19   7  -5 22748.2 1192.50   2
   7  12  -5 22468.4 946.970   1
  19 -12  -2 13793.3 1020.19   3
 -19   7  -2 16649.8 1021.95   2
   7  12  -2 15439.6 846.008   1
  12 -19  -2 12920.7 1067.74   4
  -7  19  -2 15386.0 867.077   2
  12 -19  -2 15653.7 1127.33   2
 -19   7  -2 15311.2 1005.68   1
  -7  19  -2 15896.5 1067.57   1
  19 -12  -2 14105.5 869.758   1
 -12  -7  -2 15875.0 1117.75   4
 -12  -7  -2 15801.8 873.714   3
   7  12  -2 14403.9 952.545   3
 -12  -7  -2 15432.3 1163.60   2
  -7  19  -2 15771.3 943.138   4
 -12  -7   1 8609.34 901.200   2
  12 -19   1 7536.28 743.649   4
  19 -12   1 6126.30 783.396   3
  -7  19   1 8533.26 857.892   1
  12 -19   1 7847.95 556.301   2
 -12  -7   1 6796.58 739.278   4
   7  12   1 7808.21 616.919   3
 -12  -7   1 6884.33 538.883   1
 -19   7   1 8224.43 577.297   1
  19 -12   1 7795.96 691.341   2
  -7  19   4 7646.01 567.317   3
  19 -12   4 7621.96 869.416   3
  19 -12   4 8635.83 725.286   2
  12 -19   4 7398.45 570.257   4
  -7  19   4 9001.48 1007.51   1
   7  12   4 8859.80 486.378   3
  19 -11  -9 9783.69 1613.28   2
  19 -11  -9 9569.17 1179.95   4
  11 -19  -9 7933.18 1149.86   4
  11 -19  -9 8033.52 1479.76   2
 -19   8  -9 8362.42 1311.18   1
 -11  -8  -9 9320.95 1088.01   4
 -11  -8  -9 9922.18 1403.05   2
   8  11  -9 9278.34 1145.23   3
 -19   8  -9 9453.15 984.169   2
  -8  19  -9 8448.17 1144.48   1
  19 -11  -9 9086.94 1038.28   3
 -19   8  -6 6254.55 971.694   1
  -8  19  -6 4618.22 869.762   1
  19 -11  -6 2886.35 456.080   1
  11 -19  -6 5162.37 910.184   4
  11 -19  -6 4770.29 1022.08   2
 -11  -8  -6 4779.58 803.967   4
 -11  -8  -6 3093.79 309.737   3
 -11  -8  -6 6207.53 1028.31   2
   8  11  -6 5798.89 845.963   3
   8  11  -6 4783.21 483.973   1
 -19   8  -6 4982.72 650.212   2
  19 -11  -6 5274.91 788.150   3
  19 -11  -3 11439.0 962.923   3
 -19   8  -3 11035.0 812.011   2
  11 -19  -3 12608.8 1096.63   4
  -8  19  -3 11288.1 611.263   2
  -8  19  -3 9271.61 896.099   1
  11 -19  -3 9716.80 987.576   2
 -19   8  -3 12204.3 1009.24   1
 -11  -8  -3 9809.64 958.157   4
  19 -11  -3 10566.5 715.126   1
 -11  -8  -3 10447.7 676.442   3
   8  11  -3 11210.3 895.486   3
 -11  -8  -3 11092.6 1049.49   2
   8  11  -3 12062.1 692.569   1
  19 -11   0 5407.54 705.509   3
 -11  -8   0 6806.32 606.257   1
  11 -19   0 5114.92 670.937   4
  -8  19   0 6326.14 705.829   2
  11 -19   0 5880.71 640.010   2
 -11  -8   0 5520.94 712.946   4
   8  11   0 6357.87 601.065   3
 -19   8   0 5961.82 563.780   1
  -8  19   0 7721.38 810.769   1
  19 -11   0 5330.23 656.661   1
 -11  -8   0 6421.62 818.001   2
  -8  19   3 20221.9 903.811   3
  19 -11   3 22130.5 1299.77   3
  11 -19   3 20056.7 951.188   4
  19 -11   3 19226.1 1075.50   2
 -11  -8   3 22901.8 1151.57   4
 -11  -8   3 19646.7 712.721   1
  -8  19   3 20564.8 1301.69   1
   8  11   3 20981.5 807.528   3
 -19   8   3 21486.7 769.926   1
  19 -11   6 5158.58 663.378   2
  -8  19   6 3131.53 303.236   3
  10 -19 -10 12284.4 1798.88   2
  19 -10 -10 11909.9 1320.37   4
  19 -10 -10 8749.40 1526.32   2
  10 -19 -10 12387.4 1427.85   4
 -19   9 -10 10085.2 1539.97   1
 -10  -9 -10 12535.1 1300.20   4
 -10  -9 -10 11150.2 1562.45   2
   9  10 -10 11456.1 1295.03   3
  -9  19 -10 11041.3 1305.59   1
  19 -10 -10 7458.28 1038.98   3
  10 -19  -7 11670.4 1264.56   4
  10 -19  -7 10917.3 1412.16   2
 -19   9  -7 10473.8 854.123   2
 -19   9  -7 10930.3 1236.41   1
 -10  -9  -7 12417.7 1171.89   4
 -10  -9  -7 11100.3 1301.06   2
   9  10  -7 12328.1 1113.38   3
   9  10  -7 10350.3 597.018   1
  19 -10  -7 10577.6 1028.25   3
  -9  19  -7 11079.3 1132.35   1
 -19   9  -4 36124.5 1329.83   2
  -9  19  -4 39979.8 1708.24   1
  10 -19  -4 37356.5 1816.92   4
  10 -19  -4 36777.2 1941.86   2
 -10  -9  -4 37130.7 1699.34   4
 -19   9  -4 43602.9 1846.53   1
  19 -10  -4 34662.1 1089.66   1
 -10  -9  -4 39304.8 1100.80   3
   9  10  -4 40427.0 1648.62   3
 -10  -9  -4 39475.1 1938.64   2
   9  10  -4 38341.9 1051.19   1
  19 -10  -4 38450.1 1664.05   3
 -10  -9  -1 1850.08 558.744   2
  -9  19  -1 1779.08 543.471   1
  19 -10  -1 1987.36 541.869   3
  10 -19  -1 3100.71 643.210   4
  -9  19  -1 2309.20 463.426   2
 -10  -9  -1 1329.38 523.764   4
  10 -19  -1 1403.55 499.608   2
  19 -10  -1 1362.22 432.672   1
 -10  -9  -1 1815.24 457.704   3
   9  10  -1 1904.06 499.427   3
 -19   9  -1 1291.53 434.293   1
  -9  19   2 66194.8 1717.70   3
 -19   9   2 65802.9 1470.27   1
 -10  -9   2 67919.6 2215.18   2
  19 -10   2 67550.6 2128.33   3
 -10  -9   2 73158.1 1536.47   1
  10 -19   2 70304.2 1801.72   4
  -9  19   2 69776.4 2177.84   1
 -10  -9   2 68205.9 1920.83   4
  19 -10   2 67015.7 1903.80   2
  10 -19   2 68906.6 1339.83   2
   9  10   2 73435.0 1581.66   3
   9  10   5 1491.15 255.710   3
  19 -10   5 1531.09 553.118   3
 -10  -9   5 1639.19 310.619   1
  10 -19   5 1818.85 280.672   4
  19 -10   5 1037.57 498.632   2
  -9  19   5 1653.36 711.889   1
  -9  19   5 1588.92 348.273   3
  19  -9 -11 3593.66 947.048   3
  19  -9 -11-983.316 1204.73   2
 -10  19 -11 2508.92 929.190   1
  19  -9 -11-7.73374 706.422   4
   9 -19 -11 659.035 794.435   4
  -9 -10 -11 2807.60 872.080   4
   9 -19 -11 1118.88 1122.56   2
 -19  10 -11 1670.83 979.003   1
  -9 -10 -11 1492.94 1058.39   2
  10   9 -11 1922.72 831.767   3
 -19  10  -8 10041.0 1311.31   1
   9 -19  -8 10293.6 1273.00   4
   9 -19  -8 10761.5 1500.85   2
  -9 -10  -8 10284.4 1126.48   4
  -9 -10  -8 9345.76 1302.66   2
  10   9  -8 11885.9 1166.35   3
 -19  10  -8 10708.9 848.674   2
 -10  19  -8 12195.0 1208.50   1
  19  -9  -8 10318.2 1083.69   3
  19  -9  -5 1766.43 619.449   3
 -19  10  -5 1355.38 395.482   2
  -9 -10  -5 1539.52 580.978   4
 -10  19  -5 839.921 595.201   1
   9 -19  -5 1805.40 661.537   4
   9 -19  -5 1243.29 681.389   2
 -19  10  -5 1404.94 631.792   1
  10   9  -5 1295.39 272.667   1
  10   9  -5 1799.94 610.976   3
  -9 -10  -5 325.105 580.191   2
  19  -9  -5 919.195 300.239   1
  19  -9  -2 67756.3 2082.31   3
 -10  19  -2 67151.2 1379.82   2
   9 -19  -2 74069.2 2275.25   4
 -10  19  -2 73111.6 2162.25   1
   9 -19  -2 68929.9 2229.87   2
  19  -9  -2 69850.2 1634.58   1
  -9 -10  -2 71519.8 1672.40   3
 -19  10  -2 70758.1 2008.39   1
  10   9  -2 74133.7 2003.22   3
  -9 -10  -2 71196.6 2383.34   2
  -9 -10  -2 70542.3 2196.72   4
   9 -19   1 633.430 441.547   4
  -9 -10   1 1114.87 368.687   1
  19  -9   1 1199.33 498.720   3
  -9 -10   1 1250.94 509.528   2
 -10  19   1 1550.59 565.088   2
 -19  10   1 1443.51 406.471   1
  -9 -10   1 1164.82 432.697   4
 -10  19   1 1889.98 597.215   1
   9 -19   1 1100.65 368.258   2
  10   9   1 1217.85 369.191   3
  10   9   4 40567.3 1113.34   3
 -10  19   4 37053.7 1751.63   1
  19  -9   4 39226.7 1662.70   3
   9 -19   4 42580.2 1193.92   4
  -9 -10   4 40947.4 1119.70   1
  19  -9   4 36183.6 1576.31   2
  -9 -10   4 38416.9 1396.15   4
 -19  10   4 40670.2 1169.42   1
 -10  19   4 36946.0 1212.91   3
  19  -8  -9 13280.2 1305.42   4
   8 -19  -9 12044.1 1319.16   4
 -19  11  -9 14613.4 1576.96   1
  -8 -11  -9 12205.8 1249.64   4
   8 -19  -9 9398.96 1587.50   2
  -8 -11  -9 14699.8 1640.01   2
  11   8  -9 13795.5 1334.39   3
 -11  19  -9 17788.2 1522.93   1
  19  -8  -9 12556.5 1165.27   3
 -19  11  -6 3055.02 477.874   2
  11   8  -6 2199.05 206.169   1
 -11  19  -6 3649.05 768.934   1
   8 -19  -6 4749.79 877.751   4
   8 -19  -6 5031.14 1044.02   2
  -8 -11  -6 2985.48 689.617   4
 -19  11  -6 4500.67 857.762   1
  19  -8  -6 1963.60 268.576   1
  11   8  -6 4767.24 772.232   3
  19  -8  -6 4896.28 768.969   3
  -8 -11  -6 3278.94 860.145   2
 -11  19  -3 21083.9 1263.10   1
  19  -8  -3 22763.6 839.989   1
   8 -19  -3 22784.1 1401.27   4
  -8 -11  -3 24831.5 1395.68   4
 -19  11  -3 22860.8 1312.21   1
  -8 -11  -3 20955.5 1417.70   2
  11   8  -3 22761.7 1224.45   3
   8 -19  -3 20642.6 1346.70   2
  19  -8  -3 21461.8 1241.43   3
  19  -8   0 4155.78 684.639   3
   8 -19   0 5064.77 664.276   4
  -8 -11   0 4699.05 649.998   4
   8 -19   0 4575.81 570.412   2
 -11  19   0 4135.02 686.197   1
  11   8   0 4300.82 573.723   3
  -8 -11   0 4357.81 554.525   1
  -8 -11   0 5583.46 743.578   2
 -19  11   0 5002.58 581.473   1
 -11  19   3 10103.3 721.512   3
   8 -19   3 10756.1 536.937   2
  19  -8   3 12471.4 1026.39   3
  -8 -11   3 10338.1 971.378   2
   8 -19   3 11769.6 734.477   4
 -11  19   3 10151.2 954.188   1
  -8 -11   3 11377.7 808.615   4
  19  -8   3 8808.56 874.511   2
  -8 -11   3 9144.67 666.870   1
 -19  11   3 9593.95 678.804   1
  11   8   3 11045.1 677.215   3
  -8 -11   6 4088.71 524.623   1
 -11  19   6 4419.93 483.999   3
  19  -7 -10 5283.33 974.280   4
  19  -7 -10 4807.59 1353.60   2
   7 -19 -10 8553.46 1280.54   4
  -7 -12 -10 6283.71 1060.40   4
 -19  12 -10 8004.63 1291.94   1
   7 -19 -10 6370.63 1362.59   2
  -7 -12 -10 6074.58 1333.53   2
  12   7 -10 6487.87 1081.53   3
 -12  19 -10 8206.22 1195.81   1
  19  -7 -10 6600.84 1019.25   3
 -19  12  -7 4744.24 516.886   2
 -12  19  -7 3656.32 804.592   1
   7 -19  -7 3377.25 801.422   4
  -7 -12  -7 4421.49 829.907   4
 -19  12  -7 4678.28 1008.28   1
   7 -19  -7 4139.83 1100.77   2
  -7 -12  -7 4577.63 994.884   2
  12   7  -7 5053.01 847.145   3
  19  -7  -7 5862.14 846.664   3
 -12  19  -4 7594.65 867.964   1
  19  -7  -4 5772.45 358.476   1
   7 -19  -4 8051.82 989.512   4
  -7 -12  -4 8627.49 954.870   4
   7 -19  -4 6640.27 961.901   2
 -19  12  -4 7545.33 950.129   1
  -7 -12  -4 9267.13 1069.75   2
  12   7  -4 7144.03 850.308   3
  19  -7  -4 8296.23 871.228   3
  19  -7  -1 7959.51 812.307   3
   7 -19  -1 8581.36 855.143   4
 -12  19  -1 7912.84 841.984   1
  -7 -12  -1 8820.00 839.958   4
   7 -19  -1 8933.93 867.380   2
  12   7  -1 8810.03 777.831   3
  -7 -12  -1 7552.65 859.087   2
 -19  12  -1 8826.91 764.301   1
  -7 -12   2 14162.1 1099.92   2
  19  -7   2 13643.8 1023.60   3
 -12  19   2 12580.8 997.987   1
  -7 -12   2 13472.9 819.466   1
   7 -19   2 13186.1 820.903   4
 -19  12   2 12719.5 799.676   1
  -7 -12   2 14777.8 933.172   4
   7 -19   2 13795.7 761.019   2
  12   7   2 15053.4 818.852   3
  12   7   5 24295.6 935.749   3
  19  -7   5 21162.5 1274.35   3
  -7 -12   5 21182.7 986.186   1
 -12  19   5 20771.6 1392.39   1
  -7 -12   5 23363.5 1059.92   4
 -19  12   5 21797.1 1016.92   1
   7 -19   5 23007.0 738.030   4
 -12  19   5 20622.1 950.572   3
   6 -19  -8 20058.3 1908.16   2
   6 -19  -8 22715.6 1694.40   4
  -6 -13  -8 24256.0 1638.05   4
 -19  13  -8 20477.6 1627.48   1
  -6 -13  -8 22514.0 1922.41   2
  13   6  -8 23000.6 1535.29   3
 -13  19  -8 24250.3 1672.82   1
  19  -6  -8 22349.1 1485.98   3
   6 -19  -5 8444.43 1051.57   4
  -6 -13  -5 8331.48 963.273   4
   6 -19  -5 8524.82 1167.57   2
 -19  13  -5 12690.9 1154.13   1
  -6 -13  -5 8299.83 1110.37   2
  13   6  -5 8906.04 947.634   3
  19  -6  -5 8139.87 931.593   3
 -13  19  -5 12972.0 1149.02   1
   6 -19  -2 74686.5 2354.75   4
 -13  19  -2 73141.7 2222.68   1
  -6 -13  -2 79191.3 2353.26   4
   6 -19  -2 80967.3 2445.32   2
  -6 -13  -2 77261.4 2522.38   2
 -19  13  -2 82011.3 2220.50   1
  13   6  -2 81113.8 2155.79   3
  19  -6  -2 77101.0 2249.33   3
  19  -6   1 28710.2 1383.47   3
   6 -19   1 30191.2 1298.02   4
  -6 -13   1 29244.5 1208.95   1
  -6 -13   1 32779.2 1376.99   4
 -19  13   1 31260.8 1259.15   1
   6 -19   1 34004.9 1285.09   2
 -13  19   1 27260.2 1405.01   1
  13   6   1 30589.9 1206.27   3
  -6 -13   1 30176.8 1465.49   2
  13   6   4 29698.8 1114.42   3
  19  -6   4 32162.6 1501.62   3
   6 -19   4 32691.4 1069.95   4
 -19  13   4 29934.1 1224.54   1
  -6 -13   4 29960.4 1181.21   4
  -6 -13   4 28800.5 1189.54   1
 -13  19   4 30285.3 1551.40   1
   5 -19  -9 6512.90 1077.71   4
  -5 -14  -9 5789.71 969.041   4
   5 -19  -9 8988.16 1475.23   2
  -5 -14  -9 9564.25 1452.57   2
 -19  14  -9 3983.03 1005.70   1
  14   5  -9 5751.60 1011.53   3
 -14  19  -9 7960.01 1170.86   1
  19  -5  -9 4776.03 927.449   3
 -14  19  -6 14.0759 557.196   1
   5 -19  -6 534.748 568.286   4
  -5 -14  -6 974.015 571.614   4
   5 -19  -6 228.929 710.662   2
  -5 -14  -6 1.09845 671.995   2
 -19  14  -6 284.100 583.447   1
  14   5  -6-323.577 581.667   3
  19  -5  -6 1139.54 609.689   3
 -14  19  -3 12071.2 1086.81   1
   5 -19  -3 9470.67 1015.77   4
  -5 -14  -3 13700.9 1110.73   4
   5 -19  -3 14818.0 1224.21   2
  -5 -14  -3 11935.6 1157.45   2
 -19  14  -3 12407.4 1038.72   1
  14   5  -3 10649.0 921.441   3
  19  -5  -3 12009.6 1020.58   3
 -19  14   0 2277.61 521.102   1
  -5 -14   0 1777.76 540.515   2
  19  -5   0 1560.96 499.010   3
   5 -19   0 1388.53 456.965   4
  -5 -14   0 1763.15 456.583   4
   5 -19   0 1121.32 490.101   2
  14   5   0 2521.51 496.884   3
 -14  19   0 1999.84 556.665   1
   5 -19   3 28173.4 1099.75   2
  19  -5   3 29849.9 1440.39   3
  -5 -14   3 34102.0 1557.30   2
   5 -19   3 29780.9 1158.30   4
  -5 -14   3 29920.4 1226.83   4
  -5 -14   3 25525.2 1199.76   1
 -14  19   3 27251.7 1422.33   1
 -19  14   3 30084.9 1279.78   1
  14   5   3 29320.8 1164.24   3
  14   5   6-67.8612 313.351   3
  19  -5   6 125.334 475.116   3
 -14  19   6-593.705 623.428   1
 -15  19 -10 837.983 888.316   1
  19  -4 -10 287.268 660.346   4
   4 -19 -10 2098.90 969.686   4
  -4 -15 -10 837.110 734.581   4
   4 -19 -10 52.2277 1057.33   2
  -4 -15 -10 1304.22 999.702   2
 -19  15 -10 150.804 852.091   1
  15   4 -10 635.971 798.973   3
  19  -4 -10 497.897 675.227   3
 -15  19  -7 3344.16 853.391   1
   4 -19  -7 3824.56 841.382   4
   4 -19  -7 5136.38 1160.78   2
  -4 -15  -7 3656.34 1000.75   2
  -4 -15  -7 3244.65 823.993   4
 -19  15  -7 4946.21 921.669   1
  15   4  -7 2045.76 698.504   3
  19  -4  -7 5024.86 810.681   3
 -15  19  -4 4128.67 745.180   1
   4 -19  -4 3931.37 757.488   4
   4 -19  -4 3135.47 875.930   2
 -19  15  -4 3665.65 761.111   1
  -4 -15  -4 2237.11 732.705   2
  -4 -15  -4 3090.40 718.860   4
  15   4  -4 3422.92 697.039   3
  19  -4  -4 2205.75 631.155   3
  19  -4  -1 1501.42 577.766   3
 -19  15  -1 1078.78 472.106   1
   4 -19  -1 2201.11 524.862   4
  -4 -15  -1 1329.13 460.457   4
 -15  19  -1 2081.41 573.530   1
   4 -19  -1 2617.50 612.765   2
  -4 -15  -1 756.588 510.501   2
  15   4  -1 2241.95 489.749   3
  19  -4   2 3561.82 659.668   3
   4 -19   2 2629.40 476.773   2
 -19  15   2 2966.87 530.890   1
  -4 -15   2 2863.83 605.660   2
   4 -19   2 3184.26 496.351   4
  -4 -15   2 3175.63 556.279   4
 -15  19   2 2722.00 577.052   1
  15   4   2 3591.92 558.399   3
  15   4   5 10887.4 818.262   3
  19  -4   5 8022.80 871.974   3
 -19  15   5 10628.1 883.323   1
 -15  19   5 10232.5 1029.71   1
   4 -19   5 9674.93 554.809   4
  -4 -15   5 9907.55 694.214   4
   3 -19  -8 34017.4 2030.08   4
  -3 -16  -8 36229.6 2077.26   4
  -3 -16  -8 32140.9 2312.97   2
   3 -19  -8 30294.9 2248.74   2
 -19  16  -8 35731.8 2105.28   1
 -16  19  -8 35829.1 2043.62   1
  16   3  -8 37041.9 1917.65   3
  19  -3  -8 31594.8 1759.84   3
 -19  16  -5 2776.44 779.511   1
 -16  19  -5 1601.30 643.823   1
   3 -19  -5 2589.99 721.802   4
  -3 -16  -5 2167.26 663.695   4
   3 -19  -5 2292.12 819.493   2
  -3 -16  -5 3255.65 894.445   2
  16   3  -5 3121.87 682.024   3
  19  -3  -5 3038.46 670.459   3
 -16  19  -2 40885.8 1729.12   1
   3 -19  -2 34010.4 1622.45   4
  -3 -16  -2 36348.5 1662.69   4
   3 -19  -2 36662.5 1791.17   2
  -3 -16  -2 31610.2 1700.23   2
  16   3  -2 37341.1 1587.06   3
  19  -3  -2 33837.4 1543.12   3
 -19  16  -2 37470.6 1635.06   1
  16   3   1 440.331 411.303   3
  19  -3   1 433.667 460.653   3
  -3 -16   1 496.320 458.615   2
 -16  19   1 934.093 531.934   1
   3 -19   1 333.581 394.368   4
  -3 -16   1 433.233 387.843   4
 -19  16   1 755.119 419.491   1
   3 -19   1 407.234 438.673   2
  16   3   4 33493.7 1343.63   3
  19  -3   4 33542.5 1498.66   3
   3 -19   4 33373.2 1155.70   4
 -19  16   4 31562.6 1449.97   1
  -3 -16   4 33452.2 1237.94   4
 -16  19   4 33773.8 1628.09   1
  -2 -17  -9 8348.10 1176.99   4
   2 -19  -9 8426.60 1574.40   2
   2 -19  -9 9218.54 1249.16   4
  -2 -17  -9 8906.42 1524.18   2
 -19  17  -9 8207.00 1236.34   1
 -17  19  -9 7261.75 1191.39   1
  17   2  -9 8750.60 1132.64   3
  19  -2  -9 7328.77 1101.64   3
   2 -19  -6 8536.76 1134.11   4
  -2 -17  -6 9348.45 1088.52   4
   2 -19  -6 8357.65 1250.62   2
  -2 -17  -6 7379.63 1192.45   2
 -19  17  -6 7866.61 1049.50   1
  17   2  -6 10655.2 1073.54   3
 -17  19  -6 8042.97 1030.44   1
  19  -2  -6 9566.47 1027.71   3
 -17  19  -3 7408.73 889.624   1
  -2 -17  -3 6791.08 845.614   4
   2 -19  -3 7583.19 1005.63   2
  -2 -17  -3 9101.21 1062.23   2
  17   2  -3 7328.10 846.063   3
   2 -19  -3 7874.38 930.628   4
  19  -2  -3 6259.66 803.078   3
 -19  17  -3 7465.54 943.811   1
  -2 -17   0 13225.8 997.416   4
 -19  17   0 12334.0 941.865   1
   2 -19   0 12875.9 993.448   4
 -17  19   0 12170.4 996.725   1
   2 -19   0 14667.6 1041.07   2
  -2 -17   0 13303.1 1054.56   2
  17   2   0 13800.4 962.351   3
  19  -2   0 14013.7 1028.26   3
  17   2   3 17486.4 1023.29   3
  19  -2   3 19043.6 1165.62   3
 -19  17   3 17518.6 1105.33   1
   2 -19   3 20349.4 1123.29   2
  -2 -17   3 17509.4 1177.24   2
 -17  19   3 19291.0 1241.81   1
   2 -19   3 20117.5 1011.49   4
  -2 -17   3 20369.7 1035.32   4
  17   2   6 8424.50 768.216   3
 -17  19   6 8223.84 959.245   1
  19  -2   6 8819.16 891.387   3
 -19  17   6 8420.45 890.394   1
   2 -19   6 7028.23 456.138   4
  -2 -17   6 8849.38 599.248   4
 -18  19 -10 4562.26 1111.25   1
   1 -19 -10 7604.21 1205.37   4
  -1 -18 -10 5879.10 1120.41   4
   1 -19 -10 4190.81 1348.79   2
  -1 -18 -10 6146.21 1449.41   2
  18   1 -10 4823.26 999.175   3
  19  -1 -10 4775.39 1015.09   3
 -19  18 -10 4493.03 1137.97   1
 -19  18  -7 1367.03 712.084   1
 -18  19  -7 1259.59 748.365   1
   1 -19  -7 1076.13 761.311   4
  -1 -18  -7-241.834 629.599   4
   1 -19  -7 367.772 809.497   2
  -1 -18  -7 1448.62 902.143   2
  18   1  -7 1347.12 692.902   3
  19  -1  -7 621.721 626.965   3
 -19  18  -4 2800.24 693.939   1
 -18  19  -4 1886.92 669.041   1
  -1 -18  -4 4083.68 854.318   4
   1 -19  -4 3154.92 787.275   4
   1 -19  -4 4259.93 891.402   2
  -1 -18  -4 2380.81 748.696   2
  18   1  -4 2481.98 634.845   3
  19  -1  -4 3904.47 741.095   3
  -1 -18  -1 11717.0 997.187   4
 -19  18  -1 10812.4 964.435   1
 -18  19  -1 11383.8 996.188   1
   1 -19  -1 10464.9 959.677   4
   1 -19  -1 12660.1 1064.39   2
  -1 -18  -1 11233.4 1048.95   2
  18   1  -1 12017.9 973.576   3
  19  -1  -1 10008.0 919.678   3
  19  -1   2 3484.56 618.179   3
  18   1   2 2559.62 557.489   3
   1 -19   2 3232.41 609.617   2
  -1 -18   2 3211.63 632.273   2
 -18  19   2 2854.97 615.956   1
   1 -19   2 2374.84 504.702   4
  -1 -18   2 1828.05 496.856   4
 -19  18   2 4179.82 689.713   1
 -19  18   5 1108.25 556.824   1
 -18  19   5 3097.49 723.750   1
  18   1   5 2719.55 622.222   3
  19  -1   5 2780.37 617.653   3
   1 -19   5 2368.34 391.809   4
  -1 -18   5 2076.27 419.368   4
   0 -19  -8 41759.5 2307.81   4
   0 -19  -8 41818.5 2642.43   2
 -19  19  -8 43599.9 2390.69   1
  19   0  -8 44661.1 2147.14   3
 -19  19  -5-258.979 621.616   1
   0 -19  -5 657.320 702.451   4
   0 -19  -5 438.266 714.920   2
  19   0  -5-430.581 539.199   3
 -19  19  -2 38665.4 1723.02   1
   0 -19  -2 41166.8 1858.04   4
   0 -19  -2 39177.0 1914.90   2
  19   0  -2 33902.8 1563.47   3
   0 -19   1 537.191 546.962   2
  19   0   1 81.9497 444.736   3
 -19  19   1-97.4055 470.200   1
   0 -19   1 1120.20 475.855   4
  19   0   4 955.953 476.335   3
   0 -19   4 724.346 360.423   4
 -19  19   4 521.132 511.346   1
  20 -20  -8 393.077 637.140   3
 -20   0  -8 572.538 862.061   1
  20 -20  -8 1920.88 842.572   4
 -20   0  -8 1372.68 693.447   4
  20 -20  -8 2599.13 1343.95   2
   0  20  -8 2070.03 882.890   3
   0  20  -8 1057.65 623.804   1
 -20   0  -8 922.958 686.407   2
 -20   0  -5 301.920 589.391   2
  20 -20  -5 703.036 549.326   3
   0  20  -5 89.0519 520.249   1
  20 -20  -5-848.971 751.068   4
  20 -20  -5 985.915 881.988   2
 -20   0  -5 281.736 680.781   1
 -20   0  -5 1114.38 570.309   4
   0  20  -5 719.681 638.449   3
 -20   0  -2 21331.1 1453.23   2
  20 -20  -2 21300.1 1342.80   3
   0  20  -2 23251.3 1318.83   1
  20 -20  -2 24422.2 1566.25   4
  20 -20  -2 22685.8 1495.39   2
 -20   0  -2 23498.3 1312.07   1
 -20   0  -2 21361.6 1386.63   4
   0  20  -2 21782.7 1309.40   3
 -20   0   1 127.926 286.771   1
  20 -20   1-66.4420 316.102   2
  20 -20   1 73.9854 538.325   3
   0  20   1-280.990 583.089   1
 -20   0   1 1111.19 336.274   1
  20 -20   1 1040.85 440.378   2
   0  20   1 282.795 377.341   3
   0  20   4 1296.71 329.905   3
   0  20   4 1754.97 277.769   3
  19 -20  -9 4195.26 1389.62   2
  20 -19  -9 5466.24 914.889   3
 -19  -1  -9 6661.23 1434.54   1
  19 -20  -9 5583.03 1101.14   4
  -1  20  -9 6740.80 1009.55   1
  20 -19  -9 5537.93 1187.15   4
   1  19  -9 5377.52 927.243   1
  20 -19  -9 4969.50 1387.78   2
 -20   1  -9 6126.05 1266.65   1
 -19  -1  -9 6342.34 990.158   4
 -20   1  -9 5316.83 930.474   4
  -1  20  -9 6092.87 1098.07   3
   1  19  -9 5514.05 1085.48   3
 -19  -1  -9 5443.45 1083.44   2
 -20   1  -9 4496.85 1008.13   2
  20 -19  -6 6196.07 863.537   3
  19 -20  -6 5553.78 814.355   3
 -19  -1  -6 8171.27 1182.73   1
  20 -19  -6 6579.06 1046.38   4
 -20   1  -6 6634.84 1082.42   1
  19 -20  -6 7355.58 1281.95   2
  19 -20  -6 6583.83 1053.29   4
  20 -19  -6 6151.06 1272.95   2
  -1  20  -6 8141.03 912.639   1
 -19  -1  -6 7163.50 923.363   4
 -20   1  -6 8061.82 973.864   4
   1  19  -6 7157.67 866.268   1
  -1  20  -6 8724.63 1078.70   3
   1  19  -6 6100.02 906.045   3
 -19  -1  -6 6317.64 964.707   2
 -20   1  -6 6150.90 886.135   2
 -20   1  -3 13807.7 1173.94   2
   1  19  -3 13992.9 1024.91   1
  20 -19  -3 10730.8 1013.60   3
  19 -20  -3 13853.9 1100.70   3
  19 -20  -3 14997.9 1323.78   2
  20 -19  -3 10486.2 1183.18   4
  19 -20  -3 12873.3 1237.36   4
  20 -19  -3 15987.5 1392.50   2
 -19  -1  -3 13066.8 1158.15   4
 -20   1  -3 13498.7 1112.37   4
  -1  20  -3 14310.4 1137.64   3
   1  19  -3 13262.8 1103.42   3
 -20   1  -3 13703.7 1129.75   1
 -19  -1  -3 12262.4 1110.56   1
  -1  20  -3 14432.8 1075.41   1
 -19  -1  -3 11324.4 1103.89   2
 -19  -1   0 10343.9 1066.92   2
  20 -19   0 10830.7 1004.14   3
 -20   1   0 8660.98 979.863   2
  19 -20   0 11144.2 1061.14   3
  20 -19   0 8473.54 836.133   2
  19 -20   0 10863.5 1033.97   4
  19 -20   0 10530.9 869.559   2
 -19  -1   0 11311.6 768.312   1
 -20   1   0 12120.4 785.199   1
 -19  -1   0 12109.9 1076.84   4
  -1  20   0 9571.02 987.574   1
  -1  20   0 11672.8 870.437   3
   1  19   0 9687.15 788.401   3
   1  19   0 7374.34 889.160   1
  -1  20   3 7969.80 636.265   3
  -1  20   3 10169.3 1099.49   1
  -1  20   3 8774.81 587.040   3
   1  19   3 9402.63 595.512   3
  19 -20   6 5681.47 606.118   4
 -18  -2 -10 440.087 969.102   1
  20 -18 -10 602.751 852.529   4
  20 -18 -10 999.475 1211.40   2
  18 -20 -10 789.705 1290.17   2
 -20   2 -10 1599.89 1173.60   1
  -2  20 -10 1422.93 825.003   1
 -18  -2 -10 686.357 721.373   4
 -20   2 -10 488.298 599.925   4
  -2  20 -10 1241.51 826.337   3
   2  18 -10 2823.69 984.910   3
 -18  -2 -10 672.729 874.185   2
 -20   2 -10 2510.97 948.752   2
  18 -20 -10 1727.73 904.485   4
  20 -18  -7 11509.8 1103.10   3
  18 -20  -7 12239.1 1053.92   3
  20 -18  -7 15010.1 1449.39   4
  20 -18  -7 13325.1 1661.51   2
  18 -20  -7 11592.7 1382.59   4
 -20   2  -7 13750.5 1456.56   1
  18 -20  -7 15334.0 1747.11   2
  -2  20  -7 13454.5 1142.52   1
   2  18  -7 14473.2 1089.42   1
 -18  -2  -7 13841.4 1214.21   4
 -20   2  -7 14876.8 1203.15   4
  -2  20  -7 17754.6 1495.83   3
   2  18  -7 14022.1 1296.72   3
 -18  -2  -7 11421.8 1285.63   2
 -20   2  -7 13514.1 1263.57   2
 -18  -2  -4 1706.37 677.225   2
 -20   2  -4 2282.80 653.990   2
  20 -18  -4 2696.52 646.048   3
  -2  20  -4 1067.28 580.975   1
  18 -20  -4 1960.72 611.385   3
  20 -18  -4 1915.02 671.870   4
  18 -20  -4 2596.27 764.971   4
  20 -18  -4 1244.85 750.389   2
  18 -20  -4 929.827 681.158   2
 -20   2  -4 2636.08 754.326   1
   2  18  -4 1571.25 495.760   1
 -18  -2  -4 1336.40 612.006   4
 -20   2  -4 1348.25 560.105   4
   2  18  -4 2714.76 641.597   3
 -18  -2  -1 55296.3 2159.47   2
 -20   2  -1 54840.5 2072.44   2
  20 -18  -1 50755.5 1995.74   3
  18 -20  -1 55384.0 1995.55   3
  -2  20  -1 53829.1 1952.09   1
  20 -18  -1 54305.2 2063.67   2
  18 -20  -1 53124.0 2094.72   4
  18 -20  -1 50356.6 1908.27   2
 -20   2  -1 59119.8 1755.48   1
 -18  -2  -1 54238.1 2002.51   4
 -20   2  -1 57514.3 2053.16   4
   2  18  -1 54459.9 1910.63   1
   2  18  -1 51720.8 1694.52   3
  20 -18   2 1080.02 342.928   2
  18 -20   2 559.998 198.912   2
  20 -18   2 1178.18 563.795   3
  18 -20   2 863.828 487.826   4
 -20   2   2 703.996 181.948   1
 -18  -2   2 452.752 173.279   1
   2  18   2 465.630 566.422   1
  -2  20   2 498.730 592.833   1
  18 -20   2 240.294 209.159   2
  20 -18   2 876.354 352.167   2
  -2  20   2 239.607 350.606   3
 -18  -2   2 532.842 167.288   1
   2  18   2 956.251 355.816   3
 -20   2   2 398.562 173.798   1
  18 -20   5 28067.5 1193.98   4
  -2  20   5 16006.4 392.083   3
 -20   3  -8 3291.06 815.107   2
  20 -17  -8 4307.35 803.875   3
  17 -20  -8 5258.13 767.964   3
  -3  20  -8 4974.14 871.039   1
  20 -17  -8 5077.11 1029.82   4
 -20   3  -8 8794.79 1332.53   1
  17 -20  -8 4454.63 1016.20   4
  17 -20  -8 6101.10 1341.94   2
   3  17  -8 5799.51 800.541   1
 -17  -3  -8 5840.69 911.446   4
 -20   3  -8 5811.24 835.180   4
  20 -17  -8 5771.88 1317.16   2
  -3  20  -8 6583.53 1082.22   3
   3  17  -8 5292.36 997.860   3
 -17  -3  -8 4187.95 918.727   2
 -17  -3  -5 2875.66 817.350   2
 -20   3  -5 2412.75 659.985   2
  20 -17  -5 2263.75 659.819   3
  17 -20  -5 2716.60 587.393   3
  20 -17  -5 5605.18 1103.57   2
  17 -20  -5 5048.82 930.492   4
  20 -17  -5 3405.66 797.366   4
   3  17  -5 3484.55 618.734   1
  17 -20  -5 2433.94 849.736   2
 -20   3  -5 3025.10 780.750   1
 -17  -3  -5 2359.76 680.880   4
 -20   3  -5 3737.30 666.525   4
   3  17  -5 3662.43 735.123   3
  -3  20  -5 3465.44 692.730   1
 -17  -3  -2 3157.50 731.818   2
  20 -17  -2 2699.45 613.947   3
 -20   3  -2 3242.04 624.319   2
  17 -20  -2 1496.16 503.770   3
  17 -20  -2 4111.96 750.407   4
  17 -20  -2 3764.95 762.185   2
   3  17  -2 3543.26 614.713   1
 -20   3  -2 3522.51 607.984   1
 -17  -3  -2 3752.66 699.667   4
 -20   3  -2 4637.31 708.898   4
   3  17  -2 3009.45 589.168   3
  -3  20  -2 3797.74 656.648   1
  -3  20   1 2504.10 714.172   1
  20 -17   1 1013.76 375.180   2
  20 -17   1 2084.61 632.569   3
 -17  -3   1 2232.43 638.195   2
 -17  -3   1 2742.30 398.321   1
   3  17   1 1639.04 528.548   1
  17 -20   1 1517.89 379.629   2
 -17  -3   1 2383.45 566.019   4
  17 -20   1 1269.52 544.474   4
 -20   3   1 2839.96 376.835   1
   3  17   1 1603.78 411.993   3
 -17  -3   1 1931.87 353.743   1
  -3  20   4 9815.40 574.740   3
  17 -20   4 9528.41 778.561   4
  -3  20   4 10636.2 1130.38   1
  -3  20   4 10468.7 538.294   3
   3  17   4 10239.3 471.199   3
  20 -16  -9 5205.00 913.595   3
  -4  20  -9 6406.12 1020.97   1
  20 -16  -9 5185.54 1103.17   4
  16 -20  -9 7954.28 1320.96   4
  20 -16  -9 6676.15 1442.95   2
  16 -20  -9 6958.50 1485.38   2
 -20   4  -9 4835.21 1197.41   1
 -16  -4  -9 6627.34 1016.35   4
 -20   4  -9 7739.33 951.111   4
  -4  20  -9 8084.81 1285.40   3
   4  16  -9 7389.33 1103.90   3
 -16  -4  -9 5685.33 1175.45   2
 -20   4  -9 7325.69 1034.01   2
  20 -16  -6 21281.3 1364.52   3
  16 -20  -6 20745.4 1210.79   3
  20 -16  -6 19407.6 1541.90   4
  20 -16  -6 21409.5 1864.35   2
  16 -20  -6 20539.6 1566.53   4
  -4  20  -6 19598.3 1298.55   1
 -20   4  -6 20344.8 1584.00   1
  16 -20  -6 22506.4 1831.23   2
 -16  -4  -6 22308.7 1502.90   4
 -20   4  -6 22297.5 1335.31   4
   4  16  -6 20073.0 1141.14   1
   4  16  -6 22537.5 1479.45   3
 -16  -4  -6 17124.3 1391.06   2
 -20   4  -6 20652.9 1338.67   2
 -20   4  -3 5851.07 747.922   2
 -20   4  -3 6984.86 845.117   1
  20 -16  -3 6363.81 829.671   3
  16 -20  -3 6095.32 772.058   3
  16 -20  -3 4353.74 802.667   4
  16 -20  -3 4516.29 883.055   2
  -4  20  -3 5504.40 735.956   2
   4  16  -3 5769.41 663.476   1
 -16  -4  -3 6320.15 844.068   4
  -4  20  -3 5463.74 744.791   1
   4  16  -3 5752.94 736.977   3
 -20   4  -3 6538.44 809.921   4
 -16  -4  -3 5498.67 873.726   2
 -16  -4   0 14942.4 1191.97   2
 -16  -4   0 15021.5 839.280   1
  20 -16   0 16514.3 1166.18   3
  20 -16   0 11762.9 857.250   2
  16 -20   0 17771.9 1173.27   4
  -4  20   0 15822.3 1157.23   1
   4  16   0 15622.5 919.723   3
  16 -20   0 16331.1 976.525   2
   4  16   0 15132.7 1041.31   1
 -16  -4   0 16358.2 1106.42   4
 -20   4   0 16755.4 867.923   1
  -4  20   3 8095.61 617.703   3
  20 -16   3 8161.15 936.735   3
  16 -20   3 7207.54 716.370   4
  -4  20   3 9236.71 1017.76   1
  20 -16   3 8533.69 612.844   2
   4  16   3 8885.25 552.498   3
  16 -20   6 4605.87 432.295   4
  20 -15 -10 1954.26 763.373   3
  15 -20 -10 1729.69 897.248   4
  20 -15 -10 2388.27 924.675   4
  20 -15 -10 1120.11 1227.15   2
  -5  20 -10 2999.91 905.877   1
 -20   5 -10 3124.73 1106.31   1
 -15  -5 -10 2276.12 777.005   4
  15 -20 -10 1813.27 1258.81   2
  -5  20 -10 3931.91 1049.76   3
   5  15 -10 1881.99 882.408   3
 -15  -5 -10 2406.03 1055.13   2
 -20   5 -10 3921.90 916.845   2
  20 -15  -7 22579.9 1439.96   3
  15 -20  -7 24794.3 1227.88   3
  -5  20  -7 26585.7 1593.19   1
  20 -15  -7 25103.3 1698.06   4
  20 -15  -7 27394.4 2140.48   2
  15 -20  -7 28000.2 1871.17   4
 -20   5  -7 29563.6 1935.14   1
  15 -20  -7 28674.5 2198.98   2
 -15  -5  -7 27582.3 1666.61   4
   5  15  -7 26314.2 1255.32   1
 -20   5  -7 27469.4 1474.66   4
   5  15  -7 31774.3 1755.96   3
 -15  -5  -7 24771.8 1803.55   2
 -20   5  -7 24762.2 1483.79   2
 -20   5  -4 8353.80 859.188   2
  20 -15  -4 8615.09 930.617   3
   5  15  -4 9332.03 744.748   1
  15 -20  -4 8589.78 789.694   3
  -5  20  -4 8878.97 714.892   4
  15 -20  -4 9348.57 1094.67   4
  15 -20  -4 10366.3 1182.57   2
 -20   5  -4 8864.53 979.419   1
  -5  20  -4 9338.08 887.420   1
  -5  20  -4 8769.19 728.603   2
 -20   5  -4 8511.09 877.904   4
 -15  -5  -4 10728.9 1011.83   4
   5  15  -4 10282.0 938.735   3
 -15  -5  -4 8693.65 990.564   2
 -15  -5  -1 51528.6 2038.92   2
  20 -15  -1 49871.8 1873.43   3
   5  15  -1 50548.3 1701.65   1
 -20   5  -1 51228.8 1873.53   2
  15 -20  -1 53176.9 2013.60   4
  15 -20  -1 46398.7 1728.64   2
 -15  -5  -1 46453.5 1568.31   1
 -15  -5  -1 52387.7 1937.57   4
  -5  20  -1 49227.6 1807.98   2
   5  15  -1 51808.0 1653.10   3
 -20   5  -1 54324.5 1656.25   1
  -5  20  -1 51672.9 1905.79   1
  -5  20   2 11292.2 764.591   3
  20 -15   2 11906.3 1042.65   3
 -20   5   2 10047.6 507.885   1
 -15  -5   2 11237.1 1052.43   2
  15 -20   2 13280.9 929.227   4
 -15  -5   2 11771.7 528.914   1
 -15  -5   2 11489.2 966.529   4
  15 -20   2 9296.67 419.802   2
   5  15   2 12675.1 713.083   3
  -5  20   2 11185.0 1092.86   1
  20 -15   2 9503.77 703.093   2
  15 -20   5 42266.3 1271.46   4
  15 -20   5 39766.0 1186.30   4
  -5  20   5 34562.0 824.448   3
   6  14  -8 1364.39 490.943   1
 -20   6  -8 750.218 530.232   2
  20 -14  -8 1437.65 686.521   3
  14 -20  -8 166.740 418.628   3
  20 -14  -8 1761.18 747.229   4
  -6  20  -8 252.417 636.342   1
  14 -20  -8 1798.43 784.486   4
 -14  -6  -8 2576.05 766.096   4
 -20   6  -8 2107.00 921.074   1
 -20   6  -8 1641.19 608.956   4
  14 -20  -8 1596.45 1008.54   2
   6  14  -8 2137.07 771.343   3
  20 -14  -8 2850.05 1105.21   2
 -14  -6  -8 885.116 765.551   2
  20 -14  -5 9597.81 965.610   3
  14 -20  -5 9478.95 788.246   3
  14 -20  -5 10270.5 1154.84   4
  -6  20  -5 11449.7 1065.92   1
  14 -20  -5 10009.4 1277.64   2
 -20   6  -5 9776.29 1090.89   1
 -14  -6  -5 11114.1 1110.18   4
  -6  20  -5 9891.11 679.434   2
 -20   6  -5 9855.46 925.165   4
   6  14  -5 9957.39 1011.84   3
 -14  -6  -5 8764.68 678.182   3
 -14  -6  -5 9616.63 1098.49   2
 -20   6  -5 9681.72 947.465   2
   6  14  -5 9966.87 740.149   1
  20 -14  -2 40748.4 1710.95   3
 -20   6  -2 39957.5 1640.80   2
  14 -20  -2 42151.7 1839.08   4
  14 -20  -2 38962.3 1776.26   2
  -6  20  -2 38576.1 1457.66   2
 -20   6  -2 39469.3 1549.34   1
 -14  -6  -2 41220.9 1775.81   4
  -6  20  -2 39402.5 1650.14   1
   6  14  -2 42049.5 1558.95   3
 -14  -6  -2 44171.1 1926.38   2
   6  14  -2 40852.0 1411.88   1
 -14  -6   1 16980.0 788.796   1
 -14  -6   1 16451.2 1215.05   2
  20 -14   1 18193.1 1229.31   3
  -6  20   1 16018.0 1137.32   1
  14 -20   1 17088.6 817.641   2
 -14  -6   1 18914.8 1149.76   4
  14 -20   1 17170.6 1071.97   4
   6  14   1 17678.9 883.301   3
 -20   6   1 18023.0 787.759   1
  20 -14   1 13867.9 882.679   2
  -6  20   4 5554.97 499.426   3
  20 -14   4 6366.28 812.569   3
  14 -20   4 5493.26 556.504   4
  20 -14   4 5712.67 566.316   2
  -6  20   4 7782.24 1007.25   1
   6  14   4 5423.71 392.507   3
 -20   7  -9 2500.20 712.713   2
  -7  20  -9 5591.57 979.762   1
  20 -13  -9 2643.16 756.893   3
  20 -13  -9 1937.36 1210.18   2
  13 -20  -9 3314.67 972.732   4
  20 -13  -9 3686.89 964.709   4
  13 -20  -9 4612.49 1353.42   2
 -13  -7  -9 3723.65 823.966   4
 -20   7  -9 3143.39 1090.37   1
   7  13  -9 3803.88 948.244   3
 -13  -7  -9 3029.84 976.225   2
  20 -13  -6 23889.0 1411.16   3
  -7  20  -6 26648.6 1545.77   1
  13 -20  -6 24396.9 1104.26   3
  13 -20  -6 25887.4 1699.95   4
 -20   7  -6 26776.4 1725.19   1
  13 -20  -6 29025.5 2019.23   2
 -13  -7  -6 27606.6 1594.71   4
   7  13  -6 23441.4 1489.43   3
 -13  -7  -6 25594.7 1725.02   2
   7  13  -6 26975.2 1088.02   1
 -20   7  -6 25053.2 1334.21   2
 -13  -7  -3 2268.53 705.171   2
  20 -13  -3 1837.33 581.752   3
 -20   7  -3 566.987 409.260   2
   7  13  -3 1344.88 390.920   1
  13 -20  -3 1573.25 661.502   2
 -13  -7  -3 2420.78 607.716   4
 -20   7  -3 885.391 504.256   1
 -13  -7  -3 1830.00 444.385   3
  13 -20  -3 858.537 532.258   4
   7  13  -3 1298.01 487.537   3
  20 -13  -3 959.189 411.943   1
  -7  20  -3 708.539 488.246   1
  -7  20  -3 1072.82 393.008   2
  -7  20   0 21769.0 1272.58   1
 -13  -7   0 21383.6 1354.43   2
  20 -13   0 22368.7 1316.46   3
  13 -20   0 22476.9 1260.29   4
  -7  20   0 22212.4 1261.50   2
 -13  -7   0 21749.5 1006.92   1
  13 -20   0 23963.9 1109.89   2
 -13  -7   0 24224.3 1314.78   4
 -20   7   0 23000.8 1008.75   1
   7  13   0 24055.8 1070.72   3
 -20   7   3 2702.55 302.320   1
  -7  20   3 3778.99 742.612   1
  -7  20   3 2909.73 442.162   3
  20 -13   3 3656.43 712.273   3
  13 -20   3 2619.97 469.715   4
 -13  -7   3 2903.35 599.858   4
  20 -13   3 3041.83 528.743   2
 -13  -7   3 2112.19 251.638   1
   7  13   3 3265.19 401.732   3
  13 -20   6 1937.50 233.194   4
  20 -12 -10 2996.90 822.196   3
  -8  20 -10 4169.74 999.718   1
  20 -12 -10 2090.12 1281.11   2
  12 -20 -10 3201.16 1030.69   4
  12 -20 -10 1330.37 1151.97   2
 -20   8 -10 2928.53 1130.20   1
  20 -12 -10 3336.86 1002.74   4
 -12  -8 -10 2813.06 1162.31   2
   8  12 -10 2179.58 830.804   3
 -12  -8 -10 4436.90 960.325   4
  -8  20  -7 16996.1 1320.02   1
  12 -20  -7 18422.3 1530.22   4
  12 -20  -7 15338.4 1681.92   2
 -20   8  -7 21352.0 1625.92   1
 -12  -8  -7 18885.1 1393.35   4
 -12  -8  -7 16743.5 1535.66   2
   8  12  -7 19904.3 1437.10   3
   8  12  -7 17506.2 865.286   1
 -20   8  -7 17878.5 1164.79   2
  20 -12  -7 17463.8 1276.16   3
  20 -12  -4 7484.99 862.879   3
 -20   8  -4 7355.51 737.067   2
  12 -20  -4 7674.89 960.412   4
  -8  20  -4 7355.13 894.893   1
  -8  20  -4 6482.11 453.349   2
  12 -20  -4 6802.25 1007.67   2
 -20   8  -4 7877.63 910.670   1
 -12  -8  -4 8693.85 950.779   4
   8  12  -4 8109.68 621.447   1
 -12  -8  -4 6542.26 559.223   3
   8  12  -4 7203.73 826.905   3
 -12  -8  -4 6599.06 965.097   2
  20 -12  -4 6836.18 636.454   1
  20 -12  -1 45014.7 1751.21   3
  12 -20  -1 48543.5 1827.25   4
  -8  20  -1 44399.9 1544.74   2
  20 -12  -1 42186.4 1548.69   1
  12 -20  -1 44644.0 1694.78   2
 -12  -8  -1 45690.8 1772.65   4
 -20   8  -1 40859.3 1454.99   1
  -8  20  -1 44505.3 1751.04   1
   8  12  -1 46581.6 1562.61   3
 -12  -8  -1 37470.6 1799.74   2
  -8  20   2 16907.4 923.180   3
  20 -12   2 21510.0 1312.69   3
 -12  -8   2 20394.8 1315.90   2
 -12  -8   2 18796.1 778.078   1
  12 -20   2 19480.7 1034.66   4
 -20   8   2 18364.3 785.742   1
  -8  20   2 19336.5 1275.62   1
 -12  -8   2 19084.7 1137.10   4
  12 -20   2 19551.2 698.880   2
  20 -12   2 17219.1 1007.92   2
   8  12   2 18313.7 837.023   3
   8  12   5 6050.13 340.374   3
  12 -20   5 7205.92 515.494   4
  -8  20   5 7617.47 1010.75   1
  20 -12   5 5596.61 674.682   2
  -8  20   5 6703.78 514.441   3
  -9  20  -8 17778.9 1436.20   1
 -20   9  -8 21171.7 1733.16   1
  20 -11  -8 20895.2 1562.49   4
  11 -20  -8 20462.1 1937.51   2
  11 -20  -8 23634.8 1739.98   4
 -11  -9  -8 23555.2 1558.34   4
 -11  -9  -8 18272.6 1717.67   2
   9  11  -8 24060.7 1576.30   3
 -20   9  -8 18342.2 1151.74   2
  20 -11  -8 14783.2 1247.96   3
 -20   9  -5 9544.53 793.932   2
  -9  20  -5 10917.3 1082.07   1
  11 -20  -5 9658.84 1087.51   4
  11 -20  -5 10557.0 1268.69   2
   9  11  -5 11449.8 637.149   1
 -20   9  -5 10688.0 1103.58   1
 -11  -9  -5 8329.44 979.985   4
 -11  -9  -5 10120.0 585.722   3
  20 -11  -5 9750.81 676.336   1
 -11  -9  -5 9449.41 1129.86   2
   9  11  -5 11902.4 1021.06   3
  20 -11  -5 7044.47 880.599   3
  -9  20  -2 24126.6 997.727   2
  20 -11  -2 25634.5 1355.35   3
   9  11  -2 27663.9 1073.79   1
  11 -20  -2 29133.3 1554.64   4
  20 -11  -2 23715.6 1099.91   1
  -9  20  -2 31148.7 1497.96   1
 -11  -9  -2 31872.9 1544.51   4
  11 -20  -2 26720.0 1469.82   2
 -20   9  -2 26947.2 1300.64   1
 -11  -9  -2 27555.7 1142.12   3
   9  11  -2 30515.1 1374.24   3
 -11  -9  -2 30267.9 1612.85   2
 -11  -9   1 26270.7 1476.75   2
 -20   9   1 26574.9 1025.58   1
  20 -11   1 27229.9 1420.11   3
  -9  20   1 21907.4 1321.29   1
  11 -20   1 26132.0 1249.20   4
 -11  -9   1 28414.5 1351.56   4
  11 -20   1 25341.8 1001.67   2
 -11  -9   1 26189.7 1033.68   1
   9  11   1 25348.3 1047.99   3
  20 -11   1 22529.3 1161.76   2
  20 -11   4 22240.4 1321.16   3
  -9  20   4 19635.6 1348.61   1
  11 -20   4 19267.4 881.379   4
 -11  -9   4 15162.3 618.581   1
  20 -11   4 17650.7 1102.24   2
 -11  -9   4 21620.1 1140.75   4
 -20   9   4 19056.6 728.967   1
   9  11   4 19134.5 760.113   3
  -9  20   4 17523.4 857.934   3
  20 -10  -9 756.986 673.566   3
 -10  20  -9 1418.28 858.257   1
  20 -10  -9 345.462 715.240   4
  20 -10  -9-238.010 969.555   2
  10 -20  -9 510.162 730.862   4
  10 -20  -9 1648.34 1071.61   2
 -20  10  -9 345.676 757.424   1
 -10 -10  -9 339.314 628.818   4
 -10 -10  -9 900.977 850.612   2
  10  10  -9-484.192 701.527   3
 -20  10  -6 10851.5 805.058   2
 -10  20  -6 11163.7 1060.14   1
  10 -20  -6 10243.8 1168.53   4
  10 -20  -6 11473.0 1391.76   2
  10  10  -6 8819.46 495.447   1
 -10 -10  -6 11996.7 1127.71   4
 -20  10  -6 11507.4 1210.13   1
 -10 -10  -6 10353.4 1262.69   2
  10  10  -6 8999.20 971.201   3
  20 -10  -6 9871.87 1017.08   3
  20 -10  -3 577.382 495.629   3
  10 -20  -3 2001.37 670.690   4
 -10 -10  -3 627.903 519.553   4
  10 -20  -3 1690.77 685.436   2
  20 -10  -3 1949.84 422.236   1
 -10  20  -3 1936.49 617.380   1
 -10 -10  -3 1373.27 386.006   3
 -20  10  -3 1057.02 541.161   1
  10  10  -3 1554.80 522.901   3
 -10 -10  -3 1845.49 688.075   2
 -10 -10   0 3090.50 510.973   1
 -10 -10   0 2656.34 617.463   2
  20 -10   0 2531.09 623.752   3
 -10  20   0 3475.45 589.256   2
  10 -20   0 3503.11 609.779   4
 -10  20   0 2446.97 567.841   1
  20 -10   0 1587.41 515.407   1
 -10 -10   0 2349.40 556.376   4
  10 -20   0 3305.66 528.631   2
  10  10   0 2663.19 528.775   3
 -20  10   0 2984.93 509.673   1
 -10  20   3 1324.13 424.959   3
 -10  20   3 856.978 569.804   1
  10 -20   3 1275.36 213.674   2
 -10 -10   3 1200.77 349.127   1
  20 -10   3 1547.79 617.299   3
 -10 -10   3 1088.07 566.606   2
  10 -20   3 1464.69 385.339   4
 -20  10   3 1768.76 363.417   1
 -10 -10   3 1666.89 450.063   4
  20 -10   3 1091.58 517.821   2
  10  10   3 1811.91 360.565   3
  20  -9 -10 2089.85 798.026   3
 -11  20 -10 958.607 773.079   1
  20  -9 -10 1019.67 722.888   4
  20  -9 -10 2797.16 1306.28   2
   9 -20 -10 2775.14 929.979   4
  -9 -11 -10 992.531 719.349   4
   9 -20 -10 235.612 1126.62   2
 -20  11 -10 2427.64 1012.01   1
  -9 -11 -10 2994.48 1079.92   2
  11   9 -10 1887.70 780.042   3
 -20  11  -7 11996.8 827.368   2
  -9 -11  -7 11368.5 1199.20   4
   9 -20  -7 9717.40 1168.18   4
   9 -20  -7 13681.6 1567.77   2
 -20  11  -7 16083.4 1439.18   1
  -9 -11  -7 13476.8 1440.88   2
  11   9  -7 12036.2 1137.09   3
  20  -9  -7 10387.1 1036.76   3
 -11  20  -7 15471.6 1276.96   1
 -11  20  -4 20569.5 1325.27   1
 -20  11  -4 18944.2 941.799   2
  -9 -11  -4 19435.3 1330.01   4
   9 -20  -4 18834.8 1378.19   4
  20  -9  -4 18033.2 761.988   1
 -20  11  -4 19724.2 1300.37   1
  -9 -11  -4 21463.9 1553.37   2
   9 -20  -4 17219.0 1457.09   2
  11   9  -4 20821.6 1238.52   3
  20  -9  -4 18110.5 1230.40   3
  20  -9  -1 23604.7 1302.72   3
  20  -9  -1 24440.7 1111.17   1
   9 -20  -1 25537.2 1380.00   4
  -9 -11  -1 25609.8 1345.40   4
   9 -20  -1 24980.5 1305.18   2
 -11  20  -1 24773.6 1349.68   1
  11   9  -1 25829.6 1195.17   3
 -20  11  -1 24973.1 1188.02   1
  -9 -11  -1 26906.5 1497.31   2
  -9 -11   2 24677.1 1407.29   2
  20  -9   2 26120.9 1376.96   3
  -9 -11   2 25786.3 1046.44   1
 -11  20   2 23570.7 1361.43   1
 -20  11   2 25528.6 1054.24   1
   9 -20   2 26623.0 1172.54   4
  -9 -11   2 28285.9 1287.88   4
   9 -20   2 26925.0 968.735   2
  11   9   2 27164.9 1057.37   3
  11   9   5 11078.6 625.850   3
  20  -9   5 12052.0 1078.06   3
 -20  11   5 9888.20 648.320   1
  -9 -11   5 10130.7 656.163   1
   9 -20   5 11237.3 568.623   4
 -11  20   5 10417.2 1064.43   1
 -11  20   5 9979.51 695.344   3
  20  -8  -8 1750.59 690.811   3
 -12  20  -8 1669.82 738.857   1
   8 -20  -8 1680.26 768.984   4
  -8 -12  -8 1587.15 668.937   4
   8 -20  -8 2024.42 1023.18   2
 -20  12  -8 2171.95 854.181   1
  -8 -12  -8 1725.45 891.839   2
  12   8  -8 2008.90 745.375   3
 -12  20  -5 6748.60 881.135   1
 -20  12  -5 6315.71 558.325   2
  20  -8  -5 4501.29 311.577   1
   8 -20  -5 6447.40 953.317   4
 -20  12  -5 7116.39 957.158   1
   8 -20  -5 5262.14 1037.84   2
  -8 -12  -5 7863.67 1117.18   2
  -8 -12  -5 7616.01 989.844   4
  12   8  -5 7598.37 884.371   3
  20  -8  -5 5858.53 817.339   3
 -12  20  -2 17376.8 1161.83   1
  -8 -12  -2 21351.2 1308.06   4
   8 -20  -2 17057.5 1208.86   4
   8 -20  -2 20002.9 1305.37   2
 -20  12  -2 20293.0 1184.29   1
  12   8  -2 19986.9 1134.68   3
  -8 -12  -2 18764.2 1349.99   2
  20  -8  -2 17182.8 1187.02   3
  -8 -12   1 41570.1 1775.08   2
  20  -8   1 42396.1 1694.59   3
 -20  12   1 44121.9 1439.70   1
   8 -20   1 42191.4 1557.82   4
  -8 -12   1 42351.4 1401.22   1
  -8 -12   1 41889.0 1621.18   4
   8 -20   1 42969.8 1398.83   2
  12   8   1 41100.7 1378.24   3
 -12  20   1 40863.5 1712.78   1
  12   8   4 8820.06 643.988   3
  20  -8   4 7671.76 850.960   3
   8 -20   4 7165.23 569.489   4
 -20  12   4 7658.73 646.697   1
  -8 -12   4 7709.27 683.539   4
  -8 -12   4 6140.23 575.472   1
 -12  20   4 7557.91 901.122   1
 -13  20  -9 4220.79 946.408   1
  -7 -13  -9 4064.43 954.795   4
   7 -20  -9 4564.24 1274.37   2
  -7 -13  -9 4775.02 1166.02   2
 -20  13  -9 3665.27 1039.35   1
  13   7  -9 3141.53 917.677   3
   7 -20  -9 2964.77 1006.24   4
  20  -7  -9 3563.62 775.645   3
 -20  13  -6 2331.29 387.723   2
 -13  20  -6 783.600 639.280   1
   7 -20  -6 4202.03 857.983   4
  -7 -13  -6 1865.82 647.434   4
   7 -20  -6 2834.69 926.416   2
  -7 -13  -6 5248.15 999.832   2
 -20  13  -6 3867.77 815.808   1
  13   7  -6 2827.00 690.583   3
  20  -7  -6 1935.22 639.822   3
  20  -7  -3 2796.34 640.483   3
 -13  20  -3 3420.73 711.839   1
   7 -20  -3 2188.73 634.134   4
  -7 -13  -3 4699.78 800.645   4
   7 -20  -3 3635.94 792.559   2
  -7 -13  -3 5009.05 854.493   2
  13   7  -3 3730.78 679.003   3
 -20  13  -3 2534.49 653.117   1
  -7 -13   0 24101.3 1268.79   4
  20  -7   0 19621.3 1205.44   3
 -20  13   0 23883.5 1160.84   1
   7 -20   0 20841.7 1200.27   4
 -13  20   0 23375.6 1307.96   1
   7 -20   0 22627.8 1168.55   2
  13   7   0 21955.7 1099.77   3
  -7 -13   0 21639.7 1320.28   2
  13   7   3 1132.66 384.479   3
  -7 -13   3 638.064 428.914   1
  20  -7   3 1216.03 536.727   3
   7 -20   3 928.140 312.214   2
  -7 -13   3 566.213 545.779   2
 -20  13   3 551.460 389.828   1
   7 -20   3 748.337 334.401   4
 -13  20   3 771.808 510.471   1
  -7 -13   3 1178.96 455.502   4
  13   7   6 24765.4 901.864   3
 -13  20   6 24768.8 1572.53   1
 -14  20 -10 2623.96 991.326   1
  20  -6 -10 2286.48 852.703   4
   6 -20 -10 2416.26 858.891   4
  -6 -14 -10 5611.04 1019.09   4
   6 -20 -10 1385.62 1028.03   2
  -6 -14 -10 1539.14 1069.32   2
 -20  14 -10 3983.99 1125.14   1
  14   6 -10 2439.69 871.618   3
  20  -6 -10 2489.41 850.341   3
   6 -20  -7 11369.1 1270.94   4
  -6 -14  -7 10745.2 1159.83   4
   6 -20  -7 12797.0 1516.64   2
 -20  14  -7 11806.7 1280.27   1
  -6 -14  -7 13692.4 1511.32   2
  14   6  -7 11415.5 1133.68   3
  20  -6  -7 11153.9 1110.82   3
 -14  20  -7 11542.1 1292.85   1
 -14  20  -4 5896.18 847.445   1
   6 -20  -4 6940.66 903.658   4
  -6 -14  -4 5994.32 892.907   4
   6 -20  -4 4997.22 896.946   2
  -6 -14  -4 6293.05 956.720   2
 -20  14  -4 5835.90 846.608   1
  14   6  -4 6966.17 816.542   3
  20  -6  -4 5563.42 802.041   3
   6 -20  -1 15093.6 1110.24   4
 -14  20  -1 16259.5 1143.52   1
  -6 -14  -1 16443.1 1158.88   4
   6 -20  -1 16284.3 1132.03   2
  -6 -14  -1 17692.7 1261.65   2
  14   6  -1 16629.7 1018.95   3
 -20  14  -1 16398.8 1044.52   1
  20  -6  -1 14435.9 1066.08   3
  -6 -14   2 41605.1 1776.08   2
  20  -6   2 40109.6 1683.31   3
 -14  20   2 42381.6 1773.52   1
  -6 -14   2 45582.2 1610.96   4
   6 -20   2 38492.1 1424.19   4
 -20  14   2 39003.7 1424.22   1
   6 -20   2 43863.4 1425.32   2
  14   6   2 38768.1 1364.59   3
  14   6   5 10179.4 723.305   3
  20  -6   5 10663.6 1001.04   3
 -14  20   5 8086.25 966.456   1
   6 -20   5 9449.91 543.601   4
  -6 -14   5 9817.59 717.823   4
 -20  14   5 9119.55 763.706   1
  -6 -14   5 9274.66 788.796   1
   5 -20  -8 7730.54 1110.92   4
  -5 -15  -8 9192.77 1196.61   4
   5 -20  -8 7913.21 1387.76   2
  -5 -15  -8 8463.78 1333.04   2
 -20  15  -8 9214.99 1227.46   1
  15   5  -8 10014.2 1180.18   3
 -15  20  -8 10015.8 1218.09   1
  20  -5  -8 6866.87 960.682   3
   5 -20  -5 46879.1 2140.63   4
  -5 -15  -5 46476.7 2061.99   4
   5 -20  -5 44639.6 2318.08   2
  -5 -15  -5 41241.9 2180.66   2
 -20  15  -5 47578.1 2091.33   1
  15   5  -5 45915.8 1934.53   3
  20  -5  -5 42379.4 1863.67   3
 -15  20  -5 44656.6 2007.48   1
 -15  20  -2 10083.7 1007.33   1
   5 -20  -2 10981.0 1065.86   2
   5 -20  -2 12589.3 1066.46   4
  -5 -15  -2 9999.77 982.550   4
  -5 -15  -2 10268.9 1061.09   2
  15   5  -2 10799.0 922.606   3
 -20  15  -2 10789.2 978.882   1
  20  -5  -2 11542.9 1000.04   3
  20  -5   1 53517.8 1882.38   3
 -20  15   1 53293.0 1729.02   1
   5 -20   1 52926.2 1765.08   4
  -5 -15   1 51216.0 1772.63   4
 -15  20   1 51526.7 1898.63   1
   5 -20   1 54590.2 1730.21   2
  -5 -15   1 49502.1 1914.95   2
  15   5   4 9429.96 754.981   3
  20  -5   4 7512.29 885.559   3
   5 -20   4 8567.53 639.924   4
 -20  15   4 9030.02 827.406   1
  -5 -15   4 8386.63 711.839   4
 -15  20   4 9621.22 1009.51   1
 -16  20  -9 2532.69 869.983   1
   4 -20  -9 2311.26 934.707   4
  -4 -16  -9 4638.89 987.879   4
   4 -20  -9 2016.27 1108.86   2
  -4 -16  -9 3259.92 1178.72   2
 -20  16  -9 2239.77 933.544   1
  16   4  -9 1627.96 754.241   3
  20  -4  -9 2789.34 793.322   3
   4 -20  -6 4631.96 878.752   4
  -4 -16  -6 5217.14 856.018   4
  -4 -16  -6 4842.09 1064.78   2
   4 -20  -6 3771.02 1019.35   2
  16   4  -6 4117.86 827.688   3
  20  -4  -6 5000.67 831.677   3
 -16  20  -6 6211.07 970.011   1
 -20  16  -6 4301.70 861.771   1
 -16  20  -3 11077.1 1114.66   1
  -4 -16  -3 9770.07 1010.71   4
   4 -20  -3 10154.5 1046.93   4
   4 -20  -3 10480.8 1123.30   2
  -4 -16  -3 11460.4 1178.83   2
  16   4  -3 9374.63 941.314   3
 -20  16  -3 9550.35 987.570   1
  20  -4  -3 10307.5 990.232   3
 -20  16   0 14746.5 997.148   1
   4 -20   0 16819.9 1131.44   4
  -4 -16   0 16975.1 1110.11   4
 -16  20   0 14916.9 1090.64   1
   4 -20   0 15295.0 1051.15   2
  -4 -16   0 17558.0 1205.34   2
  16   4   0 16925.6 1046.19   3
  20  -4   0 14171.4 1066.55   3
 -20  16   3 6546.83 753.262   1
  16   4   3 6188.42 656.773   3
   4 -20   3 7110.39 692.716   2
  20  -4   3 7060.26 818.949   3
  -4 -16   3 8371.67 900.277   2
 -16  20   3 6501.58 836.181   1
   4 -20   3 6346.13 629.091   4
  -4 -16   3 6690.10 672.292   4
  16   4   6 20842.2 1035.64   3
 -16  20   6 22206.5 1464.78   1
  20  -4   6 18114.7 1235.18   3
 -20  16   6 17851.9 1155.16   1
   4 -20   6 18085.4 613.802   4
 -17  20 -10 3149.90 1032.14   1
   3 -20 -10 3924.98 1053.40   4
  -3 -17 -10 4044.10 1091.33   4
   3 -20 -10 6011.73 1441.32   2
  -3 -17 -10 4792.24 1296.24   2
  17   3 -10 2906.28 930.491   3
 -20  17 -10 4554.30 1172.67   1
  20  -3 -10 1640.84 786.971   3
 -17  20  -7 4018.59 907.870   1
   3 -20  -7 982.577 665.805   4
  -3 -17  -7 3313.30 815.374   4
   3 -20  -7 1720.01 902.778   2
  -3 -17  -7 5204.53 1111.79   2
  17   3  -7 2132.21 699.603   3
 -20  17  -7 4010.37 993.103   1
  20  -3  -7 2676.21 791.910   3
 -17  20  -4 11721.7 1153.56   1
   3 -20  -4 10814.4 1121.96   4
  -3 -17  -4 7960.01 1009.34   4
   3 -20  -4 9348.31 1145.81   2
  -3 -17  -4 11474.2 1248.47   2
 -20  17  -4 12337.9 1135.62   1
  17   3  -4 10659.0 1008.39   3
  20  -3  -4 11680.1 1098.42   3
  20  -3  -1 1237.92 542.749   3
   3 -20  -1 819.201 490.428   4
 -20  17  -1 1405.60 581.149   1
  -3 -17  -1 1923.38 565.617   4
 -17  20  -1 1550.11 577.521   1
   3 -20  -1 2733.17 621.973   2
  -3 -17  -1 1972.04 636.236   2
  17   3  -1 1663.48 520.903   3
  -3 -17   2 4885.39 746.940   2
  20  -3   2 4648.17 721.787   3
   3 -20   2 5674.86 656.932   4
  -3 -17   2 4804.60 631.484   4
 -20  17   2 4912.07 689.064   1
 -17  20   2 6577.38 800.168   1
   3 -20   2 5768.48 681.863   2
  17   3   2 6268.24 694.653   3
 -20  17   5 2529.75 619.755   1
 -17  20   5 2537.09 668.037   1
  17   3   5 3096.19 547.901   3
  20  -3   5 2552.09 598.345   3
   3 -20   5 2982.99 411.965   4
  -3 -17   5 3625.01 491.956   4
  -2 -18  -8 69.5109 868.843   2
 -18  20  -8 795.011 730.675   1
   2 -20  -8-56.9108 740.219   4
  -2 -18  -8 629.412 662.023   4
   2 -20  -8 1113.36 949.799   2
  18   2  -8 742.741 665.240   3
  20  -2  -8 978.500 732.958   3
 -20  18  -8 672.923 872.069   1
   2 -20  -5 29576.5 1786.40   4
  -2 -18  -5 28290.7 1741.33   4
   2 -20  -5 24861.6 1861.29   2
  -2 -18  -5 27491.4 1880.56   2
 -20  18  -5 31674.4 1786.83   1
  18   2  -5 26443.2 1534.61   3
  20  -2  -5 29857.1 1623.86   3
 -18  20  -5 27062.0 1683.83   1
  20  -2  -2 76.8190 547.972   3
 -20  18  -2 1318.94 581.875   1
   2 -20  -2 361.203 536.446   4
  -2 -18  -2-133.831 556.605   4
 -18  20  -2-225.673 574.011   1
   2 -20  -2 1521.51 671.344   2
  -2 -18  -2 953.085 624.170   2
  18   2  -2 205.022 453.916   3
  20  -2   1 52555.6 1858.79   3
   2 -20   1 54177.3 1860.08   4
  -2 -18   1 53501.3 1868.29   4
 -20  18   1 50398.6 1828.23   1
 -18  20   1 48387.9 1907.04   1
   2 -20   1 54721.9 1891.17   2
  -2 -18   1 53153.7 1992.64   2
  18   2   1 50762.8 1749.62   3
  18   2   4 2450.76 545.712   3
  20  -2   4 3225.92 637.079   3
  -2 -18   4 2704.80 471.450   4
   2 -20   4 1758.58 410.954   4
 -20  18   4 3290.09 663.219   1
 -18  20   4 2608.20 663.643   1
 -19  20  -9 6827.09 1157.78   1
   1 -20  -9 7355.31 1199.89   4
  -1 -19  -9 7563.70 1173.48   4
   1 -20  -9 4567.73 1325.39   2
  -1 -19  -9 6614.45 1402.97   2
 -20  19  -9 8172.81 1296.90   1
  19   1  -9 6567.17 1062.60   3
  20  -1  -9 8546.78 1145.18   3
 -20  19  -6 3644.76 873.453   1
 -19  20  -6 3696.05 898.225   1
   1 -20  -6 6039.45 1002.05   4
  -1 -19  -6 4773.34 942.221   4
   1 -20  -6 4603.55 1052.67   2
  -1 -19  -6 3340.65 956.309   2
  19   1  -6 4706.77 862.257   3
  20  -1  -6 4371.03 841.863   3
 -20  19  -3 7641.99 945.124   1
 -19  20  -3 6700.01 891.600   1
   1 -20  -3 6890.65 902.428   4
  -1 -19  -3 7303.18 913.127   4
   1 -20  -3 7125.59 1011.34   2
  -1 -19  -3 6447.39 979.886   2
  19   1  -3 7721.40 885.959   3
  20  -1  -3 6547.84 891.574   3
 -20  19   0 9781.43 913.792   1
   1 -20   0 9960.48 946.077   4
 -19  20   0 8860.43 911.174   1
  -1 -19   0 7753.52 874.759   4
   1 -20   0 8825.99 922.780   2
  -1 -19   0 7819.72 920.883   2
  19   1   0 8902.47 877.998   3
  20  -1   0 8550.12 876.455   3
  19   1   3 10963.0 918.028   3
  20  -1   3 9163.59 882.213   3
   1 -20   3 9833.91 905.985   2
 -20  19   3 9200.83 948.723   1
  -1 -19   3 9644.43 927.333   2
 -19  20   3 8535.04 938.737   1
   1 -20   3 10113.7 835.446   4
  -1 -19   3 11715.0 864.286   4
 -20  19   6 5482.94 852.966   1
  19   1   6 6937.29 835.406   3
  20  -1   6 6584.18 790.182   3
 -19  20   6 4654.39 869.717   1
   1 -20   6 5875.34 493.381   4
  -1 -19   6 6985.32 579.498   4
 -20  20  -7 956.586 741.359   1
   0 -20  -7-474.643 735.556   4
   0 -20  -7 1476.87 906.964   2
  20   0  -7 95.0403 641.286   3
 -20  20  -4 2315.42 733.664   1
   0 -20  -4 1596.81 655.771   4
   0 -20  -4 2879.00 871.900   2
  20   0  -4 1000.48 625.786   3
  20   0  -1 1044.24 547.792   3
   0 -20  -1 238.355 548.908   4
 -20  20  -1 415.393 540.612   1
   0 -20  -1 194.708 506.713   2
  20   0   2 17379.5 1130.16   3
   0 -20   2 20294.4 1181.77   4
 -20  20   2 17379.7 1197.46   1
   0 -20   2 18753.4 1208.55   2
  20   0   5-53.4336 511.513   3
   0 -20   5-314.840 312.771   4
 -20  20   5-604.179 537.198   1
 -21   0  -9-1017.56 813.336   2
  21 -21  -9-362.531 844.348   4
  21 -21  -9-67.6311 1094.45   2
 -21   0  -9 63.3714 1008.57   1
 -21   0  -9 619.947 671.801   4
   0  21  -9-680.314 798.182   3
   0  21  -9-642.250 685.326   1
 -21   0  -6 3643.16 878.217   2
  21 -21  -6 2298.62 698.459   3
   0  21  -6 3593.51 720.890   1
  21 -21  -6 3016.93 917.929   4
  21 -21  -6 2586.10 1065.95   2
 -21   0  -6 2405.77 891.245   1
 -21   0  -6 3585.97 792.944   4
   0  21  -6 2868.55 810.098   3
 -21   0  -3-94.8106 571.169   2
  21 -21  -3 34.0304 536.270   3
  21 -21  -3-302.926 611.978   4
  21 -21  -3 256.294 658.680   2
 -21   0  -3 1077.10 668.071   4
   0  21  -3 95.7642 544.232   3
 -21   0  -3 665.806 577.129   1
   0  21  -3 878.859 518.909   1
 -21   0   0 47470.8 2103.85   2
  21 -21   0 45524.2 1974.88   3
 -21   0   0 46659.1 1449.23   1
 -21   0   0 48223.5 2027.61   4
   0  21   0 47341.4 1675.21   3
   0  21   0 48498.6 2010.54   1
  21 -21   0 47501.9 1807.68   2
   0  21   3-205.023 598.905   1
   0  21   3 412.102 327.542   3
  21 -21   6 10050.6 815.293   4
  21 -20  -7 10167.8 1068.88   3
  20 -21  -7 8221.95 941.651   3
 -20  -1  -7 10872.5 1422.84   1
  21 -20  -7 11815.9 1383.29   4
  20 -21  -7 8361.38 1196.89   4
  21 -20  -7 11013.9 1602.83   2
 -21   1  -7 12161.4 1421.80   1
  -1  21  -7 9606.41 1020.61   1
 -20  -1  -7 9607.21 1122.01   4
 -21   1  -7 9582.05 1084.31   4
   1  20  -7 11314.6 1054.41   1
  -1  21  -7 9526.40 1217.06   3
   1  20  -7 11976.8 1302.90   3
 -20  -1  -7 9217.44 1158.91   2
 -21   1  -7 7741.23 1066.65   2
  20 -21  -7 9621.29 1513.20   2
 -20  -1  -4 2054.71 709.704   2
 -21   1  -4 3256.05 773.661   2
  21 -20  -4 3318.18 732.296   3
  21 -20  -4 3535.29 824.590   4
  20 -21  -4 3943.30 742.453   3
 -21   1  -4 4739.96 893.523   1
  21 -20  -4 4335.78 1024.39   2
 -20  -1  -4 3791.35 902.648   1
  20 -21  -4 3804.62 971.699   2
  -1  21  -4 4251.38 685.876   1
  20 -21  -4 3375.99 826.481   4
 -20  -1  -4 4098.63 774.766   4
 -21   1  -4 5461.54 816.404   4
   1  20  -4 4177.49 684.307   1
  -1  21  -4 4317.15 850.422   3
   1  20  -4 4110.18 760.407   3
 -20  -1  -1 6797.62 927.315   2
 -21   1  -1 5273.55 839.318   2
 -21   1  -1 8699.39 799.044   1
  21 -20  -1 7557.16 946.929   3
  20 -21  -1 8862.36 955.485   3
  20 -21  -1 6360.60 881.361   4
  21 -20  -1 7582.24 937.860   2
 -20  -1  -1 7686.90 768.558   1
  20 -21  -1 9024.04 946.866   2
  -1  21  -1 6770.52 865.529   1
 -20  -1  -1 8131.39 923.536   4
 -21   1  -1 7322.31 891.004   4
   1  20  -1 8421.47 937.612   1
  -1  21  -1 6759.17 758.896   3
   1  20  -1 7147.90 782.533   3
   1  20   2 16983.4 1357.09   1
  20 -21   2 16481.2 1167.45   4
  20 -21   2 14626.8 662.549   2
  -1  21   2 13580.4 1205.73   1
 -21   1   2 11629.6 455.100   1
  21 -20   2 14092.9 736.591   2
  -1  21   2 15321.4 870.575   3
   1  20   2 15582.6 851.334   3
  21 -20   2 13365.6 686.746   2
 -20  -1   2 10379.3 416.336   1
 -21   1   2 11408.4 426.874   1
  20 -21   2 14270.8 613.794   2
  20 -21   5 13468.0 933.735   4
   2  19  -8 2530.68 640.075   1
 -21   2  -8 2907.60 853.844   2
  21 -19  -8 2067.54 736.330   3
  19 -21  -8 2736.83 731.091   3
  21 -19  -8 5362.56 1207.68   4
  19 -21  -8 3131.25 940.863   4
 -19  -2  -8 4387.68 1187.03   1
  21 -19  -8 3829.66 1294.46   2
  19 -21  -8 3127.76 1185.09   2
 -21   2  -8 2997.06 1029.37   1
 -21   2  -8 4348.56 825.170   4
 -19  -2  -8 3321.38 861.277   4
  -2  21  -8 4140.83 992.365   3
   2  19  -8 4611.06 968.297   3
  -2  21  -8 3028.10 819.908   1
 -19  -2  -8 3320.91 895.746   2
 -19  -2  -5 2262.58 706.792   2
  -2  21  -5 2366.18 657.142   1
 -21   2  -5 3303.99 770.278   2
  21 -19  -5 3134.42 733.178   3
  19 -21  -5 4045.61 727.693   3
  21 -19  -5 3232.03 851.039   4
  21 -19  -5 3344.74 959.003   2
  19 -21  -5 2694.61 887.977   2
  19 -21  -5 3920.94 918.469   4
   2  19  -5 2967.48 645.263   1
 -21   2  -5 2984.42 803.723   1
 -19  -2  -5 3568.90 732.676   4
 -21   2  -5 2961.22 740.725   4
  -2  21  -5 2446.30 756.988   3
   2  19  -5 1968.33 686.482   3
 -19  -2  -2 4863.61 884.554   2
   2  19  -2 5018.48 750.700   1
 -21   2  -2 4773.08 800.134   2
  -2  21  -2 5757.13 835.386   1
  21 -19  -2 5604.92 831.273   3
  19 -21  -2 4606.14 735.896   3
  19 -21  -2 6712.95 921.765   4
  19 -21  -2 5563.38 882.704   2
 -21   2  -2 5961.89 751.236   1
 -19  -2  -2 6195.59 864.952   4
 -21   2  -2 6541.55 852.239   4
  21 -19  -2 6007.72 1007.29   2
   2  19  -2 6878.57 772.885   3
  21 -19   1 6395.38 606.466   2
 -19  -2   1 6717.80 956.848   2
  21 -19   1 7744.49 912.449   3
  19 -21   1 6631.80 863.244   4
  21 -19   1 6587.77 707.627   2
 -19  -2   1 7294.61 555.051   1
  19 -21   1 7286.88 655.191   2
 -21   2   1 7097.94 536.631   1
   2  19   1 7144.05 926.765   1
 -19  -2   1 10179.6 988.504   4
  -2  21   1 8800.82 746.132   3
   2  19   1 8165.33 692.684   3
 -19  -2   1 6693.97 533.942   1
  -2  21   1 8405.86 969.728   1
  19 -21   4 950.283 432.916   4
  -2  21   4 1248.02 288.861   3
   2  19   4 852.781 247.765   3
 -21   3  -9 3155.32 905.204   2
  21 -18  -9 2244.89 834.334   3
  21 -18  -9 147.490 767.613   4
  18 -21  -9 4459.50 1027.94   4
 -18  -3  -9 3828.65 1170.74   1
  21 -18  -9 2359.59 1240.30   2
  18 -21  -9 2053.11 1274.66   2
 -21   3  -9 3022.07 1186.80   1
  -3  21  -9 3347.62 878.284   1
 -18  -3  -9 1611.32 730.878   4
 -21   3  -9 2258.00 716.436   4
  -3  21  -9 4422.48 1038.03   3
   3  18  -9 2258.16 905.769   3
 -18  -3  -9 4232.78 1069.54   2
  21 -18  -6 19702.1 1366.20   3
  18 -21  -6 19423.0 1239.08   3
  21 -18  -6 19775.6 1573.75   4
  18 -21  -6 19295.9 1583.76   4
 -21   3  -6 21140.4 1651.75   1
  18 -21  -6 16589.1 1805.15   2
  -3  21  -6 21064.8 1369.67   1
 -18  -3  -6 22174.1 1492.69   4
 -21   3  -6 17633.0 1288.51   4
  -3  21  -6 21546.3 1541.26   3
   3  18  -6 20606.6 1452.14   3
   3  18  -6 21360.8 1222.55   1
  21 -18  -6 19030.8 1826.91   2
 -18  -3  -6 19966.0 1548.63   2
 -21   3  -6 18554.1 1404.63   2
 -18  -3  -3 2521.78 789.792   2
   3  18  -3 2713.64 580.213   1
  21 -18  -3 1876.18 631.328   3
 -21   3  -3 2861.08 707.712   2
  18 -21  -3 2889.00 612.847   3
  21 -18  -3 2353.47 815.726   2
  18 -21  -3 3241.02 787.736   4
  -3  21  -3 2446.50 635.648   1
  18 -21  -3 2163.60 779.983   2
 -18  -3  -3 2852.65 711.381   4
 -21   3  -3 3511.90 743.915   4
   3  18  -3 3676.56 685.990   3
 -21   3  -3 3477.86 738.378   1
 -18  -3   0 29439.9 1647.00   2
  21 -18   0 25476.8 1478.61   3
  21 -18   0 22343.2 1136.66   2
  18 -21   0 26373.2 1467.09   4
   3  18   0 26200.8 1405.57   1
  18 -21   0 24283.4 1214.72   2
 -18  -3   0 24774.0 1073.36   1
  -3  21   0 25635.2 1487.62   1
 -21   3   0 27604.3 1104.57   1
 -18  -3   0 26962.6 1463.96   4
   3  18   0 27575.8 1222.17   3
  -3  21   3-491.733 617.335   1
  -3  21   3 351.125 343.038   3
  -3  21   3 682.817 338.393   3
  18 -21   3 467.325 465.012   4
  21 -18   3 319.621 269.210   2
   3  18   3 351.799 272.950   3
  18 -21   6 15987.5 834.750   4
 -21   4 -10 3784.24 916.311   2
 -21   4 -10 4600.27 1204.09   1
  21 -17 -10 1083.78 826.262   3
  21 -17 -10 4881.23 1140.67   4
 -17  -4 -10 4309.76 1300.73   1
  17 -21 -10 1543.87 889.608   4
  21 -17 -10 5956.79 1586.58   2
  17 -21 -10 2615.95 1398.37   2
  -4  21 -10 4199.09 1051.93   1
 -17  -4 -10 3431.37 892.567   4
 -21   4 -10 3088.26 780.055   4
  -4  21 -10 2957.05 984.593   3
   4  17 -10 3333.22 989.076   3
 -17  -4 -10 2827.56 1031.77   2
  21 -17  -7 7619.74 951.031   3
  17 -21  -7 7990.69 875.541   3
 -21   4  -7 9045.88 1223.12   1
  21 -17  -7 6824.28 1173.96   4
  21 -17  -7 8439.00 1429.80   2
  -4  21  -7 8256.99 1024.93   1
  17 -21  -7 10264.2 1284.54   4
  17 -21  -7 8377.45 1462.06   2
 -17  -4  -7 6537.93 948.283   4
 -21   4  -7 9025.57 992.247   4
  -4  21  -7 9637.98 1213.89   3
   4  17  -7 7201.22 804.430   1
   4  17  -7 10046.2 1129.06   3
 -17  -4  -7 8752.53 1171.91   2
 -21   4  -7 8732.29 1025.58   2
 -21   4  -4 9201.05 934.452   2
  21 -17  -4 8208.22 895.590   3
   4  17  -4 9044.89 821.161   1
  17 -21  -4 10715.7 938.700   3
  21 -17  -4 9807.78 1249.86   2
  17 -21  -4 8318.53 1054.73   4
  17 -21  -4 8397.78 1147.95   2
 -21   4  -4 7435.54 945.498   1
  -4  21  -4 6745.57 773.789   2
  -4  21  -4 10297.0 968.830   1
 -21   4  -4 9198.67 949.833   4
 -17  -4  -4 7642.71 910.366   4
   4  17  -4 8937.39 904.117   3
 -17  -4  -4 7565.51 1014.46   2
 -17  -4  -1 29966.9 1651.18   2
   4  17  -1 30692.7 1437.98   1
  -4  21  -1 27915.6 1497.37   1
  21 -17  -1 28748.5 1542.59   3
 -21   4  -1 30358.8 1557.57   2
  17 -21  -1 29419.9 1605.64   4
  17 -21  -1 26683.6 1429.99   2
 -21   4  -1 32293.4 1331.84   1
 -17  -4  -1 30586.0 1551.45   4
   4  17  -1 28271.8 1321.17   3
  -4  21   2 7620.88 962.203   1
  17 -21   2 5779.42 321.339   2
 -21   4   2 5751.60 392.356   1
  21 -17   2 5575.47 863.167   3
  17 -21   2 7288.81 801.276   4
 -17  -4   2 6687.29 400.851   1
  17 -21   2 5175.82 345.407   2
 -17  -4   2 6316.16 398.138   1
 -17  -4   2 6798.83 828.404   4
   4  17   2 7070.81 593.279   3
  21 -17   2 6212.73 582.061   2
  17 -21   5 26905.9 1128.11   4
  -4  21   5 21209.8 612.255   3
  21 -16  -8 9621.61 1103.28   3
  16 -21  -8 10312.5 884.807   3
  -5  21  -8 12001.4 1200.58   1
  21 -16  -8 10386.0 1287.42   4
  16 -21  -8 13545.7 1434.67   4
  21 -16  -8 7186.40 1494.79   2
 -21   5  -8 10628.5 1396.94   1
  16 -21  -8 8609.91 1656.70   2
 -16  -5  -8 11079.6 1208.09   4
   5  16  -8 11096.2 920.433   1
 -21   5  -8 10708.2 1043.05   4
  -5  21  -8 10523.6 1331.20   3
   5  16  -8 10936.5 1228.42   3
 -16  -5  -8 10184.0 1329.59   2
 -21   5  -8 9486.64 1060.69   2
  21 -16  -5-120.712 525.183   3
 -21   5  -5-107.507 450.777   2
  16 -21  -5-64.3693 447.439   3
  16 -21  -5 633.053 675.384   4
  16 -21  -5 738.113 788.977   2
 -21   5  -5 199.684 613.547   1
 -16  -5  -5 65.7715 538.974   4
 -21   5  -5 109.877 500.669   4
   5  16  -5 184.707 403.838   1
   5  16  -5 1062.16 546.336   3
  -5  21  -5 112.641 604.048   1
 -16  -5  -5 648.886 659.290   2
  21 -16  -2 30314.4 1532.31   3
 -21   5  -2 32253.0 1557.28   2
  16 -21  -2 34278.9 1519.08   3
  16 -21  -2 33455.7 1778.56   4
  16 -21  -2 27100.1 1534.49   2
  -5  21  -2 28326.5 1397.72   2
 -21   5  -2 32989.3 1457.66   1
 -16  -5  -2 32995.8 1644.73   4
   5  16  -2 33497.4 1466.71   3
  -5  21  -2 32946.3 1590.32   1
   5  16  -2 32398.0 1388.43   1
 -16  -5  -2 33117.4 1739.78   2
  16 -21   1 2561.73 608.540   4
 -21   5   1 1566.93 352.035   1
  21 -16   1 1847.18 439.871   2
 -16  -5   1 2142.07 392.257   1
  21 -16   1 2039.69 670.956   3
 -16  -5   1 2369.23 710.644   2
  16 -21   1 1537.21 371.746   2
 -16  -5   1 2700.53 595.019   4
  -5  21   1 3132.76 684.023   1
   5  16   1 2798.52 469.799   3
  -5  21   4 12623.7 694.930   3
  -5  21   4 11451.2 1169.83   1
  16 -21   4 12809.1 851.667   4
  21 -16   4 10771.9 634.379   2
   5  16   4 12875.5 564.277   3
  21 -15  -9 5475.32 954.045   3
 -21   6  -9 4938.18 885.930   2
  15 -21  -9 5876.68 1409.13   2
  -6  21  -9 8683.05 1140.54   1
  21 -15  -9 5832.25 1123.76   4
  15 -21  -9 5500.45 1153.11   4
  21 -15  -9 5935.49 1467.04   2
 -15  -6  -9 7253.35 1030.59   4
 -21   6  -9 7132.81 1240.42   1
 -21   6  -9 7360.87 902.721   4
  -6  21  -9 6628.84 1164.21   3
   6  15  -9 7214.82 1118.80   3
 -15  -6  -9 7595.43 1226.89   2
  21 -15  -6 37109.8 1796.69   3
  -6  21  -6 40451.9 1857.25   1
  15 -21  -6 36398.3 1456.47   3
  15 -21  -6 39168.8 2374.09   2
 -21   6  -6 43561.3 2209.96   1
 -15  -6  -6 41288.8 1962.14   4
 -21   6  -6 40913.0 1790.13   4
   6  15  -6 44518.5 2038.38   3
 -15  -6  -6 34094.8 2018.99   2
   6  15  -6 37770.9 1401.73   1
 -21   6  -6 38557.7 1744.57   2
  15 -21  -6 38562.0 2082.68   4
  21 -15  -3 7589.95 871.682   3
 -21   6  -3 5680.92 760.008   2
  15 -21  -3 7340.38 767.446   3
  15 -21  -3 7268.19 977.290   4
  15 -21  -3 7180.69 943.071   2
 -21   6  -3 7858.81 860.866   1
  -6  21  -3 6990.43 719.979   2
 -15  -6  -3 8207.00 922.325   4
  -6  21  -3 7591.39 892.926   1
   6  15  -3 7552.84 725.618   1
   6  15  -3 8022.19 844.253   3
 -15  -6  -3 6584.55 913.555   2
 -15  -6   0 4377.20 765.929   2
  -6  21   0 3774.03 758.062   1
  21 -15   0 4041.82 715.534   3
  15 -21   0 3739.21 721.144   4
   6  15   0 4292.29 654.101   1
  15 -21   0 2854.77 515.465   2
 -15  -6   0 4698.86 708.315   4
 -15  -6   0 4030.47 531.255   1
 -21   6   0 3243.71 491.060   1
   6  15   0 4205.68 561.279   3
  -6  21   3 7598.87 639.246   3
 -21   6   3 5054.69 313.809   1
  21 -15   3 9110.29 971.351   3
  -6  21   3 7913.82 958.159   1
  15 -21   3 8562.58 733.921   4
 -15  -6   3 7035.32 792.602   4
  21 -15   3 6037.64 653.279   2
   6  15   3 7236.47 527.981   3
  15 -21   6 262.335 243.690   4
  21 -14 -10 6389.36 1012.03   3
  -7  21 -10 6866.21 1183.66   1
  21 -14 -10 6291.26 1129.05   4
 -14  -7 -10 9807.83 1215.41   4
  14 -21 -10 8797.35 1373.22   4
  21 -14 -10 5675.08 1558.60   2
 -21   7 -10 11035.1 1557.24   1
  -7  21 -10 8579.70 1325.75   3
   7  14 -10 10330.4 1291.17   3
 -14  -7 -10 7524.89 1357.50   2
  14 -21 -10 4882.01 1453.79   2
  21 -14  -7 14611.5 1238.36   3
  -7  21  -7 15400.9 1306.31   1
  14 -21  -7 14497.6 921.401   3
  21 -14  -7 13449.8 1708.82   2
  21 -14  -7 16604.5 1466.59   4
  14 -21  -7 15436.0 1449.24   4
  14 -21  -7 13321.8 1676.11   2
 -21   7  -7 16878.5 1570.07   1
 -14  -7  -7 15272.6 1314.28   4
   7  14  -7 14922.3 1301.56   3
 -14  -7  -7 18108.4 1592.95   2
   7  14  -7 15911.4 923.888   1
 -21   7  -7 13847.0 1126.49   2
  21 -14  -4 521.155 549.112   3
 -21   7  -4 379.923 420.619   2
  14 -21  -4 1453.45 692.031   4
  14 -21  -4-95.2801 642.942   2
  -7  21  -4 1100.04 393.766   2
   7  14  -4 605.874 361.358   1
 -14  -7  -4 1110.25 559.691   4
 -21   7  -4 1912.90 654.614   1
 -14  -7  -4 1159.27 415.755   3
   7  14  -4 1329.99 559.272   3
  -7  21  -4 836.974 504.902   1
  21 -14  -4 472.640 412.001   1
 -14  -7  -4 65.0545 583.513   2
   7  14  -1 10955.7 846.307   1
  21 -14  -1 9529.61 989.138   3
  14 -21  -1 12664.7 1067.33   4
  -7  21  -1 8065.49 810.981   2
  14 -21  -1 10750.2 918.805   2
 -14  -7  -1 11265.1 1015.93   4
 -21   7  -1 11874.4 864.207   1
   7  14  -1 10671.5 856.336   3
  -7  21  -1 11106.0 1000.72   1
 -14  -7  -1 10158.3 1028.65   2
  21 -14   2 2120.54 647.669   3
 -14  -7   2 1086.23 586.852   2
  14 -21   2 1214.61 478.722   4
 -21   7   2 281.692 265.773   1
 -14  -7   2 2247.59 591.975   4
  14 -21   2 1374.11 245.159   2
 -14  -7   2 1234.79 305.721   1
   7  14   2 1040.22 351.995   3
  21 -14   2 1379.33 445.976   2
  -7  21   2 2820.32 770.727   1
  14 -21   5 6956.00 564.125   4
  -7  21   5 7303.69 1013.13   1
  -7  21   5 6910.23 503.128   3
  -8  21  -8 11669.4 1213.21   1
  21 -13  -8 11794.4 1301.23   4
  13 -21  -8 10174.1 1285.06   4
  13 -21  -8 11295.2 1700.64   2
  21 -13  -8 11259.9 1656.74   2
 -21   8  -8 11471.2 1412.87   1
 -13  -8  -8 10771.9 1204.54   4
 -13  -8  -8 12930.4 1487.29   2
   8  13  -8 11468.8 1206.23   3
 -21   8  -8 11499.2 1045.72   2
  21 -13  -8 12531.1 1189.50   3
  21 -13  -5 1605.45 477.836   1
  21 -13  -5 1331.84 588.890   3
 -21   8  -5 869.634 476.105   2
   8  13  -5 2034.26 424.704   1
  13 -21  -5 2648.01 768.158   4
  -8  21  -5 1535.10 271.660   2
  13 -21  -5 1658.19 835.070   2
 -13  -8  -5 1613.80 717.100   4
  -8  21  -5 2057.42 680.874   1
 -21   8  -5 2378.09 706.395   1
 -13  -8  -5 1166.90 376.376   3
   8  13  -5 1487.14 540.626   3
 -13  -8  -5 343.618 745.220   2
  21 -13  -2 38543.2 1701.09   3
  13 -21  -2 40111.4 1811.20   4
  -8  21  -2 37514.8 1375.62   2
  13 -21  -2 38495.7 1757.21   2
  21 -13  -2 35278.1 1408.21   1
 -13  -8  -2 35813.9 1657.45   4
 -21   8  -2 40398.5 1635.21   1
  -8  21  -2 38292.4 1681.46   1
   8  13  -2 38784.2 1356.81   1
   8  13  -2 43953.4 1632.11   3
 -13  -8  -2 39244.7 1885.12   2
 -13  -8   1 16717.5 1257.71   2
  21 -13   1 18393.4 1243.75   3
  -8  21   1 19416.9 1291.38   1
  13 -21   1 18825.9 1140.09   4
 -13  -8   1 18642.6 1164.68   4
  13 -21   1 17818.8 853.668   2
 -13  -8   1 17284.5 853.889   1
   8  13   1 20386.6 981.218   3
 -21   8   1 18549.0 864.178   1
  -8  21   4 10725.7 699.514   3
  21 -13   4 14334.3 1178.28   3
  13 -21   4 14397.5 824.861   4
  -8  21   4 16328.6 1290.65   1
 -21   8   4 10217.5 457.504   1
  21 -13   4 10919.6 879.456   2
   8  13   4 13037.5 624.868   3
 -21   9  -9 6400.27 1265.29   1
  -9  21  -9 6707.25 1060.91   1
  21 -12  -9 4693.84 1011.20   4
  12 -21  -9 6258.83 1096.42   4
 -12  -9  -9 5302.60 964.349   4
  12 -21  -9 3932.49 1322.70   2
  21 -12  -9 4747.52 1338.80   2
   9  12  -9 5313.32 1005.49   3
 -12  -9  -9 4052.91 1074.61   2
  21 -12  -9 6113.89 961.233   3
 -21   9  -6 10965.8 886.756   2
  -9  21  -6 9626.00 1061.27   1
   9  12  -6 9199.99 617.192   1
  12 -21  -6 9569.24 1141.85   4
  12 -21  -6 7766.61 1215.37   2
 -21   9  -6 11749.5 1223.12   1
 -12  -9  -6 11129.2 1120.37   4
 -12  -9  -6 9724.50 1196.85   2
   9  12  -6 11479.6 1094.96   3
  21 -12  -6 9549.56 1032.49   3
  21 -12  -3 17853.1 1208.80   3
 -21   9  -3 15929.6 1010.00   2
  -9  21  -3 14926.1 731.478   2
  12 -21  -3 16496.7 1283.46   4
  -9  21  -3 15698.9 1188.36   1
  12 -21  -3 16418.3 1302.42   2
  21 -12  -3 13378.8 864.581   1
   9  12  -3 15267.7 832.408   1
 -12  -9  -3 18487.5 1282.27   4
 -21   9  -3 16216.4 1139.48   1
 -12  -9  -3 15157.7 870.107   3
   9  12  -3 14722.5 1078.43   3
 -12  -9  -3 15935.3 1308.45   2
 -12  -9   0 9803.25 1000.74   2
  21 -12   0 8079.49 881.861   3
 -12  -9   0 9113.88 716.752   1
  -9  21   0 9856.17 892.350   2
  12 -21   0 11906.1 950.686   4
  12 -21   0 10688.1 813.896   2
 -12  -9   0 11286.5 991.775   4
   9  12   0 12171.5 858.496   3
 -21   9   0 9945.84 752.407   1
  -9  21   0 11248.1 1012.63   1
  -9  21   3 27281.3 1127.43   3
  21 -12   3 29588.9 1582.34   3
  12 -21   3 29090.7 1204.31   4
 -12  -9   3 28982.1 1370.93   4
  21 -12   3 25517.5 1314.12   2
  -9  21   3 31634.2 1670.46   1
 -12  -9   3 24548.7 868.703   1
 -21   9   3 30666.6 974.561   1
   9  12   3 29153.8 997.292   3
  12 -21   6 5710.57 327.925   4
  21 -11 -10 4857.63 965.340   3
  21 -11 -10 5209.46 1064.53   4
  21 -11 -10 7342.18 1629.30   2
  11 -21 -10 6589.08 1265.45   4
 -21  10 -10 7440.95 1450.76   1
 -11 -10 -10 7166.12 1127.10   4
  11 -21 -10 5422.84 1443.05   2
  10  11 -10 7300.95 1124.74   3
 -11 -10 -10 6871.22 1328.52   2
 -10  21 -10 7623.64 1172.40   1
 -21  10  -7 10772.7 879.984   2
 -10  21  -7 11895.2 1175.04   1
  11 -21  -7 9009.20 1227.19   4
  11 -21  -7 9497.71 1474.22   2
 -21  10  -7 10144.8 1232.05   1
 -11 -10  -7 10382.8 1166.88   4
 -11 -10  -7 11394.7 1367.95   2
  10  11  -7 10129.9 1087.01   3
  21 -11  -7 9327.26 1031.66   3
  21 -11  -4 22754.5 1369.75   3
 -21  10  -4 18760.4 1025.66   2
  11 -21  -4 18899.9 1417.84   4
  11 -21  -4 18894.6 1490.21   2
 -11 -10  -4 20009.1 1365.06   4
  21 -11  -4 17737.3 888.548   1
 -21  10  -4 20181.5 1385.70   1
 -11 -10  -4 19440.8 877.540   3
  10  11  -4 18755.6 802.555   1
  10  11  -4 18937.8 1238.53   3
 -11 -10  -4 17887.0 1429.68   2
 -10  21  -4 19264.5 1297.44   1
  21 -11  -1 18285.9 1213.21   3
 -10  21  -1 16230.4 979.531   2
  21 -11  -1 14982.1 983.079   1
  11 -21  -1 16789.6 1163.41   4
  11 -21  -1 15817.6 1072.44   2
 -11 -10  -1 16642.3 1145.08   4
 -10  21  -1 18288.4 1205.45   1
 -21  10  -1 16980.3 1003.36   1
  10  11  -1 16960.4 1015.98   3
 -11 -10  -1 17178.3 1276.19   2
 -11 -10   2 36163.8 1740.57   2
  21 -11   2 35019.7 1635.20   3
 -11 -10   2 34536.7 1160.54   1
  11 -21   2 36781.5 1429.40   4
 -10  21   2 34043.7 1674.45   1
 -21  10   2 35037.4 1156.49   1
 -11 -10   2 35822.5 1514.05   4
  11 -21   2 35286.4 1045.93   2
  10  11   2 35112.6 1195.68   3
 -10  21   5 8604.06 1086.10   1
  10  11   5 8106.21 504.748   3
 -11 -10   5 6523.45 455.507   1
  11 -21   5 8555.10 551.595   4
  21 -11   5 6423.38 818.437   2
 -10  21   5 7830.50 612.457   3
 -11  21  -8 20720.7 1579.87   1
  10 -21  -8 22446.6 1720.20   4
  10 -21  -8 18213.1 1945.54   2
 -10 -11  -8 24491.1 1672.37   4
 -21  11  -8 20896.3 1724.97   1
 -10 -11  -8 24417.2 1916.36   2
  11  10  -8 24047.8 1643.00   3
  21 -10  -8 20432.2 1450.57   3
 -21  11  -8 19713.5 1100.51   2
 -21  11  -5 7688.96 698.554   2
 -11  21  -5 8024.49 959.356   1
  10 -21  -5 7699.52 1019.26   4
  10 -21  -5 6588.26 1110.89   2
  21 -10  -5 4387.04 444.671   1
 -10 -11  -5 6747.49 948.317   4
 -21  11  -5 6998.73 951.176   1
  11  10  -5 7030.75 863.685   3
 -10 -11  -5 4275.33 914.343   2
  11  10  -5 6371.18 419.276   1
  21 -10  -5 7129.00 932.768   3
  21 -10  -2 32978.8 1585.33   3
  21 -10  -2 34229.6 1288.50   1
  10 -21  -2 33757.6 1689.89   4
 -11  21  -2 35932.8 1657.54   1
 -10 -11  -2 34479.1 1653.24   4
  10 -21  -2 35744.4 1718.30   2
 -21  11  -2 35678.7 1535.97   1
  11  10  -2 38897.1 1548.25   3
 -10 -11  -2 33166.4 1741.55   2
 -11  21   1 16672.7 1192.35   1
 -10 -11   1 15467.7 1192.43   2
  21 -10   1 14826.2 1109.32   3
 -21  11   1 16240.1 898.842   1
  10 -21   1 15425.3 1016.64   4
 -10 -11   1 16940.5 1101.18   4
 -10 -11   1 15750.8 875.989   1
  10 -21   1 14379.1 843.126   2
  11  10   1 16474.2 910.435   3
 -11  21   4 16031.0 1267.44   1
  21 -10   4 20596.1 1348.75   3
  10 -21   4 18964.0 904.088   4
 -10 -11   4 16263.0 775.785   1
 -21  11   4 16793.9 836.297   1
 -10 -11   4 18690.9 1075.66   4
 -11  21   4 15881.4 926.198   3
  11  10   4 16702.1 778.607   3
  21  -9  -9 13872.0 1396.65   4
   9 -21  -9 14832.3 1570.47   4
   9 -21  -9 12888.3 1742.34   2
  -9 -12  -9 16167.0 1437.23   4
 -21  12  -9 16991.9 1709.32   1
  -9 -12  -9 14357.9 1679.02   2
  12   9  -9 17094.5 1491.56   3
  21  -9  -9 14478.3 1343.01   3
 -12  21  -9 14543.8 1453.26   1
 -12  21  -6 8495.24 1034.43   1
 -21  12  -6 8709.28 690.297   2
   9 -21  -6 8763.44 1147.90   4
   9 -21  -6 6493.45 1172.37   2
  -9 -12  -6 6614.37 998.800   4
 -21  12  -6 8070.45 1130.85   1
  -9 -12  -6 7583.63 1189.61   2
  12   9  -6 7763.00 963.839   3
  21  -9  -6 7873.61 989.091   3
  21  -9  -3 28960.9 1042.55   1
 -12  21  -3 31155.2 1597.62   1
   9 -21  -3 29756.1 1637.26   4
  -9 -12  -3 28978.2 1574.69   4
   9 -21  -3 29715.1 1747.38   2
 -21  12  -3 27865.3 1451.99   1
  -9 -12  -3 29352.3 1744.46   2
  12   9  -3 28247.2 1415.88   3
  21  -9  -3 25797.1 1475.94   3
 -21  12   0 10317.2 813.180   1
  21  -9   0 11476.3 998.462   3
   9 -21   0 11038.9 924.587   4
  -9 -12   0 12594.8 1018.53   4
   9 -21   0 8764.67 791.786   2
 -12  21   0 11174.0 1012.39   1
  12   9   0 11508.2 853.040   3
  -9 -12   0 10243.1 1062.06   2
   9 -21   3 15072.7 663.566   2
  21  -9   3 15417.5 1168.40   3
  -9 -12   3 16090.4 1228.67   2
 -12  21   3 14384.0 1155.20   1
  -9 -12   3 16545.2 1005.87   4
   9 -21   3 18504.5 970.747   4
 -21  12   3 15389.0 876.345   1
  -9 -12   3 12637.8 814.857   1
  12   9   3 14924.7 825.326   3
  12   9   6 7063.48 452.874   3
 -12  21   6 9353.66 1072.89   1
  21  -8 -10 4059.52 892.682   3
 -13  21 -10 3796.57 1003.07   1
  21  -8 -10 4915.17 1084.73   4
   8 -21 -10 5843.40 1147.37   4
  -8 -13 -10 5746.41 1074.40   4
   8 -21 -10 1371.48 1166.71   2
  -8 -13 -10 2825.58 1110.04   2
 -21  13 -10 4890.79 1150.40   1
  13   8 -10 6085.46 1096.45   3
  21  -8  -7 2661.63 781.016   3
 -21  13  -7 2013.36 416.634   2
 -13  21  -7 2114.37 729.950   1
   8 -21  -7 3337.47 867.042   4
  -8 -13  -7 2490.24 789.495   4
   8 -21  -7 1319.87 864.078   2
 -21  13  -7 2464.83 931.213   1
  -8 -13  -7 2437.67 836.555   2
  13   8  -7 4632.85 868.802   3
 -13  21  -4 14062.9 1196.68   1
   8 -21  -4 14953.7 1282.28   4
  -8 -13  -4 13494.3 1181.66   4
   8 -21  -4 16350.9 1423.38   2
 -21  13  -4 16973.5 1245.26   1
  -8 -13  -4 13738.2 1308.47   2
  13   8  -4 17826.3 1245.96   3
  21  -8  -4 13331.1 1151.70   3
  21  -8  -1 18205.4 1200.67   3
   8 -21  -1 18521.9 1236.39   4
  -8 -13  -1 17971.2 1174.04   4
 -13  21  -1 20354.2 1295.42   1
   8 -21  -1 17251.5 1166.95   2
  13   8  -1 17081.8 1039.95   3
  -8 -13  -1 16006.4 1245.07   2
 -21  13  -1 16547.6 1061.28   1
  -8 -13   2 37830.7 1750.55   2
  21  -8   2 40361.3 1725.54   3
  -8 -13   2 35936.1 1343.37   1
 -13  21   2 38109.9 1725.07   1
   8 -21   2 38781.8 1458.10   4
 -21  13   2 37633.8 1357.74   1
  -8 -13   2 41996.0 1615.56   4
   8 -21   2 40504.2 1315.43   2
  13   8   2 40284.5 1365.06   3
  13   8   5 1549.50 395.660   3
  21  -8   5 1238.32 648.512   3
   8 -21   5 1589.09 316.154   4
 -13  21   5 1742.72 655.540   1
  -8 -13   5 1178.81 422.531   1
 -21  13   5 1353.70 469.716   1
  -8 -13   5 694.409 393.466   4
   7 -21  -8 9914.64 1259.30   4
  -7 -14  -8 11210.1 1234.37   4
   7 -21  -8 9629.40 1543.95   2
 -21  14  -8 15073.4 1504.28   1
  -7 -14  -8 9762.78 1386.00   2
  14   7  -8 10739.6 1233.47   3
  21  -7  -8 8861.65 1056.74   3
 -14  21  -8 9374.84 1243.14   1
 -14  21  -5 5773.24 889.813   1
   7 -21  -5 7269.77 1011.49   4
  -7 -14  -5 5777.53 881.871   4
   7 -21  -5 5362.62 1038.25   2
 -21  14  -5 6964.62 962.448   1
  -7 -14  -5 7740.56 1125.35   2
  14   7  -5 5580.81 826.378   3
  21  -7  -5 6652.29 888.495   3
  21  -7  -2 1680.27 676.706   3
 -21  14  -2 1088.28 532.059   1
   7 -21  -2 2014.59 617.189   4
  -7 -14  -2 2050.73 614.968   4
   7 -21  -2 2895.72 676.336   2
 -14  21  -2 1166.78 568.194   1
  14   7  -2 2535.49 592.820   3
  -7 -14  -2 1634.25 637.532   2
  21  -7   1 10425.2 972.829   3
 -21  14   1 12391.6 874.415   1
   7 -21   1 11277.6 893.383   4
  -7 -14   1 10536.3 892.236   4
   7 -21   1 9874.37 799.793   2
 -14  21   1 10476.0 976.550   1
  14   7   1 12046.9 844.201   3
  -7 -14   1 11417.3 1035.10   2
  14   7   4 1930.85 432.374   3
  21  -7   4 1302.65 580.567   3
   7 -21   4 1300.52 369.003   4
 -14  21   4 1462.09 653.956   1
 -21  14   4 1674.41 499.680   1
  -7 -14   4 1270.57 404.559   4
  -7 -14   4 1113.63 461.263   1
   6 -21  -9 8925.32 1244.27   4
  -6 -15  -9 7825.92 1157.36   4
   6 -21  -9 5280.90 1335.96   2
 -21  15  -9 7516.63 1322.80   1
  -6 -15  -9 4908.15 1247.57   2
  15   6  -9 4148.29 937.290   3
 -15  21  -9 5820.11 1152.60   1
  21  -6  -9 4580.91 921.962   3
 -15  21  -6 106.288 614.147   1
   6 -21  -6 1004.26 646.600   4
   6 -21  -6 1490.10 745.131   2
  -6 -15  -6 462.249 827.351   2
  -6 -15  -6 118.793 543.467   4
  15   6  -6 970.585 626.691   3
 -21  15  -6 2126.68 812.082   1
  21  -6  -6 1261.29 638.204   3
 -15  21  -3 8979.11 974.152   1
   6 -21  -3 8481.75 972.555   4
  -6 -15  -3 7837.37 969.338   4
   6 -21  -3 8076.31 1017.98   2
  -6 -15  -3 6883.79 974.210   2
 -21  15  -3 8846.57 924.735   1
  15   6  -3 9470.40 914.161   3
  21  -6  -3 7155.51 858.877   3
  21  -6   0 4406.69 700.301   3
 -15  21   0 3710.72 667.214   1
 -21  15   0 4987.37 661.264   1
   6 -21   0 4307.32 693.643   4
  -6 -15   0 5638.97 737.615   4
   6 -21   0 3895.16 605.993   2
  15   6   0 5023.70 668.204   3
  -6 -15   0 4906.07 751.671   2
   6 -21   3 7176.71 675.254   2
  21  -6   3 8427.64 921.927   3
  -6 -15   3 7914.92 919.607   2
 -15  21   3 7464.75 883.099   1
   6 -21   3 8516.66 728.653   4
  -6 -15   3 8426.99 766.068   4
 -21  15   3 7715.70 757.199   1
  15   6   3 7631.06 686.801   3
  15   6   6 38920.8 1316.88   3
  21  -6   6 38762.8 1766.02   3
 -15  21   6 38057.2 1948.87   1
   6 -21   6 33584.8 759.644   4
 -16  21 -10 4846.35 1109.43   1
  21  -5 -10 4334.54 984.736   4
   5 -21 -10 2106.13 882.906   4
   5 -21 -10 3495.28 1418.51   2
  -5 -16 -10 2840.87 957.724   4
  -5 -16 -10 4382.86 1309.67   2
 -21  16 -10 3206.71 1067.27   1
  16   5 -10 2943.68 968.800   3
  21  -5 -10 3451.32 904.769   3
 -16  21  -7-1252.71 771.595   1
  -5 -16  -7 37.8837 643.082   4
   5 -21  -7 319.274 621.489   4
   5 -21  -7 221.691 810.386   2
  -5 -16  -7-458.220 822.466   2
  16   5  -7 1747.87 726.090   3
 -21  16  -7 16.3748 672.005   1
  21  -5  -7-25.6830 615.474   3
   5 -21  -4 12722.4 1188.63   4
 -16  21  -4 13104.4 1191.36   1
  -5 -16  -4 13656.2 1196.90   4
   5 -21  -4 12458.6 1278.35   2
  -5 -16  -4 11804.0 1241.25   2
 -21  16  -4 9510.86 1054.69   1
  16   5  -4 15193.7 1195.76   3
  21  -5  -4 12183.7 1100.63   3
  21  -5  -1 1838.44 639.162   3
 -21  16  -1 1742.01 546.206   1
   5 -21  -1 2185.88 573.933   4
  -5 -16  -1 2226.87 647.005   4
   5 -21  -1 1279.34 560.590   2
 -16  21  -1 1963.60 609.867   1
  16   5  -1 1524.74 517.518   3
  -5 -16  -1 1842.30 615.022   2
 -16  21   2 35246.0 1662.74   1
  -5 -16   2 36953.1 1688.60   2
  21  -5   2 34390.9 1577.20   3
   5 -21   2 35384.2 1425.42   4
  -5 -16   2 35425.3 1481.97   4
 -21  16   2 31506.5 1394.36   1
   5 -21   2 35361.1 1426.17   2
  16   5   2 34726.7 1375.30   3
 -21  16   5 1032.49 519.576   1
  16   5   5 520.318 435.470   3
  21  -5   5 1111.58 593.841   3
 -16  21   5 543.611 631.854   1
   5 -21   5-76.8628 259.935   4
  -5 -16   5 468.835 378.502   4
 -17  21  -8 552.714 750.020   1
   4 -21  -8 2281.23 866.154   4
  -4 -17  -8 3250.90 881.316   4
   4 -21  -8 3755.82 1150.54   2
  -4 -17  -8 2933.26 1161.90   2
  17   4  -8 1912.31 817.155   3
 -21  17  -8 2391.96 922.897   1
  21  -4  -8 1059.33 741.178   3
  -4 -17  -5 31332.0 1806.01   4
 -17  21  -5 32058.2 1767.81   1
   4 -21  -5 33517.6 1880.86   4
   4 -21  -5 28524.6 1926.30   2
  -4 -17  -5 25724.7 1808.06   2
 -21  17  -5 30367.2 1721.43   1
  17   4  -5 27747.2 1601.81   3
  21  -4  -5 30433.1 1656.52   3
  -4 -17  -2 8787.53 975.366   4
 -17  21  -2 7608.05 955.227   1
   4 -21  -2 8195.52 930.828   4
   4 -21  -2 7381.58 955.410   2
  -4 -17  -2 7531.52 977.116   2
  17   4  -2 8605.94 888.383   3
  21  -4  -2 7035.63 876.226   3
 -21  17  -2 7767.57 899.010   1
  21  -4   1 32088.2 1559.25   3
   4 -21   1 32743.0 1471.33   4
 -21  17   1 32502.8 1471.71   1
  -4 -17   1 34043.9 1537.79   4
 -17  21   1 29844.6 1528.98   1
   4 -21   1 32446.3 1443.83   2
  17   4   1 34160.0 1431.90   3
  -4 -17   1 32454.4 1628.70   2
  17   4   4 8134.62 763.842   3
  21  -4   4 6900.25 871.727   3
 -21  17   4 7009.17 805.904   1
   4 -21   4 7252.14 641.922   4
  -4 -17   4 9311.87 745.084   4
 -17  21   4 7947.95 1000.60   1
 -18  21  -9 5114.21 1106.64   1
   3 -21  -9 1690.47 891.809   4
  -3 -18  -9 1275.79 733.559   4
   3 -21  -9 2034.83 1160.45   2
  -3 -18  -9 2104.82 1093.70   2
  18   3  -9 1658.04 791.418   3
 -21  18  -9 1879.23 1020.98   1
  21  -3  -9 1653.19 783.461   3
   3 -21  -6 16212.8 1465.64   4
  -3 -18  -6 16391.5 1442.09   4
   3 -21  -6 17113.9 1623.46   2
  -3 -18  -6 13886.2 1507.12   2
 -21  18  -6 15425.1 1430.07   1
  18   3  -6 16205.2 1346.10   3
  21  -3  -6 13838.6 1245.04   3
 -18  21  -6 14973.5 1358.94   1
  21  -3  -3 517.761 531.078   3
 -21  18  -3 550.334 564.510   1
  -3 -18  -3 334.881 574.323   4
 -18  21  -3 524.328 580.091   1
   3 -21  -3 581.990 542.602   4
   3 -21  -3 148.739 579.245   2
  -3 -18  -3 288.767 606.073   2
  18   3  -3 580.180 523.153   3
 -21  18   0 22824.1 1321.08   1
   3 -21   0 23743.8 1332.85   4
  -3 -18   0 24779.6 1395.77   4
 -18  21   0 22199.0 1359.73   1
   3 -21   0 24528.1 1364.43   2
  -3 -18   0 22136.7 1398.35   2
  18   3   0 24828.2 1301.90   3
  21  -3   0 24079.4 1396.02   3
   3 -21   3 4531.69 657.093   2
 -18  21   3 3703.88 715.825   1
  18   3   3 2274.94 555.244   3
  21  -3   3 2149.36 589.257   3
  -3 -18   3 3545.78 705.659   2
   3 -21   3 2452.51 514.275   4
  -3 -18   3 3545.21 578.791   4
 -21  18   3 2164.56 608.493   1
 -21  18   6 20404.0 1304.26   1
  18   3   6 22877.1 1240.83   3
  21  -3   6 23184.4 1392.94   3
   3 -21   6 20331.6 767.537   4
  -3 -18   6 20392.3 969.269   4
 -18  21   6 19686.4 1464.45   1
 -21  19  -7 5330.50 1001.86   1
 -19  21  -7 4020.53 927.297   1
   2 -21  -7 3876.90 977.609   4
  -2 -19  -7 3855.07 929.420   4
   2 -21  -7 3690.62 1059.21   2
  -2 -19  -7 3469.82 1073.74   2
  19   2  -7 1825.67 696.583   3
  21  -2  -7 3425.52 889.553   3
 -21  19  -4 1682.56 751.789   1
 -19  21  -4 2367.34 779.154   1
   2 -21  -4 1273.45 716.660   4
  -2 -19  -4 2780.72 731.697   4
   2 -21  -4 3647.71 864.628   2
  -2 -19  -4 1451.94 832.981   2
  19   2  -4 973.539 619.449   3
  21  -2  -4 1641.28 623.487   3
  -2 -19  -1 7687.11 897.732   4
 -21  19  -1 8008.84 867.216   1
 -19  21  -1 6949.88 853.915   1
   2 -21  -1 7102.89 904.883   4
   2 -21  -1 6388.17 866.620   2
  -2 -19  -1 6918.96 892.968   2
  19   2  -1 7297.16 813.921   3
  21  -2  -1 7500.58 890.610   3
  -2 -19   2 5052.87 765.004   2
  21  -2   2 5833.67 798.819   3
   2 -21   2 5484.19 681.761   4
  -2 -19   2 7434.93 795.745   4
 -21  19   2 5491.89 767.431   1
 -19  21   2 4375.85 731.493   1
   2 -21   2 5794.15 741.407   2
  19   2   2 4709.26 700.149   3
 -19  21   5 1690.07 701.174   1
  19   2   5 2476.51 606.638   3
  21  -2   5 2423.55 639.317   3
   2 -21   5 2615.70 450.773   4
  -2 -19   5 2239.00 467.127   4
 -21  19   5 1719.75 603.044   1
 -21  20  -8 4623.71 1068.02   1
   1 -21  -8 8517.79 1231.11   4
  -1 -20  -8 6028.37 1121.06   4
   1 -21  -8 3437.72 1201.32   2
  -1 -20  -8 6822.48 1356.69   2
 -20  21  -8 7688.59 1226.67   1
  20   1  -8 7516.59 1121.48   3
  21  -1  -8 6217.83 1073.76   3
   1 -21  -5 14912.1 1364.00   4
  -1 -20  -5 15103.1 1372.07   4
   1 -21  -5 11683.3 1432.27   2
  -1 -20  -5 14128.2 1474.34   2
  20   1  -5 14344.1 1274.06   3
  21  -1  -5 12192.0 1167.24   3
 -21  20  -5 12608.1 1245.78   1
 -20  21  -5 16527.2 1441.21   1
 -21  20  -2 17668.5 1275.79   1
 -20  21  -2 18789.5 1347.77   1
   1 -21  -2 16421.9 1256.06   4
  -1 -20  -2 19522.4 1399.37   4
   1 -21  -2 18189.0 1373.23   2
  -1 -20  -2 16286.9 1346.57   2
  20   1  -2 16063.6 1188.51   3
  21  -1  -2 19397.0 1304.90   3
   1 -21   1 8637.71 872.281   4
  -1 -20   1 8062.13 833.667   4
 -21  20   1 8401.89 880.277   1
 -20  21   1 8365.94 951.269   1
   1 -21   1 9509.15 912.230   2
  -1 -20   1 7508.90 877.889   2
  20   1   1 7399.16 834.953   3
  21  -1   1 6156.66 782.984   3
  20   1   4 3884.08 674.032   3
  21  -1   4 4034.15 729.171   3
  -1 -20   4 3225.82 660.293   2
   1 -21   4 3830.36 559.843   4
 -20  21   4 4269.66 811.820   1
  -1 -20   4 4067.37 550.811   4
 -21  20   4 3084.31 710.334   1
 -21  21  -9 265.875 874.358   1
   0 -21  -9 307.214 777.819   4
   0 -21  -9-388.667 998.604   2
  21   0  -9-736.793 741.779   3
   0 -21  -6 13880.8 1378.99   4
   0 -21  -6 10741.3 1429.11   2
  21   0  -6 11616.5 1196.12   3
 -21  21  -6 12566.0 1335.63   1
 -21  21  -3-746.961 618.638   1
   0 -21  -3-564.266 605.282   4
   0 -21  -3 40.1197 635.597   2
  21   0  -3-523.727 575.870   3
 -21  21   0 45965.0 1899.61   1
   0 -21   0 49961.3 1991.38   4
   0 -21   0 47356.8 1974.15   2
  21   0   0 42684.8 1825.03   3
  21   0   3 519.566 470.662   3
   0 -21   3 1228.68 573.172   2
   0 -21   3 354.747 407.330   4
 -21  21   3 361.398 513.530   1
 -21  21   6 3416.35 782.560   1
  21   0   6 3473.05 724.352   3
   0 -21   6 3205.62 460.457   4
 -22   0  -7 1157.58 801.285   2
   0  22  -7 414.988 599.480   1
  22 -22  -7-134.918 612.936   3
  22 -22  -7 1139.11 1014.13   2
 -22   0  -7 229.286 846.931   1
 -22   0  -7 910.767 687.670   4
  22 -22  -7 1882.04 876.053   4
   0  22  -7 375.811 739.816   3
 -22   0  -4 16714.7 1435.12   2
   0  22  -4 14712.1 1178.12   1
  22 -22  -4 15297.5 1257.07   3
  22 -22  -4 14886.0 1450.73   4
 -22   0  -4 17989.8 1406.87   1
  22 -22  -4 18073.8 1665.39   2
 -22   0  -4 15474.2 1285.80   4
   0  22  -4 14058.1 1237.43   3
 -22   0  -1-565.399 565.466   2
  22 -22  -1-325.399 602.956   3
  22 -22  -1 393.066 618.291   4
  22 -22  -1-292.660 577.263   2
 -22   0  -1 755.682 496.975   1
 -22   0  -1-603.110 620.729   4
   0  22  -1 148.103 449.790   3
   0  22  -1 224.879 563.914   1
   0  22   2 24625.0 1629.94   1
  22 -22   2 24277.1 935.660   2
  22 -22   5-30.6891 432.875   4
 -21  -1  -8 2851.73 887.524   2
 -22   1  -8 1878.26 823.402   2
   1  21  -8 1713.53 714.493   1
  22 -21  -8 1193.59 737.174   3
  21 -22  -8 1530.54 717.736   3
  22 -21  -8 3217.16 1033.78   4
  21 -22  -8 3218.92 979.073   4
  22 -21  -8 2467.82 1225.65   2
 -21  -1  -8 2508.20 1041.34   1
  21 -22  -8 1949.40 1158.95   2
 -22   1  -8 1652.56 952.892   1
  -1  22  -8 4215.75 956.858   1
 -21  -1  -8 1000.65 662.330   4
 -22   1  -8 2200.25 769.694   4
  -1  22  -8 2105.79 946.972   3
   1  21  -8 2166.07 889.060   3
  22 -21  -5 12622.9 1583.05   2
  22 -21  -5 11749.7 1114.49   3
  21 -22  -5 9749.09 1034.30   3
  22 -21  -5 9771.18 1254.54   4
  21 -22  -5 11876.2 1315.39   4
 -21  -1  -5 12358.4 1357.70   1
 -22   1  -5 8889.22 1177.54   1
  21 -22  -5 10553.7 1512.13   2
 -21  -1  -5 10369.7 1106.18   4
 -22   1  -5 9857.97 1085.80   4
  -1  22  -5 10758.7 1161.19   3
   1  21  -5 12295.3 1230.57   3
  -1  22  -5 9432.20 1009.35   1
   1  21  -5 12377.7 1083.51   1
 -21  -1  -5 9487.97 1131.77   2
 -22   1  -5 9274.27 1130.28   2
  21 -22  -2 2233.68 745.131   4
  -1  22  -2 2493.26 696.398   1
 -21  -1  -2 2908.40 751.514   2
 -22   1  -2 2000.79 660.862   2
  22 -21  -2 1762.52 619.971   3
  21 -22  -2 3554.29 731.451   3
  22 -21  -2 2894.05 778.145   4
  22 -21  -2 2000.79 799.773   2
  21 -22  -2 2351.42 744.330   2
 -22   1  -2 2697.30 632.827   1
   1  21  -2 2614.18 674.783   1
 -21  -1  -2 2485.95 659.605   1
 -21  -1  -2 1617.30 678.769   4
 -22   1  -2 2913.04 744.220   4
  -1  22  -2 3131.53 719.840   3
   1  21  -2 1073.16 568.763   3
  22 -21   1 22633.9 1018.07   2
 -22   1   1 22195.1 903.503   1
  21 -22   1 22798.0 980.743   2
  -1  22   1 24422.0 1544.73   1
  22 -21   1 27470.5 1618.18   3
  21 -22   1 23758.2 1462.52   4
  22 -21   1 24332.8 1188.23   2
  21 -22   1 26053.2 1151.26   2
 -21  -1   1 26273.2 946.818   1
   1  21   1 28081.0 1636.86   1
 -22   1   1 23825.0 895.898   1
  -1  22   1 28050.1 1251.23   3
   1  21   1 26618.4 1214.87   3
 -21  -1   1 24882.6 942.426   1
  21 -22   4 6143.51 739.724   4
  -1  22   4 7381.37 514.966   3
   1  21   4 5783.85 458.456   3
  22 -20  -9 6416.15 1040.35   3
 -20  -2  -9 12210.7 1653.80   1
  22 -20  -9 9000.92 1330.77   4
  20 -22  -9 10243.3 1434.12   4
 -22   2  -9 13950.4 1744.73   1
  20 -22  -9 9121.37 1775.65   2
  22 -20  -9 6571.28 1580.06   2
  -2  22  -9 11415.9 1270.81   1
 -20  -2  -9 9191.82 1202.78   4
 -22   2  -9 8948.96 1115.16   4
  -2  22  -9 10883.7 1480.99   3
   2  20  -9 11658.7 1395.44   3
 -20  -2  -9 7702.45 1240.71   2
 -22   2  -9 7921.62 1188.52   2
 -20  -2  -6 1459.68 718.071   2
  -2  22  -6 863.373 589.616   1
  20 -22  -6 2374.69 1011.01   2
 -22   2  -6 2163.42 730.576   2
  22 -20  -6 2945.34 746.169   3
  20 -22  -6 784.049 611.858   3
  22 -20  -6 937.214 782.694   4
  20 -22  -6 1621.59 778.183   4
 -20  -2  -6 2835.77 987.726   1
   2  20  -6 2257.17 649.352   1
  22 -20  -6 417.278 915.613   2
 -22   2  -6 322.755 685.853   1
 -22   2  -6 1921.38 663.459   4
  -2  22  -6 2311.38 824.846   3
   2  20  -6 1774.36 697.220   3
 -20  -2  -6 1347.98 638.170   4
 -20  -2  -3 10537.4 1125.45   2
 -22   2  -3 13924.2 1219.88   2
  22 -20  -3 11164.6 1089.06   3
  20 -22  -3 12409.4 1117.99   3
  22 -20  -3 15141.7 1375.20   4
  20 -22  -3 14657.6 1409.44   4
  22 -20  -3 15321.8 1450.55   2
   2  20  -3 13879.0 1075.86   1
  20 -22  -3 15413.2 1412.82   2
 -22   2  -3 14933.2 1216.29   1
 -20  -2  -3 12886.0 1166.39   4
  -2  22  -3 13987.4 1185.80   3
   2  20  -3 12791.3 1071.67   3
 -22   2  -3 12811.3 1140.40   4
  -2  22  -3 14497.1 1167.26   1
   2  20   0 3450.05 758.343   1
 -20  -2   0 2054.06 633.868   2
  22 -20   0 3488.80 736.893   3
  22 -20   0 3910.42 723.235   2
  20 -22   0 3068.58 595.318   2
 -20  -2   0 2700.27 510.989   1
 -22   2   0 3282.54 513.314   1
  20 -22   0 2458.77 667.297   4
 -20  -2   0 3253.92 519.288   1
 -20  -2   0 3374.17 709.522   4
  -2  22   0 3142.04 593.734   3
   2  20   0 3435.54 588.770   3
  -2  22   0 3505.07 763.262   1
  -2  22   3 20309.5 1547.27   1
  20 -22   3 19231.3 1217.61   4
  -2  22   3 20200.4 905.480   3
   2  20   3 18791.4 844.586   3
  20 -22   6 7057.86 688.410   4
 -22   3  -7 2986.20 809.064   2
  22 -19  -7 2349.23 788.821   3
  19 -22  -7 3047.53 716.160   3
   3  19  -7 3059.32 672.748   1
  22 -19  -7 1578.09 809.939   4
  19 -22  -7 3271.46 917.636   4
  22 -19  -7 4389.59 1248.52   2
  19 -22  -7 1338.57 1017.08   2
 -22   3  -7 2962.36 968.785   1
 -19  -3  -7 3078.46 802.293   4
 -22   3  -7 3129.23 763.674   4
  -3  22  -7 4273.00 1001.61   3
   3  19  -7 4507.26 945.241   3
  -3  22  -7 3531.27 828.748   1
 -19  -3  -7 3338.66 830.208   2
 -22   3  -4 11880.2 1121.33   2
  22 -19  -4 12524.5 1131.77   3
   3  19  -4 12056.5 980.998   1
  19 -22  -4 11942.5 1025.60   3
  22 -19  -4 13745.8 1337.54   4
  22 -19  -4 10127.7 1316.20   2
  19 -22  -4 13425.8 1360.11   4
  19 -22  -4 11081.5 1271.69   2
 -22   3  -4 11043.2 1091.65   1
 -19  -3  -4 11997.6 1155.16   4
 -22   3  -4 10168.6 1097.51   4
   3  19  -4 12985.2 1161.96   3
  -3  22  -4 11137.5 1032.44   1
 -19  -3  -4 11481.6 1219.57   2
 -22   3  -1 4663.02 802.518   2
 -19  -3  -1 3617.76 812.352   2
  22 -19  -1 3900.11 754.725   3
  19 -22  -1 3817.84 702.520   3
  -3  22  -1 5044.46 784.642   1
  19 -22  -1 4176.78 830.094   4
  19 -22  -1 3864.85 689.619   2
 -22   3  -1 5664.66 673.320   1
 -19  -3  -1 4542.27 772.591   4
   3  19  -1 4284.39 632.399   3
   3  19  -1 4523.76 741.124   1
  19 -22   2 14257.5 532.886   2
 -22   3   2 13324.1 521.905   1
  22 -19   2 16576.2 1318.74   3
  -3  22   2 17919.0 1386.27   1
  19 -22   2 16581.9 1165.92   4
 -19  -3   2 11674.8 465.337   1
  19 -22   2 12581.4 565.698   2
 -19  -3   2 12692.1 495.532   1
  -3  22   2 18944.2 979.414   3
   3  19   2 17292.2 889.106   3
  22 -19   2 15438.0 819.504   2
  19 -22   5 907.252 444.048   4
  -3  22   5 567.629 179.723   3
 -22   4  -8 1612.57 731.737   2
  22 -18  -8 12.4092 638.678   3
   4  18  -8 586.611 581.817   1
  18 -22  -8 1112.24 615.221   3
  22 -18  -8 608.045 814.816   4
  18 -22  -8 1027.37 751.439   4
  18 -22  -8 430.373 1001.28   2
 -22   4  -8 761.517 856.746   1
 -18  -4  -8 1086.30 693.478   4
  22 -18  -8-65.8711 972.806   2
 -22   4  -8 609.343 610.213   4
  -4  22  -8-293.897 618.982   1
  -4  22  -8 339.723 826.627   3
   4  18  -8 348.294 695.122   3
 -18  -4  -8 1133.66 888.141   2
 -22   4  -5 13072.0 1163.85   2
   4  18  -5 13202.8 1000.38   1
  22 -18  -5 11340.5 1127.49   3
  18 -22  -5 13642.0 1072.93   3
  22 -18  -5 14281.0 1404.52   4
  22 -18  -5 12566.4 1516.43   2
  18 -22  -5 13903.2 1392.75   4
  18 -22  -5 13477.3 1531.06   2
 -22   4  -5 16989.8 1399.99   1
  -4  22  -5 13177.4 1156.65   1
 -18  -4  -5 11666.6 1156.27   4
 -22   4  -5 14600.1 1191.52   4
   4  18  -5 14708.7 1216.71   3
 -18  -4  -5 14415.4 1342.16   2
 -18  -4  -2 2213.57 705.894   2
  22 -18  -2 2629.30 720.154   3
 -22   4  -2 2964.84 660.226   2
  18 -22  -2 1650.71 597.320   3
   4  18  -2 914.847 518.769   1
  18 -22  -2 2553.76 670.398   2
  18 -22  -2 599.991 617.944   4
 -22   4  -2 1472.02 555.368   1
  -4  22  -2 2834.01 668.060   1
 -18  -4  -2 2384.39 723.639   4
   4  18  -2 3054.31 654.840   3
  22 -18   1 9795.49 755.347   2
 -18  -4   1 11129.4 1117.15   2
  22 -18   1 14685.7 1209.73   3
  18 -22   1 12600.5 1057.70   4
 -18  -4   1 12582.3 687.965   1
   4  18   1 14933.2 1172.24   1
  18 -22   1 12533.0 762.293   2
 -18  -4   1 13301.6 1120.96   4
  -4  22   1 15154.1 1268.68   1
   4  18   1 13625.0 869.709   3
 -22   4   1 11650.7 666.106   1
  18 -22   4 1133.51 457.273   4
  -4  22   4 586.469 630.339   1
  -4  22   4 1518.12 349.167   3
   4  18   4 1157.34 269.563   3
  22 -17  -9 11767.3 1255.29   3
  -5  22  -9 13897.4 1387.82   1
  22 -17  -9 12510.2 1478.62   4
  22 -17  -9 8771.02 1751.81   2
  17 -22  -9 14785.7 1592.84   4
 -22   5  -9 15796.6 1700.41   1
  17 -22  -9 9978.89 1751.93   2
 -17  -5  -9 17889.5 1553.74   4
 -22   5  -9 10898.3 1154.24   4
  -5  22  -9 19292.0 1729.82   3
   5  17  -9 17570.4 1584.29   3
 -17  -5  -9 12676.8 1540.92   2
 -22   5  -9 11833.5 1248.72   2
 -22   5  -6 2484.46 717.554   2
  22 -17  -6 2461.19 713.785   3
  17 -22  -6 1918.53 579.583   3
  22 -17  -6 2303.64 830.337   4
  22 -17  -6 2481.02 1022.30   2
  17 -22  -6 1420.26 727.527   4
  17 -22  -6 2076.49 945.313   2
 -22   5  -6 3027.19 909.693   1
   5  17  -6 1341.02 483.995   1
 -17  -5  -6 2080.11 802.757   4
 -22   5  -6 1203.63 596.469   4
   5  17  -6 2510.90 747.279   3
  -5  22  -6 2817.01 728.619   1
 -17  -5  -6 1976.62 749.671   2
  22 -17  -3 18384.3 1297.64   3
 -22   5  -3 18277.4 1242.55   2
  17 -22  -3 19705.2 1226.02   3
  17 -22  -3 18118.6 1404.67   4
  17 -22  -3 16707.0 1393.67   2
 -22   5  -3 19893.2 1329.89   1
  -5  22  -3 15107.4 1072.03   2
   5  17  -3 21972.1 1197.06   1
 -17  -5  -3 21568.7 1446.45   4
  -5  22  -3 21763.7 1347.43   1
   5  17  -3 22221.4 1290.16   3
 -17  -5  -3 17256.8 1373.84   2
   5  17   0 13765.5 1044.63   1
 -17  -5   0 13967.7 1199.06   2
  22 -17   0 15345.5 1222.91   3
  17 -22   0 14487.5 1147.27   4
  -5  22   0 12744.2 1103.35   1
  17 -22   0 13499.7 936.664   2
 -17  -5   0 15003.1 1160.58   4
 -22   5   0 13675.8 832.845   1
   5  17   0 16107.8 969.807   3
 -17  -5   0 14717.3 893.882   1
  -5  22   3 19834.0 981.349   3
  22 -17   3 24537.2 1538.83   3
  17 -22   3 27842.4 1335.99   4
  -5  22   3 21532.3 1502.53   1
  22 -17   3 16419.2 885.763   2
   5  17   3 24482.6 915.097   3
  17 -22   6 3578.57 459.130   4
  22 -16 -10 8196.90 1188.27   3
  -6  22 -10 9831.35 1320.61   1
 -22   6 -10 10258.5 1577.48   1
  22 -16 -10 5618.75 1180.79   4
  16 -22 -10 7778.34 1312.21   4
  22 -16 -10 7055.69 1622.72   2
  16 -22 -10 8189.39 1737.34   2
 -16  -6 -10 7183.22 1151.87   4
  -6  22 -10 7973.77 1324.63   3
   6  16 -10 9527.58 1357.92   3
 -16  -6 -10 7703.45 1386.23   2
 -22   6  -7 2823.51 742.038   2
  22 -16  -7 3643.40 811.943   3
  16 -22  -7 2409.86 819.069   4
  16 -22  -7 3537.10 616.181   3
  -6  22  -7 4494.15 861.416   1
  22 -16  -7 1925.53 772.577   4
 -22   6  -7 5706.29 1074.51   1
   6  16  -7 3119.83 571.259   1
  16 -22  -7 2602.48 1075.27   2
 -16  -6  -7 2368.28 762.506   4
 -22   6  -7 2355.26 633.048   4
   6  16  -7 3934.41 886.949   3
 -16  -6  -7 4430.62 1008.67   2
  22 -16  -7 2753.09 1194.07   2
  22 -16  -4 16430.3 1251.50   3
 -22   6  -4 12640.5 1053.02   2
  16 -22  -4 12561.9 976.682   3
  16 -22  -4 10366.1 1137.94   4
  16 -22  -4 12633.5 1359.45   2
 -22   6  -4 14025.0 1211.30   1
   6  16  -4 12594.3 887.915   1
  -6  22  -4 11030.7 864.857   2
  -6  22  -4 12342.5 1148.53   1
 -16  -6  -4 13721.1 1204.11   4
   6  16  -4 13952.7 1142.97   3
 -16  -6  -4 13253.5 1267.08   2
 -16  -6  -1 22544.7 1482.23   2
  22 -16  -1 22838.7 1396.45   3
  16 -22  -1 22055.9 1429.71   4
  16 -22  -1 21413.9 1282.09   2
 -16  -6  -1 23806.1 1400.26   4
 -22   6  -1 21494.4 1140.30   1
   6  16  -1 20106.8 1183.26   1
   6  16  -1 22453.0 1204.86   3
  -6  22  -1 21552.1 1359.30   1
  22 -16   2 16180.2 1254.85   3
 -16  -6   2 15795.1 1274.77   2
 -22   6   2 13296.7 637.693   1
 -16  -6   2 13435.8 622.913   1
 -16  -6   2 16667.1 1196.46   4
  16 -22   2 11621.2 495.872   2
  16 -22   2 12827.7 985.205   4
   6  16   2 14201.7 805.144   3
  -6  22   2 16047.0 1269.09   1
  22 -16   2 13881.3 896.968   2
  16 -22   5 3825.27 506.321   4
 -22   7  -8 4036.03 765.102   2
  22 -15  -8 2589.52 747.835   3
  22 -15  -8 4556.40 980.348   4
  22 -15  -8 3519.54 1164.51   2
  15 -22  -8 2005.53 862.180   4
  15 -22  -8 1511.94 1080.15   2
  -7  22  -8 3174.49 802.346   1
 -15  -7  -8 3333.18 861.727   4
 -22   7  -8 1338.53 833.853   1
   7  15  -8 4356.77 929.438   3
 -15  -7  -8 4359.22 1001.72   2
  22 -15  -5 5528.03 885.372   3
 -22   7  -5 4741.18 716.009   2
  15 -22  -5 5323.72 921.620   4
   7  15  -5 5974.64 639.602   1
  -7  22  -5 6001.25 894.333   1
 -22   7  -5 5307.43 922.559   1
  15 -22  -5 4656.25 1042.99   2
 -15  -7  -5 6124.68 916.459   4
   7  15  -5 6321.48 879.924   3
 -15  -7  -5 5393.15 973.466   2
  22 -15  -2 15876.4 1235.60   3
 -22   7  -2 16358.1 1138.09   2
  15 -22  -2 16255.7 1257.37   4
   7  15  -2 15595.2 997.124   1
  -7  22  -2 13210.9 968.720   2
  15 -22  -2 17587.0 1247.15   2
 -22   7  -2 15664.9 1075.48   1
 -15  -7  -2 16663.1 1261.60   4
  -7  22  -2 16771.9 1212.81   1
   7  15  -2 18190.7 1138.83   3
 -15  -7  -2 17832.7 1374.05   2
 -15  -7   1 22457.6 1481.70   2
  22 -15   1 24538.4 1472.39   3
  15 -22   1 22669.9 1309.33   4
  -7  22   1 22046.5 1436.83   1
  15 -22   1 21943.3 952.927   2
 -15  -7   1 22001.8 1311.76   4
   7  15   1 22283.9 1054.50   3
 -15  -7   1 18915.3 884.266   1
 -22   7   1 21392.9 925.106   1
  22 -15   1 18292.8 1073.74   2
  -7  22   4 1889.91 429.211   3
  22 -15   4 4495.48 798.651   3
  15 -22   4 1751.13 449.207   4
  22 -15   4 2599.91 514.736   2
   7  15   4 2558.73 347.817   3
  -7  22   4 3678.62 824.124   1
  22 -14  -9 9563.14 1121.59   3
  -8  22  -9 8694.05 1235.71   1
  22 -14  -9 7202.64 1183.68   4
  22 -14  -9 11133.4 1701.79   2
  14 -22  -9 9544.81 1345.14   4
  14 -22  -9 9135.83 1708.84   2
 -22   8  -9 9033.72 1368.20   1
 -14  -8  -9 11678.8 1295.86   4
   8  14  -9 8883.83 1241.82   3
 -14  -8  -9 7160.79 1258.78   2
   8  14  -6 1851.88 423.356   1
  22 -14  -6 310.248 605.276   3
 -22   8  -6 1874.65 609.611   2
  14 -22  -6 2169.60 792.054   4
  14 -22  -6 2050.51 1004.68   2
 -14  -8  -6 1913.11 700.296   4
  -8  22  -6 1673.82 720.331   1
 -22   8  -6 3595.02 862.992   1
   8  14  -6 1254.59 608.152   3
 -14  -8  -6 2077.58 751.956   2
  22 -14  -3 17652.8 1254.42   3
 -22   8  -3 16674.4 1125.58   2
   8  14  -3 16974.6 945.698   1
  14 -22  -3 16172.8 1349.55   4
  -8  22  -3 15378.1 884.193   2
  14 -22  -3 14047.6 1276.44   2
 -22   8  -3 19906.8 1267.80   1
  -8  22  -3 16094.5 1200.09   1
 -14  -8  -3 17836.3 1310.19   4
   8  14  -3 20227.0 1245.83   3
 -14  -8  -3 16904.8 1366.99   2
 -22   8   0 793.677 384.641   1
 -14  -8   0 398.973 398.070   1
 -14  -8   0 725.916 544.954   2
  22 -14   0 108.004 549.171   3
  14 -22   0 713.259 515.949   4
  14 -22   0 1338.32 472.044   2
 -14  -8   0 1146.16 566.216   4
  -8  22   0 2116.75 657.037   1
   8  14   0 1289.83 434.148   3
  -8  22   3 11723.1 793.213   3
  22 -14   3 14740.0 1193.64   3
  14 -22   3 16531.3 976.042   4
 -14  -8   3 15622.7 1088.69   4
  22 -14   3 10243.9 898.201   2
 -14  -8   3 10166.5 524.489   1
   8  14   3 16501.0 789.498   3
 -22   8   3 13761.9 622.878   1
  -8  22   3 13334.8 1222.76   1
  14 -22   6 2161.01 304.297   4
  22 -13 -10 2917.86 892.766   3
  22 -13 -10 4733.17 1137.06   4
  -9  22 -10 2826.03 961.196   1
  22 -13 -10 3123.96 1352.64   2
  13 -22 -10 5053.31 1123.68   4
  13 -22 -10 2402.26 1317.94   2
 -13  -9 -10 5105.27 1016.34   4
 -22   9 -10 1912.82 1084.34   1
   9  13 -10 6869.92 1158.34   3
 -13  -9 -10 2934.81 1120.00   2
  22 -13  -7 1736.35 688.534   3
 -22   9  -7 1316.98 544.771   2
  13 -22  -7 1618.19 780.432   4
  -9  22  -7 1576.12 764.566   1
  13 -22  -7 1143.69 919.349   2
 -13  -9  -7 1046.59 646.814   4
 -22   9  -7 2727.89 930.273   1
   9  13  -7 3246.00 851.013   3
 -13  -9  -7 1540.80 831.834   2
  22 -13  -4 14268.0 1148.01   3
   9  13  -4 13160.0 767.653   1
 -22   9  -4 12071.8 930.466   2
  -9  22  -4 9396.87 525.087   2
  13 -22  -4 11559.6 1192.53   4
  -9  22  -4 13438.2 1157.91   1
  13 -22  -4 11744.4 1307.95   2
 -13  -9  -4 12650.6 1160.67   4
 -22   9  -4 14040.1 1190.47   1
  22 -13  -4 10123.4 791.568   1
 -13  -9  -4 10024.4 749.733   3
   9  13  -4 13005.8 1097.69   3
 -13  -9  -4 12257.2 1266.55   2
  22 -13  -1 4547.16 744.797   3
  -9  22  -1 5587.27 718.935   2
  13 -22  -1 6419.30 855.143   4
  13 -22  -1 6398.14 781.566   2
 -13  -9  -1 8160.06 893.179   4
 -22   9  -1 5355.14 684.484   1
  -9  22  -1 6661.73 872.999   1
   9  13  -1 5955.37 699.879   3
 -13  -9  -1 7294.36 939.053   2
  22 -13   2 1436.64 635.404   3
 -13  -9   2 423.263 552.352   2
  13 -22   2 1421.09 465.657   4
 -13  -9   2 495.489 324.582   1
 -13  -9   2 1801.35 529.682   4
  -9  22   2 1873.09 653.786   1
 -22   9   2 1024.02 349.762   1
   9  13   2 1358.95 377.650   3
  13 -22   2 1032.15 280.820   2
  22 -13   2-265.364 463.622   2
   9  13   5 3249.83 339.981   3
  13 -22   5 4039.98 470.827   4
  -9  22   5 3840.52 847.295   1
  22 -12  -8 4259.89 857.168   3
 -22  10  -8 3731.07 663.523   2
  22 -12  -8 5470.85 1025.94   4
  12 -22  -8 7123.31 1154.07   4
 -10  22  -8 3939.93 854.414   1
 -12 -10  -8 5101.65 932.374   4
  12 -22  -8 4498.87 1228.23   2
 -22  10  -8 4132.12 1054.11   1
  10  12  -8 5585.02 997.312   3
 -12 -10  -8 4956.49 1130.60   2
  22 -12  -5 4014.48 806.830   3
  10  12  -5 2903.11 430.213   1
 -22  10  -5 3617.74 617.522   2
  12 -22  -5 2898.95 812.851   4
 -12 -10  -5 4280.67 861.133   4
 -22  10  -5 4615.28 845.549   1
  12 -22  -5 4146.60 955.845   2
 -10  22  -5 2869.38 681.498   1
  10  12  -5 5587.62 867.325   3
 -12 -10  -5 3866.15 954.835   2
  22 -12  -2 19147.4 1277.97   3
 -10  22  -2 17945.9 931.468   2
  12 -22  -2 20278.6 1421.21   4
  22 -12  -2 16784.5 1045.30   1
  12 -22  -2 18664.2 1296.13   2
 -12 -10  -2 18984.7 1302.63   4
 -10  22  -2 18957.8 1307.22   1
 -22  10  -2 19963.7 1196.28   1
  10  12  -2 20695.9 1175.24   3
 -12 -10  -2 19571.0 1434.81   2
 -12 -10   1 4933.37 806.196   2
 -22  10   1 5271.06 586.743   1
  22 -12   1 4866.58 787.013   3
  12 -22   1 4397.50 649.999   4
 -12 -10   1 4302.65 701.653   4
 -12 -10   1 4551.68 570.293   1
  12 -22   1 4606.28 527.954   2
  10  12   1 4620.14 576.226   3
 -10  22   1 4387.08 759.648   1
  12 -22   4 8072.37 641.604   4
  22 -12   4 9317.67 996.633   3
 -10  22   4 8962.87 1030.59   1
 -12 -10   4 6961.58 477.496   1
  22 -12   4 6261.93 828.639   2
 -12 -10   4 9067.28 847.974   4
 -22  10   4 7736.31 545.685   1
  10  12   4 9190.87 598.019   3
 -10  22   4 6640.07 651.038   3
  22 -11  -9 3933.75 879.820   3
  22 -11  -9 6723.78 1112.74   4
  22 -11  -9 3108.85 1185.53   2
 -11  22  -9 4868.31 990.495   1
  11 -22  -9 2947.09 1007.79   4
  11 -22  -9 6789.75 1436.57   2
 -11 -11  -9 5100.91 1043.78   4
 -11 -11  -9 6952.50 1390.88   2
 -22  11  -9 5085.23 1158.32   1
  11  11  -9 5447.35 1020.45   3
  22 -11  -6 614.112 648.907   3
  11 -22  -6 474.602 666.687   4
 -22  11  -6 935.685 420.927   2
  11  11  -6 792.274 257.579   1
 -11  22  -6 1964.35 761.524   1
 -11 -11  -6 771.809 698.805   4
  11 -22  -6 1295.61 868.343   2
 -22  11  -6 938.992 713.661   1
  11  11  -6 1291.12 680.392   3
 -11 -11  -6 1789.16 869.482   2
  22 -11  -3 26749.1 1499.56   3
  11 -22  -3 32365.6 1742.48   4
  22 -11  -3 28117.8 1154.54   1
 -11  22  -3 29977.5 1597.04   1
  11 -22  -3 29563.5 1758.10   2
 -11 -11  -3 29309.5 1608.18   4
 -22  11  -3 31082.9 1607.13   1
  11  11  -3 29239.4 1463.51   3
 -11 -11  -3 31205.5 1804.00   2
  22 -11   0 7171.57 896.326   3
 -11  22   0 6536.46 797.699   2
  11 -22   0 6288.50 800.648   4
 -11 -11   0 5820.24 776.048   4
  11 -22   0 6450.78 716.542   2
  11  11   0 6452.64 701.011   3
 -11  22   0 8000.58 908.353   1
 -22  11   0 5985.59 662.940   1
 -11 -11   0 6281.41 850.832   2
  11 -22   3 22986.5 646.729   2
  22 -11   3 31732.0 1666.07   3
 -11 -11   3 31977.2 1716.35   2
  11 -22   3 29695.4 1241.99   4
 -11 -11   3 30913.1 1420.59   4
 -11  22   3 29773.3 1648.29   1
 -22  11   3 28955.3 1083.79   1
 -11 -11   3 23797.4 1004.86   1
  11  11   3 29579.3 1113.30   3
  11 -22   6 735.388 174.389   4
  22 -10 -10 3145.22 928.852   3
  22 -10 -10 5935.29 1122.09   4
  22 -10 -10 3768.67 1409.68   2
  10 -22 -10 6509.07 1220.23   4
 -10 -12 -10 4438.04 947.443   4
  10 -22 -10 4557.18 1471.87   2
 -22  12 -10 6558.00 1328.66   1
 -10 -12 -10 3133.33 1205.73   2
  12  10 -10 4278.03 1031.52   3
 -12  22 -10 6621.35 1173.92   1
 -12  22  -7 8339.20 1096.95   1
 -22  12  -7 7659.45 698.089   2
  10 -22  -7 9413.37 1289.40   4
  10 -22  -7 7290.26 1342.28   2
 -10 -12  -7 5622.94 918.710   4
 -22  12  -7 9636.02 1257.63   1
 -10 -12  -7 6995.74 1178.96   2
  12  10  -7 8233.26 1062.15   3
  22 -10  -7 6755.06 970.272   3
 -12  22  -4 10290.3 1083.26   1
  22 -10  -4 8560.21 611.847   1
  10 -22  -4 9839.62 1145.49   4
  10 -22  -4 9243.60 1138.92   2
 -10 -12  -4 10221.7 1073.06   4
 -22  12  -4 11103.7 1075.13   1
 -10 -12  -4 10149.5 1205.13   2
  12  10  -4 10432.6 969.163   3
  22 -10  -4 7654.25 905.875   3
  22 -10  -1 5896.09 838.585   3
  22 -10  -1 5139.13 703.953   1
  10 -22  -1 4260.66 729.451   4
 -10 -12  -1 6796.56 840.840   4
  10 -22  -1 5761.80 769.392   2
 -12  22  -1 6215.99 870.496   1
  12  10  -1 5288.97 673.499   3
 -22  12  -1 6053.76 732.185   1
 -10 -12  -1 5947.71 878.758   2
 -10 -12   2 20815.2 1406.52   2
  22 -10   2 20441.3 1313.32   3
 -10 -12   2 18717.6 978.088   1
 -12  22   2 15466.4 1252.21   1
  10 -22   2 18732.2 1067.47   4
 -22  12   2 17735.7 954.243   1
 -10 -12   2 17625.3 1109.87   4
  10 -22   2 18580.1 862.144   2
  12  10   2 18313.7 943.980   3
  12  10   5 4632.99 483.991   3
  22 -10   5 5587.23 824.934   3
  10 -22   5 4339.44 451.838   4
 -12  22   5 5282.24 942.319   1
 -22  12   5 5170.45 552.442   1
 -13  22  -8 10690.1 1215.08   1
   9 -22  -8 9974.41 1509.72   2
   9 -22  -8 11625.8 1416.36   4
  -9 -13  -8 12875.3 1344.58   4
 -22  13  -8 10466.9 1309.64   1
  -9 -13  -8 13986.4 1606.46   2
  13   9  -8 11426.4 1280.84   3
  22  -9  -8 11876.3 1256.23   3
  22  -9  -5 3538.91 734.656   3
   9 -22  -5 2953.02 787.992   4
 -13  22  -5 3359.37 768.586   1
  -9 -13  -5 2976.15 762.408   4
   9 -22  -5 2546.62 841.975   2
 -22  13  -5 4488.85 886.166   1
  13   9  -5 3402.67 749.380   3
  -9 -13  -5 2029.06 829.679   2
 -22  13  -2 2373.10 600.964   1
  22  -9  -2 1427.67 622.015   3
   9 -22  -2 3100.41 677.758   4
  -9 -13  -2 2372.26 603.431   4
   9 -22  -2 2174.86 684.268   2
 -13  22  -2 1593.72 624.669   1
  13   9  -2 3157.13 620.243   3
  -9 -13  -2 1959.90 702.543   2
  -9 -13   1 4760.74 780.069   2
  22  -9   1 6316.21 830.330   3
 -22  13   1 4496.72 612.100   1
   9 -22   1 5235.32 711.236   4
  -9 -13   1 4767.65 708.259   4
   9 -22   1 4722.18 602.578   2
  13   9   1 6769.73 699.477   3
 -13  22   1 5488.32 871.872   1
  13   9   4 13826.7 805.505   3
  22  -9   4 13816.6 1153.88   3
   9 -22   4 13614.5 805.453   4
 -22  13   4 11765.6 796.182   1
  -9 -13   4 14098.3 948.120   4
  -9 -13   4 12764.5 819.722   1
 -13  22   4 12415.4 1152.87   1
   8 -22  -9 11466.5 1385.85   4
  -8 -14  -9 11691.9 1320.87   4
   8 -22  -9 9722.73 1604.61   2
 -22  14  -9 12399.3 1569.11   1
  -8 -14  -9 10627.6 1537.69   2
  14   8  -9 11629.7 1329.56   3
  22  -8  -9 12249.3 1299.30   3
 -14  22  -9 12004.0 1442.42   1
  22  -8  -6 2490.83 802.512   3
 -14  22  -6 3341.27 872.772   1
   8 -22  -6 2504.96 784.220   4
  -8 -14  -6 2978.62 839.162   4
   8 -22  -6 3795.17 1050.47   2
  -8 -14  -6 3519.20 965.138   2
 -22  14  -6 3787.50 895.225   1
  14   8  -6 2889.97 708.514   3
 -14  22  -3 17681.5 1297.44   1
   8 -22  -3 16914.7 1308.86   4
  -8 -14  -3 18976.1 1363.51   4
   8 -22  -3 17164.8 1362.41   2
 -22  14  -3 20032.2 1315.62   1
  -8 -14  -3 21783.6 1581.24   2
  14   8  -3 19467.0 1234.90   3
  22  -8  -3 20434.0 1339.33   3
  -8 -14   0 1265.89 597.304   2
  22  -8   0 274.473 549.069   3
 -14  22   0 813.332 558.614   1
 -22  14   0 1645.28 519.767   1
   8 -22   0 273.067 448.216   4
  -8 -14   0 815.006 517.567   4
   8 -22   0 452.453 448.072   2
  14   8   0 465.706 412.983   3
   8 -22   3 20320.5 885.217   2
  22  -8   3 22151.5 1416.88   3
  -8 -14   3 23946.4 1487.04   2
   8 -22   3 20991.2 1075.39   4
 -14  22   3 18005.0 1339.29   1
  -8 -14   3 23444.3 1213.88   4
 -22  14   3 22105.5 1122.24   1
  14   8   3 21469.4 1031.97   3
  14   8   6 769.186 358.976   3
 -14  22   6 1255.25 731.733   1
  22  -8   6 461.351 572.594   3
  22  -7 -10 405.341 706.814   3
 -15  22 -10 2450.05 970.322   1
   7 -22 -10 553.557 788.885   4
  -7 -15 -10 1081.81 779.865   4
  22  -7 -10 856.449 762.318   4
   7 -22 -10 217.114 1205.33   2
  -7 -15 -10-18.5437 950.932   2
 -22  15 -10-179.196 934.739   1
  15   7 -10-1831.05 902.707   3
   7 -22  -7 8048.98 1103.24   4
  -7 -15  -7 7835.39 1087.37   4
   7 -22  -7 7607.25 1325.23   2
 -22  15  -7 9341.16 1171.75   1
  -7 -15  -7 8089.67 1238.70   2
  15   7  -7 5926.88 942.355   3
  22  -7  -7 7810.52 1101.83   3
 -15  22  -7 7024.47 1059.29   1
  22  -7  -4 2813.95 712.178   3
   7 -22  -4 1467.50 658.078   4
 -15  22  -4 2109.40 729.026   1
  -7 -15  -4 2865.01 745.268   4
   7 -22  -4 2990.73 827.098   2
  -7 -15  -4 2269.96 829.243   2
  15   7  -4 3675.12 712.542   3
 -22  15  -4 2366.78 649.340   1
  22  -7  -1 23287.7 1382.46   3
   7 -22  -1 20988.1 1322.06   4
  -7 -15  -1 23601.5 1407.33   4
 -15  22  -1 23454.0 1417.86   1
   7 -22  -1 25258.3 1413.05   2
  15   7  -1 25011.1 1300.36   3
  -7 -15  -1 26786.3 1587.85   2
 -22  15  -1 22633.0 1262.54   1
  -7 -15   2 15925.7 1257.78   2
  22  -7   2 16865.0 1167.29   3
 -15  22   2 14008.8 1175.17   1
   7 -22   2 14583.2 976.251   4
  -7 -15   2 14231.3 996.089   4
 -22  15   2 14518.5 960.674   1
   7 -22   2 16033.7 940.231   2
  15   7   2 13995.7 930.007   3
  15   7   5 6408.23 625.347   3
  22  -7   5 4226.15 769.626   3
 -22  15   5 6038.00 724.356   1
 -15  22   5 5928.15 889.795   1
   7 -22   5 5775.48 503.376   4
  -7 -15   5 6152.26 674.601   4
 -16  22  -8 3770.54 973.846   1
   6 -22  -8 3740.65 974.236   4
  -6 -16  -8 3048.34 878.955   4
   6 -22  -8 3692.15 1154.84   2
  -6 -16  -8 2440.44 1032.18   2
  16   6  -8 3008.39 868.157   3
 -22  16  -8 2091.03 892.751   1
  22  -6  -8 2645.97 825.580   3
  22  -6  -5 4003.42 826.284   3
 -16  22  -5 5186.51 871.694   1
   6 -22  -5 4096.73 860.159   4
   6 -22  -5 3730.14 1003.30   2
  -6 -16  -5 3219.29 786.428   4
  -6 -16  -5 3008.80 876.947   2
  16   6  -5 3237.17 764.359   3
 -22  16  -5 3915.67 850.098   1
 -16  22  -2 13816.0 1151.28   1
   6 -22  -2 12959.0 1124.55   4
  -6 -16  -2 15195.7 1217.55   4
   6 -22  -2 12872.7 1167.07   2
  -6 -16  -2 11960.8 1169.05   2
  16   6  -2 9952.25 931.329   3
 -22  16  -2 12368.7 1100.58   1
  22  -6  -2 12686.0 1110.79   3
  22  -6   1 21968.2 1321.64   3
 -22  16   1 21018.8 1170.49   1
   6 -22   1 23606.7 1286.03   4
  -6 -16   1 22068.1 1296.44   4
 -16  22   1 24897.4 1432.39   1
   6 -22   1 24616.2 1262.24   2
  16   6   1 23486.7 1211.38   3
  -6 -16   1 22305.1 1394.93   2
  16   6   4 13514.3 928.629   3
  22  -6   4 15350.8 1195.05   3
 -22  16   4 16106.0 1058.10   1
   6 -22   4 16061.9 899.512   4
  -6 -16   4 16145.0 1000.52   4
 -16  22   4 18137.6 1375.93   1
   5 -22  -9 8651.54 1332.08   4
  -5 -17  -9 10528.1 1351.95   4
  -5 -17  -9 9920.43 1549.34   2
   5 -22  -9 7273.46 1499.83   2
 -22  17  -9 8732.54 1315.49   1
  17   5  -9 7404.50 1134.51   3
 -17  22  -9 9526.04 1272.46   1
  22  -5  -9 8752.83 1193.67   3
 -17  22  -6 4277.96 892.884   1
   5 -22  -6 5126.71 1047.98   4
  -5 -17  -6 3119.00 850.410   4
   5 -22  -6 3665.39 967.778   2
  -5 -17  -6 5074.75 1049.45   2
  17   5  -6 5794.43 929.558   3
 -22  17  -6 4721.00 955.305   1
  22  -5  -6 3481.35 759.006   3
 -17  22  -3 22867.8 1458.44   1
   5 -22  -3 26593.7 1633.20   4
  -5 -17  -3 21189.2 1433.92   4
   5 -22  -3 22066.7 1578.38   2
  -5 -17  -3 24046.6 1656.32   2
  17   5  -3 22972.8 1390.81   3
 -22  17  -3 25915.9 1501.92   1
  22  -5  -3 23814.7 1462.27   3
  22  -5   0 11284.6 1043.45   3
 -22  17   0 11642.5 974.994   1
   5 -22   0 13788.2 1077.31   4
  -5 -17   0 12163.5 1009.66   4
 -17  22   0 13738.0 1113.74   1
   5 -22   0 11416.3 951.862   2
  -5 -17   0 11584.0 1105.46   2
  17   5   0 12198.9 944.043   3
  17   5   3 20682.3 1117.92   3
   5 -22   3 18796.7 1073.83   2
  22  -5   3 19433.6 1299.01   3
  -5 -17   3 19772.9 1331.58   2
   5 -22   3 20716.8 1095.81   4
  -5 -17   3 20959.6 1150.37   4
 -17  22   3 17817.6 1282.39   1
 -22  17   3 18981.9 1163.67   1
 -22  17   6 2703.66 641.468   1
  17   5   6 2523.58 548.963   3
  22  -5   6 1270.07 631.362   3
 -17  22   6 1808.55 679.391   1
 -18  22  -7 4327.04 952.242   1
   4 -22  -7 8435.47 1197.42   4
  -4 -18  -7 6958.75 1065.19   4
   4 -22  -7 6914.59 1298.40   2
  -4 -18  -7 6996.44 1309.55   2
 -22  18  -7 6364.98 1149.54   1
  18   4  -7 7821.05 1043.99   3
  22  -4  -7 7152.51 1010.73   3
  22  -4  -4 1286.79 651.383   3
 -22  18  -4 1372.99 705.297   1
 -18  22  -4 443.066 722.386   1
   4 -22  -4 616.829 618.740   4
  -4 -18  -4 105.865 584.477   4
   4 -22  -4 1463.24 748.541   2
  -4 -18  -4 2187.57 816.225   2
  18   4  -4 2579.20 697.165   3
 -22  18  -1 10542.1 989.521   1
   4 -22  -1 10679.3 1010.96   4
 -18  22  -1 9980.34 1029.74   1
  -4 -18  -1 10342.0 1030.55   4
   4 -22  -1 10344.9 1053.38   2
  -4 -18  -1 10514.4 1092.35   2
  18   4  -1 9601.32 945.849   3
  22  -4  -1 11237.0 1047.20   3
  18   4   2 2621.49 584.487   3
   4 -22   2 894.576 432.030   2
  22  -4   2 1329.77 567.292   3
  -4 -18   2 1545.81 659.911   2
 -22  18   2 1236.30 536.695   1
   4 -22   2 2048.70 505.622   4
  -4 -18   2 1638.36 509.185   4
 -18  22   2 2160.39 639.519   1
 -18  22   5 12639.3 1219.88   1
  18   4   5 13594.9 984.802   3
  22  -4   5 12804.3 1122.50   3
   4 -22   5 14090.9 787.949   4
  -4 -18   5 13562.3 884.351   4
 -22  18   5 11418.9 1036.54   1
   3 -22  -8 8063.55 1196.50   4
  -3 -19  -8 10080.0 1274.35   4
  -3 -19  -8 8785.46 1435.31   2
   3 -22  -8 5931.93 1385.50   2
 -22  19  -8 10335.8 1295.92   1
  19   3  -8 9284.47 1146.05   3
 -19  22  -8 9056.85 1224.94   1
  22  -3  -8 8460.17 1165.91   3
 -22  19  -5 2898.59 852.599   1
 -19  22  -5 3243.37 864.552   1
   3 -22  -5 3160.00 808.263   4
  -3 -19  -5 2971.82 825.819   4
   3 -22  -5 1823.35 770.327   2
  -3 -19  -5 2840.26 909.365   2
  19   3  -5 1217.04 609.377   3
  22  -3  -5 2789.82 741.737   3
 -22  19  -2 20634.4 1349.69   1
 -19  22  -2 21211.7 1404.08   1
   3 -22  -2 19892.1 1408.67   4
  -3 -19  -2 21200.9 1429.04   4
   3 -22  -2 19096.9 1405.68   2
  -3 -19  -2 20233.0 1479.08   2
  19   3  -2 19777.2 1325.06   3
  22  -3  -2 21387.2 1381.04   3
  22  -3   1 4165.54 717.734   3
 -19  22   1 4664.64 786.069   1
   3 -22   1 5005.73 734.839   4
  -3 -19   1 5653.64 749.710   4
 -22  19   1 5266.74 751.855   1
   3 -22   1 4458.87 701.439   2
  -3 -19   1 5307.86 835.035   2
  19   3   1 5075.27 747.978   3
  19   3   4 9195.98 885.684   3
  22  -3   4 9293.25 995.506   3
 -22  19   4 9598.30 934.363   1
   3 -22   4 9763.66 775.744   4
  -3 -19   4 10870.4 806.758   4
 -19  22   4 8455.47 1008.86   1
   2 -22  -9 8297.94 1337.54   4
  -2 -20  -9 9171.22 1291.00   4
   2 -22  -9 8444.76 1605.37   2
  -2 -20  -9 9637.53 1663.17   2
 -22  20  -9 8370.09 1354.74   1
  20   2  -9 10198.0 1291.89   3
 -20  22  -9 9193.27 1333.81   1
  22  -2  -9 6902.15 1119.14   3
   2 -22  -6 10570.6 1249.55   4
  -2 -20  -6 8447.04 1183.22   4
   2 -22  -6 7200.91 1244.42   2
  -2 -20  -6 7429.55 1223.89   2
 -22  20  -6 8133.04 1142.33   1
  20   2  -6 6545.88 1045.53   3
  22  -2  -6 7501.51 1113.25   3
 -20  22  -6 8955.47 1235.09   1
 -22  20  -3 17880.6 1333.00   1
 -20  22  -3 16398.6 1360.67   1
   2 -22  -3 17837.3 1383.66   4
  -2 -20  -3 19884.4 1451.34   4
   2 -22  -3 16397.7 1437.00   2
  -2 -20  -3 15606.6 1396.87   2
  20   2  -3 18285.3 1334.20   3
  22  -2  -3 13766.3 1210.64   3
  20   2   0 3710.28 689.917   3
  22  -2   0 1920.14 663.411   3
 -22  20   0 3981.96 758.924   1
   2 -22   0 4129.25 703.089   4
 -20  22   0 3850.12 837.062   1
  -2 -20   0 3457.05 713.796   4
  -2 -20   0 4115.01 799.870   2
   2 -22   0 4159.25 703.497   2
  20   2   3 11909.1 977.473   3
  22  -2   3 10526.4 987.715   3
   2 -22   3 11429.0 993.290   2
 -22  20   3 11532.0 1060.75   1
  -2 -20   3 12891.8 1110.32   2
 -20  22   3 11629.9 1097.35   1
   2 -22   3 11987.0 921.532   4
  -2 -20   3 11484.5 910.994   4
 -20  22   6 1396.51 751.521   1
  20   2   6 1122.35 573.154   3
  22  -2   6 1297.92 641.718   3
 -22  20   6 29.9076 586.719   1
  -2 -20   6 1123.44 390.550   4
   1 -22  -7 10967.5 1304.64   4
  -1 -21  -7 12582.9 1419.34   4
   1 -22  -7 7540.64 1339.70   2
  -1 -21  -7 9704.12 1446.04   2
 -22  21  -7 12396.2 1413.95   1
  21   1  -7 8397.43 1128.46   3
  22  -1  -7 11883.5 1311.69   3
 -21  22  -7 11016.8 1317.14   1
 -21  22  -4 6858.08 980.471   1
   1 -22  -4 5138.45 949.509   4
  -1 -21  -4 8199.28 1044.56   4
   1 -22  -4 6804.94 1101.31   2
  -1 -21  -4 5828.44 1075.43   2
  22  -1  -4 5959.83 920.439   3
  21   1  -4 4756.31 866.324   3
 -22  21  -4 6335.36 985.072   1
   1 -22  -1 23208.4 1449.21   4
 -22  21  -1 20996.7 1399.60   1
 -21  22  -1 23896.5 1481.04   1
  -1 -21  -1 25510.7 1550.98   4
   1 -22  -1 24363.5 1542.27   2
  -1 -21  -1 22937.6 1524.39   2
  21   1  -1 21822.2 1387.55   3
  22  -1  -1 26776.3 1518.07   3
  21   1   2 3207.10 640.628   3
  22  -1   2 1966.31 652.128   3
   1 -22   2 2441.87 617.716   2
  -1 -21   2 2376.91 643.652   2
 -22  21   2 2991.11 687.675   1
 -21  22   2 3067.82 766.614   1
   1 -22   2 3059.10 635.293   4
  -1 -21   2 2894.96 660.019   4
  21   1   5 10297.7 988.416   3
  22  -1   5 11109.4 1049.16   3
   1 -22   5 11162.3 773.162   4
  -1 -21   5 9755.81 785.240   4
 -22  21   5 9947.32 1119.59   1
 -21  22   5 9505.40 1089.65   1
   0 -22  -8 13583.1 1501.20   4
   0 -22  -8 12043.5 1686.78   2
 -22  22  -8 13370.8 1504.22   1
  22   0  -8 8728.71 1177.86   3
 -22  22  -5 117.213 669.765   1
   0 -22  -5-545.673 648.545   4
   0 -22  -5 433.695 825.285   2
  22   0  -5-543.279 692.840   3
 -22  22  -2 28795.0 1673.63   1
   0 -22  -2 30860.4 1738.27   4
   0 -22  -2 27747.1 1785.22   2
  22   0  -2 26657.6 1574.93   3
  22   0   1-481.304 574.554   3
   0 -22   1 327.508 540.743   2
 -22  22   1 640.737 582.112   1
   0 -22   1 357.118 474.958   4
  22   0   4 11349.3 1038.55   3
   0 -22   4 12216.6 1063.69   2
 -22  22   4 13300.8 1209.78   1
   0 -22   4 13141.8 919.888   4
  22   0   7-211.704 557.652   3
 -23   0  -8 3194.42 1012.35   2
   0  23  -8 5224.51 974.856   1
  23 -23  -8 4474.19 936.517   3
 -23   0  -8 7327.14 1389.70   1
  23 -23  -8 5610.47 1470.05   2
  23 -23  -8 5047.52 1272.97   4
 -23   0  -8 5126.37 944.315   4
   0  23  -8 5976.43 1222.68   3
 -23   0  -5-1292.14 699.550   2
  23 -23  -5 249.598 651.733   3
  23 -23  -5 2183.49 879.327   4
  23 -23  -5 1400.08 890.264   2
 -23   0  -5-108.560 654.123   1
   0  23  -5 100.912 616.903   1
 -23   0  -5 286.249 602.472   4
   0  23  -5 298.098 644.279   3
 -23   0  -2 12886.6 1259.27   2
  23 -23  -2 11349.2 1133.29   3
  23 -23  -2 13370.6 1378.85   4
  23 -23  -2 11590.9 1254.01   2
 -23   0  -2 14234.3 1131.65   1
   0  23  -2 10923.6 1077.81   1
 -23   0  -2 12354.3 1238.30   4
   0  23  -2 12491.8 1076.69   3
  23 -23   1 783.088 560.424   4
  23 -23   1-1206.20 482.206   2
   0  23   1 299.444 606.719   1
   0  23   1 464.103 472.032   3
 -23   0   1-53.0929 295.472   1
  23 -23   4 20674.5 1330.94   4
   0  23   4 16914.4 758.709   3
 -22  -1  -6 4159.08 962.249   2
 -23   1  -6 4407.43 972.514   2
  23 -22  -6 6040.36 945.548   3
  22 -23  -6 6029.94 1359.91   2
  22 -23  -6 4470.32 879.312   3
  23 -22  -6 6241.40 1165.41   4
  22 -23  -6 4948.81 1075.80   4
  23 -22  -6 5233.41 1273.67   2
 -23   1  -6 4213.84 1093.96   1
 -22  -1  -6 6292.80 983.321   4
 -23   1  -6 6213.69 960.017   4
  -1  23  -6 7622.16 1188.58   3
   1  22  -6 6153.50 995.629   3
   1  22  -6 5752.38 873.043   1
  -1  23  -6 4623.31 859.380   1
 -22  -1  -6 5827.94 1165.08   1
 -22  -1  -3 11437.5 1215.77   2
 -23   1  -3 11571.5 1222.50   2
  23 -22  -3 11074.9 1178.82   3
  -1  23  -3 12385.1 1116.95   1
  22 -23  -3 11423.1 1122.02   3
  23 -22  -3 11684.3 1300.49   4
  22 -23  -3 12544.5 1334.60   4
 -22  -1  -3 13555.7 1224.61   1
  23 -22  -3 14650.2 1532.94   2
  22 -23  -3 11005.8 1364.67   2
 -23   1  -3 14155.6 1200.45   1
   1  22  -3 12925.0 1117.36   1
 -22  -1  -3 14770.8 1249.06   4
 -23   1  -3 14549.8 1297.08   4
  -1  23  -3 14649.3 1243.97   3
   1  22  -3 13580.6 1164.64   3
   1  22   0 7463.31 972.040   1
 -22  -1   0 7121.31 1003.74   2
  23 -22   0 6303.33 959.834   3
  22 -23   0 8642.30 995.973   3
  22 -23   0 9631.89 1096.84   4
  23 -22   0 8348.56 900.268   2
  22 -23   0 8340.29 887.856   2
 -22  -1   0 8869.73 759.294   1
 -23   1   0 8681.81 727.560   1
 -22  -1   0 10614.2 1131.32   4
  -1  23   0 9219.91 866.853   3
   1  22   0 8731.59 811.836   3
  -1  23   0 8086.89 974.007   1
  22 -23   3 24285.3 1422.35   4
  -1  23   3 21175.6 1581.97   1
  -1  23   3 22601.0 991.166   3
   1  22   3 23570.1 992.209   3
  23 -22   6 987.647 478.907   4
  22 -23   6 1330.48 519.461   4
 -21  -2  -7 3540.57 934.620   2
  -2  23  -7 4253.64 871.001   1
 -23   2  -7 3787.26 891.124   2
  23 -21  -7 2430.66 767.120   3
  21 -23  -7 1698.35 710.560   3
  23 -21  -7 3268.43 958.395   4
  21 -23  -7 3904.35 1022.71   4
   2  21  -7 3985.72 779.158   1
  23 -21  -7 2259.30 1172.30   2
 -21  -2  -7 2246.37 874.244   1
  21 -23  -7 2725.25 1110.97   2
 -23   2  -7 2811.28 956.597   1
 -21  -2  -7 1347.40 729.418   4
 -23   2  -7 2364.00 798.339   4
  -2  23  -7 3574.48 945.492   3
   2  21  -7 3760.93 909.330   3
   2  21  -4 3921.06 719.834   1
 -21  -2  -4 3770.36 866.395   2
  21 -23  -4 4399.95 886.786   3
 -23   2  -4 2878.42 743.053   2
  23 -21  -4 3881.25 845.999   3
  23 -21  -4 5420.80 988.875   4
 -21  -2  -4 5594.48 996.318   1
  21 -23  -4 4736.93 960.235   4
 -23   2  -4 4720.49 897.880   1
  23 -21  -4 4225.69 1110.97   2
  21 -23  -4 4252.79 1100.35   2
 -21  -2  -4 3773.23 816.602   4
 -23   2  -4 4053.29 782.073   4
   2  21  -4 5419.50 893.616   3
  -2  23  -4 4285.58 850.806   3
  -2  23  -4 5882.06 867.514   1
 -21  -2  -1 6125.58 969.280   2
  23 -21  -1 5021.40 900.882   3
 -23   2  -1 5413.88 877.127   2
  21 -23  -1 5607.81 846.156   3
  21 -23  -1 6185.07 938.178   4
  23 -21  -1 5317.69 905.505   2
 -21  -2  -1 5161.41 702.947   1
  21 -23  -1 4966.75 829.896   2
 -23   2  -1 5677.03 704.704   1
  -2  23  -1 5922.68 880.470   1
 -21  -2  -1 4690.31 810.958   4
  -2  23  -1 7024.04 812.280   3
   2  21  -1 5451.75 743.118   3
   2  21  -1 5483.45 847.057   1
   2  21   2 3546.11 812.207   1
  21 -23   2 5143.01 783.000   4
  23 -21   2 5552.09 596.238   2
  21 -23   2 3224.08 348.254   2
  -2  23   2 6411.25 963.219   1
  -2  23   2 5037.71 604.924   3
   2  21   2 5070.25 588.661   3
  21 -23   5 10052.2 879.408   4
 -20  -3  -8 2310.44 890.635   2
 -23   3  -8 1161.73 747.891   2
  23 -20  -8 2044.65 816.203   3
  20 -23  -8 699.116 616.165   3
   3  20  -8 2435.26 768.407   1
  23 -20  -8 1205.04 895.436   4
 -20  -3  -8 2015.34 1023.54   1
  20 -23  -8 2897.98 1020.28   4
  23 -20  -8 2143.95 1179.79   2
  20 -23  -8 1463.85 1095.16   2
 -23   3  -8 5300.56 1183.76   1
 -20  -3  -8 2167.76 780.624   4
 -23   3  -8 1037.83 663.771   4
  -3  23  -8 3558.29 993.565   3
   3  20  -8 2428.38 886.836   3
  -3  23  -8 2249.31 796.588   1
 -20  -3  -5 1208.90 762.160   2
 -23   3  -5 2505.92 699.365   2
  23 -20  -5 967.613 629.322   3
  -3  23  -5 1774.44 697.854   1
  20 -23  -5 1819.84 588.940   3
  20 -23  -5 2086.25 750.954   4
  23 -20  -5 2295.76 950.846   2
  20 -23  -5 3339.22 1036.01   2
 -23   3  -5 3271.50 833.207   1
 -20  -3  -5 3049.25 757.413   4
  23 -20  -5 2646.55 840.638   4
 -23   3  -5 1836.21 727.989   4
  -3  23  -5 2785.95 792.158   3
   3  20  -5 2109.35 729.817   3
   3  20  -5 2355.14 643.592   1
 -20  -3  -2 18063.5 1428.10   2
 -23   3  -2 16758.7 1305.23   2
  23 -20  -2 15703.9 1265.52   3
  -3  23  -2 18146.4 1310.03   1
  20 -23  -2 17069.8 1254.14   3
  23 -20  -2 18372.5 1513.91   2
  20 -23  -2 15148.6 1358.44   4
  20 -23  -2 18514.8 1396.47   2
 -23   3  -2 18272.0 1200.34   1
 -20  -3  -2 18751.3 1350.40   4
   3  20  -2 17405.9 1167.94   3
   3  20  -2 16582.3 1196.53   1
  23 -20   1 4016.75 557.192   2
   3  20   1 7013.48 948.605   1
 -20  -3   1 6374.11 977.656   2
  23 -20   1 7380.28 983.983   3
  23 -20   1 6774.67 772.092   2
  20 -23   1 5840.84 850.893   4
 -20  -3   1 5894.75 542.411   1
 -20  -3   1 4716.09 513.593   1
  20 -23   1 5002.42 566.363   2
 -20  -3   1 7556.80 929.326   4
  -3  23   1 5590.91 704.646   3
   3  20   1 6194.61 662.724   3
 -23   3   1 6133.71 513.336   1
  -3  23   1 6019.59 929.104   1
  20 -23   4 2239.25 558.348   4
  -3  23   4 2670.79 392.986   3
   3  20   4 1824.03 324.918   3
  -3  23   4 1148.41 706.953   1
  23 -19  -9 5968.47 1046.47   3
  -4  23  -9 5968.74 1106.98   1
 -19  -4  -9 5199.23 1336.19   1
  23 -19  -9 4595.40 1417.55   2
  19 -23  -9 3859.64 1354.43   2
 -23   4  -9 4957.63 1361.86   1
  23 -19  -9 3852.14 1056.46   4
  19 -23  -9 5473.31 1218.84   4
 -19  -4  -9 4687.55 971.735   4
 -23   4  -9 5640.20 966.434   4
  -4  23  -9 8037.93 1257.32   3
   4  19  -9 5887.54 1139.58   3
 -23   4  -9 6257.85 1107.45   2
 -19  -4  -9 5939.50 1272.41   2
  23 -19  -6 11393.6 1168.06   3
  19 -23  -6 12465.2 1087.08   3
  23 -19  -6 10593.7 1304.81   4
  23 -19  -6 11096.8 1557.11   2
  19 -23  -6 14391.4 1457.51   4
 -23   4  -6 13009.5 1392.54   1
  19 -23  -6 12883.2 1672.91   2
  -4  23  -6 13187.9 1211.41   1
 -19  -4  -6 11563.7 1201.83   4
 -23   4  -6 12915.2 1217.22   4
  -4  23  -6 13473.7 1372.83   3
   4  19  -6 13114.3 1240.15   3
 -19  -4  -6 12204.1 1307.42   2
   4  19  -6 14450.2 1086.34   1
 -23   4  -6 12928.9 1251.42   2
 -23   4  -3 12682.4 1155.56   2
  23 -19  -3 15330.4 1270.82   3
  19 -23  -3 17175.8 1213.72   3
  23 -19  -3 17981.5 1624.53   2
  19 -23  -3 16707.6 1410.48   4
  19 -23  -3 14894.9 1394.40   2
 -23   4  -3 18996.4 1307.44   1
   4  19  -3 16574.5 1137.10   1
 -19  -4  -3 17554.8 1322.01   4
   4  19  -3 17542.0 1266.09   3
  -4  23  -3 14583.5 1177.26   1
 -19  -4  -3 16237.8 1401.86   2
 -19  -4   0 17765.2 1394.50   2
  23 -19   0 20487.2 1431.89   3
  19 -23   0 23828.4 1545.20   4
  19 -23   0 20661.0 1161.43   2
  -4  23   0 20492.5 1434.63   1
 -23   4   0 22232.8 1036.94   1
 -19  -4   0 25698.6 1518.11   4
   4  19   0 24153.9 1424.08   1
   4  19   0 24296.4 1200.33   3
 -19  -4   0 18276.8 997.269   1
  19 -23   3 21188.7 1257.21   4
  -4  23   3 18211.0 1455.90   1
  -4  23   3 19992.9 949.704   3
   4  19   3 19532.3 872.465   3
  19 -23   6 5472.20 585.789   4
  23 -18  -7 6133.18 964.734   3
  18 -23  -7 6937.62 843.898   3
  23 -18  -7 8328.39 1317.57   4
  18 -23  -7 8782.78 1236.06   4
  23 -18  -7 4373.11 1286.98   2
 -23   5  -7 7622.79 1183.32   1
  -5  23  -7 7901.82 1071.78   1
  18 -23  -7 7687.33 1402.25   2
 -18  -5  -7 7960.15 1045.35   4
 -23   5  -7 6424.55 908.901   4
  -5  23  -7 8510.75 1192.69   3
   5  18  -7 8584.08 1162.18   3
 -18  -5  -7 7321.16 1193.52   2
   5  18  -7 6552.26 788.399   1
 -23   5  -7 5022.66 917.729   2
 -23   5  -4 18296.9 1323.99   2
  23 -18  -4 17129.1 1315.48   3
  18 -23  -4 18229.9 1247.94   3
  18 -23  -4 22633.5 1624.60   4
  18 -23  -4 20041.9 1689.79   2
 -23   5  -4 21472.0 1471.64   1
   5  18  -4 20702.4 1182.84   1
 -18  -5  -4 18259.7 1406.56   4
  -5  23  -4 20276.4 1390.62   1
   5  18  -4 17923.4 1273.32   3
 -18  -5  -4 17395.6 1427.24   2
 -18  -5  -1 18207.6 1390.82   2
  23 -18  -1 20912.2 1409.92   3
  -5  23  -1 21251.8 1365.26   1
  18 -23  -1 21012.0 1468.76   4
   5  18  -1 22668.1 1312.50   1
  18 -23  -1 17325.0 1180.87   2
 -23   5  -1 20645.3 1126.97   1
 -18  -5  -1 20585.6 1415.38   4
   5  18  -1 22567.6 1214.20   3
  -5  23   2 8621.99 1055.12   1
  18 -23   2 7293.71 363.432   2
  23 -18   2 11845.2 1147.45   3
 -23   5   2 8057.89 490.407   1
  18 -23   2 10092.6 938.339   4
 -18  -5   2 9144.85 508.270   1
 -18  -5   2 8135.11 473.295   1
 -18  -5   2 9231.06 948.573   4
  18 -23   2 6825.17 404.378   2
   5  18   2 10763.1 744.656   3
  23 -18   2 7468.32 704.629   2
  18 -23   5 18692.2 1009.01   4
  -5  23   5 17442.0 631.630   3
 -23   6  -8 1506.14 704.726   2
  23 -17  -8 2927.16 826.178   3
  23 -17  -8 4249.73 1010.67   4
  23 -17  -8 3395.15 1284.33   2
  17 -23  -8 3134.37 1145.40   2
 -23   6  -8 2114.71 974.041   1
 -17  -6  -8 4000.28 894.973   4
  -6  23  -8 4061.72 909.354   1
  -6  23  -8 4167.72 1030.05   3
   6  17  -8 2953.41 939.543   3
  17 -23  -8 3176.55 1039.84   4
 -17  -6  -8 4462.40 1065.05   2
 -17  -6  -5 4552.08 916.756   2
 -23   6  -5 4605.63 797.771   2
  23 -17  -5 5288.88 871.592   3
  17 -23  -5 5954.49 761.116   3
   6  17  -5 6653.95 727.416   1
  17 -23  -5 4311.58 934.954   4
  17 -23  -5 3442.27 1034.90   2
  -6  23  -5 5953.03 878.284   1
 -17  -6  -5 4697.12 871.036   4
 -23   6  -5 3216.30 820.644   1
   6  17  -5 4287.14 805.005   3
  23 -17  -2 8988.06 991.375   3
   6  17  -2 10013.3 902.739   1
 -23   6  -2 9559.24 1002.07   2
  17 -23  -2 10746.7 1150.16   4
 -23   6  -2 11322.1 962.126   1
 -17  -6  -2 10761.8 1046.62   4
  17 -23  -2 10439.3 1054.75   2
   6  17  -2 9927.93 900.690   3
  -6  23  -2 10248.1 1018.95   1
 -17  -6  -2 8332.53 1047.91   2
 -17  -6   1 7342.09 988.061   2
  23 -17   1 8574.81 1021.24   3
  17 -23   1 6102.13 790.795   4
  17 -23   1 6230.89 577.776   2
  -6  23   1 8424.15 1016.33   1
 -17  -6   1 7622.98 874.996   4
   6  17   1 8274.15 719.812   3
 -23   6   1 6610.80 568.226   1
  23 -17   1 4352.03 645.136   2
 -17  -6   1 6764.34 591.972   1
  17 -23   4 3882.21 579.931   4
  -6  23   4 4260.80 930.076   1
   6  17   4 5089.35 437.393   3
  23 -16  -9 6202.97 1073.30   3
 -23   7  -9 3669.87 856.113   2
  -7  23  -9 5943.71 1070.77   1
  23 -16  -9 5625.16 1152.88   4
  16 -23  -9 6666.95 1205.06   4
  23 -16  -9 7357.12 1598.40   2
  16 -23  -9 2783.52 1224.42   2
 -16  -7  -9 6668.64 1084.97   4
 -23   7  -9 5745.97 1285.39   1
  -7  23  -9 6481.09 1219.95   3
   7  16  -9 7049.94 1177.37   3
 -16  -7  -9 4946.40 1163.35   2
 -23   7  -6 30216.0 1603.39   2
  23 -16  -6 30181.3 1710.22   3
   7  16  -6 30142.7 1288.30   1
  16 -23  -6 31951.8 1995.60   4
  -7  23  -6 32271.1 1751.17   1
  16 -23  -6 31149.6 2205.23   2
 -23   7  -6 33253.3 1955.28   1
 -16  -7  -6 28383.4 1790.01   4
   7  16  -6 32419.9 1784.71   3
 -16  -7  -6 26663.5 1868.28   2
   7  16  -3 10064.7 818.922   1
  23 -16  -3 10190.3 1087.97   3
 -23   7  -3 9393.90 930.499   2
  16 -23  -3 12129.0 1204.38   4
  -7  23  -3 7296.00 754.306   2
  16 -23  -3 11560.6 1192.56   2
 -23   7  -3 10989.1 1027.25   1
 -16  -7  -3 11038.3 1084.36   4
  -7  23  -3 10740.5 1047.93   1
   7  16  -3 8907.25 938.746   3
 -16  -7  -3 11008.1 1161.02   2
 -16  -7   0 10563.1 1128.46   2
  23 -16   0 8844.04 1000.18   3
  -7  23   0 10159.4 1021.30   1
  16 -23   0 11462.9 1025.26   4
 -16  -7   0 9085.65 757.674   1
  16 -23   0 8422.37 783.584   2
 -16  -7   0 9823.04 988.178   4
 -23   7   0 9919.70 759.324   1
   7  16   0 11556.7 861.207   3
 -23   7   3 2339.85 276.103   1
  -7  23   3 3930.86 803.942   1
  23 -16   3 2866.69 744.530   3
  16 -23   3 2362.11 548.881   4
 -16  -7   3 3091.30 659.642   4
  23 -16   3 1278.34 523.106   2
   7  16   3 3534.36 444.832   3
  16 -23   6 8210.30 555.992   4
 -23   8  -7 19831.1 1339.10   2
  23 -15  -7 19976.4 1457.87   3
  15 -23  -7 19621.2 1713.86   4
  23 -15  -7 16405.7 1813.18   2
  23 -15  -7 17399.6 1528.26   4
  -8  23  -7 17498.0 1425.74   1
  15 -23  -7 20075.8 1893.65   2
 -23   8  -7 19418.2 1689.85   1
 -15  -8  -7 21034.2 1609.15   4
   8  15  -7 17414.4 1438.86   3
 -15  -8  -7 20569.2 1792.13   2
  23 -15  -4 10480.7 1087.47   3
 -23   8  -4 8527.17 872.531   2
  15 -23  -4 11460.2 1268.21   4
  15 -23  -4 13017.8 1333.36   2
  -8  23  -4 10882.1 1045.74   1
 -23   8  -4 10355.4 1088.26   1
 -15  -8  -4 10476.7 1074.19   4
   8  15  -4 11240.7 1056.53   3
 -15  -8  -4 10914.5 1234.31   2
   8  15  -4 11027.4 810.838   1
  23 -15  -1 15443.9 1232.15   3
  15 -23  -1 17839.9 1301.69   4
  -8  23  -1 13840.2 1070.66   2
  15 -23  -1 15837.4 1138.33   2
 -15  -8  -1 17654.9 1299.02   4
 -23   8  -1 19490.1 1097.23   1
   8  15  -1 18810.4 1135.29   3
  -8  23  -1 17999.1 1255.60   1
 -15  -8  -1 16110.9 1321.77   2
  23 -15   2 6349.21 889.164   3
 -15  -8   2 4817.62 853.117   2
  15 -23   2 5750.79 718.297   4
 -15  -8   2 4047.15 469.977   1
 -15  -8   2 5378.29 775.247   4
  15 -23   2 4343.66 372.167   2
   8  15   2 5560.41 585.163   3
  23 -15   2 3798.27 626.761   2
 -23   8   2 4667.49 479.542   1
  -8  23   2 4717.95 821.568   1
  15 -23   5 23205.3 1013.31   4
  -8  23   5 22079.4 1618.25   1
  23 -14  -8 1673.03 766.022   3
 -23   9  -8 1445.42 598.130   2
  23 -14  -8 1716.56 787.668   4
  23 -14  -8 2343.67 1179.18   2
  14 -23  -8 1843.91 919.613   4
  -9  23  -8 2360.35 757.287   1
  14 -23  -8 298.804 1028.63   2
 -14  -9  -8 2142.32 826.030   4
 -23   9  -8 2221.43 944.350   1
   9  14  -8 3035.24 852.286   3
 -14  -9  -8 1917.64 906.879   2
  23 -14  -5 3613.69 789.062   3
 -23   9  -5 4596.25 730.116   2
  -9  23  -5 5476.37 878.394   1
  14 -23  -5 3045.02 853.167   4
 -23   9  -5 6577.57 984.480   1
  14 -23  -5 4825.11 1044.78   2
 -14  -9  -5 5048.00 859.343   4
   9  14  -5 4798.58 811.060   3
   9  14  -5 4929.80 557.521   1
 -14  -9  -5 3816.57 908.790   2
  23 -14  -2 4659.09 766.499   3
  -9  23  -2 4499.67 760.266   1
  14 -23  -2 5886.36 881.171   4
  -9  23  -2 3354.48 580.155   2
  14 -23  -2 3835.88 761.190   2
   9  14  -2 4881.31 622.508   1
 -14  -9  -2 3946.32 750.907   4
 -23   9  -2 3760.46 656.970   1
   9  14  -2 4293.65 653.654   3
 -14  -9  -2 5687.29 910.222   2
 -23   9   1 8383.11 669.981   1
 -14  -9   1 9110.46 1050.68   2
  23 -14   1 9451.56 1018.03   3
  -9  23   1 9367.65 1027.23   1
  14 -23   1 8942.29 863.160   4
 -14  -9   1 8383.56 906.566   4
  14 -23   1 8368.97 674.450   2
 -14  -9   1 7366.32 648.245   1
   9  14   1 9860.22 757.913   3
   9  14   4 664.291 327.543   3
  23 -14   4 1384.76 650.860   3
 -23   9   4 508.755 208.084   1
  14 -23   4 691.569 416.094   4
  -9  23   4 188.379 650.739   1
 -14  -9   4 442.174 156.994   1
 -14  -9   4 1123.35 506.412   4
  23 -13  -9 90.3275 644.555   3
  23 -13  -9 1049.58 774.578   4
  23 -13  -9 64.7700 1049.36   2
  13 -23  -9 1543.07 812.507   4
 -10  23  -9 555.584 740.953   1
  13 -23  -9-1252.41 1061.60   2
 -13 -10  -9-103.592 696.491   4
 -23  10  -9 166.774 873.948   1
  10  13  -9 2163.85 818.698   3
 -13 -10  -9 152.703 832.542   2
  23 -13  -6 25612.5 1595.81   3
 -23  10  -6 24387.9 1304.84   2
 -10  23  -6 25867.5 1693.91   1
  13 -23  -6 28369.7 1879.83   4
  13 -23  -6 19815.3 1862.98   2
 -13 -10  -6 26286.7 1668.13   4
 -23  10  -6 25564.6 1773.43   1
  10  13  -6 29235.3 1664.48   3
 -13 -10  -6 26632.5 1899.94   2
  10  13  -6 21683.7 888.508   1
 -13 -10  -3 1547.33 675.144   2
  23 -13  -3 1004.09 575.233   3
 -10  23  -3 914.391 340.656   2
  13 -23  -3 590.516 622.834   4
  13 -23  -3 473.517 631.269   2
 -13 -10  -3 958.941 580.941   4
  23 -13  -3 1080.08 518.005   1
 -23  10  -3 870.141 564.633   1
  10  13  -3 1322.96 559.249   3
 -10  23  -3 69.3551 539.577   1
 -13 -10   0 53731.5 2205.82   2
  23 -13   0 45719.8 1940.45   3
  13 -23   0 48805.9 1954.74   4
 -13 -10   0 54041.6 2030.57   4
  13 -23   0 47066.5 1670.67   2
  10  13   0 49411.7 1629.13   3
 -23  10   0 49095.2 1570.08   1
 -10  23   0 49628.5 2008.03   1
  23 -13   3 5265.72 911.033   3
  13 -23   3 5130.60 618.002   4
 -13 -10   3 6553.13 801.239   4
 -10  23   3 6028.60 925.679   1
 -23  10   3 5083.87 508.315   1
 -13 -10   3 3742.06 470.544   1
  10  13   3 5903.90 566.543   3
 -23  11  -7 10395.1 878.798   2
 -11  23  -7 13505.8 1318.45   1
  12 -23  -7 9550.11 1281.61   4
  12 -23  -7 10280.1 1492.68   2
 -12 -11  -7 10720.1 1214.94   4
 -23  11  -7 12070.7 1345.44   1
 -12 -11  -7 11725.3 1498.95   2
  11  12  -7 10096.0 1168.60   3
  23 -12  -7 9935.37 1120.99   3
  23 -12  -4 275.250 541.943   3
  12 -23  -4 1239.43 660.829   4
 -12 -11  -4 2083.15 714.100   4
  12 -23  -4 1255.31 710.814   2
 -11  23  -4 2932.11 748.707   1
 -23  11  -4 741.779 600.176   1
  11  12  -4 714.634 567.456   3
 -12 -11  -4 2951.38 860.603   2
  23 -12  -1 25045.4 1489.11   3
 -11  23  -1 22757.2 1187.07   2
  12 -23  -1 25805.7 1494.01   4
 -12 -11  -1 27453.8 1505.51   4
  12 -23  -1 24406.9 1366.16   2
 -11  23  -1 27284.3 1533.55   1
  11  12  -1 23837.6 1265.82   3
 -23  11  -1 25555.9 1254.16   1
 -12 -11  -1 24520.6 1617.91   2
 -11  23   2 22012.0 1446.17   1
 -12 -11   2 15759.4 1303.01   2
  23 -12   2 19876.0 1382.41   3
 -12 -11   2 17671.9 924.104   1
  12 -23   2 19183.0 1118.48   4
 -23  11   2 18959.7 950.973   1
 -12 -11   2 21295.6 1274.90   4
  12 -23   2 20980.5 868.977   2
  11  12   2 20871.8 1004.53   3
  11  12   5 22460.4 861.608   3
  23 -12   5 25201.3 1570.14   3
  12 -23   5 21479.4 903.467   4
 -11  23   5 21505.7 1550.97   1
  23 -11  -8 3944.10 869.370   3
 -12  23  -8 5409.93 1022.57   1
  11 -23  -8 3839.48 979.955   4
 -11 -12  -8 5153.81 985.272   4
  11 -23  -8 3225.14 1164.62   2
 -23  12  -8 3658.78 1068.64   1
  12  11  -8 5175.30 1018.80   3
 -11 -12  -8 2461.25 982.479   2
 -12  23  -5 20916.8 1488.42   1
  11 -23  -5 24531.9 1693.04   4
  11 -23  -5 21244.7 1740.72   2
 -11 -12  -5 21026.8 1484.60   4
 -23  12  -5 25125.6 1657.17   1
 -11 -12  -5 18230.6 1558.50   2
  12  11  -5 22380.4 1435.37   3
  23 -11  -5 18668.6 1420.40   3
  23 -11  -2 21541.6 1372.97   3
  23 -11  -2 17409.3 1055.03   1
  11 -23  -2 19513.0 1362.08   4
 -11 -12  -2 23104.9 1439.38   4
 -12  23  -2 23416.2 1448.19   1
  11 -23  -2 20710.6 1399.79   2
 -23  12  -2 22005.9 1283.05   1
  12  11  -2 22089.2 1301.82   3
 -11 -12  -2 26257.4 1634.70   2
 -11 -12   1 24828.4 1520.14   2
 -12  23   1 24854.6 1524.57   1
  23 -11   1 23365.1 1460.64   3
 -23  12   1 24613.8 1145.62   1
  11 -23   1 24396.3 1317.26   4
 -11 -12   1 25163.7 1380.47   4
  11 -23   1 24478.5 1126.61   2
  12  11   1 24282.3 1164.44   3
 -12  23   4 1451.71 767.849   1
  12  11   4 2195.74 409.162   3
  23 -11   4 2137.33 683.778   3
  11 -23   4 1851.17 428.500   4
 -11 -12   4 1787.82 533.849   4
 -23  12   4 716.449 379.715   1
 -11 -12   4 564.752 380.117   1
  23 -10  -9 590.549 661.366   3
  23 -10  -9 1348.36 849.025   4
  10 -23  -9 237.819 720.687   4
 -10 -13  -9 1922.95 865.588   4
 -13  23  -9 313.891 785.869   1
  10 -23  -9 1231.58 1095.36   2
 -23  13  -9 1525.99 920.775   1
 -10 -13  -9 545.109 915.741   2
  13  10  -9 487.738 711.316   3
 -13  23  -6 18657.3 1441.51   1
  10 -23  -6 16999.1 1707.02   2
 -10 -13  -6 19959.3 1541.66   4
  10 -23  -6 20442.6 1629.15   4
 -23  13  -6 21870.7 1628.39   1
 -10 -13  -6 18798.3 1673.83   2
  13  10  -6 22356.0 1492.89   3
  23 -10  -6 17915.1 1381.87   3
  23 -10  -3 4618.90 828.848   3
 -13  23  -3 7050.44 914.592   1
  10 -23  -3 7187.58 951.539   4
 -10 -13  -3 7377.71 941.020   4
  10 -23  -3 5270.78 892.684   2
 -23  13  -3 5462.51 828.916   1
  13  10  -3 8637.00 937.167   3
 -10 -13  -3 5288.62 929.237   2
 -23  13   0 46311.2 1625.91   1
  23 -10   0 45459.0 1962.62   3
  10 -23   0 46258.6 1857.93   4
 -10 -13   0 48984.2 1927.14   4
  10 -23   0 45374.2 1675.11   2
 -13  23   0 45188.2 1943.44   1
  13  10   0 49445.4 1705.69   3
 -10 -13   0 49334.7 2129.83   2
  13  10   3 346.954 359.984   3
 -10 -13   3 185.424 425.047   1
  10 -23   3 574.347 265.819   2
  23 -10   3-73.7865 516.938   3
 -10 -13   3 2034.28 671.476   2
  10 -23   3 861.569 450.733   4
 -23  13   3 978.030 379.267   1
 -10 -13   3 678.236 492.682   4
 -13  23   3 1222.49 641.323   1
  13  10   6 19158.5 763.239   3
 -13  23   6 24396.0 1684.26   1
 -14  23  -7 9170.02 1116.34   1
   9 -23  -7 7611.96 1158.69   4
  -9 -14  -7 11208.5 1258.23   4
   9 -23  -7 9349.74 1404.09   2
 -23  14  -7 8888.44 1227.04   1
  -9 -14  -7 8901.50 1383.98   2
  14   9  -7 7756.17 1101.30   3
  23  -9  -7 7842.08 1041.10   3
  23  -9  -4 379.051 574.682   3
   9 -23  -4 797.363 663.200   4
  -9 -14  -4 1240.66 671.346   4
 -14  23  -4 590.609 601.264   1
   9 -23  -4 354.924 628.452   2
  14   9  -4 1495.11 591.340   3
  -9 -14  -4 257.634 649.522   2
 -23  14  -4 149.303 581.626   1
  23  -9  -1 9347.65 986.732   3
   9 -23  -1 9174.14 991.736   4
  -9 -14  -1 11224.4 1044.08   4
   9 -23  -1 8797.26 910.649   2
  14   9  -1 8402.78 832.059   3
  -9 -14  -1 8263.71 1003.12   2
 -23  14  -1 8232.80 845.528   1
  -9 -14   2 4313.30 768.323   2
  23  -9   2 4296.63 774.764   3
 -14  23   2 4833.49 825.394   1
   9 -23   2 3384.56 594.197   4
 -23  14   2 3898.20 577.328   1
  -9 -14   2 4501.79 676.959   4
   9 -23   2 4578.30 553.257   2
  14   9   2 4251.01 572.873   3
  14   9   5 5732.14 610.517   3
  23  -9   5 6148.45 908.320   3
 -23  14   5 5361.16 622.380   1
 -14  23   5 5782.24 943.019   1
   9 -23   5 5190.80 496.890   4
  -9 -14   5 4996.84 649.722   4
  23  -8  -8 2984.66 814.969   3
 -15  23  -8 6889.77 1057.24   1
   8 -23  -8 7323.83 1227.17   4
  -8 -15  -8 5684.69 1150.32   4
   8 -23  -8 4392.01 1251.35   2
 -23  15  -8 7096.69 1205.27   1
  -8 -15  -8 6884.86 1345.14   2
  15   8  -8 5351.31 985.828   3
 -15  23  -5 21555.1 1531.80   1
   8 -23  -5 21978.9 1675.83   4
  -8 -15  -5 23371.6 1648.84   4
   8 -23  -5 20309.6 1743.94   2
 -23  15  -5 24090.5 1627.22   1
  -8 -15  -5 21196.7 1724.11   2
  15   8  -5 23938.3 1506.58   3
  23  -8  -5 21829.5 1492.88   3
  23  -8  -2 4138.47 800.039   3
   8 -23  -2 5996.10 842.321   4
 -15  23  -2 5611.19 850.306   1
  -8 -15  -2 7255.77 933.869   4
   8 -23  -2 5187.11 813.540   2
  -8 -15  -2 5932.94 929.617   2
  15   8  -2 6824.06 826.737   3
 -23  15  -2 6645.39 829.295   1
  -8 -15   1 20701.2 1407.60   2
  23  -8   1 19044.2 1307.91   3
 -23  15   1 18704.3 1086.49   1
   8 -23   1 17659.6 1125.54   4
  -8 -15   1 19853.7 1244.32   4
   8 -23   1 17429.7 1052.13   2
  15   8   1 17041.8 1046.97   3
 -15  23   1 19007.1 1342.10   1
  15   8   4 11327.1 815.018   3
  23  -8   4 11511.2 1134.71   3
 -23  15   4 9464.83 839.798   1
   8 -23   4 10284.3 750.350   4
  -8 -15   4 12222.8 921.634   4
 -15  23   4 10103.5 1130.16   1
  23  -7  -9 537.226 733.375   3
 -16  23  -9 36.9959 756.251   1
   7 -23  -9-229.791 782.018   4
  -7 -16  -9 641.019 775.914   4
   7 -23  -9 568.454 1000.54   2
  -7 -16  -9-1025.69 935.168   2
 -23  16  -9 771.258 896.483   1
  16   7  -9-413.293 765.994   3
 -16  23  -6 12995.4 1311.03   1
   7 -23  -6 12955.1 1355.46   4
  -7 -16  -6 13837.3 1329.56   4
   7 -23  -6 10253.8 1397.09   2
  -7 -16  -6 11718.4 1413.54   2
 -23  16  -6 10908.8 1278.10   1
  16   7  -6 10964.0 1141.99   3
  23  -7  -6 9889.14 1172.24   3
  23  -7  -3 2646.30 745.775   3
   7 -23  -3 2893.33 720.628   4
  -7 -16  -3 4182.08 816.235   4
 -16  23  -3 4185.22 825.691   1
   7 -23  -3 3835.61 841.437   2
 -23  16  -3 4532.31 807.703   1
  16   7  -3 3551.71 696.203   3
  -7 -16  -3 4193.96 895.017   2
  23  -7   0 9399.59 997.567   3
 -23  16   0 8205.11 860.018   1
   7 -23   0 8886.15 909.121   4
  -7 -16   0 9542.19 937.906   4
 -16  23   0 8671.74 983.609   1
   7 -23   0 10090.2 925.820   2
  16   7   0 9072.45 851.362   3
  -7 -16   0 8356.72 996.710   2
   7 -23   3 8099.08 698.402   2
  23  -7   3 10708.2 1098.56   3
  -7 -16   3 9488.66 1040.94   2
 -16  23   3 10235.3 1093.92   1
   7 -23   3 9351.04 782.712   4
  -7 -16   3 8418.50 829.391   4
 -23  16   3 8522.63 822.159   1
  16   7   3 9028.78 795.213   3
 -16  23   6 28146.2 1772.24   1
  16   7   6 25403.0 1126.72   3
  23  -7   6 30687.0 1725.63   3
 -17  23  -7 7105.67 1064.15   1
   6 -23  -7 7512.58 1188.66   4
  -6 -17  -7 8400.81 1155.99   4
   6 -23  -7 7871.93 1369.70   2
  -6 -17  -7 11479.2 1468.78   2
 -23  17  -7 9305.38 1236.93   1
  17   6  -7 7707.16 1108.23   3
  23  -6  -7 6747.68 1040.89   3
   6 -23  -4 5812.71 922.609   4
  -6 -17  -4 5605.53 896.293   4
 -17  23  -4 3092.82 804.792   1
   6 -23  -4 3576.24 875.188   2
  -6 -17  -4 4924.31 1029.87   2
 -23  17  -4 4569.11 909.155   1
  17   6  -4 4879.38 813.976   3
  23  -6  -4 5689.33 857.756   3
  23  -6  -1 7671.36 914.127   3
 -23  17  -1 6598.73 807.712   1
   6 -23  -1 6968.85 907.614   4
 -17  23  -1 8297.43 1035.11   1
  -6 -17  -1 7949.29 946.029   4
   6 -23  -1 7978.33 909.010   2
  -6 -17  -1 6890.84 958.184   2
  17   6  -1 7427.53 848.811   3
  -6 -17   2 9493.05 1016.13   2
 -17  23   2 8796.09 1035.29   1
  23  -6   2 8895.97 957.155   3
   6 -23   2 9516.39 874.276   4
  -6 -17   2 10338.1 909.722   4
 -23  17   2 8847.98 868.143   1
   6 -23   2 8446.60 779.437   2
  17   6   2 7964.03 760.324   3
 -23  17   5 5000.96 731.012   1
  17   6   5 4842.90 652.193   3
  23  -6   5 5324.82 827.380   3
 -17  23   5 4720.99 938.497   1
   6 -23   5 4983.36 529.318   4
  -6 -17   5 4793.48 621.944   4
 -18  23  -8 1895.22 871.090   1
   5 -23  -8-42.2363 746.066   4
  -5 -18  -8 1435.73 786.190   4
   5 -23  -8 498.554 967.555   2
  -5 -18  -8 846.332 857.893   2
  18   5  -8 285.431 716.461   3
 -23  18  -8 1434.73 870.512   1
  23  -5  -8 1081.16 749.543   3
 -18  23  -5 22722.8 1644.66   1
   5 -23  -5 22316.9 1667.33   4
  -5 -18  -5 21544.3 1602.31   4
   5 -23  -5 18816.3 1679.67   2
  -5 -18  -5 18500.1 1674.64   2
 -23  18  -5 21113.6 1547.19   1
  18   5  -5 19191.1 1419.33   3
  23  -5  -5 20974.2 1492.72   3
 -23  18  -2 9320.64 1020.44   1
 -18  23  -2 8801.41 1016.39   1
   5 -23  -2 11026.9 1090.98   4
  -5 -18  -2 10792.1 1048.52   4
   5 -23  -2 10815.8 1109.52   2
  -5 -18  -2 8726.35 1096.27   2
  18   5  -2 9823.16 975.363   3
  23  -5  -2 9039.95 1021.21   3
  23  -5   1 22022.4 1389.36   3
   5 -23   1 17857.4 1193.08   4
 -23  18   1 20788.3 1258.61   1
  -5 -18   1 18886.0 1229.33   4
 -18  23   1 20290.0 1362.88   1
   5 -23   1 17418.3 1152.35   2
  18   5   1 18044.4 1157.74   3
  -5 -18   1 16808.1 1272.37   2
  18   5   4 20259.2 1150.88   3
  23  -5   4 17190.8 1275.38   3
 -23  18   4 17179.1 1178.40   1
   5 -23   4 19920.3 1030.74   4
  -5 -18   4 19277.0 1113.62   4
 -18  23   4 15786.0 1329.16   1
 -23  19  -9 5637.32 1252.12   1
 -19  23  -9 5272.50 1164.67   1
   4 -23  -9 6200.03 1327.28   4
  -4 -19  -9 4982.58 1134.17   4
   4 -23  -9 6043.45 1518.28   2
  -4 -19  -9 5582.46 1432.45   2
  19   4  -9 6943.94 1154.54   3
  23  -4  -9 6480.52 1162.18   3
 -19  23  -6 7933.59 1122.01   1
   4 -23  -6 7438.29 1130.42   4
  -4 -19  -6 8267.44 1167.06   4
  -4 -19  -6 7050.45 1247.99   2
   4 -23  -6 7886.44 1218.85   2
 -23  19  -6 9539.92 1206.75   1
  19   4  -6 7055.01 1012.94   3
  23  -4  -6 5063.34 922.180   3
 -19  23  -3 18795.7 1440.55   1
   4 -23  -3 18738.0 1409.03   4
  -4 -19  -3 18675.9 1413.11   4
   4 -23  -3 17367.6 1472.98   2
  -4 -19  -3 18562.0 1527.63   2
  19   4  -3 17107.4 1329.38   3
  23  -4  -3 18612.0 1380.80   3
 -23  19  -3 18536.1 1410.34   1
  23  -4   0 16600.9 1223.14   3
 -23  19   0 18494.0 1265.09   1
   4 -23   0 21162.4 1349.46   4
  -4 -19   0 19608.0 1310.71   4
 -19  23   0 21660.5 1394.79   1
   4 -23   0 19463.3 1288.41   2
  -4 -19   0 19563.6 1394.23   2
  19   4   0 18307.4 1193.15   3
 -23  19   3 18224.8 1203.33   1
  19   4   3 16619.4 1100.83   3
   4 -23   3 16471.9 1106.27   2
  23  -4   3 15569.5 1212.50   3
  -4 -19   3 17498.8 1315.24   2
 -19  23   3 19090.8 1380.03   1
   4 -23   3 16119.6 1029.90   4
  -4 -19   3 20664.0 1201.77   4
  19   4   6 12798.1 1022.05   3
  23  -4   6 12277.1 1176.84   3
  -4 -19   6 11247.9 831.595   4
 -19  23   6 12596.6 1277.45   1
 -23  19   6 11578.5 1103.34   1
 -23  20  -7 2515.79 899.504   1
 -20  23  -7 2033.12 861.924   1
   3 -23  -7 443.330 808.066   4
  -3 -20  -7 2432.32 891.250   4
   3 -23  -7 1654.24 1001.93   2
  -3 -20  -7 894.859 987.201   2
  20   3  -7 3199.86 861.458   3
  23  -3  -7 2823.14 850.517   3
  23  -3  -4 1867.23 689.106   3
 -23  20  -4 2856.93 764.350   1
 -20  23  -4 1557.40 681.834   1
   3 -23  -4 1882.25 773.105   4
  -3 -20  -4 2983.56 811.362   4
   3 -23  -4 893.593 727.177   2
  -3 -20  -4 1353.31 754.448   2
  20   3  -4 1892.90 702.950   3
 -23  20  -1 6392.70 855.167   1
   3 -23  -1 5944.13 840.849   4
  -3 -20  -1 6449.50 910.356   4
   3 -23  -1 4326.96 830.327   2
 -20  23  -1 4234.23 829.475   1
  -3 -20  -1 5079.99 899.798   2
  20   3  -1 4558.68 778.222   3
  23  -3  -1 7428.51 931.300   3
  -3 -20   2 18289.9 1352.60   2
  23  -3   2 20741.4 1337.21   3
   3 -23   2 20583.9 1238.03   4
  -3 -20   2 19602.7 1218.55   4
 -23  20   2 17061.1 1224.91   1
 -20  23   2 19063.3 1375.78   1
   3 -23   2 20806.8 1305.12   2
  20   3   2 18326.8 1195.73   3
  20   3   5 917.000 502.621   3
  23  -3   5 1871.92 693.066   3
   3 -23   5 1618.22 426.483   4
  -3 -20   5 2679.66 524.026   4
 -23  20   5 2242.28 690.676   1
 -20  23   5 1393.11 709.045   1
 -21  23  -8 4653.25 1115.74   1
   2 -23  -8 5109.56 1125.79   4
  -2 -21  -8 4910.16 1079.73   4
   2 -23  -8 4655.29 1284.59   2
  -2 -21  -8 3711.33 1156.66   2
 -23  21  -8 5834.57 1147.66   1
  21   2  -8 3841.90 973.533   3
  23  -2  -8 3804.13 941.271   3
 -21  23  -5 6386.09 1013.74   1
   2 -23  -5 12277.9 1358.43   4
  -2 -21  -5 9989.88 1232.13   4
   2 -23  -5 8279.29 1227.11   2
  -2 -21  -5 8302.74 1229.31   2
  21   2  -5 8198.02 1069.05   3
  23  -2  -5 9714.27 1156.15   3
 -23  21  -5 9003.68 1158.31   1
  23  -2  -2 3243.28 753.372   3
 -23  21  -2 4363.00 850.552   1
 -21  23  -2 5225.62 854.092   1
   2 -23  -2 6048.09 947.330   4
  -2 -21  -2 4418.09 851.228   4
   2 -23  -2 4968.48 901.555   2
  -2 -21  -2 3770.29 944.714   2
  21   2  -2 4579.51 808.376   3
  23  -2   1 4759.26 763.802   3
   2 -23   1 3487.55 686.583   2
 -23  21   1 3567.65 725.440   1
 -21  23   1 4877.87 797.552   1
   2 -23   1 4857.89 726.919   4
  -2 -21   1 4276.41 761.798   4
  -2 -21   1 3791.78 783.784   2
  21   2   1 6047.92 791.767   3
  21   2   4 5341.08 799.180   3
  23  -2   4 3385.77 763.257   3
   2 -23   4 3991.44 665.011   2
  -2 -21   4 4605.87 824.968   2
 -23  21   4 2139.14 705.794   1
   2 -23   4 3524.84 576.778   4
  -2 -21   4 3475.36 608.590   4
 -21  23   4 2078.02 776.025   1
  21   2   7 1840.41 635.332   3
 -23  22  -6 1737.12 829.414   1
 -22  23  -6 2212.60 862.351   1
   1 -23  -6 1440.47 800.662   4
  -1 -22  -6 1626.61 760.124   4
   1 -23  -6 1421.14 847.678   2
  -1 -22  -6 1218.68 984.732   2
  22   1  -6 703.127 694.290   3
  23  -1  -6 2940.73 858.368   3
 -23  22  -3 18997.9 1471.86   1
 -22  23  -3 20467.5 1513.49   1
   1 -23  -3 21891.1 1560.54   4
  -1 -22  -3 20034.7 1561.88   4
   1 -23  -3 19254.5 1600.87   2
  -1 -22  -3 20805.3 1654.74   2
  22   1  -3 20395.0 1433.55   3
  23  -1  -3 17097.2 1403.87   3
   1 -23   0 8654.38 984.320   4
 -23  22   0 8585.82 1030.96   1
  -1 -22   0 9472.70 988.935   4
 -22  23   0 6288.97 926.943   1
   1 -23   0 8077.26 971.532   2
  -1 -22   0 7255.32 995.256   2
  22   1   0 6673.22 929.071   3
  23  -1   0 8527.15 961.035   3
  22   1   3 11815.5 1025.59   3
  23  -1   3 11454.7 1059.05   3
   1 -23   3 11994.6 1070.37   2
  -1 -22   3 9991.90 1045.99   2
 -23  22   3 12278.5 1161.31   1
 -22  23   3 11230.9 1142.62   1
   1 -23   3 12132.7 985.381   4
  -1 -22   3 12916.3 986.166   4
  23  -1   6 6070.65 919.521   3
  22   1   6 4558.14 832.503   3
 -22  23   6 4786.83 933.871   1
 -23  22   6 4964.90 934.058   1
 -23  23  -7-70.6715 800.783   1
   0 -23  -7 1201.98 836.922   4
   0 -23  -7-882.470 1101.68   2
  23   0  -7 678.015 701.002   3
 -23  23  -4 17391.4 1444.60   1
   0 -23  -4 16382.3 1433.61   4
   0 -23  -4 17268.5 1617.76   2
  23   0  -4 14423.0 1297.15   3
  23   0  -1-342.992 647.404   3
   0 -23  -1 447.838 530.568   4
 -23  23  -1 1286.32 721.492   1
   0 -23  -1 1919.37 696.812   2
   0 -23   2 15854.9 1257.37   2
  23   0   2 13505.5 1153.25   3
   0 -23   2 13172.5 1092.62   4
 -23  23   2 11119.7 1132.10   1
  23   0   5-90.2321 550.537   3
   0 -23   5-483.617 393.869   4
 -23  23   5-882.966 701.414   1
  24 -24  -6 1228.39 953.968   4
 -24   0  -6 587.556 697.362   2
  24 -24  -6-47.2864 640.556   3
  24 -24  -6 1647.22 1132.45   2
 -24   0  -6 402.724 792.277   1
   0  24  -6 867.511 713.037   1
 -24   0  -6 1117.51 670.983   4
   0  24  -6 1825.58 907.860   3
 -24   0  -3 632.541 679.079   2
  24 -24  -3 1566.24 746.020   3
   0  24  -3 1188.70 649.503   1
  24 -24  -3-14.8141 822.531   2
 -24   0  -3-79.8111 591.375   1
  24 -24  -3-200.778 679.013   4
 -24   0  -3 1199.70 877.452   4
   0  24  -3 417.402 632.536   3
   0  24   0 15450.8 1364.43   1
  24 -24   0 13852.9 1306.39   3
  24 -24   0 14859.3 1367.31   4
  24 -24   0 14016.4 1124.65   2
 -24   0   0 13594.2 894.942   1
   0  24   0 14775.0 1085.61   3
  24 -24   3 398.820 566.013   4
   0  24   3 715.526 398.576   3
 -23  -1  -7 5802.49 1106.63   2
 -24   1  -7 3662.20 975.286   2
  24 -23  -7 5226.63 974.932   3
  23 -24  -7 4711.06 900.391   3
  23 -24  -7 9236.01 1377.13   4
 -23  -1  -7 7733.02 1314.12   1
  24 -23  -7 8379.03 1649.30   2
  24 -23  -7 5701.18 1195.98   4
  23 -24  -7 5372.24 1445.28   2
 -24   1  -7 4413.00 1164.96   1
 -23  -1  -7 6556.43 1019.12   4
 -24   1  -7 6684.49 1068.23   4
   1  23  -7 8182.45 1184.77   3
  -1  24  -7 6428.02 996.886   1
  -1  24  -7 3956.65 1114.51   3
   1  23  -7 7303.54 1033.84   1
   1  23  -4-28.3950 589.709   1
 -23  -1  -4-910.975 712.880   2
 -24   1  -4-8.94199 649.320   2
  24 -23  -4-1319.61 696.773   3
  23 -24  -4-311.639 617.280   3
  24 -23  -4 1166.21 744.885   4
  23 -24  -4-85.9950 742.639   4
  24 -23  -4 1368.62 970.384   2
  23 -24  -4 902.449 911.667   2
 -23  -1  -4 253.005 619.476   1
 -24   1  -4 611.015 664.944   1
 -23  -1  -4 667.581 688.367   4
 -24   1  -4 551.587 570.500   4
  -1  24  -4 360.910 621.343   3
   1  23  -4-355.550 631.901   3
  -1  24  -4 866.535 639.783   1
 -23  -1  -1 4722.01 931.349   2
 -24   1  -1 5141.08 948.640   2
  23 -24  -1 4494.27 879.158   3
  24 -23  -1 4579.83 895.662   3
  23 -24  -1 6031.84 1024.77   4
  24 -23  -1 6913.89 970.085   2
  23 -24  -1 4839.90 862.537   2
 -23  -1  -1 6050.32 762.861   1
 -24   1  -1 5608.87 734.844   1
  24 -23  -1 4084.72 913.219   4
 -23  -1  -1 5574.71 948.403   4
  -1  24  -1 5968.74 945.949   1
   1  23  -1 4480.77 859.913   1
  -1  24  -1 6362.16 838.683   3
   1  23  -1 5325.91 773.271   3
  23 -24   2 4922.51 842.675   4
  -1  24   2 3221.55 858.724   1
   1  23   2 3778.78 869.489   1
  24 -23   2 2686.43 438.063   2
  23 -24   2 2371.42 364.676   2
  -1  24   2 4484.40 616.022   3
   1  23   2 3181.78 530.806   3
  24 -23   5 8197.26 903.046   4
  23 -24   5 6846.39 820.169   4
 -22  -2  -8 3913.16 1067.92   2
  -2  24  -8 4228.03 965.168   1
  24 -22  -8 3619.10 986.939   3
  24 -22  -8 3739.07 1142.86   4
  24 -22  -8 2005.67 1265.79   2
 -22  -2  -8 3559.47 1209.00   1
  22 -24  -8 4977.77 1422.60   2
 -24   2  -8 3784.28 1170.47   1
 -22  -2  -8 5105.00 1045.86   4
 -24   2  -8 4398.14 894.925   4
  -2  24  -8 5620.58 1149.07   3
   2  22  -8 4942.35 1054.29   3
  22 -24  -8 3039.96 1078.69   4
 -24   2  -8 5851.97 1133.08   2
 -22  -2  -5 4544.87 987.759   2
   2  22  -5 4170.05 793.867   1
 -24   2  -5 3557.24 834.052   2
  24 -22  -5 3348.55 852.398   3
  22 -24  -5 3951.58 832.021   3
  24 -22  -5 3857.40 948.722   4
  22 -24  -5 4778.43 1081.69   4
  24 -22  -5 4453.61 1182.74   2
 -22  -2  -5 4409.32 1060.92   1
  -2  24  -5 4149.16 798.954   1
  22 -24  -5 4171.07 1126.15   2
 -24   2  -5 3656.80 993.020   1
 -22  -2  -5 2691.27 865.051   4
 -24   2  -5 4134.97 839.500   4
  -2  24  -5 4036.77 978.704   3
   2  22  -5 3474.58 862.696   3
   2  22  -2 1844.64 671.026   1
 -22  -2  -2 3247.47 810.006   2
  24 -22  -2 2644.24 707.099   3
 -24   2  -2 3422.44 759.351   2
  -2  24  -2 2959.16 734.963   1
  22 -24  -2 2716.61 767.590   3
  24 -22  -2 4160.36 939.241   4
  22 -24  -2 2693.70 786.293   4
  24 -22  -2 3164.97 891.278   2
 -22  -2  -2 3768.96 736.697   1
  22 -24  -2 2401.17 800.985   2
 -24   2  -2 2673.02 669.674   1
 -22  -2  -2 3581.35 834.950   4
 -24   2  -2 3719.28 818.229   4
   2  22  -2 3624.69 756.343   3
  -2  24  -2 3349.63 710.152   3
  -2  24   1 5575.80 963.907   1
  24 -22   1 6956.00 996.591   3
  22 -24   1 7284.11 963.332   4
  24 -22   1 4576.30 682.781   2
  22 -24   1 4905.69 594.361   2
 -22  -2   1 4923.01 515.331   1
  -2  24   1 5857.77 723.734   3
 -24   2   1 4591.09 477.681   1
   2  22   1 7254.44 750.575   3
   2  22   1 5727.70 985.059   1
  22 -24   4 1050.77 571.991   4
  -2  24   4 402.652 319.190   3
   2  22   4 1355.99 337.890   3
 -24   3  -6 20345.7 1580.31   2
   3  21  -6 23730.7 1436.45   1
  24 -21  -6 23882.9 1627.95   3
  21 -24  -6 20966.4 1421.39   3
 -21  -3  -6 23600.7 1902.05   1
  24 -21  -6 23129.3 1880.96   4
  24 -21  -6 26636.5 2250.29   2
  21 -24  -6 20816.6 1776.36   4
 -24   3  -6 24482.6 1867.18   1
  21 -24  -6 23527.1 2178.03   2
 -21  -3  -6 22896.7 1645.32   4
 -24   3  -6 22746.8 1583.50   4
  -3  24  -6 19300.3 1462.55   1
  -3  24  -6 24897.0 1804.43   3
   3  21  -6 27891.6 1763.67   3
 -21  -3  -6 20822.3 1702.30   2
 -21  -3  -3 2777.45 779.550   2
  24 -21  -3 3103.22 755.278   3
 -24   3  -3 3563.04 786.812   2
  21 -24  -3 2741.41 728.275   3
  21 -24  -3 2918.89 826.312   4
  24 -21  -3 3790.68 961.390   2
  24 -21  -3 4677.62 916.952   4
  21 -24  -3 1851.86 781.896   2
 -24   3  -3 3741.99 770.664   1
 -21  -3  -3 3386.22 742.648   4
 -24   3  -3 4383.92 866.563   4
  -3  24  -3 2268.33 763.862   3
  -3  24  -3 3642.64 794.472   1
   3  21  -3 2786.68 654.547   1
   3  21  -3 2443.44 672.285   3
 -21  -3   0 28651.6 1768.14   2
  24 -21   0 26606.4 1679.78   3
  24 -21   0 30940.6 1628.48   2
  21 -24   0 28989.6 1701.93   4
 -21  -3   0 32086.1 1309.18   1
  21 -24   0 25999.1 1352.17   2
   3  21   0 28644.6 1633.55   1
 -24   3   0 27738.7 1187.75   1
 -21  -3   0 32500.4 1777.21   4
  -3  24   0 30909.1 1767.24   1
  -3  24   0 33019.9 1523.42   3
   3  21   0 29353.9 1367.28   3
  21 -24   3 3599.05 710.142   4
  24 -21   3 1264.02 304.928   2
  -3  24   3 3679.59 937.466   1
  -3  24   3 3474.78 511.276   3
   3  21   3 2151.21 441.023   3
 -20  -4  -7 4210.35 985.279   2
 -24   4  -7 3666.37 856.217   2
  24 -20  -7 4173.98 904.421   3
  20 -24  -7 4584.54 871.928   3
  24 -20  -7 5091.10 1076.46   4
  20 -24  -7 3117.26 1008.44   4
  24 -20  -7 4476.17 1297.96   2
  20 -24  -7 4171.17 1270.56   2
 -24   4  -7 4681.61 1122.11   1
 -20  -4  -7 6182.00 1020.91   4
 -24   4  -7 3829.06 851.098   4
  -4  24  -7 6772.48 1144.25   3
   4  20  -7 5342.66 1021.74   3
   4  20  -7 4886.19 807.859   1
  -4  24  -7 4457.27 929.892   1
 -20  -4  -4 1976.03 788.249   2
  24 -20  -4 2523.30 722.374   3
 -24   4  -4 3081.41 750.468   2
  20 -24  -4 4119.99 806.756   3
  24 -20  -4 1585.30 768.402   4
  24 -20  -4 3777.78 1059.01   2
  20 -24  -4 2686.32 877.874   4
  -4  24  -4 2624.80 763.679   1
   4  20  -4 2151.28 644.361   1
  20 -24  -4 2854.18 918.887   2
 -24   4  -4 3743.76 850.860   1
 -20  -4  -4 2200.10 712.735   4
 -24   4  -4 3179.83 808.466   4
   4  20  -4 2463.05 711.238   3
 -20  -4  -1 8602.21 1123.85   2
  24 -20  -1 6798.41 960.330   3
   4  20  -1 7300.22 890.742   1
  20 -24  -1 7657.98 983.347   4
  -4  24  -1 9037.55 1008.47   1
  20 -24  -1 5970.19 833.286   2
 -24   4  -1 6210.29 731.677   1
 -20  -4  -1 7829.20 993.121   4
   4  20  -1 8249.47 850.437   3
 -24   4   2 1944.06 282.249   1
  24 -20   2 3382.07 813.528   3
  -4  24   2 1563.97 753.894   1
  20 -24   2 1431.60 572.470   4
 -20  -4   2 1762.19 253.011   1
  20 -24   2 1597.60 247.000   2
   4  20   2 2142.59 497.149   3
  20 -24   5 4555.51 645.570   4
 -24   5  -8 3564.75 875.327   2
  24 -19  -8 4225.57 995.470   3
  24 -19  -8 3388.39 995.887   4
  19 -24  -8 4483.83 1099.32   4
  24 -19  -8 4079.59 1284.10   2
  19 -24  -8 1960.03 1127.22   2
 -24   5  -8 5308.42 1170.41   1
 -19  -5  -8 2775.45 847.871   4
 -24   5  -8 3134.13 822.719   4
  -5  24  -8 6726.91 1234.21   3
   5  19  -8 5423.47 1069.29   3
  -5  24  -8 4339.44 977.219   1
 -19  -5  -8 4670.16 1119.85   2
 -19  -5  -5 5099.77 945.860   2
 -24   5  -5 6078.65 900.366   2
  24 -19  -5 6944.39 982.781   3
  19 -24  -5 6176.40 843.857   3
  24 -19  -5 5800.40 1109.24   4
  24 -19  -5 9348.55 1401.24   2
  19 -24  -5 7736.10 1173.97   4
   5  19  -5 5736.22 738.531   1
 -24   5  -5 5729.31 995.679   1
  19 -24  -5 5698.28 1135.51   2
 -19  -5  -5 8285.66 1051.61   4
  -5  24  -5 7182.98 977.612   1
 -24   5  -5 5517.24 853.695   4
   5  19  -5 6689.83 939.934   3
   5  19  -2 4104.15 718.237   1
  24 -19  -2 4754.24 870.157   3
 -19  -5  -2 3472.99 814.402   2
 -24   5  -2 4259.31 781.132   2
  19 -24  -2 5089.42 859.774   4
  19 -24  -2 5781.71 871.563   2
 -24   5  -2 5771.73 781.022   1
 -19  -5  -2 5250.25 831.687   4
  -5  24  -2 4111.85 803.658   1
   5  19  -2 4463.72 699.706   3
 -19  -5   1 12668.3 755.831   1
 -19  -5   1 14195.9 1327.36   2
  24 -19   1 13552.5 1234.36   3
  19 -24   1 16151.4 1272.39   4
  19 -24   1 12999.0 813.717   2
 -19  -5   1 17363.1 1315.97   4
  -5  24   1 15419.3 1323.02   1
   5  19   1 14768.2 926.706   3
 -24   5   1 14077.5 750.486   1
  19 -24   4 8304.79 819.040   4
  -5  24   4 9984.11 1195.64   1
  -5  24   4 8696.93 620.959   3
   5  19   4 8684.77 548.653   3
  24 -18  -9 7323.71 1166.76   3
  24 -18  -9 7030.38 1325.76   4
  -6  24  -9 11929.4 1362.15   1
  18 -24  -9 8553.20 1348.89   4
  24 -18  -9 6567.64 1576.68   2
 -24   6  -9 9361.84 1484.73   1
  18 -24  -9 6581.36 1619.68   2
 -18  -6  -9 7609.99 1139.23   4
  -6  24  -9 11564.6 1530.19   3
   6  18  -9 9058.76 1277.53   3
 -18  -6  -9 9012.35 1399.19   2
 -24   6  -9 7448.47 1095.34   2
 -24   6  -6 8051.84 1013.10   2
  24 -18  -6 8613.64 1069.52   3
  18 -24  -6 9701.86 979.929   3
   6  18  -6 8426.47 829.565   1
  24 -18  -6 11644.1 1346.60   4
  24 -18  -6 11443.8 1614.92   2
  18 -24  -6 12021.7 1409.91   4
  18 -24  -6 8659.93 1409.13   2
 -24   6  -6 10677.5 1292.96   1
  -6  24  -6 8902.74 1092.51   1
 -18  -6  -6 12034.6 1246.80   4
   6  18  -6 8557.82 1088.62   3
 -18  -6  -6 8021.43 1172.37   2
  24 -18  -3 7806.50 980.950   3
 -24   6  -3 6984.26 877.004   2
  18 -24  -3 7588.21 1100.83   4
 -24   6  -3 6378.46 868.926   1
 -18  -6  -3 9135.93 1074.59   4
  18 -24  -3 5898.98 985.001   2
   6  18  -3 6946.23 875.175   3
  -6  24  -3 8237.10 983.285   1
   6  18  -3 6990.17 781.440   1
 -18  -6  -3 6782.43 1026.05   2
 -18  -6   0 8697.60 1093.25   2
  24 -18   0 9833.71 1073.86   3
  18 -24   0 9537.44 1040.11   4
  -6  24   0 9970.91 1055.11   1
  18 -24   0 10005.9 882.923   2
   6  18   0 10129.0 998.117   1
 -18  -6   0 9639.56 1035.69   4
 -24   6   0 10263.8 783.073   1
   6  18   0 8514.32 786.702   3
  24 -18   3 6329.19 973.048   3
  18 -24   3 5227.10 720.511   4
  -6  24   3 5808.80 979.122   1
   6  18   3 7051.07 587.831   3
 -24   7  -7 5994.38 1155.99   1
  24 -17  -7 6019.80 985.933   3
 -24   7  -7 3437.25 758.112   2
  24 -17  -7 5325.22 1068.60   4
  24 -17  -7 5497.00 1297.24   2
  17 -24  -7 5343.87 1030.92   4
  -7  24  -7 7140.13 1039.23   1
  17 -24  -7 3425.11 1181.14   2
 -17  -7  -7 5293.10 941.543   4
   7  17  -7 3917.09 913.718   3
 -17  -7  -7 4060.18 1057.93   2
  24 -17  -4 11290.8 1120.69   3
 -24   7  -4 7825.83 930.480   2
  17 -24  -4 13435.0 1356.97   4
  17 -24  -4 13636.5 1381.44   2
 -24   7  -4 14654.7 1286.85   1
 -17  -7  -4 13054.1 1255.77   4
  -7  24  -4 12924.9 1173.16   1
   7  17  -4 12400.5 1135.05   3
   7  17  -4 11310.0 897.219   1
 -17  -7  -4 11630.1 1288.61   2
 -17  -7  -1 2545.13 752.500   2
  24 -17  -1 3531.09 788.366   3
  17 -24  -1 4382.35 799.263   4
  17 -24  -1 3221.84 679.374   2
 -17  -7  -1 3489.12 738.578   4
  -7  24  -1 4113.91 748.175   1
   7  17  -1 3646.11 659.672   1
   7  17  -1 3595.63 588.190   3
 -24   7  -1 2916.52 604.695   1
  24 -17   2 4893.07 865.990   3
  17 -24   2 4124.92 673.458   4
 -24   7   2 3618.63 432.813   1
 -17  -7   2 2733.55 413.275   1
  -7  24   2 4358.51 857.676   1
 -17  -7   2 4991.27 778.504   4
  17 -24   2 2553.23 286.666   2
   7  17   2 3843.14 523.036   3
  17 -24   5 6445.81 665.376   4
  -7  24   5 7790.89 1153.00   1
 -24   8  -8 6049.12 918.835   2
  24 -16  -8 4632.78 973.497   3
  24 -16  -8 6447.04 1157.94   4
  -8  24  -8 11007.5 1399.88   1
  24 -16  -8 5571.68 1463.55   2
  16 -24  -8 7347.37 1207.68   4
 -24   8  -8 10010.5 1441.44   1
  16 -24  -8 5771.62 1391.30   2
 -16  -8  -8 7733.85 1152.20   4
   8  16  -8 7173.89 1143.30   3
 -16  -8  -8 7127.17 1227.05   2
  24 -16  -5 5170.34 942.119   3
 -24   8  -5 5389.35 806.518   2
  16 -24  -5 4629.60 931.738   4
  16 -24  -5 6335.92 1134.59   2
 -16  -8  -5 6514.35 1011.66   4
 -24   8  -5 5075.08 945.438   1
   8  16  -5 5218.60 647.833   1
   8  16  -5 5727.53 895.174   3
  -8  24  -5 4872.73 895.414   1
 -16  -8  -5 5746.38 1032.82   2
   8  16  -2 8160.09 811.328   1
  24 -16  -2 9948.03 1081.32   3
  16 -24  -2 9207.01 1049.16   4
  16 -24  -2 9405.07 1024.80   2
 -16  -8  -2 8169.02 1006.77   4
 -24   8  -2 10218.2 951.662   1
   8  16  -2 11627.0 1001.01   3
  -8  24  -2 11325.0 1114.13   1
 -16  -8  -2 10146.8 1154.79   2
 -24   8   1 5504.17 560.794   1
 -16  -8   1 6798.45 971.723   2
  24 -16   1 6750.83 968.710   3
  16 -24   1 6740.75 830.727   4
  -8  24   1 7036.05 955.012   1
 -16  -8   1 7167.15 897.868   4
  16 -24   1 6481.01 618.908   2
 -16  -8   1 4605.02 572.716   1
   8  16   1 6924.33 689.208   3
  24 -16   4 11188.5 1201.20   3
  16 -24   4 9828.97 810.038   4
   8  16   4 11614.5 653.001   3
  24 -15  -9 8845.98 1192.88   3
  -9  24  -9 10504.1 1305.30   1
  24 -15  -9 9463.70 1450.02   4
  24 -15  -9 8841.41 1688.19   2
  15 -24  -9 12522.3 1535.87   4
 -24   9  -9 12038.3 1639.76   1
  15 -24  -9 7513.07 1663.98   2
 -15  -9  -9 10276.7 1315.98   4
   9  15  -9 9916.70 1296.69   3
 -15  -9  -9 9936.43 1469.28   2
  24 -15  -6 16521.2 1360.36   3
 -24   9  -6 18257.9 1236.90   2
  15 -24  -6 19930.7 1633.28   4
  -9  24  -6 18509.1 1415.88   1
  15 -24  -6 15185.1 1714.37   2
 -24   9  -6 17753.4 1540.07   1
 -15  -9  -6 17279.8 1467.77   4
   9  15  -6 14129.2 870.939   1
   9  15  -6 20985.4 1487.10   3
 -15  -9  -6 17654.7 1612.13   2
  24 -15  -3 20642.1 1439.11   3
  15 -24  -3 27518.9 1734.99   4
  15 -24  -3 21278.5 1549.98   2
 -15  -9  -3 28062.9 1636.23   4
 -24   9  -3 24789.8 1473.49   1
  -9  24  -3 21535.0 1423.59   1
   9  15  -3 23210.4 1397.65   3
   9  15  -3 23451.3 1135.31   1
 -15  -9  -3 23609.2 1644.29   2
 -15  -9   0 27073.2 1660.65   2
  24 -15   0 25813.5 1553.42   3
  -9  24   0 23181.6 1489.19   1
  15 -24   0 24048.4 1427.44   4
  15 -24   0 24415.1 1236.20   2
 -15  -9   0 26321.1 1503.21   4
   9  15   0 25571.4 1258.25   3
 -24   9   0 27951.5 1219.48   1
  24 -15   3 1801.63 744.661   3
  15 -24   3 1596.56 507.140   4
 -15  -9   3 3315.12 677.746   4
  -9  24   3 2258.13 783.231   1
   9  15   3 2690.22 455.544   3
 -24   9   3 2450.50 378.497   1
  24 -14  -7 6204.61 1011.51   3
 -24  10  -7 6155.53 784.827   2
  14 -24  -7 5679.70 1067.81   4
 -24  10  -7 5795.44 1179.03   1
 -14 -10  -7 8105.65 1103.98   4
  14 -24  -7 7309.47 1388.07   2
 -10  24  -7 5474.33 952.911   1
  10  14  -7 5103.46 988.350   3
 -14 -10  -7 6373.66 1173.63   2
  24 -14  -4 2247.86 747.919   3
  10  14  -4 2296.36 482.742   1
 -24  10  -4 3619.98 632.398   2
  14 -24  -4 3203.86 818.447   4
  14 -24  -4 3155.40 893.113   2
 -14 -10  -4 4309.24 796.978   4
 -24  10  -4 4041.67 800.472   1
  10  14  -4 3750.88 726.860   3
 -10  24  -4 1786.72 756.814   1
 -14 -10  -4 2725.48 870.003   2
  24 -14  -1 16546.6 1262.88   3
 -10  24  -1 14463.4 1089.45   2
  14 -24  -1 17400.9 1332.31   4
  14 -24  -1 16224.8 1168.94   2
 -14 -10  -1 17498.9 1281.36   4
 -24  10  -1 17398.2 1094.38   1
  10  14  -1 17237.8 1097.57   3
 -10  24  -1 15890.9 1242.44   1
 -14 -10  -1 15799.2 1324.74   2
  24 -14   2 11129.7 1152.61   3
 -14 -10   2 10949.8 1134.52   2
 -14 -10   2 8019.42 670.172   1
  14 -24   2 10648.3 917.636   4
 -24  10   2 9724.06 707.455   1
 -10  24   2 9963.94 1087.16   1
 -14 -10   2 12304.5 1027.20   4
  14 -24   2 9428.32 582.228   2
  10  14   2 10073.0 732.477   3
  10  14   5 6614.90 481.856   3
 -10  24   5 7109.62 1070.80   1
  14 -24   5 8844.64 666.421   4
 -11  24  -8 10946.9 1256.45   1
  24 -13  -8 6905.68 1141.81   4
  13 -24  -8 9212.18 1298.63   4
  13 -24  -8 8574.47 1535.82   2
 -13 -11  -8 9518.11 1219.22   4
 -24  11  -8 10479.3 1423.67   1
 -13 -11  -8 10539.5 1506.57   2
  11  13  -8 10074.2 1198.36   3
  24 -13  -8 7944.75 1119.21   3
  24 -13  -5 3263.96 797.070   3
 -24  11  -5 2751.96 601.331   2
  13 -24  -5 3378.90 848.252   4
  11  13  -5 2527.00 416.770   1
  13 -24  -5 2606.92 911.215   2
 -13 -11  -5 2593.51 730.871   4
 -24  11  -5 4938.88 940.657   1
 -11  24  -5 3433.11 800.694   1
  11  13  -5 1674.78 730.298   3
 -13 -11  -5 4561.58 963.800   2
  24 -13  -2 15798.1 1254.05   3
 -11  24  -2 13686.7 851.410   2
  13 -24  -2 15897.4 1272.08   4
  13 -24  -2 16879.5 1271.99   2
 -13 -11  -2 14048.9 1203.36   4
 -11  24  -2 16076.1 1232.94   1
 -24  11  -2 14900.7 1119.07   1
  11  13  -2 17071.1 1154.86   3
 -13 -11  -2 11586.8 1212.26   2
 -13 -11   1 9853.57 1097.18   2
  24 -13   1 11014.9 1088.38   3
 -24  11   1 10798.4 798.902   1
 -11  24   1 10611.1 1053.45   1
  13 -24   1 9283.75 931.450   4
 -13 -11   1 10821.8 1015.23   4
 -13 -11   1 7969.59 744.099   1
  13 -24   1 10962.6 769.010   2
  11  13   1 10323.2 828.088   3
  24 -13   4 11206.4 1159.11   3
 -11  24   4 9670.66 1140.00   1
  13 -24   4 11902.3 846.747   4
 -13 -11   4 10755.0 937.058   4
 -24  11   4 10103.9 636.655   1
  11  13   4 11152.7 698.900   3
  24 -12  -9 1076.90 762.109   3
  24 -12  -9 1887.15 867.067   4
 -12  24  -9 4450.28 1017.08   1
  12 -24  -9 4280.51 1089.76   4
 -12 -12  -9 3763.50 981.531   4
  12 -24  -9 1696.86 1199.50   2
 -24  12  -9 3001.18 1071.11   1
  12  12  -9 5834.19 1076.88   3
 -12 -12  -9 2498.72 1054.61   2
 -24  12  -6 4996.09 665.571   2
 -12  24  -6 5400.43 942.362   1
  12 -24  -6 6502.82 1124.51   4
 -12 -12  -6 6408.30 1036.27   4
  12 -24  -6 5209.69 1142.80   2
 -24  12  -6 5724.13 1025.14   1
  12  12  -6 6314.46 975.059   3
 -12 -12  -6 3719.98 1024.18   2
  24 -12  -6 5970.13 960.298   3
  24 -12  -3 9540.81 1060.89   3
  12 -24  -3 10566.6 1148.42   4
 -12  24  -3 11628.6 1125.88   1
  12 -24  -3 7768.19 1098.13   2
 -12 -12  -3 8829.50 1021.34   4
 -24  12  -3 9477.33 1035.24   1
  12  12  -3 11781.3 1038.81   3
 -12 -12  -3 12582.5 1303.58   2
 -12 -12   0 5117.35 877.201   2
  24 -12   0 2472.36 708.642   3
 -24  12   0 3060.42 573.415   1
  12 -24   0 2298.14 625.607   4
 -12  24   0 3162.62 767.323   1
 -12 -12   0 4976.43 767.252   4
  12 -24   0 4247.22 676.261   2
  12  12   0 4406.32 650.747   3
  12 -24   3 7439.33 396.004   2
  24 -12   3 10673.2 1110.48   3
 -12 -12   3 11567.4 1189.02   2
  12 -24   3 10922.7 882.981   4
 -12 -12   3 10542.1 938.459   4
 -12  24   3 10224.2 1119.13   1
 -24  12   3 10374.5 742.215   1
  12  12   3 9527.58 731.556   3
 -12  24   6 5795.88 1096.82   1
  24 -11  -7 620.598 672.518   3
  11 -24  -7 944.866 815.680   4
 -13  24  -7 705.750 707.155   1
 -11 -13  -7 2065.69 836.933   4
  11 -24  -7 1609.03 940.948   2
 -24  13  -7 250.267 700.559   1
  13  11  -7 1603.75 739.639   3
 -11 -13  -7 2216.33 984.125   2
  24 -11  -4 10648.0 1111.67   3
 -13  24  -4 10729.8 1101.63   1
  11 -24  -4 10200.1 1177.26   4
 -11 -13  -4 10301.3 1096.07   4
  11 -24  -4 9430.04 1233.82   2
 -24  13  -4 9383.73 1105.31   1
  13  11  -4 11436.9 1072.34   3
 -11 -13  -4 9891.35 1280.28   2
  24 -11  -1 6368.38 935.879   3
  11 -24  -1 9838.65 1038.08   4
 -11 -13  -1 10661.5 1051.04   4
  11 -24  -1 10886.0 1050.22   2
 -13  24  -1 11034.0 1081.26   1
  13  11  -1 10339.6 904.960   3
 -24  13  -1 9594.31 872.633   1
 -11 -13  -1 9272.14 1065.11   2
 -11 -13   2 13730.3 1226.18   2
  24 -11   2 11641.3 1139.06   3
 -24  13   2 14806.3 927.457   1
 -11 -13   2 17117.0 1169.61   4
  11 -24   2 11211.5 930.159   4
 -13  24   2 14032.7 1217.95   1
  11 -24   2 14237.7 816.689   2
  13  11   2 14718.1 936.156   3
  13  11   5 3338.81 502.471   3
  24 -11   5 2418.78 785.078   3
  11 -24   5 3269.66 467.812   4
 -24  13   5 2738.81 494.839   1
 -11 -13   5 3098.15 604.124   4
 -13  24   5 2359.39 817.414   1
  24 -10  -8 2507.67 801.326   3
 -14  24  -8 2857.07 945.885   1
  10 -24  -8 3657.90 1040.51   4
 -10 -14  -8 3110.99 893.609   4
  10 -24  -8 2828.89 1183.01   2
 -24  14  -8 2796.07 1000.11   1
 -10 -14  -8 113.347 860.711   2
  14  10  -8 3250.59 922.961   3
 -14  24  -5 11834.0 1209.63   1
  10 -24  -5 9009.73 1177.39   4
 -10 -14  -5 11646.7 1192.45   4
  10 -24  -5 9427.59 1287.24   2
 -24  14  -5 7944.73 1042.40   1
 -10 -14  -5 10209.1 1282.17   2
  14  10  -5 8677.22 1037.35   3
  24 -10  -5 9151.39 1061.35   3
  24 -10  -2 10725.1 1094.08   3
  10 -24  -2 10070.5 1092.85   4
 -14  24  -2 9982.47 1079.12   1
 -10 -14  -2 11517.4 1124.69   4
  10 -24  -2 10269.3 1084.85   2
  14  10  -2 11517.0 997.056   3
 -24  14  -2 11614.8 1049.79   1
 -10 -14  -2 9892.13 1127.40   2
 -14  24   1 14547.9 1236.76   1
 -10 -14   1 16021.1 1307.85   2
  24 -10   1 16953.0 1281.10   3
 -24  14   1 18209.3 1060.41   1
  10 -24   1 16461.7 1142.08   4
 -10 -14   1 15712.0 1153.56   4
  10 -24   1 15727.2 979.431   2
  14  10   1 17281.9 1040.39   3
  14  10   4 2388.75 481.779   3
  24 -10   4 2678.24 733.976   3
 -24  14   4 3081.90 559.924   1
  10 -24   4 2347.30 460.672   4
 -10 -14   4 2293.35 570.946   4
 -14  24   4 4204.46 878.493   1
  24  -9  -9 4570.85 992.908   3
 -15  24  -9 9157.57 1318.42   1
   9 -24  -9 10320.5 1495.02   4
  -9 -15  -9 8491.77 1245.83   4
   9 -24  -9 6030.49 1527.14   2
  15   9  -9 8668.84 1226.74   3
  -9 -15  -9 6999.31 1423.07   2
 -24  15  -9 6231.10 1310.69   1
  24  -9  -6 3466.38 802.857   3
 -15  24  -6 5299.38 986.169   1
   9 -24  -6 5744.89 1073.38   4
  -9 -15  -6 5864.68 1060.27   4
   9 -24  -6 4810.09 1081.96   2
 -24  15  -6 5946.74 1037.97   1
  -9 -15  -6 5675.20 1182.46   2
  15   9  -6 4973.91 887.941   3
 -24  15  -3 3152.55 702.051   1
  24  -9  -3 2809.18 767.466   3
   9 -24  -3 1537.13 683.267   4
  -9 -15  -3 1756.65 643.368   4
   9 -24  -3 1054.73 676.478   2
 -15  24  -3 2033.18 750.731   1
  15   9  -3 2980.38 714.815   3
  -9 -15  -3 2414.24 831.273   2
  24  -9   0 26432.2 1558.33   3
 -24  15   0 25773.7 1329.32   1
   9 -24   0 23958.8 1438.83   4
  -9 -15   0 29375.3 1562.31   4
   9 -24   0 25272.9 1339.50   2
 -15  24   0 28487.9 1602.63   1
  15   9   0 24407.1 1306.14   3
  -9 -15   0 27865.7 1651.24   2
   9 -24   3 22327.8 961.154   2
  24  -9   3 26568.3 1579.20   3
  -9 -15   3 26238.5 1652.26   2
   9 -24   3 26893.2 1288.22   4
 -15  24   3 23150.4 1550.42   1
  -9 -15   3 24652.5 1324.58   4
 -24  15   3 24365.8 1242.21   1
  15   9   3 24172.5 1153.12   3
  15   9   6 17686.8 892.508   3
  24  -9   6 18385.1 1417.35   3
 -15  24   6 16527.0 1471.18   1
  24  -8  -7 2617.06 790.439   3
 -16  24  -7 1761.51 727.058   1
   8 -24  -7 1288.13 751.546   4
  -8 -16  -7 2095.71 811.300   4
   8 -24  -7 439.345 951.870   2
  -8 -16  -7 1402.39 862.672   2
  16   8  -7 2279.71 790.708   3
 -24  16  -7 343.240 728.336   1
 -16  24  -4 8686.39 1019.76   1
   8 -24  -4 11749.5 1282.02   4
  -8 -16  -4 7735.95 1072.02   4
   8 -24  -4 9359.60 1174.69   2
  -8 -16  -4 11973.8 1343.00   2
 -24  16  -4 10797.6 1131.04   1
  16   8  -4 10072.8 1061.89   3
  24  -8  -4 9083.15 1070.60   3
  24  -8  -1 7851.29 992.683   3
 -24  16  -1 7588.94 884.199   1
   8 -24  -1 6289.34 862.272   4
  -8 -16  -1 6618.29 886.226   4
 -16  24  -1 6888.62 976.543   1
   8 -24  -1 7000.06 859.019   2
  16   8  -1 7392.10 832.995   3
  -8 -16  -1 6407.79 1012.00   2
  -8 -16   2 7560.91 982.400   2
  24  -8   2 6392.39 930.690   3
 -16  24   2 6591.73 952.701   1
   8 -24   2 7295.89 775.542   4
  -8 -16   2 7903.03 842.635   4
 -24  16   2 7887.85 807.366   1
   8 -24   2 8811.18 794.931   2
  16   8   2 6854.33 730.264   3
  16   8   5 4670.66 644.694   3
 -24  16   5 4600.50 689.097   1
  24  -8   5 5921.83 905.998   3
 -16  24   5 5891.91 965.020   1
   8 -24   5 5014.78 538.733   4
  -8 -16   5 5169.17 669.778   4
  24  -7  -8 3526.20 915.542   3
 -17  24  -8 4407.23 1019.00   1
   7 -24  -8 4701.54 1069.08   4
  -7 -17  -8 2866.78 910.404   4
   7 -24  -8 1531.68 999.760   2
  -7 -17  -8 3553.02 1107.63   2
  17   7  -8 648.543 752.141   3
 -24  17  -8 5629.23 1165.10   1
   7 -24  -5 4666.79 965.229   4
 -17  24  -5 4642.96 932.420   1
  -7 -17  -5 9225.85 1164.64   4
   7 -24  -5 7697.16 1195.49   2
 -24  17  -5 5939.68 1010.69   1
  17   7  -5 5893.21 915.184   3
  -7 -17  -5 5379.26 1051.57   2
  24  -7  -5 7796.96 1045.34   3
  24  -7  -2 2396.03 717.926   3
 -24  17  -2 3773.88 719.462   1
   7 -24  -2 2545.01 702.771   4
  -7 -17  -2 5004.12 859.085   4
   7 -24  -2 3857.42 805.819   2
 -17  24  -2 1640.16 666.446   1
  17   7  -2 3076.09 673.293   3
  -7 -17  -2 3045.34 889.292   2
  24  -7   1 1701.81 680.374   3
  -7 -17   1 1985.78 648.883   2
   7 -24   1 2527.76 584.229   4
 -17  24   1 856.381 655.102   1
  -7 -17   1 2069.23 553.589   4
 -24  17   1 1820.54 575.149   1
   7 -24   1 1925.56 555.155   2
  17   7   1 2737.55 582.472   3
  17   7   4 9731.22 851.770   3
  24  -7   4 10986.8 1115.21   3
 -24  17   4 9711.46 895.549   1
   7 -24   4 10293.0 786.693   4
  -7 -17   4 10466.0 907.932   4
 -17  24   4 8820.56 1074.54   1
  24  -6  -9 2924.56 936.375   3
 -18  24  -9 2194.59 1054.06   1
   6 -24  -9 4114.57 1168.04   4
  -6 -18  -9 1757.65 869.525   4
   6 -24  -9 3097.11 1342.68   2
  -6 -18  -9 3490.44 1164.34   2
  18   6  -9 2499.65 875.381   3
 -24  18  -9 2394.36 1023.95   1
 -18  24  -6 10689.2 1228.31   1
   6 -24  -6 12558.5 1378.81   4
  -6 -18  -6 11161.6 1300.65   4
   6 -24  -6 9821.77 1384.98   2
  -6 -18  -6 9692.14 1388.02   2
 -24  18  -6 10791.0 1328.20   1
  18   6  -6 11614.9 1183.49   3
  24  -6  -6 10371.7 1192.26   3
 -18  24  -3 6221.82 954.511   1
   6 -24  -3 7076.02 979.395   4
  -6 -18  -3 7098.25 963.977   4
   6 -24  -3 4098.85 812.542   2
  -6 -18  -3 6591.73 1066.80   2
  18   6  -3 6263.99 858.674   3
 -24  18  -3 6105.27 888.896   1
  24  -6  -3 4740.36 937.363   3
  24  -6   0 11039.9 1080.12   3
 -24  18   0 9365.21 920.276   1
   6 -24   0 10424.3 990.327   4
  -6 -18   0 10496.4 1005.52   4
 -18  24   0 8835.58 1080.06   1
   6 -24   0 9098.43 937.232   2
  18   6   0 9822.82 965.100   3
  -6 -18   0 10747.7 1122.88   2
  18   6   3 6677.08 770.669   3
   6 -24   3 6474.93 737.644   2
  24  -6   3 6406.79 893.905   3
  -6 -18   3 8224.33 1044.68   2
 -18  24   3 7899.65 994.029   1
   6 -24   3 7246.80 766.262   4
  -6 -18   3 7300.31 795.774   4
 -24  18   3 6471.97 824.793   1
 -24  18   6 9533.60 942.736   1
  24  -6   6 11362.9 1144.27   3
  -6 -18   6 10878.2 855.897   4
 -18  24   6 9909.31 1219.43   1
 -19  24  -7 9504.47 1238.29   1
   5 -24  -7 9052.97 1294.05   4
  -5 -19  -7 9311.68 1259.81   4
   5 -24  -7 7989.16 1401.56   2
 -24  19  -7 9272.79 1259.93   1
  -5 -19  -7 7128.37 1327.43   2
  19   5  -7 7856.86 1149.57   3
  24  -5  -7 7198.08 1129.58   3
 -19  24  -4 7888.48 1022.02   1
   5 -24  -4 7641.02 1081.16   4
  -5 -19  -4 8815.44 1077.01   4
   5 -24  -4 7201.30 1125.61   2
  -5 -19  -4 8749.84 1278.95   2
  19   5  -4 8158.12 1016.17   3
 -24  19  -4 6756.75 1008.93   1
  24  -5  -4 7304.28 989.449   3
 -24  19  -1 13533.3 1148.40   1
   5 -24  -1 16194.1 1262.27   4
 -19  24  -1 14627.2 1258.89   1
  -5 -19  -1 16836.7 1294.86   4
   5 -24  -1 15631.3 1264.80   2
  -5 -19  -1 15436.1 1331.39   2
  19   5  -1 12761.8 1068.28   3
  24  -5  -1 15739.5 1265.45   3
 -19  24   2 6013.75 888.097   1
  19   5   2 3358.81 653.448   3
  24  -5   2 4366.62 811.398   3
  -5 -19   2 4615.90 810.561   2
 -24  19   2 3204.60 687.152   1
   5 -24   2 4439.10 683.607   4
  -5 -19   2 4125.30 688.376   4
   5 -24   2 3898.88 673.459   2
 -19  24   5 5201.88 941.117   1
  19   5   5 5367.35 763.136   3
  24  -5   5 6637.14 945.620   3
   5 -24   5 6100.54 596.153   4
  -5 -19   5 5068.36 680.146   4
 -24  19   5 6532.91 871.341   1
 -24  20  -8 4496.51 1136.35   1
 -20  24  -8 4689.62 1102.50   1
   4 -24  -8 2612.94 985.512   4
  -4 -20  -8 3367.78 974.313   4
   4 -24  -8 2113.32 1115.69   2
  -4 -20  -8 3060.15 1136.12   2
  20   4  -8 4043.94 963.611   3
  24  -4  -8 3579.66 1012.64   3
  24  -4  -5 3886.83 891.667   3
 -20  24  -5 5210.61 984.674   1
 -24  20  -5 3249.00 845.724   1
   4 -24  -5 3514.74 918.024   4
  -4 -20  -5 5827.54 1020.08   4
   4 -24  -5 6713.16 1190.75   2
  -4 -20  -5 4134.89 997.555   2
  20   4  -5 4365.31 873.431   3
  24  -4  -2 2004.90 728.629   3
 -24  20  -2 1697.32 704.259   1
   4 -24  -2 1731.12 617.611   4
  -4 -20  -2 1608.29 696.143   4
 -20  24  -2 1833.19 706.124   1
   4 -24  -2 1893.67 718.464   2
  -4 -20  -2 2595.69 790.486   2
  20   4  -2 2750.59 700.662   3
  24  -4   1 7343.56 967.681   3
   4 -24   1 7551.37 884.453   4
  -4 -20   1 9596.05 987.903   4
 -24  20   1 8584.09 929.561   1
 -20  24   1 6969.08 926.132   1
   4 -24   1 8343.92 884.373   2
  20   4   1 6508.00 836.369   3
  -4 -20   1 8610.47 1020.93   2
  20   4   4 1945.96 598.212   3
  24  -4   4 872.974 630.804   3
 -24  20   4 704.139 584.555   1
   4 -24   4 2293.86 545.296   4
  -4 -20   4 2855.69 564.495   4
 -20  24   4 1762.49 806.578   1
 -21  24  -6 14111.1 1423.57   1
   3 -24  -6 14427.5 1470.97   4
  -3 -21  -6 13125.4 1392.87   4
   3 -24  -6 12091.7 1579.14   2
  -3 -21  -6 12470.0 1560.39   2
  21   3  -6 14290.3 1354.60   3
 -24  21  -6 12582.6 1366.08   1
  24  -3  -6 11050.9 1252.64   3
  24  -3  -3 2613.22 839.596   3
 -24  21  -3 1953.17 731.586   1
   3 -24  -3 1808.28 665.936   4
  -3 -21  -3 1961.27 673.409   4
 -21  24  -3 3513.46 872.357   1
   3 -24  -3 2853.83 850.409   2
  -3 -21  -3 2246.21 803.529   2
  21   3  -3 3809.24 796.737   3
  24  -3   0 26337.9 1530.79   3
 -24  21   0 27789.0 1537.99   1
   3 -24   0 28500.1 1592.77   4
  -3 -21   0 31573.4 1663.53   4
 -21  24   0 30153.3 1678.48   1
   3 -24   0 27298.6 1571.13   2
  -3 -21   0 28865.3 1695.10   2
  21   3   0 27647.5 1522.41   3
  24  -3   3 4089.88 806.581   3
 -21  24   3 2094.78 759.268   1
  21   3   3 2387.97 628.575   3
   3 -24   3 3645.24 695.547   2
  -3 -21   3 2218.28 707.187   2
   3 -24   3 1750.11 532.719   4
  -3 -21   3 2605.41 614.634   4
 -24  21   3 1686.37 675.274   1
  21   3   6 22228.8 1344.52   3
  24  -3   6 23851.6 1541.39   3
  -3 -21   6 21663.7 1119.09   4
 -21  24   6 19812.8 1597.95   1
 -24  21   6 22262.4 1530.23   1
 -24  22  -7 4075.88 1010.53   1
   2 -24  -7 5344.67 1099.42   4
  -2 -22  -7 5713.98 1082.87   4
   2 -24  -7 3459.32 1122.13   2
  -2 -22  -7 3952.12 1131.39   2
  22   2  -7 5752.85 1060.19   3
 -22  24  -7 6254.06 1209.29   1
  24  -2  -7 3029.52 956.008   3
 -24  22  -4 633.016 668.900   1
 -22  24  -4 1974.83 789.200   1
   2 -24  -4 1102.67 749.698   4
  -2 -22  -4 1729.38 735.454   4
   2 -24  -4 3122.98 926.185   2
  -2 -22  -4 1319.29 839.379   2
  22   2  -4 412.595 631.272   3
  24  -2  -4 994.419 659.120   3
  22   2  -1 4125.57 801.326   3
  24  -2  -1 3529.48 777.103   3
 -22  24  -1 5708.15 934.122   1
   2 -24  -1 5561.20 880.526   4
  -2 -22  -1 5931.89 886.806   4
 -24  22  -1 4017.86 822.233   1
   2 -24  -1 4704.73 872.897   2
  -2 -22  -1 5415.39 926.954   2
  24  -2   2 4442.81 787.670   3
  22   2   2 3199.84 687.463   3
   2 -24   2 2696.10 690.265   2
  -2 -22   2 3235.01 753.627   2
 -24  22   2 2865.26 755.162   1
   2 -24   2 2863.68 626.681   4
  -2 -22   2 2219.36 607.815   4
 -22  24   2 1519.87 682.675   1
  22   2   5 3081.98 719.527   3
  24  -2   5 3884.37 857.778   3
   2 -24   5 3307.72 566.589   4
  -2 -22   5 3203.50 568.533   4
 -24  22   5 3022.48 821.579   1
 -22  24   5 2239.22 843.562   1
 -24  23  -8-329.679 871.636   1
 -23  24  -8-338.817 822.339   1
   1 -24  -8 2696.36 1022.75   4
  -1 -23  -8 515.988 746.729   4
   1 -24  -8 1193.94 1117.64   2
  -1 -23  -8 2576.63 1146.08   2
  23   1  -8 442.392 799.362   3
  24  -1  -8 1830.40 897.080   3
 -24  23  -5 6039.60 1032.78   1
 -23  24  -5 8060.86 1156.61   1
   1 -24  -5 8081.06 1210.59   4
  -1 -23  -5 6387.46 1097.40   4
  -1 -23  -5 8115.06 1361.92   2
   1 -24  -5 4892.17 1077.67   2
  23   1  -5 6497.15 1048.50   3
  24  -1  -5 7248.22 1122.37   3
  23   1  -2 3637.54 807.930   3
  24  -1  -2 3907.29 880.278   3
   1 -24  -2 3372.21 911.823   4
  -1 -23  -2 1826.20 696.433   4
 -24  23  -2 2624.71 764.337   1
 -23  24  -2 2574.74 785.345   1
   1 -24  -2 3614.83 889.528   2
  -1 -23  -2 3166.01 852.380   2
  24  -1   1 6046.91 882.580   3
   1 -24   1 7641.68 913.915   4
  -1 -23   1 7923.64 919.836   4
 -24  23   1 5551.12 905.296   1
 -23  24   1 6827.11 952.818   1
   1 -24   1 6597.50 952.290   2
  -1 -23   1 7372.51 937.311   2
  23   1   1 7349.59 905.831   3
  23   1   4-196.357 546.083   3
  24  -1   4 753.865 634.003   3
   1 -24   4-100.252 532.509   2
  -1 -23   4-352.644 644.901   2
 -24  23   4-193.290 614.512   1
   1 -24   4-93.8723 407.888   4
  -1 -23   4-203.512 417.450   4
 -23  24   4 1630.40 708.353   1
  23   1   7 5710.63 889.661   3
  24  -1   7 8485.60 1058.82   3
 -24  24  -6 10766.1 1340.59   1
   0 -24  -6 15625.9 1557.78   4
   0 -24  -6 10575.8 1496.02   2
  24   0  -6 12360.2 1332.61   3
  24   0  -3 1386.91 696.495   3
   0 -24  -3 680.587 655.262   4
 -24  24  -3-325.517 674.394   1
   0 -24  -3 1413.03 766.483   2
   0 -24   0 12734.7 1215.74   4
 -24  24   0 11411.4 1149.66   1
   0 -24   0 11740.5 1158.43   2
  24   0   0 11593.0 1153.45   3
  24   0   3 510.156 626.588   3
   0 -24   3 1311.15 694.482   2
   0 -24   3 638.842 512.759   4
 -24  24   3 200.948 612.345   1
  24   0   6 3050.67 808.102   3
 -24  24   6 65.0630 742.297   1
 -25   0  -7 787.686 821.766   2
  25 -25  -7 483.717 744.143   3
  25 -25  -7-162.925 891.153   4
  25 -25  -7-754.731 1218.41   2
 -25   0  -7-216.495 931.331   1
   0  25  -7-460.213 688.878   1
 -25   0  -7 248.718 703.967   4
   0  25  -7 457.961 805.682   3
 -25   0  -4 5404.40 1069.99   2
  25 -25  -4 5099.69 965.683   3
   0  25  -4 5567.88 934.682   1
  25 -25  -4 5331.74 1134.61   4
 -25   0  -4 6186.06 1041.69   1
  25 -25  -4 5584.72 1189.74   2
 -25   0  -4 6308.10 1030.84   4
   0  25  -4 3991.10 864.811   3
 -25   0  -1 459.589 669.388   2
  25 -25  -1 950.392 680.413   3
  25 -25  -1-1442.60 782.881   4
  25 -25  -1 765.419 661.242   2
 -25   0  -1 779.674 522.158   1
   0  25  -1 1109.33 769.533   1
   0  25  -1-68.3388 541.962   3
  25 -25   2 8057.83 1038.85   4
   0  25   2 7502.26 1160.41   1
   0  25   2 7982.03 753.067   3
  25 -25   5 217.634 575.830   4
 -25   1  -5 5542.09 1015.61   2
  24 -25  -5 3828.38 1111.76   4
 -24  -1  -5 4318.08 984.796   2
  25 -24  -5 5420.04 945.962   3
  24 -25  -5 3379.82 866.577   3
  25 -24  -5 4973.02 1134.53   4
  25 -24  -5 6428.13 1291.12   2
  24 -25  -5 3713.30 1180.36   2
 -24  -1  -5 5240.09 1062.95   1
 -25   1  -5 4353.59 1029.08   1
 -25   1  -5 5745.69 980.527   4
 -24  -1  -5 4036.10 980.881   4
   1  24  -5 6601.83 1013.05   3
  -1  25  -5 4065.63 886.756   1
  -1  25  -5 5117.42 987.297   3
   1  24  -5 4117.12 840.830   1
 -24  -1  -2 9088.24 1217.75   2
 -25   1  -2 9980.59 1204.59   2
  25 -24  -2 11790.0 1217.32   3
  24 -25  -2 10360.2 1173.18   3
  25 -24  -2 9891.52 1254.57   4
  24 -25  -2 10288.9 1289.21   4
  25 -24  -2 9212.40 1218.72   2
  24 -25  -2 7520.73 1191.04   2
 -25   1  -2 8858.11 987.643   1
  -1  25  -2 11553.8 1197.24   1
 -24  -1  -2 10966.8 1218.03   4
 -25   1  -2 9483.19 1138.49   4
  -1  25  -2 11849.9 1150.18   3
   1  24  -2 10020.2 1056.54   3
   1  24  -2 9723.24 1099.88   1
 -24  -1  -2 11438.6 1088.68   1
  -1  25   1 6962.02 1055.00   1
  25 -24   1 7458.80 1054.69   4
  24 -25   1 7130.04 1006.60   4
  25 -24   1 5375.80 723.151   2
  24 -25   1 5113.96 663.274   2
 -24  -1   1 5825.93 526.560   1
  -1  25   1 5848.33 751.172   3
 -25   1   1 5175.19 502.856   1
   1  24   1 6460.79 741.551   3
   1  24   1 5950.36 1055.07   1
  25 -24   4 2381.53 739.163   4
  24 -25   4 3226.57 744.100   4
 -23  -2  -6-301.534 752.622   2
 -25   2  -6 122.491 635.602   2
  25 -23  -6 173.950 670.578   3
  23 -25  -6 675.617 709.779   3
  25 -23  -6 1051.02 815.694   4
  23 -25  -6 802.538 812.985   4
  25 -23  -6-929.773 1040.38   2
  -2  25  -6 513.996 702.767   1
 -23  -2  -6 360.900 824.529   1
  23 -25  -6 216.164 975.475   2
 -25   2  -6-354.945 784.579   1
 -23  -2  -6 987.013 758.006   4
 -25   2  -6 1162.57 795.567   4
  -2  25  -6 1221.01 802.381   3
   2  23  -6 1110.41 763.621   3
   2  23  -6 1271.62 642.607   1
 -23  -2  -3 7891.30 1203.49   2
 -25   2  -3 11073.3 1246.46   2
  25 -23  -3 10837.3 1178.69   3
  23 -25  -3 10328.6 1127.53   3
  -2  25  -3 9181.06 1050.07   1
  25 -23  -3 10493.2 1262.64   4
  23 -25  -3 11131.2 1329.50   4
  25 -23  -3 9925.82 1366.64   2
 -23  -2  -3 12718.7 1210.99   1
  23 -25  -3 8508.33 1197.99   2
 -25   2  -3 12045.9 1154.64   1
   2  23  -3 9475.69 1046.68   1
 -23  -2  -3 10635.6 1189.22   4
 -25   2  -3 13705.7 1288.63   4
  -2  25  -3 12238.6 1207.99   3
   2  23  -3 10518.9 1070.61   3
  25 -23   0 3287.69 840.851   3
 -23  -2   0 4517.83 910.827   2
  25 -23   0 4631.61 813.809   2
  23 -25   0 4104.78 894.255   4
 -23  -2   0 3328.54 572.845   1
   2  23   0 5120.72 900.839   1
  23 -25   0 2839.85 668.368   2
 -25   2   0 4991.07 611.866   1
  -2  25   0 4255.17 852.308   1
 -23  -2   0 5520.06 929.477   4
  -2  25   0 4072.16 731.325   3
   2  23   0 4316.17 677.996   3
  23 -25   3 7306.37 970.489   4
  -2  25   3 8718.52 1197.71   1
  -2  25   3 9991.54 754.831   3
   2  23   3 8004.37 667.498   3
 -22  -3  -7 1344.06 830.253   2
 -25   3  -7 2042.40 817.691   2
  -3  25  -7 1419.60 782.251   1
  25 -22  -7 300.758 709.543   3
  22 -25  -7 880.697 714.751   3
  22 -25  -7 95.7959 756.771   4
  25 -22  -7 2599.64 940.095   4
  25 -22  -7-600.260 1114.73   2
 -22  -3  -7-744.947 988.364   1
  22 -25  -7 2647.56 1232.38   2
 -25   3  -7 1934.89 1024.54   1
 -22  -3  -7 1023.91 769.790   4
 -25   3  -7 772.838 701.315   4
   3  22  -7 1739.54 688.121   1
  -3  25  -7 2225.08 927.608   3
   3  22  -7 1619.53 850.452   3
 -25   3  -4 6177.92 987.273   2
  22 -25  -4 5458.67 1084.35   4
  25 -22  -4 6390.28 1041.53   3
  22 -25  -4 5433.06 867.345   3
  25 -22  -4 5762.94 1059.27   4
 -22  -3  -4 5551.69 993.166   1
  25 -22  -4 6406.77 1215.98   2
 -25   3  -4 6932.34 1038.86   1
   3  22  -4 6325.34 857.553   1
  22 -25  -4 4357.20 1104.51   2
 -22  -3  -4 4949.03 901.310   4
 -25   3  -4 5355.01 925.833   4
  -3  25  -4 7272.56 1077.62   3
   3  22  -4 7336.56 994.154   3
  -3  25  -4 6517.65 918.239   1
 -22  -3  -4 8731.45 1210.61   2
 -22  -3  -1 3727.42 901.035   2
  25 -22  -1 2839.82 758.049   3
   3  22  -1 3543.62 751.165   1
  25 -22  -1 5263.85 943.990   2
 -22  -3  -1 4175.41 701.732   1
  22 -25  -1 4593.67 945.359   4
  22 -25  -1 4516.18 806.863   2
 -25   3  -1 5355.83 709.985   1
  -3  25  -1 4401.21 870.334   1
 -22  -3  -1 1956.83 681.552   4
  -3  25  -1 4991.04 806.398   3
   3  22  -1 3942.87 694.681   3
  25 -22   2 5479.33 936.299   3
  22 -25   2 7601.87 966.229   4
  25 -22   2 3577.64 576.125   2
  -3  25   2 8283.56 1090.89   1
  -3  25   2 5935.65 684.029   3
   3  22   2 5303.49 626.768   3
  22 -25   5 2937.63 631.284   4
 -21  -4  -8 5444.51 1177.62   2
 -25   4  -8 4906.81 1013.38   2
  25 -21  -8 2609.88 968.426   3
  25 -21  -8 4992.22 1227.81   4
  21 -25  -8 3929.39 1106.36   4
 -21  -4  -8 5468.32 1314.56   1
  25 -21  -8 6185.24 1593.19   2
  21 -25  -8 3337.70 1405.40   2
 -25   4  -8 4351.35 1228.96   1
 -21  -4  -8 6428.22 1082.84   4
 -25   4  -8 5143.09 997.548   4
  -4  25  -8 3315.91 995.827   3
   4  21  -8 6003.02 1205.98   3
  -4  25  -8 5489.54 1029.55   1
 -25   4  -5 8760.22 1112.56   2
  25 -21  -5 9069.90 1143.25   3
  21 -25  -5 7591.24 994.427   3
  25 -21  -5 8863.39 1314.18   4
  25 -21  -5 7761.51 1430.54   2
  21 -25  -5 11680.9 1411.49   4
   4  21  -5 9266.47 951.081   1
  21 -25  -5 8603.50 1414.74   2
 -25   4  -5 10170.2 1209.97   1
 -21  -4  -5 11261.4 1229.29   4
 -25   4  -5 9644.36 1157.79   4
  -4  25  -5 10617.8 1260.84   3
   4  21  -5 11562.9 1203.76   3
  -4  25  -5 8737.61 1088.08   1
 -21  -4  -5 7339.36 1147.84   2
   4  21  -2 6056.36 871.785   1
 -25   4  -2 4634.57 899.781   2
  -4  25  -2 4985.23 896.547   1
 -21  -4  -2 3393.74 924.597   2
  25 -21  -2 3184.22 884.149   3
  25 -21  -2 5306.37 1033.28   2
  21 -25  -2 3086.41 886.283   4
  21 -25  -2 2869.63 788.526   2
 -25   4  -2 3868.22 741.913   1
 -21  -4  -2 4761.32 840.501   4
   4  21  -2 4373.21 771.939   3
 -21  -4   1 13286.2 1343.76   2
  25 -21   1 10997.9 1168.88   3
  25 -21   1 13145.1 1063.83   2
  21 -25   1 14304.3 1251.74   4
 -21  -4   1 11416.4 732.809   1
  21 -25   1 10632.6 783.689   2
   4  21   1 12277.7 1184.36   1
 -21  -4   1 13534.4 1223.46   4
   4  21   1 15810.5 980.960   3
 -25   4   1 12250.7 699.040   1
  -4  25   1 12079.3 1237.63   1
  -4  25   4 7300.45 1193.67   1
  21 -25   4 6556.79 841.987   4
  -4  25   4 5658.78 523.442   3
   4  21   4 5718.98 480.564   3
 -20  -5  -6 6719.84 1085.12   2
  25 -20  -6 6728.98 1030.54   3
 -25   5  -6 5118.56 944.142   2
  20 -25  -6 6736.88 929.109   3
   5  20  -6 6897.23 856.006   1
  25 -20  -6 7365.56 1184.17   4
  25 -20  -6 10548.2 1617.22   2
  20 -25  -6 6790.59 1137.95   4
  20 -25  -6 7448.36 1361.25   2
 -25   5  -6 7365.46 1134.27   1
 -20  -5  -6 11495.5 1229.07   4
  -5  25  -6 7269.61 1031.64   1
  -5  25  -6 6518.32 1113.92   3
   5  20  -6 8498.72 1092.46   3
  25 -20  -3 17640.9 1357.07   3
 -25   5  -3 19528.8 1421.55   2
  25 -20  -3 18557.7 1697.82   2
  20 -25  -3 19569.1 1578.35   4
  20 -25  -3 14649.9 1406.08   2
 -25   5  -3 18232.5 1361.37   1
 -20  -5  -3 19960.1 1467.96   4
   5  20  -3 17694.2 1301.49   3
   5  20  -3 16572.7 1203.66   1
  -5  25  -3 16903.3 1321.51   1
 -20  -5  -3 17125.5 1501.25   2
  25 -20   0 6909.84 1063.20   3
 -20  -5   0 4780.35 903.158   2
   5  20   0 5422.61 828.232   1
  20 -25   0 7299.77 975.038   4
  20 -25   0 5555.00 727.732   2
  -5  25   0 6510.58 961.864   1
 -20  -5   0 6848.30 941.100   4
 -25   5   0 5958.39 651.015   1
   5  20   0 5768.22 722.398   3
  25 -20   3 9859.38 1164.44   3
  20 -25   3 12670.7 1074.22   4
  -5  25   3 11688.7 1283.17   1
  -5  25   3 13122.0 853.443   3
   5  20   3 12594.0 767.306   3
 -19  -6  -7 916.134 845.387   2
  25 -19  -7-421.722 677.229   3
 -25   6  -7 318.523 622.371   2
  19 -25  -7 213.751 576.511   3
  25 -19  -7 1248.43 801.122   4
  25 -19  -7 1670.36 1116.54   2
  19 -25  -7-1119.27 859.203   4
  19 -25  -7 595.026 987.854   2
 -25   6  -7 1273.49 856.624   1
 -19  -6  -7 789.793 704.318   4
  -6  25  -7 1639.80 870.901   3
   6  19  -7 947.168 765.337   3
  -6  25  -7 793.420 674.580   1
  25 -19  -4 9480.10 1169.98   3
 -25   6  -4 11380.3 1110.52   2
  19 -25  -4 14612.1 1447.29   4
  19 -25  -4 9612.48 1311.29   2
 -25   6  -4 10768.5 1168.50   1
 -19  -6  -4 13652.7 1316.86   4
  -6  25  -4 10847.1 1134.23   1
   6  19  -4 14410.9 1249.84   3
   6  19  -4 11847.6 984.865   1
 -19  -6  -4 10861.7 1243.96   2
  -6  25  -1 227.765 643.091   1
 -19  -6  -1 1014.06 608.073   2
  25 -19  -1 573.443 591.687   3
  19 -25  -1 759.276 596.513   4
   6  19  -1 472.371 499.478   1
  19 -25  -1 650.053 548.090   2
 -19  -6  -1 772.028 544.419   4
   6  19  -1-316.750 506.470   3
 -25   6  -1 136.233 433.860   1
  25 -19   2 1325.10 701.331   3
  19 -25   2 1640.56 611.767   4
 -19  -6   2 712.534 281.651   1
 -25   6   2 861.021 292.764   1
 -19  -6   2 615.658 524.873   4
  19 -25   2 742.560 193.564   2
   6  19   2 0.45071 373.361   3
  -6  25   2 1168.09 777.521   1
  19 -25   5 1670.90 530.166   4
  25 -18  -8 2515.56 917.995   3
 -25   7  -8 1804.84 761.650   2
  25 -18  -8 3634.33 1031.49   4
  25 -18  -8 2091.36 1335.65   2
  18 -25  -8 4111.57 1098.08   4
  18 -25  -8 1736.23 1132.55   2
 -18  -7  -8 3278.24 896.067   4
 -25   7  -8 2486.50 1060.22   1
  -7  25  -8 4388.85 1063.90   3
  -7  25  -8 3015.95 930.790   1
   7  18  -8 1665.39 867.473   3
 -18  -7  -8 3764.14 1120.59   2
 -18  -7  -5 5493.49 1023.89   2
  25 -18  -5 8761.05 1075.24   3
 -25   7  -5 6619.03 914.557   2
  18 -25  -5 9846.55 1249.84   4
  18 -25  -5 8919.56 1335.39   2
 -25   7  -5 10235.3 1235.65   1
 -18  -7  -5 7832.55 1044.00   4
  -7  25  -5 8850.85 1077.05   1
   7  18  -5 7427.77 800.124   1
   7  18  -5 10070.9 1134.56   3
 -18  -7  -2 1880.31 763.822   2
  25 -18  -2 3409.40 766.681   3
  18 -25  -2 4867.43 895.611   4
  18 -25  -2 2824.12 725.174   2
  -7  25  -2 3711.67 768.605   1
 -18  -7  -2 4976.56 848.803   4
 -25   7  -2 1600.56 568.030   1
   7  18  -2 3823.67 702.713   3
   7  18  -2 3364.42 623.849   1
 -18  -7   1 17877.9 1442.60   2
  25 -18   1 16106.1 1348.19   3
  18 -25   1 16803.8 1270.92   4
  -7  25   1 16937.3 1366.96   1
  18 -25   1 13931.0 820.584   2
 -18  -7   1 16232.3 1282.51   4
   7  18   1 14332.6 929.625   3
 -25   7   1 13665.1 795.915   1
  18 -25   4 4547.37 657.815   4
   7  18   4 3710.38 426.906   3
  25 -17  -9 7097.44 1203.08   3
  25 -17  -9 6917.59 1321.60   4
  -8  25  -9 9149.32 1278.69   1
  17 -25  -9 8188.72 1414.42   4
  25 -17  -9 6901.25 1684.67   2
  17 -25  -9 10151.2 1806.35   2
 -25   8  -9 8034.44 1478.36   1
 -17  -8  -9 10079.7 1324.28   4
  -8  25  -9 12133.9 1616.76   3
   8  17  -9 9193.56 1307.48   3
 -17  -8  -9 8943.62 1474.60   2
  25 -17  -6 293.244 647.509   3
 -25   8  -6 332.409 569.529   2
  17 -25  -6 1326.30 804.992   4
  17 -25  -6 371.761 882.528   2
 -17  -8  -6-979.368 690.318   4
 -25   8  -6 425.998 712.482   1
   8  17  -6-174.463 666.134   3
   8  17  -6 782.403 496.113   1
  -8  25  -6 800.775 681.646   1
 -17  -8  -6-446.293 742.185   2
  25 -17  -3 35426.0 1857.90   3
 -25   8  -3 37317.0 1762.63   2
  17 -25  -3 40595.8 2138.72   4
  17 -25  -3 35128.6 1989.80   2
   8  17  -3 37262.7 1522.69   1
 -17  -8  -3 40337.1 2018.09   4
 -25   8  -3 38181.7 1791.20   1
  -8  25  -3 41124.5 1955.22   1
   8  17  -3 41460.9 1842.57   3
 -17  -8  -3 39945.9 2142.34   2
 -25   8   0 1511.67 473.191   1
  -8  25   0 2166.68 732.639   1
  25 -17   0 1197.04 629.195   3
 -17  -8   0 2648.87 787.111   2
  17 -25   0 1942.06 653.606   4
  17 -25   0 1259.73 497.045   2
 -17  -8   0 1355.97 582.141   4
   8  17   0 1989.12 539.106   3
 -25   8   3 12793.0 566.696   1
  -8  25   3 16594.0 1437.73   1
  25 -17   3 17608.4 1410.88   3
  17 -25   3 15574.7 1092.14   4
 -17  -8   3 15763.3 1201.82   4
   8  17   3 16791.3 865.820   3
  25 -16  -7-225.513 742.141   3
 -25   9  -7 1421.83 608.781   2
  25 -16  -7 2941.88 908.133   4
  25 -16  -7 2583.54 1117.58   2
  16 -25  -7 845.863 848.755   4
  16 -25  -7 1152.17 1013.55   2
 -16  -9  -7 2532.21 834.665   4
  -9  25  -7 2806.46 841.376   1
 -25   9  -7 827.053 875.534   1
   9  16  -7 1439.46 773.331   3
 -16  -9  -7 1794.83 915.170   2
  -9  25  -4 2770.34 751.688   1
 -16  -9  -4 3389.13 861.327   2
  25 -16  -4 2974.25 797.770   3
 -25   9  -4 1977.71 626.694   2
  16 -25  -4 3043.80 837.669   4
   9  16  -4 2434.53 534.637   1
  16 -25  -4 2567.90 857.149   2
 -16  -9  -4 3165.38 832.124   4
 -25   9  -4 3220.67 809.565   1
   9  16  -4 2326.31 709.845   3
 -16  -9  -1 784.716 636.917   2
  25 -16  -1 1427.51 674.206   3
  16 -25  -1 1562.49 681.955   4
  -9  25  -1 2127.21 705.116   1
  16 -25  -1 2507.14 660.673   2
 -16  -9  -1 640.584 548.990   4
   9  16  -1 848.093 542.909   3
 -25   9  -1 2607.39 603.970   1
  25 -16   2 9333.91 1095.26   3
 -16  -9   2 8623.13 1092.91   2
  16 -25   2 10047.2 946.235   4
 -25   9   2 7531.40 604.888   1
 -16  -9   2 8467.70 919.384   4
  -9  25   2 9038.72 1094.18   1
  16 -25   2 7065.48 485.661   2
   9  16   2 8112.66 699.679   3
  -9  25   5 4775.92 983.839   1
  16 -25   5 3817.01 565.687   4
  25 -15  -8 2992.70 915.491   3
  25 -15  -8 3575.50 1007.50   4
  25 -15  -8 2780.57 1182.51   2
  15 -25  -8 2791.21 1060.71   4
  15 -25  -8 3565.43 1242.45   2
 -15 -10  -8 3271.36 868.836   4
 -10  25  -8 3975.81 976.821   1
 -25  10  -8 3732.22 1055.02   1
  10  15  -8 4051.46 988.062   3
 -15 -10  -8 3077.21 1050.95   2
  25 -15  -5 15879.3 1363.31   3
 -25  10  -5 12674.4 1053.63   2
  15 -25  -5 13550.5 1404.19   4
  10  15  -5 14226.6 856.319   1
 -10  25  -5 15933.0 1364.81   1
  15 -25  -5 12790.6 1539.70   2
 -25  10  -5 14675.3 1408.97   1
  10  15  -5 14326.6 1266.48   3
 -15 -10  -5 12489.8 1356.73   2
  25 -15  -2 9960.88 1103.31   3
  15 -25  -2 10756.7 1211.23   4
  15 -25  -2 11630.6 1140.44   2
 -15 -10  -2 13604.9 1214.56   4
 -25  10  -2 13355.8 1093.13   1
 -10  25  -2 11753.6 1193.53   1
  10  15  -2 12442.9 1024.84   3
 -15 -10  -2 11806.4 1256.70   2
 -15 -10   1 7626.26 1000.30   2
 -25  10   1 6781.62 668.134   1
  25 -15   1 5571.93 954.004   3
  15 -25   1 5771.24 858.834   4
 -10  25   1 7039.08 937.826   1
 -15 -10   1 7057.52 897.308   4
  15 -25   1 7577.96 667.899   2
  10  15   1 8275.23 759.825   3
  25 -15   4 11648.6 1232.48   3
  15 -25   4 10747.7 853.523   4
 -10  25   4 12614.5 1270.20   1
 -15 -10   4 10457.3 1004.89   4
  10  15   4 11312.2 700.792   3
  25 -14  -9 10607.5 1376.39   3
 -11  25  -9 13600.0 1509.09   1
  25 -14  -9 13292.8 1982.99   2
  25 -14  -9 11536.6 1524.14   4
  14 -25  -9 10224.4 1856.68   2
 -14 -11  -9 12645.3 1493.32   4
 -25  11  -9 8652.62 1512.45   1
 -14 -11  -9 10691.3 1583.24   2
  11  14  -9 14993.2 1491.80   3
  14 -25  -9 14593.6 1675.58   4
  25 -14  -6 4335.95 872.215   3
 -25  11  -6 1918.16 581.866   2
 -11  25  -6 6137.26 989.836   1
  14 -25  -6 5138.63 1033.41   4
  14 -25  -6 2471.07 1015.73   2
 -25  11  -6 6230.17 1084.93   1
 -14 -11  -6 4390.54 942.971   4
  11  14  -6 2041.23 816.163   3
 -14 -11  -6 3348.37 956.762   2
  25 -14  -3 14273.5 1247.38   3
  14 -25  -3 15171.9 1394.32   4
  14 -25  -3 12553.3 1295.80   2
 -14 -11  -3 13783.3 1243.91   4
 -11  25  -3 12979.2 1216.11   1
 -25  11  -3 17164.2 1260.46   1
  11  14  -3 14140.6 1145.41   3
 -14 -11  -3 14115.1 1349.95   2
 -11  25   0 8443.77 1001.15   1
 -14 -11   0 8215.64 1049.25   2
  25 -14   0 8235.23 1057.49   3
  14 -25   0 8518.26 947.132   4
 -14 -11   0 11672.8 1111.11   4
  14 -25   0 8299.99 811.671   2
  11  14   0 8990.11 822.659   3
 -25  11   0 9686.58 823.594   1
  14 -25   3 5174.78 712.748   4
 -14 -11   3 5493.77 812.796   4
 -11  25   3 5913.04 985.655   1
 -25  11   3 6358.71 588.622   1
  11  14   3 6275.76 614.671   3
  25 -13  -7 3124.20 841.703   3
  13 -25  -7 4478.89 1057.70   4
 -12  25  -7 3972.46 913.567   1
 -13 -12  -7 3730.58 970.084   4
  13 -25  -7 3463.62 1164.71   2
 -25  12  -7 4828.99 1073.53   1
  12  13  -7 3380.69 848.084   3
 -13 -12  -7 2395.45 1026.75   2
  25 -13  -4 3238.21 851.232   3
  13 -25  -4 4198.86 934.742   4
 -12  25  -4 5961.35 929.042   1
 -13 -12  -4 4431.47 900.754   4
  13 -25  -4 3054.14 858.578   2
 -25  12  -4 5163.52 893.313   1
  12  13  -4 3910.33 794.981   3
 -13 -12  -4 3510.58 823.334   2
  25 -13  -1 10490.4 1123.39   3
  13 -25  -1 12756.1 1164.28   4
 -13 -12  -1 14402.8 1204.38   4
  13 -25  -1 12406.7 1059.44   2
 -12  25  -1 11991.9 1134.62   1
  12  13  -1 10600.7 948.418   3
 -25  12  -1 13871.3 1028.28   1
 -13 -12  -1 9148.72 1090.34   2
  25 -13   2 9607.61 1078.04   3
 -13 -12   2 9789.28 1145.01   2
  13 -25   2 11506.8 953.340   4
 -12  25   2 8426.17 1079.95   1
 -25  12   2 8678.45 731.844   1
 -13 -12   2 9097.45 951.485   4
  13 -25   2 9416.12 651.233   2
  12  13   2 10076.7 780.860   3
 -12  25   5 270.028 694.762   1
  12  13   5 1561.19 375.578   3
  25 -13   5 2512.54 858.219   3
  13 -25   5 1223.28 376.634   4
  25 -12  -8 316.778 697.235   3
  12 -25  -8 2866.93 1016.21   4
 -13  25  -8 1391.24 796.202   1
 -12 -13  -8 1935.01 787.983   4
  12 -25  -8 715.268 1076.53   2
 -25  13  -8 2371.41 935.169   1
  13  12  -8 3211.76 914.002   3
 -12 -13  -8 1215.90 925.365   2
  25 -12  -5 314.229 625.719   3
  12 -25  -5 739.119 819.128   4
 -12 -13  -5 2474.27 777.150   4
  12 -25  -5 966.742 830.366   2
 -13  25  -5 2183.90 756.701   1
  13  12  -5 1874.67 706.199   3
 -25  13  -5 1917.70 769.625   1
 -12 -13  -5 2832.59 929.581   2
  25 -12  -2 9565.64 1074.57   3
  12 -25  -2 10263.3 1099.28   4
 -12 -13  -2 11735.1 1131.97   4
  12 -25  -2 9270.21 1049.19   2
 -13  25  -2 9152.94 1050.54   1
 -25  13  -2 10501.6 1030.00   1
  13  12  -2 8262.53 904.256   3
 -12 -13  -2 9403.02 1197.43   2
 -12 -13   1 9850.72 1113.91   2
  25 -12   1 10440.9 1097.44   3
 -13  25   1 10142.0 1102.12   1
 -25  13   1 11410.1 876.584   1
  12 -25   1 9523.35 932.799   4
 -12 -13   1 10002.0 1021.10   4
  12 -25   1 10401.0 811.406   2
  13  12   1 9698.63 814.100   3
 -13  25   4 3825.68 868.178   1
  25 -12   4 3842.37 913.204   3
  12 -25   4 4046.68 592.203   4
 -25  13   4 3744.17 548.792   1
 -12 -13   4 4424.83 720.962   4
  13  12   4 4010.16 553.778   3
 -14  25  -9 8865.70 1348.41   1
  25 -11  -9 9537.38 1356.73   4
  11 -25  -9 12112.5 1497.53   4
 -11 -14  -9 9092.95 1361.26   4
  11 -25  -9 6348.79 1498.83   2
 -25  14  -9 8493.37 1465.68   1
  14  11  -9 10662.5 1302.66   3
 -11 -14  -9 6370.39 1391.81   2
  25 -11  -9 6721.78 1130.89   3
 -14  25  -6 8486.36 1120.04   1
  11 -25  -6 9731.59 1269.73   4
 -11 -14  -6 10674.6 1240.03   4
  11 -25  -6 9886.31 1432.29   2
 -25  14  -6 8046.21 1176.42   1
 -11 -14  -6 9135.11 1336.47   2
  14  11  -6 11810.7 1213.42   3
  25 -11  -6 11668.1 1223.04   3
  25 -11  -3 5832.34 908.159   3
  11 -25  -3 6895.41 1034.10   4
 -14  25  -3 9220.15 1082.31   1
 -11 -14  -3 7880.70 1055.99   4
  11 -25  -3 5351.84 935.169   2
 -25  14  -3 6088.52 912.289   1
  14  11  -3 8687.98 929.274   3
 -11 -14  -3 7000.49 1048.15   2
  25 -11   0 8058.94 938.867   3
 -25  14   0 8620.06 844.519   1
  11 -25   0 7782.09 913.188   4
 -11 -14   0 8539.14 950.783   4
  11 -25   0 7829.84 842.755   2
 -14  25   0 10115.0 1074.65   1
  14  11   0 8401.50 808.812   3
 -11 -14   0 6852.81 944.281   2
  11 -25   3 11613.6 626.268   2
  25 -11   3 13146.2 1239.84   3
 -11 -14   3 14841.4 1335.29   2
  11 -25   3 13646.6 975.643   4
 -11 -14   3 12884.9 1034.87   4
 -14  25   3 11081.0 1228.04   1
 -25  14   3 12636.0 879.709   1
  14  11   3 12673.8 850.855   3
 -14  25   6 1443.51 772.321   1
 -15  25  -7 10017.8 1257.08   1
  10 -25  -7 12602.4 1502.93   4
 -10 -15  -7 11465.6 1307.80   4
  10 -25  -7 12790.7 1645.96   2
 -25  15  -7 9496.67 1315.35   1
 -10 -15  -7 10548.5 1473.93   2
  15  10  -7 10877.0 1228.50   3
  25 -10  -7 12521.3 1297.02   3
 -15  25  -4 10145.6 1168.25   1
  10 -25  -4 11710.0 1251.78   4
 -10 -15  -4 11674.9 1201.45   4
  10 -25  -4 8567.28 1216.46   2
 -25  15  -4 12213.1 1165.10   1
 -10 -15  -4 8635.64 1213.21   2
  15  10  -4 8801.90 999.152   3
  25 -10  -4 8081.96 1076.47   3
  25 -10  -1 6629.87 957.127   3
  10 -25  -1 7219.36 936.216   4
 -10 -15  -1 6847.06 904.878   4
  10 -25  -1 7094.43 880.224   2
 -15  25  -1 4252.25 875.011   1
  15  10  -1 7700.25 860.134   3
 -10 -15  -1 6353.16 1003.95   2
 -25  15  -1 6003.52 794.048   1
 -10 -15   2 10408.2 1146.07   2
  25 -10   2 10010.0 1103.04   3
 -15  25   2 10569.1 1106.72   1
  10 -25   2 10550.2 909.949   4
 -10 -15   2 10156.5 988.582   4
 -25  15   2 11130.8 903.348   1
  10 -25   2 12260.5 828.513   2
  15  10   2 10797.5 868.569   3
  15  10   5 14732.5 913.931   3
  25 -10   5 15900.1 1348.61   3
 -25  15   5 14672.8 952.118   1
 -15  25   5 13806.7 1370.73   1
  10 -25   5 14044.0 816.890   4
 -10 -15   5 18030.8 1140.71   4
  25  -9  -8 803.196 787.643   3
 -16  25  -8 1191.70 823.065   1
   9 -25  -8 1052.07 823.131   4
  -9 -16  -8-255.306 695.593   4
   9 -25  -8 2171.45 1196.86   2
  -9 -16  -8 1348.13 932.719   2
  16   9  -8 1901.16 828.974   3
 -25  16  -8 1338.36 905.082   1
  25  -9  -5 1549.17 726.991   3
   9 -25  -5 3180.67 857.168   4
  -9 -16  -5 4505.85 936.244   4
 -16  25  -5 3840.95 881.644   1
   9 -25  -5 3600.27 1012.47   2
  16   9  -5 4502.51 853.016   3
  -9 -16  -5 3364.28 1000.09   2
 -25  16  -5 5172.08 988.738   1
  25  -9  -2 8944.34 1052.26   3
   9 -25  -2 8636.56 1029.55   4
 -16  25  -2 7201.83 967.984   1
  -9 -16  -2 9429.98 1051.19   4
   9 -25  -2 8622.44 1044.77   2
  16   9  -2 8547.22 930.519   3
  -9 -16  -2 9240.44 1144.54   2
 -25  16  -2 11063.3 1059.59   1
  25  -9   1 721.519 617.979   3
  -9 -16   1 2035.62 762.195   2
   9 -25   1 1884.61 618.206   4
  -9 -16   1 959.285 577.177   4
 -16  25   1 1751.87 684.634   1
 -25  16   1 1444.96 535.114   1
   9 -25   1 1428.04 473.550   2
  16   9   1 773.036 486.218   3
  16   9   4 1434.35 466.983   3
  25  -9   4 2656.29 760.076   3
 -25  16   4 2874.37 595.653   1
   9 -25   4 2147.72 483.687   4
 -16  25   4 2075.82 845.133   1
  -9 -16   4 1791.07 546.665   4
 -17  25  -9 7072.91 1320.68   1
   8 -25  -9 7126.25 1346.21   4
  -8 -17  -9 8405.82 1277.57   4
   8 -25  -9 4528.78 1468.48   2
  -8 -17  -9 8821.34 1568.32   2
  17   8  -9 7568.56 1240.50   3
 -25  17  -9 6407.32 1337.32   1
  25  -8  -9 6626.41 1127.39   3
  25  -8  -6 2655.80 824.724   3
   8 -25  -6 3716.08 1005.94   4
 -17  25  -6 3029.52 979.018   1
  -8 -17  -6 2900.01 848.498   4
   8 -25  -6 2964.30 1094.22   2
  17   8  -6 5335.81 971.999   3
  -8 -17  -6 2143.95 894.797   2
 -25  17  -6 4342.35 983.092   1
 -17  25  -3 13733.3 1285.29   1
   8 -25  -3 13128.4 1296.34   4
  -8 -17  -3 14720.3 1326.25   4
   8 -25  -3 17046.5 1491.27   2
  -8 -17  -3 13830.3 1374.95   2
  17   8  -3 12315.5 1152.33   3
 -25  17  -3 15931.8 1291.57   1
  25  -8  -3 14382.0 1288.35   3
  -8 -17   0 2753.23 806.773   2
  25  -8   0 2236.95 718.670   3
 -17  25   0 2711.93 741.718   1
   8 -25   0 1424.85 612.621   4
 -25  17   0 2449.59 611.318   1
  -8 -17   0 1241.45 640.971   4
   8 -25   0 1498.19 521.130   2
  17   8   0 2598.81 588.955   3
   8 -25   3 31287.7 1294.36   2
  25  -8   3 35964.1 1876.44   3
  -8 -17   3 37098.5 1952.95   2
   8 -25   3 38745.5 1573.36   4
 -17  25   3 31763.5 1796.77   1
  -8 -17   3 35674.8 1606.13   4
 -25  17   3 34378.2 1546.58   1
  17   8   3 35719.8 1444.02   3
  25  -8   6 729.396 726.076   3
 -17  25   6 1490.57 750.560   1
  25  -7  -7 5581.99 1014.59   3
 -18  25  -7 8341.88 1234.28   1
   7 -25  -7 7420.25 1285.85   4
  -7 -18  -7 6487.47 1108.98   4
   7 -25  -7 5110.04 1307.50   2
 -25  18  -7 7674.88 1224.80   1
  -7 -18  -7 5866.06 1284.05   2
  18   7  -7 8123.71 1129.71   3
 -25  18  -4 3436.41 840.379   1
   7 -25  -4 3732.17 831.267   4
  -7 -18  -4 2771.85 802.775   4
 -18  25  -4 4224.86 878.247   1
   7 -25  -4 3523.54 939.024   2
  -7 -18  -4 2119.90 794.744   2
  18   7  -4 3958.11 794.266   3
  25  -7  -4 4773.79 922.630   3
  25  -7  -1 14193.9 1224.63   3
 -25  18  -1 15234.0 1196.83   1
   7 -25  -1 14775.0 1251.56   4
  -7 -18  -1 14603.9 1260.10   4
 -18  25  -1 12555.1 1214.93   1
   7 -25  -1 15341.2 1247.33   2
  18   7  -1 14694.5 1173.22   3
  -7 -18  -1 13314.2 1264.13   2
  25  -7   2 5183.58 861.656   3
 -25  18   2 2681.00 663.902   1
  -7 -18   2 3294.73 774.512   2
   7 -25   2 4717.71 712.379   4
  -7 -18   2 5390.55 772.223   4
 -18  25   2 3061.59 816.444   1
   7 -25   2 4694.25 716.218   2
  18   7   2 4862.00 731.607   3
  18   7   5 6364.46 756.638   3
  25  -7   5 7638.33 1034.39   3
 -18  25   5 9718.14 1204.16   1
   7 -25   5 8351.07 701.650   4
  -7 -18   5 9691.86 872.021   4
 -25  18   5 7260.53 843.573   1
  25  -6  -8 3873.04 1011.75   3
 -25  19  -8 6062.29 1189.00   1
 -19  25  -8 6778.45 1215.54   1
   6 -25  -8 3922.63 1052.17   4
  -6 -19  -8 7366.92 1190.40   4
   6 -25  -8 3919.15 1316.67   2
  -6 -19  -8 4071.33 1247.43   2
  19   6  -8 5758.01 1132.54   3
  25  -6  -5 2466.26 868.329   3
 -25  19  -5 1486.25 809.782   1
   6 -25  -5 3347.14 960.896   4
 -19  25  -5 4735.16 926.194   1
  -6 -19  -5 2383.82 871.987   4
   6 -25  -5 2617.75 963.105   2
  -6 -19  -5 1824.44 865.816   2
  19   6  -5 2181.33 773.022   3
  25  -6  -2 885.783 657.065   3
 -25  19  -2 599.651 589.063   1
   6 -25  -2 2240.31 735.963   4
  -6 -19  -2 1169.07 599.005   4
 -19  25  -2 1943.85 759.465   1
   6 -25  -2 863.024 649.193   2
  19   6  -2 477.358 549.586   3
  -6 -19  -2 1082.57 787.741   2
  19   6   1-691.673 492.293   3
  25  -6   1 725.315 623.803   3
  -6 -19   1 817.387 645.929   2
 -19  25   1 1271.54 651.140   1
   6 -25   1 1513.79 620.975   4
  -6 -19   1 412.164 486.123   4
 -25  19   1 746.857 508.005   1
   6 -25   1 1212.63 555.544   2
  19   6   4 10652.4 949.492   3
  25  -6   4 10641.0 1151.96   3
 -25  19   4 9452.40 980.297   1
   6 -25   4 11384.9 858.428   4
  -6 -19   4 11366.7 939.710   4
 -19  25   4 10795.8 1184.99   1
 -20  25  -6 8531.68 1177.22   1
 -25  20  -6 4521.38 1028.53   1
   5 -25  -6 8365.36 1241.32   4
  -5 -20  -6 6865.59 1108.31   4
   5 -25  -6 6367.32 1265.64   2
  -5 -20  -6 6707.22 1249.99   2
  20   5  -6 6464.97 1035.46   3
  25  -5  -6 6661.67 1092.51   3
 -25  20  -3 15082.7 1279.24   1
 -20  25  -3 10600.3 1197.00   1
   5 -25  -3 15706.0 1454.94   4
  -5 -20  -3 13716.3 1298.47   4
   5 -25  -3 11742.6 1284.48   2
  -5 -20  -3 9789.64 1228.85   2
  20   5  -3 13923.3 1215.14   3
  25  -5  -3 12036.9 1235.48   3
  25  -5   0 5806.94 895.524   3
 -25  20   0 6598.12 860.225   1
   5 -25   0 6722.80 876.284   4
  -5 -20   0 7773.56 956.179   4
 -20  25   0 6386.86 946.846   1
   5 -25   0 6678.75 890.542   2
  -5 -20   0 6925.90 992.619   2
  20   5   0 7280.37 897.864   3
 -25  20   3 18244.6 1282.88   1
  20   5   3 16279.4 1146.51   3
   5 -25   3 17312.5 1128.57   2
  25  -5   3 15531.0 1286.64   3
  -5 -20   3 18325.6 1463.96   2
 -20  25   3 17449.1 1378.85   1
   5 -25   3 17508.5 1143.39   4
  -5 -20   3 17557.1 1173.22   4
  20   5   6 5990.15 788.926   3
  25  -5   6 7190.63 1014.32   3
 -25  20   6 4453.54 841.947   1
  -5 -20   6 6333.62 728.213   4
 -20  25   6 5917.07 1101.01   1
 -21  25  -7 6752.19 1148.92   1
   4 -25  -7 7143.81 1261.66   4
  -4 -21  -7 4562.53 1081.24   4
   4 -25  -7 7393.21 1389.31   2
  -4 -21  -7 4919.67 1234.04   2
 -25  21  -7 6608.06 1220.26   1
  21   4  -7 6480.05 1069.06   3
  25  -4  -7 4523.32 1018.72   3
 -21  25  -4 5980.25 1063.71   1
   4 -25  -4 7547.88 1147.37   4
  -4 -21  -4 7704.95 1128.16   4
   4 -25  -4 7422.93 1322.39   2
  -4 -21  -4 5249.54 1052.79   2
  21   4  -4 7704.00 1040.68   3
  25  -4  -4 7977.18 1083.96   3
 -25  21  -4 6848.63 1070.56   1
 -25  21  -1 12969.0 1154.02   1
   4 -25  -1 12517.6 1214.49   4
  -4 -21  -1 14870.7 1247.80   4
 -21  25  -1 10886.8 1171.01   1
   4 -25  -1 10282.0 1103.40   2
  -4 -21  -1 10814.2 1186.61   2
  21   4  -1 12268.6 1108.80   3
  25  -4  -1 10918.8 1121.91   3
 -21  25   2 5529.72 918.670   1
  -4 -21   2 5153.06 859.587   2
  25  -4   2 5447.80 860.343   3
   4 -25   2 5571.56 771.111   4
  -4 -21   2 6484.58 809.512   4
 -25  21   2 4698.60 796.151   1
   4 -25   2 5747.72 816.879   2
  21   4   2 5821.88 814.651   3
 -21  25   5 9251.63 1179.62   1
  21   4   5 7757.59 935.524   3
  25  -4   5 10469.2 1134.53   3
   4 -25   5 8411.12 731.906   4
  -4 -21   5 9873.71 831.768   4
 -25  21   5 8306.34 1001.66   1
 -25  22  -8 5627.54 1227.94   1
 -22  25  -8 5028.90 1172.38   1
   3 -25  -8 4985.16 1125.52   4
  -3 -22  -8 5507.11 1199.94   4
   3 -25  -8 3420.00 1263.35   2
  -3 -22  -8 3641.67 1253.15   2
  22   3  -8 4723.39 1083.66   3
  25  -3  -8 5549.80 1102.71   3
  25  -3  -5 2705.05 821.741   3
 -25  22  -5 3565.34 952.891   1
 -22  25  -5 2135.56 845.985   1
   3 -25  -5 2467.35 835.362   4
  -3 -22  -5 3527.10 913.140   4
   3 -25  -5 3225.84 1038.71   2
  -3 -22  -5 2447.98 1010.92   2
  22   3  -5 3055.06 866.782   3
  25  -3  -2 3137.12 807.043   3
   3 -25  -2 3219.62 844.355   4
  -3 -22  -2 4501.58 875.396   4
 -25  22  -2 3799.01 796.379   1
 -22  25  -2 4224.52 850.567   1
  -3 -22  -2 5466.15 966.804   2
   3 -25  -2 3543.71 906.562   2
  22   3  -2 4501.13 850.365   3
  22   3   1 4055.53 731.041   3
   3 -25   1 4161.47 760.883   2
 -25  22   1 4625.56 774.074   1
  25  -3   1 4910.84 835.534   3
   3 -25   1 4380.79 764.261   4
  -3 -22   1 5121.03 829.956   4
 -22  25   1 5038.52 910.324   1
  -3 -22   1 5100.36 893.583   2
  25  -3   4 5370.00 902.987   3
  22   3   4 4222.89 738.709   3
  -3 -22   4 4627.38 904.569   2
 -25  22   4 4310.59 827.882   1
   3 -25   4 3167.88 598.532   4
  -3 -22   4 5487.64 729.924   4
 -22  25   4 4615.75 905.545   1
  25  -3   7 872.409 718.945   3
 -23  25  -6 6741.73 1159.88   1
 -25  23  -6 5687.01 1102.89   1
  -2 -23  -6 5020.96 1123.14   4
   2 -25  -6 4669.08 1143.49   4
   2 -25  -6 3981.68 1120.40   2
  -2 -23  -6 3356.17 1122.53   2
  25  -2  -6 3856.47 957.601   3
 -25  23  -3 8277.19 1121.66   1
 -23  25  -3 6478.72 1062.40   1
   2 -25  -3 5572.00 986.594   4
  -2 -23  -3 8281.58 1127.26   4
   2 -25  -3 9135.66 1262.23   2
  -2 -23  -3 8862.05 1223.55   2
  23   2  -3 6761.94 1045.32   3
  25  -2  -3 6459.02 1020.21   3
  23   2   0 3459.25 833.761   3
  -2 -23   0 3305.60 817.141   2
 -23  25   0 4220.14 859.336   1
  25  -2   0 2931.20 775.455   3
  -2 -23   0 5799.86 878.214   4
   2 -25   0 3880.14 813.407   4
 -25  23   0 4486.76 808.961   1
   2 -25   0 3403.42 774.539   2
  23   2   3 9908.35 1036.89   3
  25  -2   3 10663.1 1098.25   3
   2 -25   3 10072.5 1053.60   2
  -2 -23   3 10603.7 1151.05   2
 -25  23   3 10253.7 1119.88   1
 -23  25   3 9831.23 1101.76   1
   2 -25   3 9888.82 936.438   4
  -2 -23   3 12280.5 1041.18   4
  23   2   6 844.152 677.391   3
  25  -2   6 1002.07 694.195   3
 -23  25   6 441.226 739.997   1
 -25  23   6-286.674 670.384   1
 -25  24  -7 1677.41 934.022   1
 -24  25  -7 1450.74 872.433   1
   1 -25  -7-76.1226 785.993   4
  -1 -24  -7 2804.69 1026.68   4
   1 -25  -7 1037.14 964.456   2
  -1 -24  -7 1951.65 1136.82   2
  24   1  -7 623.584 741.302   3
  25  -1  -7 2397.32 859.880   3
  25  -1  -4 1603.02 732.573   3
 -25  24  -4 4450.01 993.023   1
 -24  25  -4 3166.99 909.887   1
   1 -25  -4 4785.63 986.353   4
  -1 -24  -4 5189.22 1016.24   4
   1 -25  -4 2912.47 995.314   2
  -1 -24  -4 4408.06 1026.85   2
  24   1  -4 4635.06 951.422   3
 -25  24  -1 8102.55 1078.34   1
 -24  25  -1 6260.75 1022.21   1
   1 -25  -1 7730.84 1061.03   4
  -1 -24  -1 8562.13 1068.07   4
   1 -25  -1 6303.77 992.114   2
  -1 -24  -1 9284.62 1117.21   2
  24   1  -1 8049.77 1054.14   3
  25  -1  -1 7010.63 988.762   3
   1 -25   2 11789.8 1160.01   2
  24   1   2 11942.6 1125.94   3
  -1 -24   2 10408.5 1130.20   2
  25  -1   2 9643.09 1069.98   3
   1 -25   2 11664.1 1058.52   4
  -1 -24   2 10948.9 1039.55   4
 -25  24   2 10687.1 1128.37   1
 -24  25   2 9641.73 1106.34   1
  24   1   5 2617.77 746.818   3
  25  -1   5 4083.80 872.491   3
   1 -25   5 4675.27 631.826   4
  -1 -24   5 4274.13 655.095   4
 -25  24   5 3872.04 937.128   1
 -24  25   5 2885.25 847.604   1
 -25  25  -5-206.281 801.759   1
   0 -25  -5 367.417 732.435   4
   0 -25  -5 539.152 972.622   2
  25   0  -5 143.014 737.781   3
 -25  25  -2 6366.85 1037.35   1
   0 -25  -2 7145.79 1064.25   4
   0 -25  -2 6479.09 1050.99   2
  25   0  -2 5222.19 970.390   3
  25   0   1 438.098 578.026   3
   0 -25   1-815.286 698.759   2
 -25  25   1 1170.06 740.207   1
   0 -25   1 709.345 589.686   4
  25   0   4 5530.79 895.065   3
   0 -25   4 3909.22 821.730   2
   0 -25   4 6250.27 795.567   4
 -25  25   4 4663.56 934.649   1
   0  26  -5-830.695 759.638   1
 -26   0  -5-320.271 707.460   2
  26 -26  -5-863.020 753.313   3
  26 -26  -5-492.617 860.874   4
  26 -26  -5 702.864 1010.11   2
 -26   0  -5 157.457 759.517   1
 -26   0  -5 1061.87 746.060   4
   0  26  -5 644.092 762.101   3
 -26   0  -2 15806.2 1512.91   2
  26 -26  -2 20297.4 1592.79   3
  26 -26  -2 20645.3 1764.72   4
  26 -26  -2 17754.5 1597.79   2
 -26   0  -2 19918.1 1362.41   1
 -26   0  -2 21253.2 1660.83   4
   0  26  -2 20154.1 1464.76   3
   0  26  -2 19567.7 1554.20   1
   0  26   1-75.1924 775.875   1
  26 -26   1-33.1321 726.331   4
   0  26   1 562.380 493.520   3
  26 -26   4 3649.09 796.641   4
 -25  -1  -6 2623.15 953.985   2
 -26   1  -6 1821.38 884.921   2
  26 -25  -6 1911.50 875.986   3
  25 -26  -6 1024.16 813.037   3
  26 -25  -6 2707.60 1051.21   4
  25 -26  -6 3151.78 1065.25   4
  26 -25  -6 1728.32 1138.78   2
  25 -26  -6 3676.30 1283.35   2
 -25  -1  -6 2257.41 958.198   1
 -26   1  -6 1732.59 882.232   1
  -1  26  -6 2076.23 798.475   1
 -25  -1  -6 4856.38 997.317   4
 -26   1  -6 1131.75 887.063   4
  -1  26  -6 2460.85 953.002   3
   1  25  -6 1570.54 884.921   3
   1  25  -6 3398.28 900.204   1
 -25  -1  -3 16491.2 1507.25   2
 -26   1  -3 16943.9 1502.31   2
  26 -25  -3 17452.8 1477.23   3
  25 -26  -3 15081.0 1407.34   3
  26 -25  -3 19990.0 1749.36   4
  25 -26  -3 15312.7 1629.27   4
  26 -25  -3 14334.5 1573.62   2
 -25  -1  -3 15662.3 1329.47   1
  25 -26  -3 15991.5 1613.22   2
 -26   1  -3 17816.3 1380.48   1
  -1  26  -3 16918.7 1389.95   1
   1  25  -3 16574.0 1386.74   1
 -25  -1  -3 17581.1 1553.05   4
 -26   1  -3 16068.6 1426.97   4
  -1  26  -3 20065.7 1508.62   3
   1  25  -3 17563.4 1417.37   3
  -1  26   0 2477.39 797.013   1
  26 -25   0 1838.46 801.200   3
  26 -25   0 1301.39 768.694   4
  25 -26   0 1258.48 823.922   4
  26 -25   0 722.444 576.978   2
  25 -26   0 3056.94 714.705   2
   1  25   0 1341.81 775.382   1
 -25  -1   0 1676.46 502.423   1
  -1  26   0 1549.41 629.269   3
   1  25   0 2282.14 628.061   3
 -26   1   0 2126.33 521.705   1
  26 -25   3 13561.6 1298.05   4
  25 -26   3 10421.6 1125.98   4
  -1  26   3 12178.0 853.827   3
   1  25   3 10202.1 776.536   3
 -24  -2  -7-175.604 786.793   2
 -26   2  -7 1913.45 889.889   2
  26 -24  -7 394.225 751.692   3
  24 -26  -7-143.797 741.030   3
  24 -26  -7 1038.00 880.792   4
  -2  26  -7 746.731 763.619   1
  26 -24  -7 3593.94 1321.39   2
 -24  -2  -7 299.818 890.731   1
  24 -26  -7 3058.22 1417.84   2
 -26   2  -7 614.699 924.978   1
 -24  -2  -7 966.178 781.161   4
 -26   2  -7 1010.21 841.243   4
  26 -24  -7-303.452 867.145   4
  -2  26  -7 886.528 841.934   3
   2  24  -7 100.099 769.650   3
   2  24  -7 356.535 696.002   1
 -24  -2  -4 4539.60 984.774   2
 -26   2  -4 4111.76 943.488   2
  26 -24  -4 4673.66 1002.83   3
  24 -26  -4 4545.61 870.776   3
  26 -24  -4 6195.21 1151.54   4
 -24  -2  -4 6198.77 1055.78   1
  24 -26  -4 5599.53 1136.03   4
  26 -24  -4 4104.88 1148.44   2
  24 -26  -4 4001.49 1105.72   2
   2  24  -4 4618.15 843.932   1
 -26   2  -4 4398.79 931.409   1
 -24  -2  -4 4599.67 1022.72   4
 -26   2  -4 5895.11 1013.82   4
  -2  26  -4 6499.12 1033.51   3
   2  24  -4 4873.20 893.776   3
  -2  26  -4 4090.64 899.142   1
  -2  26  -1 2635.57 791.171   1
   2  24  -1 2936.08 801.812   1
 -24  -2  -1 2795.81 858.306   2
  26 -24  -1 3244.56 863.447   3
  26 -24  -1 2617.80 871.395   4
  24 -26  -1 3752.99 956.925   4
  26 -24  -1 2972.94 819.606   2
  24 -26  -1 2588.06 758.642   2
 -24  -2  -1 2322.28 650.464   1
 -24  -2  -1 2676.56 805.862   4
 -26   2  -1 1846.33 564.766   1
  -2  26  -1 2246.62 642.959   3
   2  24  -1 3123.51 661.094   3
  24 -26   2 6397.06 970.724   4
  -2  26   2 6651.24 718.670   3
   2  24   2 7468.42 749.720   3
  -2  26   2 6304.95 1150.13   1
  24 -26   5 2054.25 673.495   4
 -23  -3  -5 3726.79 952.411   2
 -26   3  -5 1671.59 756.849   2
  26 -23  -5 747.361 804.235   3
  23 -26  -5 1575.36 762.768   3
  26 -23  -5 1332.63 863.195   4
   3  23  -5 1936.73 671.878   1
  23 -26  -5 1071.53 845.108   4
  26 -23  -5 2063.89 1083.26   2
 -23  -3  -5 2862.50 1019.22   1
  23 -26  -5 1738.19 1063.45   2
  -3  26  -5 1386.98 688.873   1
 -26   3  -5 2997.70 959.947   1
 -23  -3  -5 163.276 628.418   4
 -26   3  -5 1877.04 769.717   4
  -3  26  -5 2280.20 928.602   3
   3  23  -5 1142.94 690.071   3
 -23  -3  -2 24883.6 1770.58   2
  26 -23  -2 22661.7 1675.95   3
 -26   3  -2 22189.5 1652.20   2
  23 -26  -2 25749.7 1645.07   3
  26 -23  -2 28617.4 1926.89   4
  23 -26  -2 28565.5 1935.24   4
  26 -23  -2 22963.4 1740.53   2
 -23  -3  -2 26183.3 1544.21   1
  -3  26  -2 25687.5 1649.98   1
  23 -26  -2 23080.9 1676.10   2
 -26   3  -2 24904.9 1449.84   1
 -23  -3  -2 24694.5 1681.55   4
  -3  26  -2 26162.3 1640.75   3
   3  23  -2 24701.2 1523.64   3
   3  23  -2 26565.8 1603.07   1
 -26   3   1 2730.62 421.070   1
  -3  26   1 2640.41 810.066   1
  26 -23   1 3413.85 847.400   3
  23 -26   1 3348.22 821.620   4
  26 -23   1 2942.46 674.055   2
 -23  -3   1 3572.82 487.156   1
   3  23   1 2961.20 852.592   1
  23 -26   1 2092.75 510.458   2
  -3  26   1 3375.37 629.626   3
   3  23   1 2899.24 589.282   3
  23 -26   4 14073.2 1163.08   4
 -26   4  -6 13148.1 1356.42   2
  26 -22  -6 10824.9 1275.76   3
  22 -26  -6 12886.4 1212.04   3
 -22  -4  -6 13589.3 1586.18   1
  26 -22  -6 14577.6 1587.41   4
   4  22  -6 15383.8 1221.31   1
  26 -22  -6 12840.8 1785.91   2
  22 -26  -6 11978.8 1570.93   4
  22 -26  -6 12864.5 1722.65   2
 -26   4  -6 16817.3 1642.67   1
 -22  -4  -6 17154.6 1495.13   4
 -26   4  -6 13833.5 1367.33   4
  -4  26  -6 16207.0 1611.11   3
   4  22  -6 16997.0 1498.73   3
  -4  26  -6 16484.3 1497.97   1
 -22  -4  -6 14105.4 1528.27   2
  -4  26  -3 4979.70 899.259   1
 -26   4  -3 4549.29 907.071   2
 -22  -4  -3 2281.87 829.027   2
  26 -22  -3 4131.90 967.324   3
  22 -26  -3 4590.91 848.804   3
  22 -26  -3 4961.13 984.141   4
  26 -22  -3 5358.69 1053.34   2
 -26   4  -3 4681.96 867.582   1
  22 -26  -3 2042.49 880.164   2
   4  22  -3 4977.42 827.645   1
 -22  -4  -3 5179.18 982.029   4
  -4  26  -3 5484.16 932.144   3
   4  22  -3 5615.07 879.303   3
   4  22   0 7860.60 1001.77   1
 -22  -4   0 7266.39 1118.90   2
  26 -22   0 10054.1 1167.89   3
  26 -22   0 8665.23 1037.24   2
  22 -26   0 8519.49 1134.15   4
 -22  -4   0 7420.83 764.250   1
  22 -26   0 6958.27 852.877   2
 -22  -4   0 9168.92 1099.92   4
  -4  26   0 8395.26 944.615   3
 -26   4   0 7381.38 704.701   1
  -4  26   0 7642.22 1089.48   1
   4  22   0 9344.13 909.214   3
  22 -26   3 3941.08 781.141   4
  -4  26   3 4679.44 981.869   1
  -4  26   3 3405.04 553.400   3
   4  22   3 3522.74 514.646   3
 -21  -5  -7 4490.67 1128.74   2
  -5  26  -7 2208.14 800.714   1
  26 -21  -7 2205.12 974.646   3
 -26   5  -7 2507.61 876.276   2
  21 -26  -7 1235.93 683.856   3
  26 -21  -7 3726.04 1049.04   4
  21 -26  -7 3766.22 1052.58   4
  26 -21  -7 2564.22 1357.52   2
  21 -26  -7 3457.34 1255.58   2
 -26   5  -7 1677.47 938.614   1
 -21  -5  -7 2355.12 901.751   4
  -5  26  -7 5111.99 1159.07   3
   5  21  -7 1156.05 820.219   3
 -21  -5  -4 913.061 633.989   2
   5  21  -4 1285.67 618.538   1
  26 -21  -4 2102.65 762.369   3
 -26   5  -4 3542.39 853.168   2
  21 -26  -4 3993.86 763.396   3
  21 -26  -4 1026.31 796.630   4
  26 -21  -4 2932.86 1003.86   2
  -5  26  -4 2774.49 798.593   1
  21 -26  -4 865.228 783.839   2
 -21  -5  -4 1510.90 788.079   4
 -26   5  -4 1339.29 736.880   1
   5  21  -4 1771.48 723.772   3
  26 -21  -1 4881.41 967.694   3
 -21  -5  -1 3819.68 927.344   2
  -5  26  -1 4232.74 845.986   1
  21 -26  -1 4507.86 875.706   4
  21 -26  -1 3299.92 745.007   2
 -26   5  -1 5266.07 710.501   1
 -21  -5  -1 4663.49 889.910   4
   5  21  -1 4425.13 727.174   3
   5  21  -1 3194.26 736.546   1
  -5  26   2 1018.67 702.908   1
  26 -21   2 358.680 631.834   3
  21 -26   2 272.340 550.141   4
   5  21   2 74.3100 388.455   3
  21 -26   5 4178.81 660.659   4
 -26   6  -8 6269.12 1117.01   2
  26 -20  -8 9591.02 1302.51   3
  26 -20  -8 10198.1 1514.28   4
  20 -26  -8 6604.12 1368.67   4
  26 -20  -8 7041.14 1672.96   2
 -26   6  -8 9183.94 1437.29   1
  -6  26  -8 8959.46 1243.53   1
  20 -26  -8 8780.66 1690.07   2
 -20  -6  -8 11741.3 1367.50   4
  -6  26  -8 13918.7 1582.54   3
   6  20  -8 11383.9 1371.84   3
 -20  -6  -8 8779.25 1387.19   2
 -20  -6  -5 2945.88 935.700   2
  26 -20  -5 2704.09 872.995   3
 -26   6  -5 2599.18 781.634   2
  -6  26  -5 3339.83 806.194   1
  26 -20  -5 4456.38 1037.99   4
  26 -20  -5 3145.27 1078.24   2
  20 -26  -5 2668.60 925.170   4
  20 -26  -5 1437.38 1083.59   2
 -20  -6  -5 4524.12 932.013   4
 -26   6  -5 4694.37 964.922   1
   6  20  -5 4451.16 855.107   3
   6  20  -5 4036.93 686.221   1
 -20  -6  -2 9881.66 1226.21   2
  -6  26  -2 12069.6 1197.04   1
  26 -20  -2 10145.6 1232.76   3
  20 -26  -2 15529.3 1403.62   4
  20 -26  -2 10001.8 1140.26   2
   6  20  -2 13393.2 1119.66   1
 -26   6  -2 14722.4 1140.79   1
 -20  -6  -2 13901.5 1265.57   4
   6  20  -2 13772.7 1142.79   3
  26 -20   1 6211.18 1001.13   3
 -20  -6   1 6450.96 1021.77   2
  20 -26   1 7976.03 1007.82   4
  20 -26   1 6455.84 636.234   2
 -20  -6   1 7166.18 960.748   4
  -6  26   1 6635.46 999.133   1
   6  20   1 7669.85 777.980   3
 -26   6   1 5716.28 565.442   1
  -6  26   4 20799.9 1678.50   1
  20 -26   4 18251.7 1195.87   4
  -6  26   4 20314.3 963.048   3
  26 -19  -6 5238.85 1020.96   3
 -26   7  -6 5366.10 889.803   2
  26 -19  -6 5113.74 1125.57   4
  19 -26  -6 5472.85 1172.22   4
  26 -19  -6 5739.81 1362.01   2
 -26   7  -6 7229.48 1173.31   1
  19 -26  -6 5261.27 1182.73   2
  -7  26  -6 6808.91 1033.28   1
 -19  -7  -6 5632.56 969.251   4
   7  19  -6 4448.63 692.656   1
   7  19  -6 6745.04 1049.86   3
 -19  -7  -6 6046.74 1136.93   2
  26 -19  -3 4943.30 949.188   3
 -19  -7  -3 5392.71 997.797   2
 -26   7  -3 6216.68 892.604   2
   7  19  -3 5772.78 784.378   1
  19 -26  -3 6739.88 1044.86   4
  19 -26  -3 6647.48 1003.51   2
 -26   7  -3 5608.51 857.664   1
 -19  -7  -3 8576.45 1041.37   4
   7  19  -3 5698.53 871.117   3
  -7  26  -3 6527.41 941.215   1
 -19  -7   0 18327.7 1563.96   2
  26 -19   0 18219.3 1415.41   3
  19 -26   0 19686.3 1466.04   4
  -7  26   0 20331.6 1499.83   1
  19 -26   0 17662.2 1109.52   2
 -19  -7   0 17824.6 1330.65   4
   7  19   0 20506.4 1206.02   3
 -26   7   0 20401.4 1063.08   1
  26 -19   3 5812.32 984.576   3
  19 -26   3 5156.19 785.701   4
  -7  26   3 6894.15 1095.44   1
   7  19   3 6569.65 639.515   3
  26 -18  -7 4169.35 985.309   3
 -26   8  -7 3964.94 838.154   2
  26 -18  -7 5340.26 1125.49   4
  26 -18  -7 6638.27 1463.18   2
  18 -26  -7 4306.46 1125.28   4
  18 -26  -7 3292.18 1347.79   2
 -18  -8  -7 3648.07 940.405   4
 -26   8  -7 2628.41 1031.19   1
   8  18  -7 6121.17 997.166   3
  -8  26  -7 3079.82 849.712   1
 -18  -8  -7 6351.86 1177.13   2
 -18  -8  -4 3261.91 960.595   2
  26 -18  -4 3039.41 892.703   3
  -8  26  -4 2274.57 782.904   1
   8  18  -4 2415.17 605.880   1
 -26   8  -4 3324.09 709.447   2
  18 -26  -4 5049.22 1039.82   4
  18 -26  -4 3454.04 981.918   2
 -18  -8  -4 5455.75 972.067   4
 -26   8  -4 4590.16 842.367   1
   8  18  -4 3883.25 779.018   3
 -18  -8  -1 6317.32 1013.20   2
  -8  26  -1 10396.7 1121.07   1
  26 -18  -1 7907.72 1070.30   3
  18 -26  -1 8753.32 1073.99   4
  18 -26  -1 7999.73 924.889   2
 -18  -8  -1 8141.01 981.763   4
 -26   8  -1 9207.81 875.960   1
   8  18  -1 8036.85 868.829   3
  26 -18   2 3281.35 827.019   3
 -18  -8   2 2937.97 799.109   2
  18 -26   2 1249.57 531.381   4
 -26   8   2 3391.58 435.648   1
  -8  26   2 3142.99 887.140   1
 -18  -8   2 3795.50 769.970   4
  18 -26   2 1414.55 249.592   2
   8  18   2 3035.89 520.730   3
  18 -26   5 3834.52 611.073   4
  -8  26   5 5002.84 1018.39   1
  26 -17  -8 1831.41 821.344   3
  26 -17  -8 4231.35 1160.81   4
  26 -17  -8 2989.73 1351.85   2
  17 -26  -8 2435.76 985.320   4
  17 -26  -8 3254.29 1288.64   2
 -17  -9  -8 4321.90 1012.46   4
 -26   9  -8 3119.94 1138.12   1
  -9  26  -8 2168.34 881.605   1
   9  17  -8 2834.78 932.712   3
 -17  -9  -8 1419.48 1041.74   2
  26 -17  -5 11341.4 1204.72   3
   9  17  -5 15134.6 955.940   1
 -26   9  -5 10548.3 1059.39   2
  17 -26  -5 15638.1 1530.04   4
  17 -26  -5 12247.9 1521.37   2
  -9  26  -5 12953.8 1268.85   1
 -26   9  -5 16332.5 1415.54   1
 -17  -9  -5 12054.4 1304.80   4
   9  17  -5 13790.2 1262.57   3
 -17  -9  -5 13611.0 1439.61   2
  26 -17  -2 7976.12 1068.65   3
  17 -26  -2 8953.32 1115.91   4
  17 -26  -2 9712.48 1073.84   2
 -17  -9  -2 8692.69 1053.96   4
 -26   9  -2 11798.7 1031.06   1
   9  17  -2 8611.62 928.202   3
  -9  26  -2 8916.41 1061.20   1
 -17  -9  -2 7169.48 1070.21   2
 -26   9   1 10007.4 737.771   1
 -17  -9   1 10376.4 1177.90   2
  26 -17   1 11251.3 1183.99   3
  17 -26   1 9224.78 1017.85   4
  -9  26   1 12930.5 1250.14   1
 -17  -9   1 10806.2 1085.17   4
  17 -26   1 10236.0 768.509   2
   9  17   1 12189.0 913.485   3
  26 -17   4 2370.85 820.497   3
  17 -26   4 845.956 492.943   4
  -9  26   4 1563.40 823.339   1
   9  17   4 1051.82 343.799   3
  26 -16  -6 16946.2 1445.00   3
 -26  10  -6 17680.0 1239.30   2
  16 -26  -6 14505.8 1552.63   4
 -10  26  -6 21683.0 1609.96   1
  16 -26  -6 16776.6 1813.26   2
 -16 -10  -6 18597.9 1582.17   4
 -26  10  -6 15024.2 1468.38   1
  10  16  -6 21334.3 1565.20   3
 -16 -10  -6 13902.8 1514.47   2
  26 -16  -3 8529.29 1051.47   3
  16 -26  -3 6334.82 999.714   4
 -16 -10  -3 6828.49 1043.88   4
  16 -26  -3 4287.47 902.833   2
 -26  10  -3 6123.63 889.006   1
 -10  26  -3 5605.80 941.972   1
  10  16  -3 5874.15 848.416   3
 -16 -10  -3 6647.99 1080.44   2
 -16 -10   0 19354.1 1482.43   2
  26 -16   0 20283.2 1501.88   3
 -10  26   0 21679.7 1524.37   1
  16 -26   0 17382.4 1355.30   4
 -16 -10   0 22016.6 1494.07   4
  16 -26   0 17934.4 1118.35   2
  10  16   0 20291.1 1174.18   3
 -26  10   0 19689.9 1100.22   1
  26 -16   3 8440.17 1128.51   3
  16 -26   3 7421.76 835.919   4
 -16 -10   3 7650.44 943.709   4
  10  16   3 6895.37 635.949   3
 -26  10   3 5996.29 515.140   1
 -10  26   3 7342.20 1126.79   1
  26 -15  -7 3240.13 863.301   3
 -11  26  -7 5394.08 1018.82   1
  15 -26  -7 7355.00 1225.72   4
  15 -26  -7 7647.24 1471.89   2
 -15 -11  -7 5007.86 1088.78   4
 -26  11  -7 7658.34 1226.46   1
  11  15  -7 7341.54 1074.36   3
 -15 -11  -7 3960.49 1131.13   2
 -15 -11  -4-13.4800 693.158   2
  26 -15  -4 1188.69 654.295   3
  15 -26  -4 988.236 742.035   4
  15 -26  -4 292.708 729.964   2
 -15 -11  -4 323.834 583.263   4
 -26  11  -4 899.752 634.893   1
  11  15  -4-307.311 607.083   3
 -11  26  -4 117.631 599.070   1
  26 -15  -1 13186.4 1260.72   3
  15 -26  -1 16080.5 1333.65   4
  15 -26  -1 14400.8 1178.73   2
 -15 -11  -1 16928.6 1326.13   4
  11  15  -1 16160.3 1135.95   3
 -26  11  -1 17311.4 1118.67   1
 -11  26  -1 17137.6 1349.48   1
 -15 -11  -1 16577.8 1415.56   2
  26 -15   2 3550.21 785.159   3
 -15 -11   2 4216.05 904.940   2
  15 -26   2 3624.89 732.353   4
 -15 -11   2 4465.44 763.394   4
 -11  26   2 4320.62 868.658   1
  15 -26   2 2570.27 372.824   2
 -26  11   2 1844.31 462.085   1
  11  15   2 3932.13 595.261   3
  26 -15   5 5418.91 985.102   3
  15 -26   5 4248.72 568.106   4
 -11  26   5 4051.26 956.254   1
  26 -14  -8 1499.11 798.422   3
  14 -26  -8 6274.70 1222.67   4
 -12  26  -8 2421.94 936.698   1
 -14 -12  -8 3006.13 934.686   4
  14 -26  -8 3335.73 1237.19   2
 -26  12  -8 2811.48 1039.91   1
  12  14  -8 2567.32 850.869   3
 -14 -12  -8 1797.11 1040.46   2
  26 -14  -5 13135.2 1309.01   3
  14 -26  -5 17006.7 1559.24   4
 -12  26  -5 15081.9 1391.18   1
  14 -26  -5 12010.2 1562.77   2
 -14 -12  -5 14453.2 1395.07   4
 -26  12  -5 17714.5 1534.81   1
  12  14  -5 15468.7 1330.90   3
 -14 -12  -5 15193.0 1499.66   2
 -26  12  -2 1466.76 615.138   1
 -14 -12  -2 2279.10 793.959   2
  26 -14  -2 1835.99 723.080   3
 -12  26  -2 531.243 615.440   1
  14 -26  -2 1472.70 704.020   4
 -14 -12  -2 2122.28 687.333   4
  14 -26  -2 481.785 593.370   2
  12  14  -2 1744.97 633.317   3
 -14 -12   1 6633.26 1021.68   2
  26 -14   1 6003.01 954.493   3
 -26  12   1 8468.46 766.847   1
 -12  26   1 5935.87 944.008   1
  14 -26   1 7140.58 847.598   4
 -14 -12   1 8633.20 989.491   4
  14 -26   1 6506.69 666.011   2
  12  14   1 7550.08 763.903   3
  12  14   4 966.256 411.842   3
 -26  12   4 1006.94 371.060   1
 -12  26   4 1811.06 743.605   1
  26 -14   4 284.440 613.308   3
  14 -26   4 737.311 437.068   4
 -14 -12   4 692.048 490.123   4
  26 -13  -6 14795.5 1389.77   3
 -13  26  -6 15653.8 1429.57   1
  13 -26  -6 17468.9 1645.98   4
  13 -26  -6 14029.2 1688.41   2
 -13 -13  -6 14842.1 1435.25   4
 -26  13  -6 17245.5 1522.71   1
  13  13  -6 14337.3 1375.80   3
 -13 -13  -6 13928.3 1630.72   2
 -13 -13  -3 1328.75 719.680   2
  26 -13  -3 843.024 628.734   3
  13 -26  -3 686.519 706.279   4
 -13 -13  -3 883.065 600.547   4
  13 -26  -3 1442.08 730.838   2
  13  13  -3 862.305 581.493   3
 -13  26  -3 286.702 641.221   1
 -26  13  -3 813.109 618.152   1
 -13 -13   0 10702.6 1171.56   2
 -26  13   0 8530.44 830.995   1
  26 -13   0 8077.96 1049.81   3
  13 -26   0 9386.85 1012.28   4
 -13 -13   0 10924.9 1126.27   4
  13 -26   0 9585.68 910.055   2
  13  13   0 9723.22 888.902   3
 -13  26   0 8884.77 1069.17   1
 -13  26   3 938.220 740.862   1
  26 -13   3 1315.86 778.820   3
 -13 -13   3 879.258 635.214   2
  13 -26   3 1544.10 507.362   4
 -26  13   3 937.751 447.270   1
 -13 -13   3 926.562 521.957   4
  13  13   3 1065.18 444.133   3
 -13  26   6 17387.8 1567.32   1
  26 -12  -7 3181.06 942.535   3
  12 -26  -7 2645.85 970.057   4
 -14  26  -7 3008.10 901.429   1
 -12 -14  -7 3201.85 952.602   4
  12 -26  -7 2389.44 1087.50   2
 -26  14  -7 2729.51 990.115   1
  14  12  -7 2333.59 838.784   3
 -12 -14  -7 3327.61 1026.15   2
  26 -12  -4 725.111 646.555   3
  12 -26  -4 1959.73 766.178   4
 -12 -14  -4 1336.87 694.154   4
  12 -26  -4-321.208 671.503   2
 -14  26  -4 2003.91 722.038   1
  14  12  -4 1249.08 638.052   3
 -26  14  -4 686.588 669.990   1
 -12 -14  -4 946.951 767.131   2
  26 -12  -1 7134.33 998.413   3
  12 -26  -1 6585.80 937.755   4
 -12 -14  -1 9692.15 1060.68   4
  12 -26  -1 8373.64 962.094   2
 -14  26  -1 6737.68 1009.87   1
  14  12  -1 7464.35 847.753   3
 -26  14  -1 7834.43 877.661   1
 -12 -14  -1 8476.48 1154.14   2
  12 -26   2 1987.52 451.633   2
  26 -12   2 1887.11 752.139   3
 -12 -14   2 1287.45 663.349   2
 -14  26   2 1088.44 679.131   1
  12 -26   2 969.506 478.361   4
 -12 -14   2 850.577 530.285   4
  14  12   2 2333.17 546.027   3
 -26  14   2 2026.98 539.109   1
  14  12   5 14395.6 844.036   3
  26 -12   5 15606.1 1374.84   3
  12 -26   5 14964.0 878.576   4
 -14  26   5 17343.9 1527.80   1
 -26  14   5 14238.9 838.203   1
 -12 -14   5 16109.7 1167.00   4
  26 -11  -8 366.758 703.846   3
  11 -26  -8 1682.59 937.266   4
 -15  26  -8 745.273 789.086   1
 -11 -15  -8 557.983 744.597   4
  11 -26  -8 941.104 1031.83   2
 -26  15  -8 166.825 875.806   1
  15  11  -8 319.506 770.597   3
 -11 -15  -8-447.146 1006.04   2
  26 -11  -5 3050.61 809.316   3
  11 -26  -5 3737.17 923.391   4
 -11 -15  -5 3934.74 857.027   4
  11 -26  -5 3503.57 1007.72   2
 -15  26  -5 2920.06 828.262   1
 -11 -15  -5 5783.76 1134.00   2
  15  11  -5 5079.88 897.816   3
 -26  15  -5 2714.83 841.883   1
 -11 -15  -2 2634.88 849.523   2
 -15  26  -2 3659.40 805.181   1
  26 -11  -2 2927.94 768.344   3
 -26  15  -2 2651.27 671.284   1
  11 -26  -2 3440.76 792.631   4
 -11 -15  -2 3882.25 820.208   4
  11 -26  -2 3352.53 826.352   2
  15  11  -2 2688.09 712.071   3
 -11 -15   1 13543.0 1288.28   2
 -15  26   1 12232.5 1217.69   1
  26 -11   1 13833.7 1263.76   3
 -26  15   1 11906.1 963.856   1
  11 -26   1 13243.4 1111.58   4
 -11 -15   1 13700.6 1135.89   4
  11 -26   1 14891.1 1010.21   2
  15  11   1 13665.7 990.283   3
  15  11   4 663.476 439.758   3
  26 -11   4 25.1420 708.158   3
 -26  15   4 254.942 405.426   1
  11 -26   4 185.005 408.781   4
 -11 -15   4-229.775 459.808   4
 -15  26   4 751.034 710.432   1
 -16  26  -6 21579.5 1691.91   1
  10 -26  -6 23870.7 1928.51   4
 -10 -16  -6 27432.1 1858.13   4
  10 -26  -6 21838.6 1963.94   2
 -26  16  -6 19738.1 1645.99   1
 -10 -16  -6 21371.4 1907.54   2
  16  10  -6 23085.5 1622.58   3
  26 -10  -6 22826.7 1650.21   3
  26 -10  -3 6436.59 1051.29   3
  10 -26  -3 5989.95 987.559   4
 -16  26  -3 5340.01 952.739   1
 -10 -16  -3 6164.45 899.412   4
  10 -26  -3 7643.13 1054.47   2
  16  10  -3 6422.94 940.820   3
 -26  16  -3 7698.62 984.728   1
 -10 -16  -3 6658.34 1128.43   2
  26 -10   0 16449.3 1392.93   3
 -26  16   0 15790.6 1104.39   1
  10 -26   0 16236.4 1268.22   4
 -10 -16   0 18763.8 1332.63   4
  10 -26   0 16130.4 1158.83   2
 -16  26   0 17543.6 1369.35   1
  16  10   0 16304.7 1126.95   3
 -10 -16   0 19227.8 1454.90   2
  10 -26   3 5562.48 569.540   2
  26 -10   3 7262.94 1058.67   3
 -10 -16   3 6369.31 996.433   2
  10 -26   3 6345.66 774.261   4
 -10 -16   3 7967.37 894.206   4
 -16  26   3 4793.74 918.800   1
 -26  16   3 5785.82 738.748   1
  16  10   3 6984.60 746.694   3
 -16  26   6 16461.0 1567.11   1
  26 -10   6 18352.2 1494.63   3
 -17  26  -7 10397.3 1357.57   1
   9 -26  -7 13013.8 1510.38   4
  -9 -17  -7 12758.2 1434.27   4
   9 -26  -7 6933.42 1406.27   2
 -26  17  -7 9451.59 1310.85   1
  -9 -17  -7 11291.9 1486.05   2
  17   9  -7 10312.9 1259.76   3
  26  -9  -7 9839.79 1241.94   3
  26  -9  -4 1422.41 707.879   3
 -26  17  -4 641.629 690.250   1
   9 -26  -4 2189.11 815.670   4
  -9 -17  -4 478.797 642.592   4
 -17  26  -4 1252.68 725.631   1
   9 -26  -4-161.204 717.614   2
  17   9  -4 1524.37 717.376   3
  -9 -17  -4 3352.15 923.209   2
  26  -9  -1 11106.3 1166.25   3
 -26  17  -1 11623.0 1050.83   1
   9 -26  -1 11377.2 1111.74   4
  -9 -17  -1 11912.1 1130.74   4
 -17  26  -1 12613.1 1195.53   1
   9 -26  -1 11573.0 1098.99   2
  17   9  -1 11896.6 1061.10   3
  -9 -17  -1 8873.50 1142.83   2
  -9 -17   2 9259.64 1120.97   2
  26  -9   2 8434.89 1038.61   3
 -17  26   2 7447.08 1051.49   1
   9 -26   2 8543.71 890.699   4
  -9 -17   2 8459.45 916.323   4
 -26  17   2 7583.40 851.175   1
   9 -26   2 7825.93 798.705   2
  17   9   2 7962.38 836.676   3
  17   9   5 12823.8 944.089   3
 -26  17   5 12363.0 978.612   1
  26  -9   5 15998.0 1404.15   3
 -17  26   5 13039.7 1366.02   1
   9 -26   5 13345.3 838.842   4
  -9 -17   5 14383.3 1067.91   4
  26  -8  -8 250.314 703.006   3
 -18  26  -8 3285.31 970.901   1
   8 -26  -8 1259.55 893.226   4
  -8 -18  -8 2304.01 912.261   4
   8 -26  -8 2410.51 1184.39   2
  -8 -18  -8 1703.50 1071.63   2
  18   8  -8 1173.86 796.500   3
 -26  18  -8 506.931 877.109   1
  26  -8  -5 3302.22 912.839   3
 -26  18  -5 4664.05 971.734   1
   8 -26  -5 3658.15 966.637   4
  -8 -18  -5 3886.86 1008.32   4
 -18  26  -5 3857.07 904.247   1
   8 -26  -5 3239.54 989.567   2
  -8 -18  -5 6240.42 1180.76   2
  18   8  -5 4877.34 907.020   3
  -8 -18  -2 1467.65 720.401   2
  26  -8  -2 2493.56 752.179   3
 -26  18  -2 3666.04 741.176   1
   8 -26  -2 3035.42 783.347   4
  -8 -18  -2 3909.43 870.084   4
   8 -26  -2 452.546 594.900   2
 -18  26  -2 3410.37 850.546   1
  18   8  -2 3093.83 748.682   3
  -8 -18   1 10524.2 1171.30   2
  26  -8   1 5804.46 916.030   3
   8 -26   1 8588.19 950.494   4
 -26  18   1 6824.84 849.735   1
  -8 -18   1 8371.60 966.291   4
   8 -26   1 7641.23 854.160   2
  18   8   1 7390.39 863.136   3
 -18  26   1 9596.23 1103.79   1
  18   8   4 2384.83 574.403   3
  26  -8   4 3765.64 838.784   3
 -18  26   4 4114.23 961.036   1
 -26  18   4 2981.85 671.802   1
   8 -26   4 3627.30 616.713   4
  -8 -18   4 4692.74 716.504   4
 -19  26  -6 7239.38 1160.97   1
   7 -26  -6 5517.87 1128.20   4
  -7 -19  -6 8769.21 1256.82   4
   7 -26  -6 6885.91 1318.67   2
  -7 -19  -6 8932.08 1405.31   2
 -26  19  -6 6267.56 1124.42   1
  19   7  -6 3896.55 1000.42   3
  26  -7  -6 6949.64 1093.88   3
 -19  26  -3 5851.45 997.885   1
   7 -26  -3 8543.90 1153.82   4
  -7 -19  -3 9531.15 1141.86   4
   7 -26  -3 8270.51 1106.17   2
  -7 -19  -3 7118.23 1148.80   2
  19   7  -3 8508.58 1027.44   3
 -26  19  -3 8768.03 1051.09   1
  26  -7  -3 6713.76 1007.14   3
  26  -7   0 19657.5 1501.59   3
 -26  19   0 19210.7 1333.23   1
   7 -26   0 21047.0 1433.23   4
  -7 -19   0 22132.1 1451.10   4
 -19  26   0 18571.3 1447.20   1
   7 -26   0 20644.1 1363.88   2
  19   7   0 19824.6 1287.63   3
  -7 -19   0 22722.8 1589.98   2
  19   7   3 6326.79 764.053   3
   7 -26   3 5202.53 681.623   2
  26  -7   3 6183.55 941.034   3
  -7 -19   3 5682.18 951.738   2
 -19  26   3 5052.35 984.305   1
   7 -26   3 6768.92 803.508   4
  -7 -19   3 7804.13 888.061   4
 -26  19   3 5194.65 811.152   1
 -26  19   6 4735.18 811.240   1
  26  -7   6 5749.44 989.320   3
  -7 -19   6 5508.21 740.188   4
 -19  26   6 7300.41 1206.42   1
  26  -6  -7 2619.63 892.208   3
 -26  20  -7 576.190 823.396   1
 -20  26  -7 2909.51 947.407   1
   6 -26  -7 672.502 940.029   4
  -6 -20  -7 2112.59 866.405   4
   6 -26  -7 1097.75 1036.77   2
  -6 -20  -7 1160.89 961.246   2
  20   6  -7 3570.35 904.422   3
 -20  26  -4 20806.2 1605.36   1
   6 -26  -4 20225.9 1641.57   4
  -6 -20  -4 22598.0 1672.72   4
   6 -26  -4 19912.6 1680.86   2
  -6 -20  -4 23597.2 1882.84   2
  20   6  -4 19898.4 1467.23   3
 -26  20  -4 19686.0 1571.69   1
  26  -6  -4 17732.3 1475.83   3
  26  -6  -1 5580.81 927.852   3
 -26  20  -1 7651.48 929.991   1
   6 -26  -1 5768.63 930.419   4
  -6 -20  -1 6758.18 958.269   4
 -20  26  -1 7575.62 1030.61   1
   6 -26  -1 6911.04 963.361   2
  -6 -20  -1 5852.25 969.145   2
  20   6  -1 7568.84 916.058   3
  -6 -20   2 13305.7 1287.36   2
  26  -6   2 10465.4 1120.15   3
 -20  26   2 9598.10 1128.54   1
   6 -26   2 13146.7 1083.97   4
  -6 -20   2 12884.2 1115.91   4
 -26  20   2 9741.21 989.415   1
   6 -26   2 12776.0 1035.97   2
  20   6   2 11686.4 1042.21   3
 -20  26   5 3685.24 944.123   1
  20   6   5 1209.63 606.777   3
  26  -6   5 1288.97 731.664   3
   6 -26   5 2573.81 507.290   4
  -6 -20   5 3527.50 643.314   4
 -26  20   5 1221.70 642.679   1
  26  -5  -8 2334.83 931.500   3
 -26  21  -8 2485.23 1029.34   1
 -21  26  -8 2953.62 1023.20   1
   5 -26  -8 2420.62 1007.34   4
  -5 -21  -8 3710.84 1039.62   4
   5 -26  -8 5012.46 1396.54   2
  -5 -21  -8 4043.26 1298.87   2
  21   5  -8 1684.04 889.747   3
  26  -5  -5 4316.29 961.512   3
 -26  21  -5 4354.31 1017.45   1
   5 -26  -5 5696.94 1107.78   4
 -21  26  -5 5218.80 1077.61   1
  -5 -21  -5 3850.51 911.908   4
   5 -26  -5 6969.85 1240.85   2
  -5 -21  -5 3947.31 1039.26   2
  21   5  -5 7788.50 1070.92   3
  26  -5  -2 1089.32 745.374   3
 -26  21  -2 2061.98 705.597   1
   5 -26  -2 612.891 640.887   4
  -5 -21  -2 1674.60 699.224   4
 -21  26  -2 801.239 691.047   1
   5 -26  -2 986.997 696.674   2
  21   5  -2 1058.20 650.701   3
  -5 -21  -2 2255.66 875.863   2
   5 -26   1 4181.69 755.271   2
  26  -5   1 5719.08 901.606   3
  -5 -21   1 4201.42 840.702   2
   5 -26   1 5067.06 788.633   4
 -26  21   1 4440.89 822.518   1
  -5 -21   1 5193.70 805.520   4
 -21  26   1 5357.21 938.808   1
  21   5   1 5200.86 843.282   3
  21   5   4 1046.61 590.233   3
  26  -5   4 270.273 598.480   3
 -26  21   4 706.950 571.805   1
   5 -26   4 1163.83 513.939   4
  -5 -21   4 855.954 534.539   4
 -21  26   4 2004.89 788.683   1
  26  -4  -6 4856.90 1030.28   3
 -26  22  -6 3634.99 997.405   1
 -22  26  -6 2542.24 1007.99   1
   4 -26  -6 2943.10 947.519   4
  -4 -22  -6 4952.43 1078.36   4
   4 -26  -6 4776.92 1178.59   2
  -4 -22  -6 2768.55 1032.45   2
  22   4  -6 2986.00 899.195   3
  26  -4  -3 3436.08 895.417   3
 -26  22  -3 1542.27 780.988   1
   4 -26  -3 3725.37 845.728   4
  -4 -22  -3 2312.57 787.747   4
 -22  26  -3 551.756 738.704   1
   4 -26  -3 2665.20 862.745   2
  -4 -22  -3 2712.97 963.803   2
  22   4  -3 3748.41 891.975   3
  26  -4   0 8218.70 1062.31   3
 -26  22   0 6282.11 905.591   1
   4 -26   0 10925.4 1135.19   4
  -4 -22   0 7745.10 969.911   4
 -22  26   0 7540.91 1033.38   1
   4 -26   0 7949.57 999.483   2
  -4 -22   0 8858.84 1098.81   2
  22   4   0 7004.31 923.968   3
  22   4   3 2565.25 676.408   3
  -4 -22   3 4583.13 982.848   2
  26  -4   3 3096.78 809.843   3
 -22  26   3 3725.02 935.677   1
   4 -26   3 2744.87 666.345   2
   4 -26   3 4462.00 739.388   4
  -4 -22   3 4279.93 723.483   4
 -26  22   3 4147.96 831.161   1
  22   4   6 12795.8 1123.93   3
  26  -4   6 14383.5 1357.46   3
 -22  26   6 12841.8 1434.06   1
 -26  22   6 12288.5 1254.04   1
 -26  23  -7 4171.19 1187.61   1
 -23  26  -7 3693.67 1036.72   1
   3 -26  -7 2159.73 891.554   4
  -3 -23  -7 2764.34 946.926   4
   3 -26  -7 3092.19 1221.74   2
  -3 -23  -7 2245.66 1081.48   2
  23   3  -7 3010.69 950.439   3
  26  -3  -7 1619.39 952.959   3
 -26  23  -4 12698.3 1333.94   1
 -23  26  -4 15553.2 1454.41   1
   3 -26  -4 15786.1 1502.77   4
  -3 -23  -4 14478.8 1484.35   4
   3 -26  -4 12951.1 1518.95   2
  -3 -23  -4 14712.0 1599.36   2
  23   3  -4 12882.2 1316.96   3
  26  -3  -4 15416.6 1414.57   3
  -3 -23  -1 3168.88 837.375   2
  23   3  -1 2548.26 782.708   3
  26  -3  -1 3153.83 784.431   3
   3 -26  -1 3793.55 836.038   4
  -3 -23  -1 2620.80 794.017   4
 -26  23  -1 2724.83 767.299   1
 -23  26  -1 3629.75 819.974   1
   3 -26  -1 2834.87 823.894   2
  23   3   2 24235.5 1472.77   3
  -3 -23   2 27959.8 1724.02   2
  26  -3   2 23173.0 1544.82   3
   3 -26   2 27138.0 1533.74   4
  -3 -23   2 26317.0 1519.26   4
 -26  23   2 23503.0 1523.35   1
 -23  26   2 22350.3 1622.63   1
   3 -26   2 25551.9 1525.16   2
  23   3   5 1612.41 668.728   3
  26  -3   5 2289.52 773.065   3
  -3 -23   5 1120.77 499.872   4
 -26  23   5 588.583 656.496   1
 -23  26   5 1752.23 866.308   1
  26  -2  -5 1266.61 815.034   3
 -26  24  -5 2647.87 961.511   1
 -24  26  -5 2790.52 925.903   1
   2 -26  -5 1134.06 796.089   4
  -2 -24  -5 2311.29 869.208   4
   2 -26  -5 2400.02 1002.25   2
  -2 -24  -5-270.702 824.736   2
  24   2  -5 2799.11 974.172   3
  26  -2  -2 4863.41 928.735   3
 -26  24  -2 5199.21 1021.76   1
 -24  26  -2 6204.33 1035.21   1
   2 -26  -2 6806.43 1058.32   4
  -2 -24  -2 8238.72 1115.31   4
   2 -26  -2 5908.78 1081.05   2
  24   2  -2 5831.37 987.066   3
  -2 -24  -2 5842.75 1026.82   2
  24   2   1 1196.44 613.927   3
   2 -26   1 2126.98 721.438   2
  26  -2   1 2881.62 786.312   3
  -2 -24   1 2153.82 814.288   2
 -26  24   1 2804.89 758.318   1
 -24  26   1 2507.62 852.609   1
   2 -26   1 3490.29 772.206   4
  -2 -24   1 2775.26 710.416   4
  24   2   4 4722.57 819.311   3
  26  -2   4 4449.37 894.778   3
  -2 -24   4 3829.86 862.971   2
 -26  24   4 5049.70 1016.82   1
   2 -26   4 4707.56 697.979   4
  -2 -24   4 3962.03 692.541   4
 -24  26   4 4921.08 980.432   1
 -24  26   7 2031.81 973.505   1
  26  -2   7 825.038 758.413   3
 -26  25  -6 3129.71 1011.19   1
 -25  26  -6 2153.71 972.971   1
   1 -26  -6 3351.96 1061.96   4
  -1 -25  -6 1735.67 893.144   4
   1 -26  -6 3739.40 1215.14   2
  -1 -25  -6 3184.98 1244.95   2
  25   1  -6 4662.73 1082.60   3
  26  -1  -6 3404.23 1007.56   3
 -26  25  -3 10469.4 1227.54   1
 -25  26  -3 12724.1 1389.28   1
   1 -26  -3 12904.7 1390.54   4
  -1 -25  -3 11902.7 1420.50   4
   1 -26  -3 10188.0 1319.11   2
  -1 -25  -3 13066.3 1418.38   2
  25   1  -3 11201.0 1238.67   3
  26  -1  -3 12769.0 1350.75   3
   1 -26   0 1651.02 727.155   2
  -1 -25   0 2647.28 777.448   2
  25   1   0 1342.65 674.519   3
  26  -1   0 103.603 626.084   3
 -25  26   0 1151.15 813.589   1
   1 -26   0 2043.77 721.682   4
  -1 -25   0 1502.99 696.505   4
 -26  25   0 660.099 672.387   1
  25   1   3 14891.2 1255.81   3
  26  -1   3 16077.5 1354.08   3
   1 -26   3 12745.5 1250.34   2
  -1 -25   3 17288.8 1431.97   2
 -26  25   3 13466.5 1331.23   1
 -25  26   3 15190.8 1421.13   1
   1 -26   3 17658.9 1247.04   4
  -1 -25   3 18002.2 1297.76   4
  25   1   6 1760.09 784.859   3
  26  -1   6 2194.77 820.863   3
 -25  26   6 2367.31 945.068   1
 -26  25   6 1113.73 810.359   1
  26   0  -4 3492.87 992.739   3
 -26  26  -4 2408.99 889.389   1
   0 -26  -4 5135.56 1090.04   4
   0 -26  -4 1898.16 935.269   2
  26   0  -1 168.168 631.094   3
   0 -26  -1 151.580 656.161   4
 -26  26  -1 669.130 668.917   1
   0 -26  -1 41.6153 670.896   2
  26   0   2 21185.2 1488.79   3
   0 -26   2 20597.2 1526.11   2
   0 -26   2 22580.9 1498.14   4
 -26  26   2 19351.2 1529.13   1
  26   0   5 333.057 652.412   3
 -26  26   5 1354.81 810.882   1
 -27   0  -6 5921.14 1248.42   2
  27 -27  -6 6806.63 1166.24   3
   0  27  -6 6776.62 1104.60   1
  27 -27  -6 10959.4 1544.42   4
 -27   0  -6 7896.61 1337.97   1
  27 -27  -6 4875.84 1537.18   2
 -27   0  -6 8298.66 1247.92   4
   0  27  -6 6752.14 1215.88   3
 -27   0  -3-649.320 805.323   2
  27 -27  -3-347.554 657.505   3
  27 -27  -3 690.908 852.690   4
  27 -27  -3 1010.31 970.765   2
 -27   0  -3 285.925 672.615   1
 -27   0  -3-400.497 670.013   4
   0  27  -3 82.5929 619.218   3
   0  27  -3 1378.86 770.634   1
  27 -27   0 3061.81 914.542   4
  27 -27   0 3633.77 785.817   2
   0  27   0 4072.20 987.725   1
   0  27   0 6568.07 858.781   3
  27 -27   3-48.4228 629.924   4
 -26  -1  -4 866.425 750.486   2
 -27   1  -4 30.0181 766.636   2
  27 -26  -4-741.423 740.923   3
  26 -27  -4 1122.69 793.719   3
  -1  27  -4 303.361 714.459   1
  27 -26  -4 1333.25 903.795   4
  26 -27  -4-206.103 846.370   4
  27 -26  -4 601.892 1000.43   2
  26 -27  -4 810.158 965.656   2
 -26  -1  -4 659.373 769.876   1
 -27   1  -4 1423.19 744.465   1
   1  26  -4 722.327 719.645   1
 -26  -1  -4-466.893 710.770   4
 -27   1  -4 1254.43 770.262   4
  -1  27  -4 1773.93 826.335   3
   1  26  -4 724.538 697.355   3
   1  26  -1 4084.80 846.125   1
 -26  -1  -1 3103.49 910.946   2
  27 -26  -1 2525.45 824.771   3
  27 -26  -1 2618.17 912.562   4
  26 -27  -1 1631.33 952.729   4
  27 -26  -1 1609.69 757.872   2
  26 -27  -1 1715.32 749.989   2
 -26  -1  -1 1560.16 598.283   1
 -27   1  -1 2762.01 665.926   1
  -1  27  -1 1597.31 657.690   3
  -1  27  -1 1077.00 774.399   1
   1  26  -1 1378.22 611.450   3
  27 -26   2 391.470 653.857   4
  26 -27   2 1018.50 720.875   4
  -1  27   2 1584.23 532.104   3
   1  26   2 2423.52 586.776   3
  -1  27   2 2228.73 851.366   1
  27 -26   5 1121.04 664.941   4
  26 -27   5 188.956 628.452   4
 -25  -2  -5 10559.3 1337.00   2
 -27   2  -5 7899.15 1199.08   2
  -2  27  -5 9279.79 1167.75   1
  27 -25  -5 8075.96 1207.84   3
  25 -27  -5 8834.30 1200.19   3
  27 -25  -5 8537.01 1401.54   4
  25 -27  -5 10431.2 1462.53   4
 -25  -2  -5 11478.8 1417.31   1
  27 -25  -5 10070.3 1622.79   2
  25 -27  -5 7973.23 1468.69   2
 -27   2  -5 10200.5 1335.55   1
   2  25  -5 10461.5 1202.60   1
 -25  -2  -5 10416.7 1274.96   4
 -27   2  -5 10510.1 1331.43   4
  -2  27  -5 10700.0 1351.90   3
   2  25  -5 10513.8 1317.36   3
 -25  -2  -2 6635.83 1150.84   2
 -27   2  -2 6630.15 1105.51   2
  27 -25  -2 6191.35 1026.94   3
  25 -27  -2 7104.30 1097.74   3
  25 -27  -2 6325.83 1145.94   4
  27 -25  -2 5931.81 1100.18   4
 -25  -2  -2 5806.98 877.857   1
  27 -25  -2 5753.15 1119.06   2
  25 -27  -2 4367.79 1019.33   2
 -27   2  -2 4997.71 801.317   1
  -2  27  -2 6588.86 1003.90   1
 -25  -2  -2 4173.46 953.891   4
  -2  27  -2 5700.83 910.811   3
   2  25  -2 6985.75 968.591   3
   2  25  -2 5442.85 924.549   1
  25 -27   1 10709.6 1244.92   4
  27 -25   1 7437.38 866.297   2
  -2  27   1 8764.08 1184.00   1
   2  25   1 8481.98 1168.58   1
  -2  27   1 9961.02 953.746   3
   2  25   1 7908.65 840.081   3
  25 -27   4 3258.62 750.074   4
 -24  -3  -6 6592.49 1170.71   2
  27 -24  -6 6778.93 1123.57   3
 -27   3  -6 5349.65 1063.26   2
  24 -27  -6 6427.53 1064.00   3
   3  24  -6 5461.66 920.123   1
 -24  -3  -6 7508.02 1419.97   1
  24 -27  -6 8477.07 1402.97   4
  27 -24  -6 6275.68 1290.12   4
  27 -24  -6 6967.45 1523.22   2
 -27   3  -6 7186.89 1233.41   1
  24 -27  -6 6064.20 1428.22   2
 -24  -3  -6 7901.60 1161.52   4
 -27   3  -6 7546.47 1113.79   4
  -3  27  -6 6761.48 1252.93   3
   3  24  -6 6541.04 1091.39   3
  -3  27  -6 6241.35 1047.14   1
  -3  27  -3 162.802 680.869   1
 -24  -3  -3-370.803 704.827   2
  27 -24  -3 252.917 737.594   3
 -27   3  -3 1996.09 785.282   2
  24 -27  -3 2349.27 763.614   3
  27 -24  -3 1002.36 838.292   4
  24 -27  -3 1172.64 841.234   4
  27 -24  -3 595.700 886.802   2
 -24  -3  -3 417.718 673.880   1
  24 -27  -3-266.004 827.038   2
   3  24  -3 2318.28 832.693   1
 -27   3  -3 805.971 668.518   1
 -24  -3  -3 1056.34 772.999   4
  -3  27  -3 826.897 715.386   3
   3  24  -3 1253.25 749.815   3
 -24  -3   0 11613.5 1360.16   2
  27 -24   0 11261.9 1294.72   3
  24 -27   0 10823.0 1267.33   4
  27 -24   0 8191.80 1018.48   2
 -24  -3   0 7602.95 759.287   1
  24 -27   0 7993.31 899.411   2
 -24  -3   0 10336.7 1222.04   4
 -27   3   0 9629.78 799.007   1
  -3  27   0 10280.9 1017.69   3
   3  24   0 11259.3 986.197   3
  -3  27   0 8510.41 1146.48   1
   3  24   0 11369.5 1251.18   1
  -3  27   3 2571.97 935.052   1
  24 -27   3 2739.79 742.746   4
  -3  27   3 1834.91 508.575   3
   3  24   3 2438.08 507.867   3
 -23  -4  -7 2276.68 1039.55   2
 -27   4  -7 943.012 826.601   2
  27 -23  -7 2251.03 911.929   3
  23 -27  -7 2654.12 853.735   3
  -4  27  -7 1729.99 889.239   1
  27 -23  -7 985.182 899.017   4
  23 -27  -7 1885.66 986.174   4
  27 -23  -7 429.179 1184.14   2
 -23  -4  -7 8.46877 1051.15   1
  23 -27  -7 2584.69 1262.79   2
 -27   4  -7 1996.10 1016.75   1
 -23  -4  -7 2968.36 1039.41   4
  -4  27  -7 1772.81 944.061   3
   4  23  -7 2084.12 1034.30   3
   4  23  -4 1948.97 663.589   1
 -23  -4  -4 1029.00 773.495   2
  27 -23  -4 1622.62 780.504   3
 -27   4  -4 1243.11 727.378   2
  23 -27  -4 750.001 654.567   3
  27 -23  -4-137.745 789.490   4
  23 -27  -4 1131.67 883.462   4
  27 -23  -4 1649.74 992.167   2
 -23  -4  -4 455.365 752.356   1
  23 -27  -4-44.9966 816.536   2
 -27   4  -4-160.105 711.273   1
 -23  -4  -4 423.875 700.887   4
  -4  27  -4 290.169 723.483   1
  -4  27  -4 139.642 696.469   3
   4  23  -4 744.272 658.749   3
 -23  -4  -1 5241.78 1039.43   2
  27 -23  -1 6575.77 1070.40   3
  23 -27  -1 5912.47 1048.01   4
 -23  -4  -1 4504.52 759.840   1
  27 -23  -1 2827.60 855.531   2
  23 -27  -1 3667.48 778.967   2
 -27   4  -1 4817.92 709.841   1
   4  23  -1 7478.81 1043.77   1
 -23  -4  -1 5466.93 990.296   4
  -4  27  -1 6153.90 922.705   3
  -4  27  -1 5228.12 943.456   1
   4  23  -1 5545.23 779.870   3
  27 -23   2 1085.25 736.934   3
  23 -27   2-21.3813 589.397   4
  -4  27   2 730.606 753.675   1
  -4  27   2-601.666 482.181   3
   4  23   2-200.299 431.232   3
  23 -27   5 3452.87 704.247   4
 -22  -5  -5 4899.93 1023.85   2
  27 -22  -5 1955.91 836.828   3
 -27   5  -5 1369.89 767.516   2
  22 -27  -5 2678.67 812.289   3
  27 -22  -5 2921.10 970.652   4
  22 -27  -5 3241.41 1026.24   4
  27 -22  -5 4437.14 1279.62   2
  -5  27  -5 4428.60 927.482   1
  22 -27  -5 2405.23 1059.42   2
 -27   5  -5 4015.92 974.299   1
 -22  -5  -5 3725.82 884.812   4
  -5  27  -5 4667.44 1036.57   3
   5  22  -5 4545.65 910.699   3
   5  22  -5 3844.96 766.805   1
 -22  -5  -2 6906.90 1115.73   2
  27 -22  -2 8983.58 1170.86   3
  -5  27  -2 5504.35 977.825   1
  27 -22  -2 7557.48 1233.51   2
  22 -27  -2 7117.03 1136.39   4
   5  22  -2 9260.66 1036.58   1
  22 -27  -2 7983.23 1060.50   2
 -27   5  -2 6545.63 851.979   1
 -22  -5  -2 5689.44 996.879   4
   5  22  -2 6986.85 916.260   3
  27 -22   1 9919.49 1206.93   3
 -22  -5   1 10911.5 1298.58   2
  27 -22   1 10856.7 1055.24   2
  22 -27   1 12439.7 1228.84   4
 -22  -5   1 10434.0 735.323   1
  22 -27   1 7911.94 720.021   2
 -22  -5   1 11208.1 1207.21   4
   5  22   1 13789.2 989.758   3
  -5  27   1 12554.4 1341.46   1
 -27   5   1 8834.49 651.182   1
  22 -27   4 4550.92 775.973   4
  -5  27   4 5017.42 1095.46   1
 -27   6  -6 8187.74 1109.61   2
  27 -21  -6 12935.7 1357.99   3
  27 -21  -6 9515.68 1366.65   4
  21 -27  -6 9230.06 1363.36   4
  27 -21  -6 6520.70 1454.55   2
  21 -27  -6 9132.03 1491.88   2
 -27   6  -6 10331.4 1394.47   1
 -21  -6  -6 7826.57 1169.83   4
  -6  27  -6 10831.5 1394.11   3
  -6  27  -6 8639.73 1156.10   1
   6  21  -6 9490.30 1209.58   3
 -21  -6  -6 10020.3 1402.95   2
 -21  -6  -3 7871.63 1206.96   2
  27 -21  -3 6915.06 1086.96   3
 -27   6  -3 5222.43 959.733   2
   6  21  -3 8070.38 938.607   1
  27 -21  -3 6854.46 1324.96   2
  21 -27  -3 6702.77 1181.40   4
  21 -27  -3 6613.32 1054.86   2
 -27   6  -3 7759.83 986.319   1
 -21  -6  -3 5889.58 1019.13   4
   6  21  -3 7479.77 963.583   3
  -6  27  -3 6961.75 1012.54   1
 -21  -6   0 28022.3 1897.21   2
  27 -21   0 33441.3 1944.86   3
  21 -27   0 32034.6 1855.34   4
  21 -27   0 27722.1 1409.05   2
  -6  27   0 27443.8 1759.96   1
 -21  -6   0 31521.0 1870.69   4
   6  21   0 34323.4 1563.70   3
 -27   6   0 32614.3 1330.19   1
  27 -21   3 5745.42 1017.91   3
  21 -27   3 7930.86 914.460   4
  -6  27   3 7204.96 1138.44   1
  -6  27   3 5732.85 672.400   3
   6  21   3 5770.89 601.935   3
  -7  27  -7 1215.21 805.934   1
 -20  -7  -7 1609.70 908.488   2
  27 -20  -7 1822.64 843.062   3
 -27   7  -7 1832.00 720.878   2
  27 -20  -7 28.4853 767.603   4
  27 -20  -7 1077.84 1097.39   2
  20 -27  -7 2237.70 1003.26   4
  20 -27  -7 2108.16 1112.24   2
 -20  -7  -7 1912.38 926.001   4
 -27   7  -7 1397.00 898.578   1
  -7  27  -7 3419.77 1053.89   3
   7  20  -7 5751.27 1098.92   3
   7  20  -4 2720.41 663.713   1
  27 -20  -4 4194.04 907.986   3
 -27   7  -4 4841.05 896.835   2
  20 -27  -4 3956.20 975.598   4
  20 -27  -4 4166.01 1008.80   2
 -27   7  -4 5008.46 900.546   1
 -20  -7  -4 4817.01 915.695   4
   7  20  -4 4984.00 899.416   3
  -7  27  -4 4514.75 952.672   1
 -20  -7  -4 5282.34 1100.33   2
 -20  -7  -1 10823.9 1287.50   2
  27 -20  -1 10720.8 1253.82   3
  -7  27  -1 9395.95 1169.02   1
  20 -27  -1 10275.3 1163.20   4
  20 -27  -1 9046.61 985.913   2
 -20  -7  -1 10961.8 1182.48   4
   7  20  -1 7971.06 953.025   1
 -27   7  -1 11357.2 960.067   1
   7  20  -1 10031.7 953.867   3
  27 -20   2 4326.50 920.108   3
  20 -27   2 4433.57 743.973   4
 -20  -7   2 5256.94 888.122   4
   7  20   2 3643.44 555.313   3
  -7  27   2 4652.58 892.984   1
  20 -27   5 5206.52 707.986   4
  27 -19  -8 2537.96 962.101   3
  27 -19  -8 4267.60 1130.76   4
  27 -19  -8 3961.17 1517.05   2
  19 -27  -8 3573.22 1131.59   4
  19 -27  -8 2926.67 1398.35   2
 -19  -8  -8 2789.19 992.114   4
 -27   8  -8 3824.93 1237.26   1
  -8  27  -8 2905.26 1053.86   3
   8  19  -8 4758.62 1100.28   3
  -8  27  -8 1690.14 877.390   1
 -19  -8  -8 2553.84 1156.25   2
 -19  -8  -5 617.667 842.794   2
  -8  27  -5 276.868 706.425   1
  27 -19  -5 1341.27 792.316   3
 -27   8  -5 1595.51 693.221   2
  19 -27  -5 750.019 735.864   4
  19 -27  -5 1045.73 949.999   2
 -19  -8  -5-179.990 671.384   4
 -27   8  -5 1190.80 744.860   1
   8  19  -5 504.200 636.930   3
   8  19  -5 1279.37 560.358   1
 -19  -8  -2 6755.36 1057.27   2
  27 -19  -2 5072.20 1023.01   3
  19 -27  -2 6271.60 1035.63   4
   8  19  -2 5715.95 814.775   1
  19 -27  -2 6517.45 997.661   2
 -19  -8  -2 5917.00 958.896   4
 -27   8  -2 6462.85 871.056   1
   8  19  -2 5955.18 857.431   3
  -8  27  -2 5048.29 989.742   1
 -27   8   1 3648.18 544.836   1
  27 -19   1 5695.84 987.604   3
 -19  -8   1 4467.68 946.881   2
  19 -27   1 4237.31 820.160   4
  19 -27   1 3332.41 525.800   2
 -19  -8   1 5003.07 880.445   4
   8  19   1 4410.30 637.722   3
  -8  27   1 4034.46 924.341   1
  19 -27   4 11117.9 988.461   4
  -8  27   4 8192.92 1215.06   1
  27 -18  -6 11382.0 1289.42   3
 -27   9  -6 7586.82 967.898   2
  18 -27  -6 12067.9 1512.88   4
  18 -27  -6 11379.4 1581.33   2
  -9  27  -6 11692.7 1270.37   1
 -27   9  -6 12352.7 1438.00   1
 -18  -9  -6 13101.1 1400.95   4
   9  18  -6 14658.9 1369.90   3
 -18  -9  -6 11917.5 1453.91   2
  27 -18  -3 15063.1 1365.17   3
   9  18  -3 17276.4 1279.02   1
  18 -27  -3 14805.8 1521.87   4
  18 -27  -3 12446.1 1426.54   2
 -18  -9  -3 15665.9 1357.36   4
 -27   9  -3 19321.7 1387.73   1
   9  18  -3 15274.1 1203.40   3
  -9  27  -3 14203.0 1302.41   1
 -18  -9  -3 13313.8 1405.46   2
 -18  -9   0 5851.82 982.697   2
  27 -18   0 5850.87 1031.44   3
  -9  27   0 6155.59 1012.13   1
  18 -27   0 5008.12 885.020   4
  18 -27   0 4791.62 714.325   2
 -18  -9   0 6185.09 911.068   4
   9  18   0 4377.20 694.999   3
 -27   9   0 5436.71 654.307   1
  -9  27   3 8285.78 1223.07   1
  27 -18   3 7424.13 1084.98   3
  18 -27   3 9111.19 957.817   4
 -18  -9   3 6832.30 949.754   4
   9  18   3 7133.17 672.994   3
  27 -17  -7 2636.36 922.378   3
 -27  10  -7 879.179 624.785   2
  27 -17  -7 1163.06 845.637   4
  27 -17  -7 1486.13 1053.06   2
  17 -27  -7 1605.25 867.808   4
  17 -27  -7 858.348 1033.29   2
 -17 -10  -7 666.450 728.963   4
 -27  10  -7 1761.67 914.557   1
 -10  27  -7 1427.64 851.897   1
  10  17  -7-282.645 716.877   3
 -17 -10  -7 1594.40 887.290   2
 -17 -10  -4 3693.43 898.754   2
 -10  27  -4 3102.71 814.357   1
  27 -17  -4 4319.52 909.958   3
  17 -27  -4 3366.89 893.869   4
  17 -27  -4 4126.51 1007.90   2
 -17 -10  -4 3493.06 813.855   4
  10  17  -4 3344.71 607.953   1
 -27  10  -4 3580.75 856.410   1
  10  17  -4 3476.75 824.747   3
 -27  10  -1 2829.76 620.240   1
 -17 -10  -1 3428.45 838.090   2
  27 -17  -1 1628.72 702.611   3
  17 -27  -1 2689.10 776.625   4
 -17 -10  -1 2918.21 738.028   4
  17 -27  -1 2445.80 688.200   2
 -10  27  -1 2939.91 764.329   1
  10  17  -1 1188.27 585.940   3
 -10  27   2 290.984 652.184   1
  27 -17   2 701.887 748.445   3
 -17 -10   2 302.069 647.272   2
  17 -27   2 842.891 559.297   4
 -17 -10   2 962.013 629.706   4
 -27  10   2 965.837 400.971   1
  10  17   2 1044.87 450.044   3
  17 -27   5 460.370 437.303   4
 -10  27   5-551.524 726.785   1
  27 -16  -8 58.6515 787.851   3
  27 -16  -8 3625.44 1078.25   4
  27 -16  -8 970.957 1180.36   2
  16 -27  -8 2827.29 1034.75   4
  16 -27  -8 2355.77 1250.60   2
 -16 -11  -8 2028.39 859.913   4
 -11  27  -8 859.021 814.780   1
 -27  11  -8 3364.92 1176.06   1
  11  16  -8 2941.32 967.499   3
 -16 -11  -8 2900.31 1081.78   2
 -16 -11  -5 5163.49 1061.89   2
  27 -16  -5 3868.47 906.337   3
  16 -27  -5 6256.58 1114.03   4
 -16 -11  -5 5340.98 1009.18   4
  16 -27  -5 5179.00 1209.14   2
  11  16  -5 6001.78 957.208   3
 -27  11  -5 5572.64 999.471   1
 -11  27  -5 4819.95 942.450   1
  27 -16  -2 5618.85 935.603   3
 -16 -11  -2 4103.88 927.526   2
 -11  27  -2 2682.00 806.919   1
  16 -27  -2 4422.87 919.176   4
 -16 -11  -2 3460.59 810.074   4
  16 -27  -2 3618.01 821.262   2
  11  16  -2 3144.35 758.543   3
 -27  11  -2 3906.95 715.169   1
 -27  11   1 4252.72 602.170   1
  27 -16   1 3438.60 869.379   3
 -16 -11   1 1732.41 739.738   2
  16 -27   1 4446.99 815.716   4
 -11  27   1 5209.31 933.797   1
 -16 -11   1 5116.92 853.420   4
  16 -27   1 3740.55 578.508   2
  11  16   1 4971.39 693.647   3
  11  16   4 2142.01 471.661   3
  27 -16   4 3165.33 945.790   3
  16 -27   4 3611.09 632.419   4
 -11  27   4 3570.76 963.868   1
 -16 -11   4 3169.86 755.758   4
  27 -15  -6 849.644 774.342   3
  15 -27  -6 1007.07 804.812   4
 -15 -12  -6 1458.46 814.540   4
  15 -27  -6-764.580 906.672   2
 -12  27  -6 1020.24 746.612   1
 -27  12  -6 1334.90 882.375   1
  12  15  -6 1684.90 809.758   3
 -15 -12  -6 1771.76 898.040   2
  27 -15  -3 10102.7 1170.62   3
  15 -27  -3 9841.92 1271.12   4
  15 -27  -3 12527.8 1325.39   2
 -15 -12  -3 9063.64 1095.88   4
 -12  27  -3 10699.0 1172.14   1
 -27  12  -3 9804.23 1058.76   1
  12  15  -3 11810.2 1113.40   3
 -15 -12  -3 12902.4 1396.85   2
  27 -15   0 378.577 617.411   3
 -15 -12   0 979.740 722.560   2
 -27  12   0 2169.58 559.162   1
  15 -27   0 2264.64 645.460   4
 -15 -12   0 396.023 551.788   4
  15 -27   0 1247.68 527.344   2
 -12  27   0 201.589 640.099   1
  12  15   0 1029.88 507.065   3
  27 -15   3 5733.63 1030.59   3
  15 -27   3 5537.03 738.518   4
 -12  27   3 5957.24 1010.56   1
 -15 -12   3 5665.23 821.679   4
 -27  12   3 5445.57 581.013   1
  12  15   3 5554.47 655.870   3
 -12  27   6 5298.12 1143.83   1
  27 -14  -7 928.831 803.165   3
  14 -27  -7 2568.54 910.419   4
 -14 -13  -7 826.523 757.214   4
  14 -27  -7 2440.46 1157.42   2
 -13  27  -7 971.315 829.653   1
 -27  13  -7 994.730 827.522   1
  13  14  -7 1301.13 817.885   3
 -14 -13  -7-31.4920 918.967   2
 -14 -13  -4 3746.39 927.472   2
  27 -14  -4 2211.82 784.707   3
  14 -27  -4 4305.63 995.992   4
 -13  27  -4 6458.08 1035.13   1
 -14 -13  -4 4276.42 893.236   4
  14 -27  -4 4180.21 963.427   2
  13  14  -4 4878.96 860.030   3
 -27  13  -4 4608.36 917.521   1
  27 -14  -1 4385.66 899.191   3
  14 -27  -1 7264.18 972.054   4
 -14 -13  -1 7162.06 1030.09   4
  14 -27  -1 6248.55 868.786   2
  13  14  -1 8290.55 897.088   3
 -13  27  -1 6773.03 974.541   1
 -27  13  -1 6727.26 849.994   1
 -14 -13  -1 7795.49 1128.35   2
  27 -14   2 5577.88 967.391   3
 -14 -13   2 4582.84 899.444   2
  14 -27   2 5312.59 798.789   4
 -27  13   2 4931.41 662.556   1
 -13  27   2 2923.00 821.337   1
 -14 -13   2 5245.95 825.242   4
  14 -27   2 4808.64 514.711   2
  13  14   2 4517.51 636.089   3
 -13  27   5 4457.83 1011.35   1
  27 -14   5 3537.73 938.072   3
  14 -27   5 4365.19 575.451   4
  27 -13  -8 2031.03 929.542   3
  13 -27  -8 3062.75 1141.32   4
 -14  27  -8 4758.98 1081.03   1
 -13 -14  -8 5995.66 1105.96   4
  13 -27  -8 5209.78 1414.72   2
  14  13  -8 6940.67 1146.83   3
 -27  14  -8 4420.87 1183.71   1
 -13 -14  -8 1798.92 1046.83   2
  27 -13  -5 2952.22 873.201   3
  13 -27  -5 2780.17 993.466   4
 -13 -14  -5 5521.10 971.886   4
  13 -27  -5 3548.79 1066.71   2
 -14  27  -5 4032.73 940.166   1
  14  13  -5 4302.91 869.797   3
 -27  14  -5 4479.39 925.743   1
 -13 -14  -5 4915.02 1132.70   2
  27 -13  -2 4815.42 924.899   3
 -13 -14  -2 5729.01 998.911   2
  13 -27  -2 6397.67 1009.97   4
  13 -27  -2 7491.82 1004.02   2
 -13 -14  -2 4412.90 863.391   4
 -14  27  -2 6164.39 946.399   1
  14  13  -2 6167.77 863.216   3
 -27  14  -2 5374.20 858.250   1
 -13 -14   1 8788.54 1121.52   2
  27 -13   1 8134.96 1075.70   3
 -14  27   1 5873.22 970.147   1
 -27  14   1 5623.25 699.962   1
  13 -27   1 5915.01 855.088   4
 -13 -14   1 8384.56 937.709   4
  13 -27   1 6670.81 741.729   2
  14  13   1 5298.28 712.073   3
 -14  27   4 6046.12 1122.50   1
  27 -13   4 4758.95 945.656   3
  13 -27   4 4691.81 651.291   4
 -27  14   4 4456.86 588.868   1
 -13 -14   4 5937.69 828.885   4
  14  13   4 4150.35 592.423   3
  27 -12  -6 5025.46 1021.85   3
  12 -27  -6 5561.59 1146.98   4
 -12 -15  -6 8096.89 1145.65   4
  12 -27  -6 6308.32 1256.23   2
 -15  27  -6 5142.40 965.302   1
 -12 -15  -6 6444.85 1266.55   2
  15  12  -6 4420.95 941.023   3
 -27  15  -6 5790.13 1047.84   1
  27 -12  -3 6762.69 1012.07   3
  12 -27  -3 6896.48 1079.34   4
 -15  27  -3 6850.43 1008.46   1
 -12 -15  -3 6559.22 985.943   4
  12 -27  -3 6045.46 1014.93   2
 -27  15  -3 5803.18 894.973   1
  15  12  -3 8011.58 996.450   3
 -12 -15  -3 5210.92 1053.41   2
  27 -12   0 384.551 706.545   3
 -12 -15   0 703.007 684.544   2
  12 -27   0 1137.94 593.194   4
 -27  15   0-138.914 479.341   1
 -15  27   0 930.444 633.445   1
 -12 -15   0 587.922 545.739   4
  12 -27   0 706.753 493.543   2
  15  12   0 1019.57 571.761   3
  27 -12   3 9552.70 1155.78   3
 -12 -15   3 8348.93 1139.59   2
  12 -27   3 10083.3 918.353   4
 -12 -15   3 11469.4 1055.77   4
 -15  27   3 10251.2 1216.59   1
 -27  15   3 7663.71 767.497   1
  15  12   3 8906.88 797.769   3
 -15  27   6 2257.12 983.576   1
  27 -11  -7 3527.03 958.673   3
  11 -27  -7 3728.89 1050.69   4
 -16  27  -7 4270.81 1042.79   1
 -11 -16  -7 3127.37 943.559   4
  11 -27  -7 5449.28 1347.41   2
  16  11  -7 4660.79 991.865   3
 -11 -16  -7 4232.17 1166.07   2
 -27  16  -7 2661.99 986.440   1
 -27  16  -4 2862.88 785.981   1
  27 -11  -4 2479.57 850.462   3
  11 -27  -4 5900.97 1077.94   4
 -11 -16  -4 4629.55 940.393   4
  11 -27  -4 2676.10 847.895   2
 -16  27  -4 3117.84 895.421   1
  16  11  -4 1933.82 732.626   3
 -11 -16  -4 2987.53 940.436   2
 -27  16  -1 5950.27 818.744   1
  27 -11  -1 4917.94 926.430   3
  11 -27  -1 6341.74 937.846   4
 -11 -16  -1 7852.65 990.895   4
 -16  27  -1 6353.74 986.871   1
  11 -27  -1 3111.64 730.189   2
  16  11  -1 6064.88 826.373   3
 -11 -16  -1 5810.74 1016.48   2
  27 -11   2 5918.45 943.479   3
 -11 -16   2 3953.14 866.690   2
 -16  27   2 5484.35 968.182   1
  11 -27   2 5918.00 801.242   4
 -27  16   2 4647.70 708.634   1
 -11 -16   2 4009.15 714.915   4
  11 -27   2 4158.21 612.356   2
  16  11   2 4201.46 673.672   3
  16  11   5 4163.33 618.264   3
  27 -11   5 4613.26 969.242   3
 -27  16   5 3931.08 658.521   1
 -16  27   5 2377.26 866.718   1
 -11 -16   5 5360.67 768.991   4
  27 -10  -8 3730.88 976.062   3
  10 -27  -8 2389.12 1022.54   4
 -17  27  -8 3551.26 1018.10   1
 -10 -17  -8 2482.03 966.529   4
  10 -27  -8 1933.36 1147.67   2
 -10 -17  -8 511.292 949.858   2
  17  10  -8 2889.41 911.280   3
 -27  17  -8 3125.30 1187.75   1
 -27  17  -5-172.732 673.406   1
  27 -10  -5 224.222 679.495   3
  10 -27  -5 948.701 773.050   4
 -10 -17  -5 1748.63 768.175   4
 -17  27  -5 1830.83 783.145   1
  10 -27  -5 713.723 813.158   2
  17  10  -5 836.265 650.909   3
 -10 -17  -5 2661.49 951.474   2
 -17  27  -2-130.490 727.422   1
 -10 -17  -2-539.732 668.412   2
  27 -10  -2 1460.55 717.934   3
 -27  17  -2-687.268 607.143   1
  10 -27  -2 569.750 569.003   4
 -10 -17  -2-355.296 555.459   4
  10 -27  -2 862.442 678.676   2
  17  10  -2 407.703 566.503   3
  27 -10   1 1310.56 685.327   3
 -10 -17   1 4126.33 859.812   2
  10 -27   1 2332.52 686.679   4
 -10 -17   1 2222.40 642.679   4
 -17  27   1 1629.78 690.485   1
 -27  17   1 1567.95 530.519   1
  10 -27   1 1817.89 494.820   2
  17  10   1 2127.13 618.161   3
  17  10   4 3482.49 648.496   3
  27 -10   4 3195.21 875.809   3
 -27  17   4 2313.66 607.804   1
  10 -27   4 3827.29 618.436   4
 -17  27   4 4210.87 958.149   1
 -10 -17   4 2668.09 617.924   4
 -27  18  -6 4810.39 1075.57   1
  27  -9  -6 5175.44 1011.28   3
   9 -27  -6 5347.32 1096.22   4
  -9 -18  -6 5215.70 1128.44   4
 -18  27  -6 3792.84 917.750   1
   9 -27  -6 6519.16 1274.77   2
  -9 -18  -6 3354.42 1084.51   2
  18   9  -6 3685.47 929.810   3
  27  -9  -3 6861.47 1117.95   3
   9 -27  -3 8258.51 1137.18   4
 -18  27  -3 8511.35 1137.87   1
  -9 -18  -3 9343.40 1124.13   4
   9 -27  -3 8482.69 1229.72   2
  -9 -18  -3 7969.39 1176.99   2
  18   9  -3 8212.27 1020.49   3
 -27  18  -3 6548.57 946.333   1
  27  -9   0 6936.05 1006.25   3
 -27  18   0 6088.58 836.551   1
   9 -27   0 8177.52 1019.27   4
  -9 -18   0 7699.64 958.176   4
   9 -27   0 7373.84 881.627   2
 -18  27   0 6262.22 996.869   1
  18   9   0 7382.78 860.814   3
  -9 -18   0 7195.74 1029.04   2
   9 -27   3 10478.8 832.386   2
  27  -9   3 9931.16 1189.10   3
  -9 -18   3 11942.6 1305.32   2
   9 -27   3 14520.5 1084.27   4
 -18  27   3 10540.9 1219.00   1
  -9 -18   3 13206.8 1103.15   4
 -27  18   3 10714.5 982.824   1
  18   9   3 12833.5 985.945   3
  27  -9   6 11481.0 1290.39   3
 -18  27   6 11317.1 1353.03   1
  27  -8  -7 2276.84 982.025   3
   8 -27  -7 4312.38 1118.93   4
 -19  27  -7 3107.93 970.617   1
  -8 -19  -7 5042.50 1149.17   4
   8 -27  -7 5874.54 1343.00   2
 -27  19  -7 6048.75 1179.29   1
  -8 -19  -7 2517.91 1110.39   2
  19   8  -7 3735.54 941.656   3
 -19  27  -4 7899.53 1110.64   1
   8 -27  -4 10633.4 1322.77   4
  -8 -19  -4 8917.56 1179.33   4
   8 -27  -4 8703.17 1264.84   2
  -8 -19  -4 8214.37 1254.37   2
  19   8  -4 9294.33 1104.88   3
 -27  19  -4 7380.89 1054.93   1
  27  -8  -4 9847.14 1213.78   3
  27  -8  -1 4519.08 891.932   3
 -27  19  -1 6147.66 888.419   1
   8 -27  -1 4508.18 857.892   4
  -8 -19  -1 6178.40 963.160   4
 -19  27  -1 4832.70 966.661   1
   8 -27  -1 5045.07 875.246   2
  19   8  -1 5168.46 837.370   3
  -8 -19  -1 5181.13 1033.23   2
  27  -8   2 6095.27 1035.88   3
 -19  27   2 4435.12 971.369   1
  -8 -19   2 4858.15 950.227   2
   8 -27   2 4451.32 766.749   4
  -8 -19   2 6609.69 862.903   4
 -27  19   2 4524.86 753.390   1
   8 -27   2 4317.94 685.734   2
  19   8   2 5362.11 768.264   3
  19   8   5 407.372 558.461   3
 -19  27   5 341.575 701.076   1
  27  -8   5 173.047 714.965   3
  -8 -19   5 1190.97 533.517   4
 -27  19   5 135.960 546.392   1
  27  -7  -5 5718.80 1057.03   3
   7 -27  -5 4837.91 1089.30   4
  -7 -20  -5 6547.83 1182.65   4
 -20  27  -5 4421.61 1064.12   1
   7 -27  -5 4018.03 1073.63   2
 -27  20  -5 5836.25 1096.35   1
  -7 -20  -5 4152.06 1077.26   2
  20   7  -5 5587.75 971.688   3
  -7 -20  -2 3096.77 896.643   2
  27  -7  -2 1512.37 726.581   3
 -27  20  -2 6102.63 930.688   1
   7 -27  -2 4611.32 897.911   4
  -7 -20  -2 6010.65 965.187   4
   7 -27  -2 3014.74 844.506   2
  20   7  -2 5086.16 881.454   3
 -20  27  -2 3363.78 895.568   1
  -7 -20   1 8798.35 1154.34   2
  27  -7   1 10259.8 1134.78   3
   7 -27   1 10278.0 1040.32   4
 -27  20   1 8283.74 956.786   1
  -7 -20   1 12603.9 1126.56   4
   7 -27   1 9348.69 976.750   2
 -20  27   1 7507.70 1105.04   1
  20   7   1 8163.00 938.366   3
  20   7   4 4343.11 739.225   3
 -20  27   4 3740.65 990.376   1
  27  -7   4 3098.80 913.874   3
 -27  20   4 3453.06 769.240   1
   7 -27   4 3811.95 646.918   4
  -7 -20   4 4189.79 694.131   4
 -21  27  -6 9428.58 1334.16   1
   6 -27  -6 12215.2 1461.05   4
  -6 -21  -6 10119.5 1380.65   4
   6 -27  -6 8964.04 1535.29   2
  -6 -21  -6 10207.2 1504.40   2
  21   6  -6 9304.98 1235.32   3
 -27  21  -6 8464.48 1300.45   1
  27  -6  -6 10358.1 1307.18   3
  27  -6  -3 4157.45 894.090   3
 -27  21  -3 5006.40 939.033   1
   6 -27  -3 5444.75 1023.85   4
  -6 -21  -3 5942.63 1002.44   4
   6 -27  -3 5460.38 1134.77   2
 -21  27  -3 4597.78 968.157   1
  21   6  -3 4951.28 953.834   3
  -6 -21  -3 4075.04 982.163   2
  27  -6   0 29130.2 1783.09   3
 -27  21   0 25995.9 1574.98   1
   6 -27   0 33533.3 1786.82   4
  -6 -21   0 31689.0 1840.30   4
 -21  27   0 28908.3 1796.70   1
   6 -27   0 25583.6 1566.45   2
  21   6   0 30307.6 1650.02   3
  -6 -21   0 32852.6 1959.10   2
  21   6   3 6156.81 812.809   3
 -27  21   3 5556.37 873.515   1
   6 -27   3 6005.33 822.039   2
  27  -6   3 5406.14 980.329   3
  -6 -21   3 6011.55 985.612   2
 -21  27   3 7318.06 1070.72   1
   6 -27   3 6285.64 804.483   4
  -6 -21   3 5818.09 806.786   4
  27  -6   6 8572.42 1165.54   3
 -21  27   6 6873.54 1205.75   1
 -27  21   6 7990.87 1027.33   1
  27  -5  -7 3699.89 1056.82   3
 -27  22  -7 4033.44 1106.31   1
 -22  27  -7 3887.96 1045.17   1
   5 -27  -7 5452.98 1180.68   4
  -5 -22  -7 4218.42 1109.16   4
   5 -27  -7 4982.33 1398.81   2
  -5 -22  -7 4778.37 1271.70   2
  22   5  -7 4622.37 1031.59   3
  27  -5  -4 3704.05 961.244   3
 -27  22  -4 5006.27 987.557   1
   5 -27  -4 5040.89 1006.99   4
  -5 -22  -4 6183.33 1074.75   4
 -22  27  -4 5411.01 1038.89   1
   5 -27  -4 4187.85 999.401   2
  -5 -22  -4 3320.83 1015.75   2
  22   5  -4 4877.48 949.968   3
  27  -5  -1 9683.55 1165.63   3
 -27  22  -1 8321.32 1079.25   1
   5 -27  -1 11104.0 1212.88   4
  -5 -22  -1 12901.0 1260.06   4
 -22  27  -1 8823.24 1102.99   1
   5 -27  -1 9069.10 1109.62   2
  -5 -22  -1 11375.0 1272.97   2
  22   5  -1 10202.7 1161.51   3
  -5 -22   2 6182.11 977.973   2
  27  -5   2 5886.06 942.432   3
 -22  27   2 7355.39 1067.03   1
   5 -27   2 6489.94 867.707   4
  -5 -22   2 8754.50 1011.48   4
 -27  22   2 5332.27 868.850   1
   5 -27   2 7617.38 944.480   2
  22   5   2 5801.43 859.844   3
  22   5   5 2142.19 699.285   3
  27  -5   5 2718.13 877.154   3
 -27  22   5 2252.44 794.501   1
 -22  27   5 2733.48 906.572   1
  27  -4  -5 2638.41 939.448   3
 -23  27  -5 6165.32 1167.21   1
 -27  23  -5 5154.51 1043.93   1
   4 -27  -5 4784.03 1046.03   4
  -4 -23  -5 5318.80 1117.00   4
   4 -27  -5 3280.43 1065.89   2
  -4 -23  -5 3685.59 1120.51   2
  23   4  -5 5337.43 1091.65   3
  27  -4  -2 668.900 737.333   3
   4 -27  -2-77.7404 582.815   4
  -4 -23  -2-22.3061 631.855   4
 -27  23  -2 547.881 713.100   1
 -23  27  -2 810.713 663.519   1
   4 -27  -2 97.8943 640.661   2
  -4 -23  -2 447.324 675.457   2
  23   4  -2 941.121 707.421   3
  27  -4   1 4829.93 891.141   3
  -4 -23   1 4708.75 900.044   2
 -23  27   1 3567.35 905.215   1
   4 -27   1 6598.74 950.341   4
  -4 -23   1 6129.38 872.575   4
 -27  23   1 5279.17 928.344   1
   4 -27   1 4851.92 874.500   2
  23   4   4 128.102 538.928   3
  27  -4   4 1061.73 690.452   3
 -27  23   4 199.076 624.944   1
   4 -27   4 452.245 482.479   4
  -4 -23   4 606.490 500.291   4
 -23  27   4 182.009 804.650   1
 -23  27   7 1859.15 908.626   1
  27  -4   7 2196.91 829.654   3
 -24  27  -6 9567.83 1415.07   1
   3 -27  -6 10248.9 1463.33   4
  -3 -24  -6 11424.5 1473.39   4
   3 -27  -6 10561.9 1615.81   2
  -3 -24  -6 12697.2 1649.27   2
  24   3  -6 9000.40 1236.86   3
  27  -3  -6 8935.43 1315.62   3
 -27  24  -6 9475.94 1352.23   1
  27  -3  -3 2107.27 797.523   3
 -27  24  -3 2924.89 923.361   1
   3 -27  -3 2956.05 879.441   4
  -3 -24  -3 2630.35 900.356   4
 -24  27  -3 1527.82 786.906   1
   3 -27  -3 1294.38 858.666   2
  -3 -24  -3 1184.51 811.629   2
  24   3  -3 131.915 669.492   3
  27  -3   0 7035.83 1029.02   3
   3 -27   0 12712.8 1292.29   4
 -27  24   0 9986.42 1116.93   1
  -3 -24   0 9147.48 1111.49   4
 -24  27   0 10170.6 1225.12   1
   3 -27   0 11106.0 1160.79   2
  -3 -24   0 11452.2 1230.66   2
  24   3   0 11693.6 1197.22   3
  24   3   3 1437.18 671.282   3
 -24  27   3 127.392 684.858   1
  27  -3   3 1153.00 698.895   3
   3 -27   3 604.190 647.155   2
  -3 -24   3 935.604 690.616   2
   3 -27   3 672.468 555.578   4
  -3 -24   3 550.746 540.695   4
 -27  24   3 706.784 699.566   1
  24   3   6 7136.22 994.248   3
  27  -3   6 5671.97 1041.77   3
 -24  27   6 3821.14 1074.58   1
 -27  24   6 4121.07 983.452   1
  27  -2  -4 3694.39 985.212   3
 -27  25  -4 2554.88 926.082   1
   2 -27  -4 2185.57 846.634   4
  -2 -25  -4 2902.21 857.462   4
 -25  27  -4 3361.00 961.112   1
   2 -27  -4 2054.99 1024.24   2
  -2 -25  -4 1705.06 1018.98   2
  25   2  -4 2084.04 904.909   3
 -27  25  -1 10849.3 1200.05   1
   2 -27  -1 11581.5 1282.44   4
  -2 -25  -1 10249.4 1176.11   4
 -25  27  -1 13209.7 1304.88   1
   2 -27  -1 8065.31 1130.25   2
  -2 -25  -1 8431.16 1144.08   2
  25   2  -1 10651.3 1172.57   3
  27  -2  -1 8768.02 1151.09   3
  -2 -25   2 5745.19 1013.45   2
  27  -2   2 5436.25 966.205   3
  25   2   2 2558.12 733.158   3
   2 -27   2 4399.88 880.100   2
   2 -27   2 5356.74 869.156   4
  -2 -25   2 6642.87 908.796   4
 -25  27   2 3901.50 976.906   1
 -27  25   2 5590.83 930.847   1
  25   2   5 7168.62 1026.28   3
  27  -2   5 10738.7 1218.68   3
  -2 -25   5 9107.94 904.201   4
 -27  25   5 7275.76 1136.74   1
 -25  27   5 9119.27 1289.16   1
  27  -1  -5 351.718 747.479   3
 -27  26  -5 1227.06 872.747   1
 -26  27  -5 166.578 775.242   1
   1 -27  -5 543.813 797.244   4
  -1 -26  -5 358.132 762.698   4
   1 -27  -5 74.6315 858.246   2
  -1 -26  -5 1069.53 939.323   2
  26   1  -5 2187.95 881.029   3
  26   1  -2 1159.44 723.882   3
  27  -1  -2 2773.49 835.225   3
   1 -27  -2 2301.98 819.304   4
  -1 -26  -2 1344.93 719.204   4
 -27  26  -2 3479.14 936.470   1
 -26  27  -2-273.538 762.736   1
   1 -27  -2 1488.56 827.750   2
  -1 -26  -2 1229.53 810.974   2
  26   1   1 3286.63 793.186   3
  27  -1   1 823.066 668.104   3
   1 -27   1 1842.73 722.828   2
  -1 -26   1 1034.90 671.781   2
 -27  26   1 818.080 651.650   1
 -26  27   1 1498.11 764.005   1
  -1 -26   1 4424.66 923.843   4
   1 -27   1 2334.48 699.692   4
  26   1   4 471.250 665.499   3
  27  -1   4 2190.64 805.017   3
   1 -27   4 1455.30 600.516   4
 -27  26   4 1152.37 764.129   1
  -1 -26   4 973.157 553.992   4
 -26  27   4 802.876 822.738   1
 -27  27  -6 2632.48 1017.48   1
   0 -27  -6 1536.88 1068.10   2
  27   0  -6 2512.09 958.123   3
  27   0  -3 1057.23 750.609   3
   0 -27  -3-560.111 765.488   4
 -27  27  -3 472.661 821.570   1
   0 -27  -3 1045.24 853.396   2
   0 -27   0 4998.37 984.924   2
  27   0   0 4766.56 981.582   3
 -27  27   0 5015.19 931.427   1
   0 -27   0 5994.13 945.361   4
 -27  27   3-460.813 687.959   1
  27   0   3-900.491 673.163   3
   0 -27   3 644.767 651.182   2
   0 -27   3 230.165 543.480   4
  27   0   6 5767.74 1044.45   3
 -27  27   6 4520.18 1129.17   1
 -28   0  -4 10975.8 1388.39   2
  28 -28  -4 7719.43 1246.17   3
  28 -28  -4 12469.4 1596.94   4
  28 -28  -4 9745.57 1565.93   2
 -28   0  -4 6077.95 1105.42   1
 -28   0  -4 6513.73 1177.45   4
   0  28  -4 9498.40 1276.29   3
   0  28  -4 5871.83 1049.82   1
   0  28  -1-553.769 774.408   1
  28 -28  -1 704.129 758.597   4
  28 -28  -1 297.508 716.979   2
   0  28  -1 1290.40 736.925   3
  28 -28   2 1231.17 780.286   4
   0  28   2 1323.30 887.469   1
   0  28   2 2235.17 584.732   3
 -28   1  -5 6513.35 1204.24   2
  -1  28  -5 2425.65 864.592   1
  27 -28  -5 5401.02 1147.42   3
 -27  -1  -5 4188.69 1095.75   2
  28 -27  -5 5292.00 1072.43   3
  28 -27  -5 5687.30 1297.77   4
  27 -28  -5 2483.87 1086.36   4
  28 -27  -5 7153.40 1649.53   2
  27 -28  -5 5000.69 1434.04   2
   1  27  -5 5035.81 996.479   1
 -27  -1  -5 3814.17 1068.61   1
 -28   1  -5 4444.53 1084.39   1
 -27  -1  -5 6359.87 1186.59   4
 -28   1  -5 4796.40 1022.67   4
  -1  28  -5 7876.32 1229.68   3
   1  27  -5 6083.83 1103.30   3
 -27  -1  -2 1305.62 823.702   2
  28 -27  -2 1769.52 837.915   3
 -28   1  -2 675.103 702.888   2
  27 -28  -2 21.5941 746.766   3
  28 -27  -2 919.669 840.797   4
  27 -28  -2 2536.44 1043.07   4
  -1  28  -2 2091.98 843.333   1
  28 -27  -2 1431.38 902.039   2
  27 -28  -2 1514.99 832.565   2
 -27  -1  -2 2441.93 731.512   1
 -28   1  -2 2320.20 703.318   1
 -27  -1  -2 2125.96 858.504   4
  -1  28  -2 859.781 645.037   3
   1  27  -2 1484.07 744.368   3
   1  27  -2 253.826 689.961   1
   1  27   1 3770.27 1000.47   1
  -1  28   1 3373.04 945.844   1
  28 -27   1 2855.78 880.406   4
  27 -28   1 1967.06 846.963   4
  -1  28   1 3011.57 677.574   3
   1  27   1 2935.70 666.909   3
  28 -27   4 1553.99 724.572   4
  27 -28   4 1226.70 677.931   4
 -26  -2  -6 1244.79 885.281   2
 -28   2  -6 764.337 836.536   2
  28 -26  -6 1376.35 942.045   3
  26 -28  -6 1238.15 780.713   3
   2  26  -6 883.354 779.130   1
  28 -26  -6 3018.17 1151.75   4
  26 -28  -6 1737.88 976.825   4
  28 -26  -6 1897.70 1247.18   2
  26 -28  -6 934.344 1167.32   2
 -26  -2  -6 2476.69 1062.35   1
 -28   2  -6 2529.96 1032.27   1
 -26  -2  -6 1560.33 882.328   4
 -28   2  -6 2553.62 897.255   4
  -2  28  -6 2080.40 989.102   3
   2  26  -6 2662.17 1063.44   3
  -2  28  -6 960.295 820.044   1
 -26  -2  -3 9056.58 1345.59   2
 -28   2  -3 9242.68 1343.00   2
  28 -26  -3 10598.7 1342.34   3
  26 -28  -3 9701.42 1222.31   3
  28 -26  -3 10940.9 1425.39   4
  26 -28  -3 12290.7 1549.75   4
 -26  -2  -3 11287.3 1249.37   1
  26 -28  -3 12640.7 1525.08   2
  28 -26  -3 7443.81 1330.24   2
 -28   2  -3 12768.0 1251.03   1
  -2  28  -3 9727.45 1231.67   1
 -26  -2  -3 9702.45 1244.14   4
  -2  28  -3 11840.2 1286.37   3
   2  26  -3 11414.0 1203.45   3
   2  26  -3 10527.4 1200.06   1
  -2  28   0 4978.59 1034.58   1
  28 -26   0 3870.06 1024.79   3
  26 -28   0 6065.18 1149.02   4
  28 -26   0 5161.48 1025.75   4
  28 -26   0 4981.96 884.183   2
  -2  28   0 6919.67 915.266   3
   2  26   0 7105.31 881.077   3
   2  26   0 6290.66 1046.22   1
  28 -26   3 10056.0 1226.87   4
  26 -28   3 9405.00 1158.80   4
  -2  28   3 9414.71 1314.94   1
  -3  28  -4 3045.35 877.621   1
   3  25  -4 2461.87 769.000   1
 -25  -3  -4 1293.21 833.031   2
  28 -25  -4 2007.78 896.442   3
 -28   3  -4 2630.82 860.832   2
  25 -28  -4 4117.11 953.992   3
  28 -25  -4 2130.79 933.717   4
  25 -28  -4 2920.17 1019.54   4
  28 -25  -4 351.891 926.175   2
 -25  -3  -4 1446.15 868.407   1
  25 -28  -4 2104.70 999.249   2
 -28   3  -4 2144.83 826.475   1
 -25  -3  -4 2743.72 845.248   4
  -3  28  -4 4191.15 974.982   3
   3  25  -4 3019.18 826.700   3
  -3  28  -1 691.714 724.452   1
 -25  -3  -1 11.8488 799.461   2
  28 -25  -1 644.791 683.681   3
  28 -25  -1 187.085 851.770   4
  25 -28  -1-112.354 745.080   4
  28 -25  -1 1047.72 729.113   2
  25 -28  -1 110.673 608.832   2
 -25  -3  -1 287.106 527.733   1
 -25  -3  -1-384.679 680.699   4
   3  25  -1 587.945 747.434   1
  -3  28  -1 147.603 564.135   3
   3  25  -1-416.001 560.741   3
 -28   3  -1 714.873 520.214   1
  -3  28   2 5515.97 1079.56   1
  25 -28   2 6531.12 1058.13   4
  -3  28   2 4419.05 665.788   3
   3  25   2 4755.49 671.081   3
 -24  -4  -5 7631.20 1256.65   2
  28 -24  -5 9099.15 1270.71   3
 -28   4  -5 6772.81 1090.55   2
  24 -28  -5 8579.91 1104.66   3
  28 -24  -5 8575.22 1361.08   4
 -24  -4  -5 8740.11 1294.46   1
  24 -28  -5 8120.15 1393.17   4
  28 -24  -5 8048.90 1542.71   2
  24 -28  -5 9790.23 1612.88   2
 -28   4  -5 9327.21 1297.61   1
 -24  -4  -5 8534.67 1189.28   4
   4  24  -5 8485.40 1042.58   1
  -4  28  -5 8420.60 1316.68   3
   4  24  -5 11535.8 1312.37   3
  -4  28  -5 9847.22 1206.79   1
 -24  -4  -2 4918.09 1030.06   2
  28 -24  -2 2827.32 904.711   3
  24 -28  -2 3334.08 952.174   4
  28 -24  -2 3748.44 1051.85   2
   4  24  -2 2772.78 798.976   1
 -24  -4  -2 2020.10 728.937   1
  -4  28  -2 4058.86 878.288   1
  24 -28  -2 2784.74 870.762   2
 -24  -4  -2 4431.40 933.892   4
  -4  28  -2 4643.29 935.399   3
 -28   4  -2 4126.66 775.714   1
   4  24  -2 4152.35 799.534   3
  -4  28   1 12271.5 1368.07   1
  28 -24   1 11456.5 1344.06   3
  24 -28   1 11675.1 1272.37   4
  28 -24   1 11507.9 1072.17   2
  -4  28   1 13290.9 1091.38   3
   4  24   1 11206.1 977.889   3
  24 -28   4 4626.28 825.955   4
 -23  -5  -6 3040.41 1030.49   2
  28 -23  -6 1392.25 910.734   3
 -28   5  -6 2786.47 903.873   2
  28 -23  -6 4935.24 1197.71   4
  23 -28  -6 4049.34 1123.22   4
  -5  28  -6 3702.40 987.087   1
  28 -23  -6 1112.24 1124.80   2
 -23  -5  -6 2372.83 1053.97   1
  23 -28  -6 3049.23 1203.58   2
 -28   5  -6 3066.04 988.261   1
 -23  -5  -6 4211.31 975.081   4
  -5  28  -6 3706.88 1167.52   3
   5  23  -6 3143.21 917.558   3
 -23  -5  -3 8979.80 1232.78   2
   5  23  -3 9538.56 1072.86   1
  -5  28  -3 8545.13 1168.99   1
 -28   5  -3 8791.92 1200.58   2
  28 -23  -3 7247.10 1134.43   3
 -23  -5  -3 11265.3 1247.58   1
  28 -23  -3 8665.31 1366.98   2
  23 -28  -3 11544.4 1439.55   4
  23 -28  -3 11534.1 1345.46   2
 -28   5  -3 7948.60 1051.81   1
 -23  -5  -3 11163.3 1292.20   4
  -5  28  -3 11840.9 1309.37   3
   5  23  -3 10389.3 1108.54   3
  -5  28   0 5448.64 1013.22   1
 -23  -5   0 5529.50 1060.92   2
   5  23   0 2682.64 794.030   1
  28 -23   0 3348.04 899.005   3
  28 -23   0 5237.97 948.995   2
 -23  -5   0 5111.88 709.110   1
  23 -28   0 4484.21 935.677   4
  23 -28   0 2901.80 669.304   2
 -23  -5   0 3953.19 880.193   4
  -5  28   0 6173.45 894.349   3
   5  23   0 4319.78 718.315   3
 -28   5   0 3625.97 613.823   1
  23 -28   3 13720.5 1217.68   4
  -5  28   3 16408.6 1022.11   3
   5  23   3 14886.3 908.181   3
  -5  28   3 14802.4 1523.55   1
 -22  -6  -7 350.275 990.894   2
  28 -22  -7 41.3796 838.594   3
  -6  28  -7 659.462 860.295   1
 -28   6  -7 23.1038 711.629   2
  28 -22  -7-268.637 942.090   4
  22 -28  -7-494.837 863.824   4
  28 -22  -7 2235.66 1344.83   2
  22 -28  -7 362.283 1032.05   2
 -22  -6  -7-225.758 797.266   4
 -28   6  -7 556.098 908.228   1
  -6  28  -7-1179.24 924.501   3
   6  22  -7 246.340 802.628   3
   6  22  -4 978.796 652.992   1
 -22  -6  -4-435.268 715.287   2
  28 -22  -4 179.961 678.350   3
 -28   6  -4 394.863 704.181   2
  28 -22  -4 952.367 929.663   2
  22 -28  -4 1009.93 793.365   4
  22 -28  -4 777.811 883.809   2
  -6  28  -4 704.102 690.718   1
 -22  -6  -4-700.346 714.536   4
 -28   6  -4 86.8748 638.235   1
   6  22  -4 311.136 603.367   3
   6  22  -1 4344.82 868.149   1
 -22  -6  -1 3030.95 939.619   2
  28 -22  -1 3386.69 903.457   3
  22 -28  -1 4608.87 1007.92   4
  -6  28  -1 4364.46 888.281   1
  22 -28  -1 3383.20 763.392   2
 -22  -6  -1 4412.98 914.486   4
   6  22  -1 4221.96 751.216   3
 -28   6  -1 4117.03 686.381   1
  28 -22   2 3819.78 951.386   3
  -6  28   2 2357.07 904.320   1
  22 -28   2 2980.29 765.003   4
   6  22   2 2922.01 555.573   3
 -21  -7  -5 2898.48 964.384   2
  28 -21  -5 4441.00 966.512   3
 -28   7  -5 1551.79 740.962   2
  28 -21  -5 4504.96 1087.95   4
  -7  28  -5 4221.71 911.909   1
  21 -28  -5 7200.46 1287.44   4
  28 -21  -5 4024.88 1244.36   2
  21 -28  -5 2871.34 1103.18   2
 -21  -7  -5 3958.01 912.924   4
 -28   7  -5 3199.53 929.772   1
   7  21  -5 4750.44 942.185   3
   7  21  -5 2408.20 671.237   1
 -21  -7  -2 12753.6 1394.94   2
   7  21  -2 12737.7 1132.33   1
  28 -21  -2 9952.30 1232.81   3
  -7  28  -2 12023.9 1253.94   1
  21 -28  -2 14027.9 1443.13   4
  21 -28  -2 11388.1 1236.86   2
 -21  -7  -2 11454.1 1218.29   4
 -28   7  -2 12628.7 1100.72   1
   7  21  -2 12878.5 1122.33   3
 -28   7   1 3658.25 528.391   1
  28 -21   1 4480.58 993.590   3
 -21  -7   1 3875.83 993.935   2
  -7  28   1 3101.22 923.901   1
  21 -28   1 4063.52 847.775   4
 -21  -7   1 2594.54 517.365   1
 -21  -7   1 4406.36 881.503   4
   7  21   1 4637.91 697.049   3
  -7  28   4 9126.31 1325.57   1
  21 -28   4 6263.58 821.042   4
  28 -20  -6 2539.24 927.717   3
 -28   8  -6 2979.74 808.633   2
  28 -20  -6 4693.28 1101.02   4
  28 -20  -6 3678.92 1308.86   2
  20 -28  -6 5343.24 1214.09   4
  20 -28  -6 5054.63 1330.51   2
 -20  -8  -6 6537.22 1192.06   4
  -8  28  -6 4981.43 1081.70   1
 -28   8  -6 4033.43 1051.07   1
   8  20  -6 2974.20 903.519   3
 -20  -8  -6 6470.95 1211.28   2
  28 -20  -3 23178.6 1688.93   3
  20 -28  -3 27114.3 2001.14   4
  20 -28  -3 25181.1 1839.76   2
 -20  -8  -3 25278.1 1744.10   4
 -28   8  -3 22351.6 1490.53   1
   8  20  -3 23710.1 1530.95   3
   8  20  -3 19975.3 1280.88   1
  -8  28  -3 23201.9 1656.89   1
 -20  -8  -3 26372.6 1889.30   2
 -20  -8   0 3711.69 925.271   2
  28 -20   0 4448.20 981.037   3
  20 -28   0 6780.50 1045.07   4
  -8  28   0 4281.72 935.338   1
  20 -28   0 4653.73 746.518   2
 -20  -8   0 7415.63 1024.73   4
   8  20   0 5234.43 738.558   3
 -28   8   0 6322.40 721.794   1
  28 -20   3 19924.6 1638.08   3
  20 -28   3 22800.1 1429.42   4
  -8  28   3 20475.8 1681.53   1
   8  20   3 20341.2 1020.36   3
 -19  -9  -7 81.7783 947.557   2
  28 -19  -7 1240.60 811.000   3
 -28   9  -7 1047.10 655.031   2
  28 -19  -7 544.602 864.699   4
  28 -19  -7 1061.27 1106.73   2
  19 -28  -7 205.837 839.343   4
  19 -28  -7 690.489 1118.78   2
 -19  -9  -7 1855.20 838.707   4
 -28   9  -7 2494.37 1032.51   1
   9  19  -7 2756.83 880.803   3
  -9  28  -7 893.588 832.981   1
 -19  -9  -4 3777.00 1029.49   2
  28 -19  -4 2622.92 857.702   3
  -9  28  -4 4391.26 905.981   1
   9  19  -4 3188.94 657.840   1
  19 -28  -4 4978.98 1074.22   4
  19 -28  -4 3342.05 951.715   2
 -19  -9  -4 4393.61 959.944   4
 -28   9  -4 4831.69 928.084   1
   9  19  -4 3936.10 809.119   3
 -19  -9  -1 7047.35 1132.35   2
  28 -19  -1 5384.96 955.507   3
  -9  28  -1 5979.66 1006.28   1
  19 -28  -1 5491.42 1005.91   4
  19 -28  -1 6372.52 908.733   2
 -19  -9  -1 4940.66 861.406   4
 -28   9  -1 6049.64 798.541   1
   9  19  -1 5591.80 789.313   3
  28 -19   2 1847.51 778.622   3
 -19  -9   2 3149.92 824.291   2
  19 -28   2 3905.07 746.749   4
  -9  28   2 3391.31 907.990   1
 -19  -9   2 2999.68 744.114   4
 -28   9   2 2396.85 439.932   1
   9  19   2 2468.93 540.583   3
  -9  28   5 2645.54 945.847   1
  28 -18  -5 5232.78 1085.61   3
 -10  28  -5 5438.81 989.872   1
  18 -28  -5 9377.88 1319.91   4
  18 -28  -5 9482.17 1388.05   2
 -18 -10  -5 7559.56 1144.14   4
 -28  10  -5 6470.20 1100.53   1
  10  18  -5 7547.98 1084.87   3
 -18 -10  -5 6071.27 1215.30   2
 -18 -10  -2 8163.81 1207.58   2
  28 -18  -2 9989.35 1208.66   3
  18 -28  -2 7803.06 1124.67   4
  18 -28  -2 7063.72 1013.93   2
 -18 -10  -2 8761.96 1125.17   4
 -28  10  -2 8690.16 993.197   1
  10  18  -2 7630.12 934.020   3
 -10  28  -2 7009.62 1020.36   1
 -28  10   1 11873.1 846.684   1
 -18 -10   1 11548.1 1297.18   2
  28 -18   1 11725.3 1292.20   3
  18 -28   1 12697.6 1216.97   4
 -10  28   1 13756.1 1376.47   1
 -18 -10   1 12554.0 1194.12   4
  18 -28   1 10422.9 796.442   2
  10  18   1 12623.4 955.545   3
  28 -18   4 8880.46 1235.85   3
  18 -28   4 8979.99 895.404   4
 -10  28   4 9484.87 1314.33   1
 -17 -11  -6 2696.76 1047.29   2
  28 -17  -6 2667.68 921.151   3
 -28  11  -6 3780.36 817.214   2
  17 -28  -6 3170.45 1008.73   4
  17 -28  -6 6222.42 1362.10   2
 -17 -11  -6 3916.88 922.202   4
  11  17  -6 5634.00 1015.67   3
 -28  11  -6 3155.74 1013.50   1
 -11  28  -6 3996.37 1008.26   1
  28 -17  -3 7366.03 1123.94   3
  17 -28  -3 11111.5 1302.97   4
  17 -28  -3 10469.8 1292.47   2
 -17 -11  -3 12089.2 1304.96   4
 -28  11  -3 10509.0 1138.50   1
 -11  28  -3 11305.5 1259.01   1
  11  17  -3 11237.2 1124.36   3
 -17 -11  -3 11894.1 1376.61   2
 -17 -11   0 7130.33 1126.82   2
  28 -17   0 6427.79 1021.77   3
 -11  28   0 7342.09 1082.38   1
  17 -28   0 8437.07 1037.41   4
 -17 -11   0 6923.34 1044.85   4
  17 -28   0 7042.60 813.784   2
  11  17   0 7538.04 877.021   3
 -28  11   0 7152.65 758.537   1
  28 -17   3 6280.48 1056.35   3
  17 -28   3 6534.41 817.631   4
 -17 -11   3 6162.22 912.291   4
  11  17   3 6048.32 651.794   3
 -11  28   3 5692.23 1078.88   1
  28 -16  -7 608.870 882.633   3
  16 -28  -7-181.643 834.040   4
  16 -28  -7-263.948 1092.75   2
 -16 -12  -7 98.6574 748.371   4
 -12  28  -7 183.403 691.077   1
 -28  12  -7 641.688 800.980   1
  12  16  -7 2209.05 830.838   3
 -16 -12  -7 1.45642 806.380   2
 -16 -12  -4 5301.73 1133.74   2
  28 -16  -4 7094.39 1085.92   3
 -12  28  -4 4730.34 942.890   1
  16 -28  -4 8896.72 1228.68   4
 -16 -12  -4 8155.92 1150.83   4
  16 -28  -4 4703.34 1108.92   2
 -28  12  -4 7075.11 1045.08   1
  12  16  -4 5577.55 930.626   3
 -28  12  -1 928.763 560.971   1
 -16 -12  -1 693.294 765.482   2
  28 -16  -1 439.278 670.397   3
  16 -28  -1 1390.80 660.657   4
 -12  28  -1 877.027 676.307   1
 -16 -12  -1 161.191 600.219   4
  16 -28  -1 1066.33 624.684   2
  12  16  -1 672.019 496.882   3
  28 -16   2 10557.9 1246.64   3
 -16 -12   2 7741.53 1154.75   2
  16 -28   2 7593.61 917.905   4
 -28  12   2 6203.02 687.380   1
 -12  28   2 7705.48 1127.20   1
 -16 -12   2 7235.33 942.279   4
  12  16   2 7337.54 774.582   3
  28 -16   5 1698.97 883.099   3
 -12  28   5 1642.24 900.064   1
 -15 -13  -5 2279.81 961.561   2
  28 -15  -5 3660.89 939.417   3
  15 -28  -5 3320.55 996.132   4
 -15 -13  -5 3397.06 948.605   4
  15 -28  -5 2747.10 1045.42   2
  13  15  -5 2935.44 817.745   3
 -28  13  -5 3330.30 908.388   1
 -13  28  -5 3036.11 872.669   1
  28 -15  -2 6533.62 1021.88   3
 -28  13  -2 4344.73 811.229   1
  15 -28  -2 5596.88 1013.50   4
 -15 -13  -2 6018.52 945.640   4
  15 -28  -2 5526.25 975.424   2
 -13  28  -2 5546.47 965.275   1
  13  15  -2 5999.59 855.963   3
 -15 -13  -2 6430.89 1073.92   2
  28 -15   1 3829.09 857.000   3
 -15 -13   1 3481.52 883.513   2
 -28  13   1 3878.40 652.005   1
 -13  28   1 6804.16 1065.99   1
  15 -28   1 5407.79 853.470   4
 -15 -13   1 5993.39 892.698   4
  15 -28   1 5192.27 659.548   2
  13  15   1 4936.64 717.913   3
  28 -15   4 9035.35 1200.74   3
 -13  28   4 11028.2 1291.37   1
  15 -28   4 8194.96 835.394   4
 -15 -13   4 10968.6 1075.66   4
  13  15   4 8336.84 726.619   3
  28 -14  -6 6859.02 1107.20   3
  14 -28  -6 11336.8 1475.50   4
 -14  28  -6 13434.9 1421.72   1
  14 -28  -6 9072.15 1467.61   2
 -14 -14  -6 8520.52 1226.77   4
 -28  14  -6 9757.75 1320.41   1
  14  14  -6 8216.82 1166.63   3
 -14 -14  -6 9377.19 1336.34   2
  28 -14  -3 11122.0 1265.22   3
  14 -28  -3 15241.8 1443.60   4
 -14 -14  -3 13824.1 1345.62   4
  14 -28  -3 11417.8 1305.88   2
 -14  28  -3 11096.6 1253.67   1
 -28  14  -3 13073.0 1253.67   1
  14  14  -3 12170.0 1134.61   3
 -14 -14  -3 11458.9 1387.88   2
 -14 -14   0 6797.58 1036.46   2
 -14  28   0 9842.82 1210.53   1
  28 -14   0 7888.47 1098.95   3
 -28  14   0 11293.7 953.534   1
  14 -28   0 8929.14 1046.20   4
 -14 -14   0 8976.83 1055.68   4
  14 -28   0 7839.10 859.774   2
  14  14   0 8572.84 876.917   3
  28 -14   3 12848.1 1319.61   3
 -14 -14   3 12215.3 1349.40   2
  14 -28   3 11034.9 975.694   4
 -14 -14   3 12960.0 1129.00   4
 -14  28   3 10725.5 1311.83   1
 -28  14   3 9493.98 783.342   1
  14  14   3 10157.9 850.289   3
 -14  28   6 8960.43 1307.37   1
  28 -13  -7 4326.44 1022.31   3
 -15  28  -7 5846.24 1112.94   1
  13 -28  -7 6282.28 1272.84   4
 -13 -15  -7 5529.11 1093.96   4
  13 -28  -7 5510.37 1388.64   2
 -28  15  -7 6109.79 1196.18   1
 -13 -15  -7 6702.23 1343.28   2
  15  13  -7 6848.54 1165.81   3
 -13 -15  -4 6675.64 1167.70   2
  28 -13  -4 6679.38 1085.08   3
  13 -28  -4 9039.96 1200.62   4
 -15  28  -4 8999.43 1204.33   1
 -13 -15  -4 8628.34 1213.36   4
  13 -28  -4 7987.70 1206.72   2
 -28  15  -4 9650.99 1109.26   1
  15  13  -4 7162.76 1014.10   3
  28 -13  -1 4124.78 861.257   3
 -28  15  -1 3117.43 690.364   1
  13 -28  -1 5376.91 882.711   4
 -13 -15  -1 4411.38 876.448   4
  13 -28  -1 4870.70 853.254   2
 -15  28  -1 4421.59 959.966   1
  15  13  -1 5301.68 819.660   3
 -13 -15  -1 5432.51 1025.45   2
  28 -13   2 8383.58 1123.70   3
 -13 -15   2 6145.55 1058.34   2
  13 -28   2 6802.42 859.604   4
 -15  28   2 5466.48 1009.59   1
 -28  15   2 6561.58 755.524   1
 -13 -15   2 6500.48 874.719   4
  13 -28   2 5910.73 649.226   2
  15  13   2 6648.71 769.436   3
  28 -13   5 2191.77 853.871   3
 -13 -15   5 2149.83 617.860   4
 -15  28   5 1554.31 886.077   1
 -28  16  -5 1915.21 871.165   1
  28 -12  -5 2274.28 880.388   3
  12 -28  -5 1993.45 924.695   4
 -12 -16  -5 2893.99 879.996   4
  12 -28  -5 1078.86 911.469   2
 -16  28  -5 2127.01 877.089   1
  16  12  -5 3520.91 810.658   3
 -12 -16  -5 2228.15 932.617   2
  28 -12  -2 5718.64 998.681   3
  12 -28  -2 6115.46 1016.13   4
 -12 -16  -2 7427.65 1032.42   4
  12 -28  -2 9460.53 1138.51   2
 -16  28  -2 5407.89 1027.68   1
  16  12  -2 8114.08 957.840   3
 -12 -16  -2 8233.18 1194.73   2
 -28  16  -2 5527.82 921.658   1
  28 -12   1 987.547 674.696   3
 -12 -16   1 1031.22 784.650   2
  12 -28   1 683.782 484.835   4
 -12 -16   1 620.802 540.579   4
 -28  16   1 1233.84 533.898   1
 -16  28   1 1818.22 773.558   1
  12 -28   1 391.000 470.231   2
  16  12   1 632.416 562.518   3
  16  12   4 4581.32 646.471   3
  28 -12   4 6218.76 1041.33   3
  12 -28   4 6252.57 740.496   4
 -28  16   4 4831.67 690.433   1
 -12 -16   4 4869.73 793.362   4
 -16  28   4 7054.46 1155.74   1
 -28  17  -6 1776.26 920.007   1
  28 -11  -6 4257.42 990.234   3
  11 -28  -6 4520.79 1108.02   4
 -11 -17  -6 7118.09 1160.82   4
 -17  28  -6 5172.94 1049.25   1
  11 -28  -6 3334.32 1153.28   2
  17  11  -6 6528.01 1119.33   3
 -11 -17  -6 4507.34 1153.40   2
 -11 -17  -3 4511.69 1083.54   2
  28 -11  -3 6035.97 1032.61   3
  11 -28  -3 5467.84 1023.02   4
 -17  28  -3 5496.61 1016.08   1
 -11 -17  -3 6992.68 1053.57   4
  11 -28  -3 5908.45 1129.91   2
  17  11  -3 6583.45 932.717   3
 -28  17  -3 6192.55 955.068   1
 -11 -17   0 7762.57 1119.94   2
  28 -11   0 4616.38 948.375   3
 -28  17   0 6985.88 858.959   1
  11 -28   0 6397.25 948.087   4
 -11 -17   0 8119.24 1030.19   4
  11 -28   0 5922.71 818.632   2
 -17  28   0 7465.26 1019.10   1
  17  11   0 7205.26 867.616   3
  28 -11   3 8241.33 1137.49   3
 -11 -17   3 10834.0 1275.66   2
  11 -28   3 10632.3 962.880   4
 -17  28   3 9180.63 1187.68   1
 -11 -17   3 10481.2 1038.99   4
 -28  17   3 8144.21 886.044   1
  17  11   3 8844.80 885.888   3
  28 -11   6 3369.85 957.848   3
 -17  28   6 5141.09 1157.97   1
 -28  18  -7 5470.76 1202.04   1
  10 -28  -7 4848.12 1163.45   4
 -10 -18  -7 9661.54 1416.58   4
 -18  28  -7 5818.92 1147.96   1
  10 -28  -7 6009.75 1479.23   2
  18  10  -7 6190.47 1110.10   3
 -10 -18  -7 4901.26 1204.38   2
  28 -10  -7 8156.09 1199.45   3
  28 -10  -4 11997.7 1305.74   3
  10 -28  -4 11421.3 1331.18   4
 -18  28  -4 10064.9 1247.90   1
 -10 -18  -4 12305.4 1316.78   4
  10 -28  -4 9496.95 1332.46   2
 -10 -18  -4 8198.66 1285.81   2
  18  10  -4 8936.95 1142.05   3
 -28  18  -4 9144.42 1192.48   1
  28 -10  -1 12130.9 1264.63   3
 -28  18  -1 12986.0 1182.57   1
  10 -28  -1 12761.4 1219.73   4
 -10 -18  -1 13501.9 1336.08   4
 -18  28  -1 12907.3 1286.66   1
  10 -28  -1 11478.4 1117.26   2
  18  10  -1 11402.0 1099.62   3
 -10 -18  -1 13567.7 1389.60   2
 -10 -18   2 9398.02 1210.54   2
  28 -10   2 7873.60 1151.48   3
 -18  28   2 7672.65 1116.26   1
  10 -28   2 8903.42 950.267   4
 -10 -18   2 10792.1 1069.28   4
 -28  18   2 8808.92 938.683   1
  10 -28   2 8905.23 857.589   2
  18  10   2 9342.30 912.608   3
  28 -10   5 5399.89 1057.26   3
 -18  28   5 6761.90 1160.21   1
 -10 -18   5 6808.10 860.624   4
  28  -9  -5 3259.70 938.854   3
 -28  19  -5 4083.37 977.662   1
   9 -28  -5 2093.88 859.823   4
  -9 -19  -5 4072.37 978.028   4
 -19  28  -5 3873.43 972.395   1
   9 -28  -5 2656.17 1075.27   2
  19   9  -5 3573.83 955.790   3
  -9 -19  -5 3718.26 1074.76   2
 -19  28  -2 2941.41 825.484   1
  -9 -19  -2 2370.01 822.131   2
  28  -9  -2 2000.41 743.054   3
 -28  19  -2 1918.12 686.010   1
   9 -28  -2 3762.48 909.752   4
  -9 -19  -2 1603.08 724.967   4
   9 -28  -2 2406.86 790.281   2
  19   9  -2 3619.46 787.808   3
  -9 -19   1 5659.13 1023.56   2
  28  -9   1 3952.90 910.930   3
   9 -28   1 5873.74 861.894   4
 -28  19   1 4281.18 763.192   1
  -9 -19   1 3776.17 749.318   4
   9 -28   1 4346.24 766.331   2
 -19  28   1 6845.41 1034.99   1
  19   9   1 3919.73 754.071   3
  19   9   4 3689.77 681.695   3
  28  -9   4 5784.46 1026.62   3
 -19  28   4 2727.68 832.557   1
 -28  19   4 4215.26 764.058   1
   9 -28   4 3137.09 624.325   4
  -9 -19   4 4644.61 736.980   4
  28  -8  -6 1607.40 904.735   3
 -28  20  -6 2138.56 942.536   1
   8 -28  -6 3534.23 1015.38   4
  -8 -20  -6 3432.34 1007.35   4
 -20  28  -6 2910.29 960.979   1
   8 -28  -6 3017.93 1157.19   2
  -8 -20  -6 1573.28 999.394   2
  20   8  -6 1525.69 794.591   3
  28  -8  -3 18748.8 1561.67   3
   8 -28  -3 25854.3 1844.97   4
 -20  28  -3 19045.6 1585.89   1
  -8 -20  -3 22747.2 1708.34   4
   8 -28  -3 21485.5 1708.15   2
  -8 -20  -3 17653.1 1654.99   2
  20   8  -3 20957.7 1509.58   3
 -28  20  -3 19939.8 1516.93   1
  -8 -20   0 4721.41 991.049   2
  28  -8   0 4384.07 920.323   3
 -28  20   0 5093.14 819.169   1
   8 -28   0 6217.79 958.818   4
  -8 -20   0 6186.71 935.064   4
 -20  28   0 5583.60 965.113   1
   8 -28   0 5881.59 866.721   2
  20   8   0 5507.36 855.023   3
  20   8   3 20737.7 1275.77   3
 -28  20   3 20313.7 1353.79   1
   8 -28   3 17910.7 1123.44   2
  28  -8   3 20193.7 1547.48   3
  -8 -20   3 20629.9 1654.32   2
 -20  28   3 19059.4 1567.89   1
   8 -28   3 20907.0 1311.10   4
  -8 -20   3 23252.3 1447.33   4
 -20  28   6 4515.48 1170.39   1
  28  -8   6 3747.33 957.827   3
  -8 -20   6 3966.13 730.030   4
  28  -7  -7 2258.43 943.942   3
 -28  21  -7 2476.23 1029.46   1
   7 -28  -7 2591.02 974.490   4
 -21  28  -7 4048.75 1053.58   1
  -7 -21  -7 3736.47 1133.23   4
   7 -28  -7 3519.54 1224.06   2
  -7 -21  -7 1509.68 1037.15   2
  21   7  -7 2150.30 899.775   3
  28  -7  -4 5315.60 1054.81   3
 -21  28  -4 7274.19 1158.44   1
   7 -28  -4 9245.26 1330.66   4
  -7 -21  -4 10179.3 1264.99   4
   7 -28  -4 5804.33 1155.42   2
  -7 -21  -4 6874.90 1234.87   2
  21   7  -4 7409.66 1085.92   3
 -28  21  -4 8417.03 1156.47   1
  -7 -21  -1 3332.18 844.843   2
  28  -7  -1 4657.63 916.925   3
 -21  28  -1 2251.60 856.607   1
   7 -28  -1 2544.34 743.587   4
  -7 -21  -1 3606.22 804.082   4
 -28  21  -1 4056.35 848.355   1
   7 -28  -1 1760.29 714.229   2
  21   7  -1 3541.91 829.263   3
  -7 -21   2 12976.7 1326.65   2
  28  -7   2 12054.8 1255.56   3
 -21  28   2 9044.16 1158.58   1
   7 -28   2 13385.6 1151.45   4
  -7 -21   2 12284.3 1151.53   4
 -28  21   2 9951.74 1065.69   1
   7 -28   2 13710.5 1111.65   2
  21   7   2 12738.7 1122.92   3
 -21  28   5 3159.50 956.635   1
  21   7   5 3644.98 753.950   3
  28  -7   5 3294.20 932.146   3
  -7 -21   5 3964.50 719.564   4
 -28  21   5 3685.36 800.384   1
  28  -6  -5 4154.99 984.451   3
 -28  22  -5 3378.04 984.683   1
   6 -28  -5 2001.38 883.228   4
  -6 -22  -5 3737.43 1003.25   4
 -22  28  -5 3472.38 964.531   1
   6 -28  -5 3544.02 1183.54   2
  -6 -22  -5 1564.91 907.431   2
  22   6  -5 3283.66 882.128   3
  -6 -22  -2 2174.28 905.180   2
  28  -6  -2 2731.58 877.398   3
   6 -28  -2 1410.37 692.621   4
 -28  22  -2 3232.26 810.998   1
  -6 -22  -2 3920.92 876.855   4
   6 -28  -2 1538.94 780.554   2
 -22  28  -2 3495.34 917.288   1
  22   6  -2 3594.19 825.838   3
 -28  22   1 2782.93 749.836   1
  22   6   1 2942.43 730.450   3
   6 -28   1 3433.90 752.299   2
  28  -6   1 4267.04 894.088   3
  -6 -22   1 3594.27 910.988   2
   6 -28   1 4678.31 869.349   4
 -22  28   1 5409.96 969.765   1
  -6 -22   1 5944.85 947.807   4
 -22  28   4-297.030 777.956   1
  22   6   4 834.369 579.494   3
  28  -6   4-442.655 714.898   3
 -28  22   4 801.010 657.893   1
   6 -28   4 494.744 502.242   4
  -6 -22   4-259.230 495.534   4
 -22  28   7 143.096 913.926   1
 -23  28  -6 10227.8 1384.57   1
   5 -28  -6 11785.0 1580.97   4
  -5 -23  -6 12733.1 1499.32   4
   5 -28  -6 5935.67 1423.58   2
  -5 -23  -6 5958.90 1406.80   2
  23   5  -6 6331.59 1149.86   3
 -28  23  -6 10051.0 1351.60   1
  28  -5  -6 8747.50 1322.19   3
 -28  23  -3 11891.9 1301.04   1
 -23  28  -3 15513.4 1504.84   1
   5 -28  -3 15333.6 1488.63   4
  -5 -23  -3 19391.2 1620.05   4
   5 -28  -3 12835.7 1438.06   2
  -5 -23  -3 18058.9 1702.43   2
  23   5  -3 15801.0 1444.17   3
  28  -5  -3 16260.8 1487.48   3
  28  -5   0 4373.58 903.181   3
   5 -28   0 6136.98 967.984   4
 -28  23   0 5164.19 901.456   1
  -5 -23   0 6045.07 971.567   4
 -23  28   0 5795.49 1061.17   1
   5 -28   0 5939.90 953.361   2
  -5 -23   0 6565.38 1094.68   2
  23   5   0 4810.78 928.014   3
  23   5   3 8583.41 987.455   3
 -28  23   3 6853.07 985.388   1
   5 -28   3 7573.49 948.048   2
  -5 -23   3 8575.29 1174.58   2
  28  -5   3 7210.46 1016.47   3
 -23  28   3 8606.78 1224.61   1
   5 -28   3 10067.7 998.030   4
  -5 -23   3 9983.03 1015.13   4
  28  -5   6 2955.77 890.113   3
 -23  28   6 2338.71 959.254   1
 -28  23   6 1874.80 841.377   1
 -28  24  -4 4590.46 1027.20   1
   4 -28  -4 5938.13 1149.98   4
  -4 -24  -4 6110.05 1101.40   4
 -24  28  -4 4644.60 1081.35   1
   4 -28  -4 5658.60 1194.75   2
  -4 -24  -4 5384.43 1178.24   2
  28  -4  -4 6366.54 1134.70   3
  24   4  -4 4808.02 1040.08   3
  28  -4  -1 12987.9 1348.32   3
 -28  24  -1 11550.2 1222.05   1
   4 -28  -1 14514.6 1349.51   4
  -4 -24  -1 16068.6 1404.54   4
 -24  28  -1 13180.6 1389.73   1
   4 -28  -1 11089.2 1232.63   2
  -4 -24  -1 12947.8 1370.40   2
  24   4  -1 12990.4 1266.37   3
  24   4   2 3617.64 818.162   3
  28  -4   2 3134.73 870.106   3
   4 -28   2 3648.61 786.012   2
  -4 -24   2 4361.32 920.711   2
 -28  24   2 2766.66 802.282   1
   4 -28   2 3094.95 729.946   4
  -4 -24   2 3666.40 755.873   4
 -24  28   2 2265.58 844.963   1
 -24  28   5 7576.41 1213.16   1
  24   4   5 6827.82 949.262   3
  28  -4   5 7641.01 1149.60   3
  -4 -24   5 8344.83 907.662   4
 -28  24   5 7526.25 1112.15   1
  28  -3  -5 771.471 784.271   3
 -28  25  -5 1789.66 868.937   1
   3 -28  -5 1797.14 908.590   4
  -3 -25  -5 1211.11 956.576   4
 -25  28  -5 2154.14 876.964   1
   3 -28  -5 378.621 947.249   2
  -3 -25  -5 891.187 976.362   2
  25   3  -5 1333.84 862.379   3
  25   3  -2 4518.82 965.784   3
   3 -28  -2 7601.77 1162.33   4
  -3 -25  -2 5032.14 1025.63   4
 -28  25  -2 4615.05 998.053   1
 -25  28  -2 5553.06 1038.53   1
   3 -28  -2 3921.67 989.643   2
  -3 -25  -2 5867.65 1126.38   2
  28  -3  -2 5968.20 1099.91   3
  25   3   1 496.910 645.908   3
   3 -28   1 425.185 690.532   2
  28  -3   1 353.152 631.794   3
  -3 -25   1 380.588 703.190   2
 -28  25   1 545.705 647.868   1
 -25  28   1 1226.38 760.164   1
   3 -28   1 17.8695 576.823   4
  -3 -25   1-42.7462 632.711   4
  25   3   4 1948.66 724.034   3
  28  -3   4 1646.57 752.939   3
 -28  25   4 1335.50 812.789   1
   3 -28   4 3468.63 693.558   4
  -3 -25   4 2568.10 674.456   4
 -25  28   4 2525.39 939.793   1
  28  -2  -6 2380.81 1001.71   3
 -28  26  -6 2010.93 1016.52   1
 -26  28  -6-59.8291 955.455   1
   2 -28  -6 78.8090 878.699   4
  -2 -26  -6 2081.26 1013.55   4
   2 -28  -6 1774.40 1069.22   2
  -2 -26  -6 1948.24 1104.20   2
  26   2  -6-564.569 822.394   3
 -28  26  -3 10806.1 1328.59   1
 -26  28  -3 10748.6 1322.15   1
   2 -28  -3 13844.9 1444.83   4
  -2 -26  -3 12773.0 1410.17   4
   2 -28  -3 10001.4 1371.92   2
  -2 -26  -3 8514.37 1315.34   2
  26   2  -3 10286.4 1276.58   3
  28  -2  -3 8725.00 1233.29   3
  28  -2   0 7026.45 1120.63   3
 -28  26   0 5418.80 968.312   1
   2 -28   0 5986.99 980.137   2
  -2 -26   0 7649.78 1117.97   4
   2 -28   0 5783.58 950.781   4
 -26  28   0 7423.97 1094.74   1
  -2 -26   0 6653.78 1145.53   2
  26   2   0 5423.96 956.807   3
  26   2   3 9121.48 1120.28   3
  28  -2   3 7001.58 1091.32   3
   2 -28   3 9947.96 1155.46   2
  -2 -26   3 10519.4 1234.66   2
 -28  26   3 8114.82 1154.31   1
 -26  28   3 8740.98 1214.59   1
   2 -28   3 10585.3 1049.27   4
  -2 -26   3 11033.7 1097.49   4
  28  -2   6 1157.55 822.099   3
 -26  28   6 1321.01 934.549   1
 -28  26   6 879.245 854.522   1
  27   1  -4 2413.31 919.117   3
  28  -1  -4 1234.99 836.366   3
   1 -28  -4 895.896 833.351   4
  -1 -27  -4 2385.26 975.028   4
 -28  27  -4 2233.07 907.230   1
 -27  28  -4 2338.44 945.541   1
   1 -28  -4 2942.06 1084.90   2
  -1 -27  -4 1302.21 945.755   2
  -1 -27  -1 4432.77 967.764   2
  27   1  -1 3391.13 940.446   3
  28  -1  -1-55.9757 732.419   3
   1 -28  -1 3440.85 912.407   4
  -1 -27  -1 2318.03 811.155   4
 -28  27  -1 3548.11 883.108   1
 -27  28  -1 3247.90 856.301   1
   1 -28  -1 1265.36 777.463   2
  27   1   2 2117.90 815.345   3
  28  -1   2 2158.30 855.801   3
   1 -28   2 1381.49 760.847   2
  -1 -27   2 1200.18 736.779   2
   1 -28   2 1716.33 682.602   4
  -1 -27   2 1824.83 729.830   4
 -28  27   2 680.057 727.571   1
 -27  28   2 1552.39 773.892   1
  27   1   5 2693.32 887.580   3
  28  -1   5 5475.67 1068.00   3
 -28  27   5 4327.03 1066.15   1
 -27  28   5 5487.96 1151.05   1
  28   0  -5 602.218 918.327   3
 -28  28  -5 2555.37 991.748   1
   0 -28  -5 843.828 871.477   4
   0 -28  -5 546.946 936.578   2
  28   0  -2-205.244 776.043   3
   0 -28  -2 168.344 661.392   4
 -28  28  -2 1246.72 841.106   1
   0 -28  -2 1933.27 864.512   2
  28   0   1-335.013 663.361   3
   0 -28   1-405.226 768.026   2
 -28  28   1 1060.18 755.847   1
   0 -28   1 183.863 623.796   4
  28   0   4 6031.50 1032.82   3
   0 -28   4 6498.40 918.281   4
 -28  28   4 5890.37 1103.30   1
   0  29  -2 6544.00 1140.63   1
 -29   0  -2 4681.51 1149.42   2
  29 -29  -2 6044.31 1173.53   3
  29 -29  -2 4435.23 1194.58   4
  29 -29  -2 3282.45 1009.46   2
   0  29  -2 5998.20 1038.78   3
  29 -29   1 153.992 766.185   4
   0  29   1 539.599 589.271   3
   0  29   1-214.327 767.475   1
  29 -29   4 4385.16 1004.12   4
  -1  29  -3 1837.77 832.247   1
 -28  -1  -3 2322.87 983.558   2
 -29   1  -3 1268.37 881.265   2
  29 -28  -3 2424.57 921.757   3
  28 -29  -3 2491.90 952.053   3
  29 -28  -3 3239.33 1066.83   4
  28 -29  -3 284.573 929.968   4
  29 -28  -3 1706.78 1104.84   2
  28 -29  -3 2092.68 1039.34   2
 -28  -1  -3 556.253 769.561   1
 -29   1  -3 1636.30 819.501   1
   1  28  -3 2764.55 918.633   1
 -28  -1  -3 1283.17 815.857   4
  -1  29  -3 3458.11 970.480   3
   1  28  -3 2886.14 871.314   3
   1  28   0 2194.48 927.241   1
  29 -28   0 1415.26 840.843   4
  28 -29   0-194.446 824.552   4
  -1  29   0 873.869 812.978   1
  -1  29   0 763.381 627.350   3
   1  28   0 671.435 607.550   3
  29 -28   3 1107.91 827.406   4
  28 -29   3 125.764 735.060   4
 -27  -2  -4 1594.55 870.201   2
 -29   2  -4 1236.82 829.256   2
  29 -27  -4 3668.94 1037.66   3
  27 -29  -4 867.815 861.790   3
  29 -27  -4 1832.73 1026.20   4
   2  27  -4 4171.08 1029.05   1
  27 -29  -4 2910.17 1054.95   4
  -2  29  -4 1615.53 859.092   1
  29 -27  -4 3301.23 1259.55   2
  27 -29  -4 3144.92 1264.42   2
 -27  -2  -4 1952.45 877.143   1
 -29   2  -4 2633.50 916.508   1
 -27  -2  -4 3684.08 1064.84   4
  -2  29  -4 2058.14 915.543   3
   2  27  -4 3113.13 902.134   3
 -27  -2  -1 4656.61 1101.09   2
  29 -27  -1 5157.50 1052.80   3
  29 -27  -1 5324.29 1140.15   4
  27 -29  -1 5276.48 1108.66   4
  27 -29  -1 5328.51 997.288   2
  29 -27  -1 3597.09 978.791   2
   2  27  -1 4389.20 1002.05   1
  -2  29  -1 5237.83 957.066   3
   2  27  -1 6493.97 925.633   3
  -2  29  -1 4499.97 1022.65   1
  29 -27   2 1527.51 837.292   4
  27 -29   2 2724.03 918.049   4
  -2  29   2 2216.35 627.459   3
   2  27   2 2936.86 628.548   3
  -2  29   2 1197.51 822.134   1
 -26  -3  -5-88.2241 827.278   2
 -29   3  -5 475.207 763.467   2
  29 -26  -5 1676.17 1011.23   3
  26 -29  -5 681.842 771.609   3
  29 -26  -5-154.737 919.153   4
  26 -29  -5 26.6237 1006.87   4
  29 -26  -5-681.015 1196.85   2
 -26  -3  -5-426.654 918.139   1
  26 -29  -5 968.042 1123.34   2
 -29   3  -5-428.605 856.164   1
 -26  -3  -5 869.261 869.758   4
  -3  29  -5 41.1576 800.459   3
   3  26  -5 1480.15 809.950   3
  -3  29  -5 477.542 821.141   1
   3  26  -5 1374.35 797.283   1
 -26  -3  -2 2680.28 884.475   2
  29 -26  -2 2282.60 910.979   3
  29 -26  -2 3120.87 974.031   4
  26 -29  -2 3012.95 1003.36   4
  29 -26  -2 4399.73 1071.73   2
   3  26  -2 4672.49 978.485   1
  26 -29  -2 3468.21 982.924   2
 -26  -3  -2 4295.25 841.936   1
 -26  -3  -2 4353.66 998.011   4
  -3  29  -2 3776.65 868.762   3
 -29   3  -2 3498.34 787.201   1
   3  26  -2 3071.35 838.873   3
  -3  29  -2 5194.86 1019.24   1
  26 -29   1 1154.05 778.948   4
  -3  29   1 2234.93 858.766   1
  -3  29   1 1817.05 599.161   3
   3  26   1 1281.07 583.789   3
  26 -29   4 7973.15 1061.23   4
 -25  -4  -3 7286.67 1198.83   2
   4  25  -3 7458.98 1080.69   1
 -29   4  -3 6951.82 1136.20   2
  29 -25  -3 6581.01 1115.42   3
  -4  29  -3 5801.87 1038.08   1
  29 -25  -3 6918.14 1341.10   4
  25 -29  -3 5990.73 1143.88   4
  29 -25  -3 5200.39 1164.13   2
 -25  -4  -3 5601.11 1011.94   1
  25 -29  -3 5088.49 1106.41   2
 -29   4  -3 6686.87 993.074   1
 -25  -4  -3 7213.03 1141.89   4
  -4  29  -3 7117.20 1122.37   3
   4  25  -3 6493.51 1015.89   3
  29 -25   0 1488.90 865.803   3
 -25  -4   0 2065.23 873.723   2
  25 -29   0 1944.01 844.541   4
  29 -25   0 1000.87 687.456   2
   4  25   0 2121.85 876.969   1
 -25  -4   0 1473.20 817.168   4
  -4  29   0 2245.54 688.484   3
  -4  29   0 1366.82 853.527   1
   4  25   0 1066.66 561.337   3
  25 -29   3 8701.63 1086.61   4
  -4  29   3 7830.02 1350.81   1
 -24  -5  -4 921.718 903.841   2
  29 -24  -4-143.544 732.084   3
 -29   5  -4 586.678 712.300   2
  29 -24  -4 2261.80 997.289   4
  24 -29  -4 1565.96 970.053   4
  29 -24  -4 1829.79 1038.74   2
 -24  -5  -4 623.390 784.443   1
  24 -29  -4 1130.37 936.862   2
 -24  -5  -4 185.935 710.699   4
 -29   5  -4 904.262 762.802   1
  -5  29  -4 291.576 808.226   3
   5  24  -4 69.7883 742.804   3
  -5  29  -4 2860.29 831.899   1
   5  24  -4 893.027 624.215   1
 -24  -5  -1 1135.24 910.486   2
  29 -24  -1 476.717 755.976   3
  24 -29  -1 635.592 763.743   4
  29 -24  -1 2205.99 899.490   2
 -24  -5  -1 285.699 579.004   1
  24 -29  -1 871.155 644.018   2
 -24  -5  -1 857.165 729.725   4
  -5  29  -1 286.097 656.055   3
   5  24  -1 1181.68 723.752   1
   5  24  -1 243.554 620.296   3
  -5  29  -1 1310.40 739.046   1
 -29   5  -1 694.355 522.575   1
  29 -24   2 5672.90 1073.06   3
  24 -29   2 3500.52 878.700   4
  -5  29   2 5351.18 1131.82   1
  -5  29   2 6936.32 830.719   3
   5  24   2 4693.75 694.950   3
 -23  -6  -5 3517.55 1036.66   2
  29 -23  -5 2513.02 938.164   3
 -29   6  -5 3412.83 897.975   2
  29 -23  -5 5523.98 1194.04   4
  29 -23  -5 3485.98 1300.89   2
  23 -29  -5 5029.26 1163.93   4
 -29   6  -5 5035.23 1142.92   1
  -6  29  -5 4324.02 1038.44   1
  23 -29  -5 4149.02 1207.98   2
 -23  -6  -5 7157.54 1167.71   4
  -6  29  -5 6805.13 1208.03   3
   6  23  -5 3964.05 949.324   3
   6  23  -5 4993.47 853.814   1
 -23  -6  -2 6496.57 1162.97   2
  -6  29  -2 4468.48 951.994   1
  29 -23  -2 4437.03 1009.81   3
  23 -29  -2 7024.01 1189.31   4
  29 -23  -2 4548.28 1124.94   2
  23 -29  -2 4133.31 958.444   2
 -23  -6  -2 5651.12 1057.92   4
 -29   6  -2 7395.74 960.893   1
   6  23  -2 5717.14 917.258   3
   6  23  -2 5590.41 964.517   1
  29 -23   1 1876.49 838.342   3
 -23  -6   1 4432.85 1038.00   2
  29 -23   1 885.795 633.807   2
  23 -29   1 1619.31 749.426   4
 -23  -6   1 1339.61 751.009   4
  -6  29   1 2412.07 655.677   3
   6  23   1 1665.92 574.163   3
  -6  29   1 2200.07 879.444   1
  23 -29   4 7616.28 932.018   4
  -6  29   4 8245.94 1323.15   1
 -22  -7  -6 2289.00 1067.67   2
  29 -22  -6 3102.79 1017.03   3
 -29   7  -6 1557.44 772.933   2
  -7  29  -6 4253.86 1055.45   1
  29 -22  -6 1428.24 910.398   4
  29 -22  -6 1779.29 1217.59   2
  22 -29  -6 21.6697 851.014   4
  22 -29  -6 1596.59 1165.57   2
 -22  -7  -6 3795.84 960.797   4
 -29   7  -6 1174.72 848.642   1
  -7  29  -6 5326.16 1284.87   3
   7  22  -6 3474.29 1018.55   3
 -22  -7  -3 6820.36 1192.28   2
  -7  29  -3 7549.34 1138.23   1
  29 -22  -3 7014.43 1180.96   3
  29 -22  -3 9654.64 1480.38   2
  22 -29  -3 8867.81 1294.71   4
  22 -29  -3 4525.91 1057.45   2
 -29   7  -3 6643.08 969.755   1
 -22  -7  -3 7806.85 1140.31   4
   7  22  -3 6990.19 927.771   1
   7  22  -3 7791.24 1063.87   3
 -22  -7   0 6673.89 1129.89   2
  29 -22   0 7139.02 1158.81   3
  22 -29   0 8326.36 1199.87   4
  22 -29   0 5687.61 820.826   2
 -22  -7   0 8460.25 1195.88   4
   7  22   0 7213.71 862.772   3
  -7  29   0 4874.80 969.534   1
 -29   7   0 5417.73 689.246   1
  29 -22   3 13385.3 1468.43   3
  22 -29   3 12611.4 1191.59   4
  -7  29   3 13249.6 1476.84   1
  -7  29   3 11888.6 944.904   3
 -21  -8  -4 2719.62 1012.10   2
  29 -21  -4 1568.82 872.278   3
  21 -29  -4 3148.56 1011.71   4
  -8  29  -4 972.797 762.075   1
  21 -29  -4 795.642 914.330   2
 -21  -8  -4 3017.29 859.550   4
 -29   8  -4 2627.52 794.619   1
   8  21  -4 421.850 647.454   3
   8  21  -4 749.687 610.906   1
 -29   8  -1 1466.97 566.419   1
  -8  29  -1 1511.24 738.454   1
 -21  -8  -1 1677.32 800.255   2
  29 -21  -1 1468.38 825.743   3
  21 -29  -1 1447.28 760.126   4
  21 -29  -1 269.595 620.892   2
 -21  -8  -1 1866.91 791.796   4
   8  21  -1 983.105 580.963   3
  -8  29   2 1381.71 784.886   1
  29 -21   2 1503.81 788.704   3
  21 -29   2 377.886 621.428   4
 -21  -8   2 1568.48 662.996   4
   8  21   2 839.769 488.989   3
  29 -20  -5 2309.16 960.594   3
 -29   9  -5 4719.20 897.690   2
  20 -29  -5 8124.04 1339.48   4
  20 -29  -5 4097.46 1202.74   2
 -29   9  -5 6008.03 1128.74   1
 -20  -9  -5 5812.33 1045.78   4
  -9  29  -5 6947.39 1124.77   1
   9  20  -5 6476.90 1047.55   3
 -20  -9  -5 10498.6 1451.02   2
 -20  -9  -2 20771.8 1713.02   2
  -9  29  -2 19808.5 1576.61   1
  29 -20  -2 18902.2 1627.65   3
  20 -29  -2 22330.8 1759.95   4
  20 -29  -2 21267.8 1564.43   2
 -20  -9  -2 22112.0 1651.24   4
 -29   9  -2 20470.3 1386.46   1
   9  20  -2 24327.2 1513.37   3
 -29   9   1 5867.52 651.563   1
  29 -20   1 9026.62 1217.52   3
 -20  -9   1 6250.22 1131.05   2
  20 -29   1 6010.48 939.898   4
 -20  -9   1 5490.25 947.062   4
   9  20   1 6530.78 763.523   3
  -9  29   1 5319.04 1040.65   1
  20 -29   4 8024.85 913.193   4
  -9  29   4 8344.71 1296.52   1
  29 -19  -6 7709.40 1201.23   3
 -29  10  -6 4915.95 890.575   2
  19 -29  -6 5363.81 1250.97   4
  19 -29  -6 5445.20 1369.91   2
 -19 -10  -6 7791.69 1208.63   4
 -10  29  -6 7586.94 1151.66   1
 -29  10  -6 7142.48 1190.26   1
  10  19  -6 7589.73 1194.53   3
 -19 -10  -6 7526.23 1283.04   2
 -19 -10  -3 4952.54 1083.50   2
  29 -19  -3 3986.48 968.130   3
  19 -29  -3 5583.22 1086.24   4
 -10  29  -3 5356.23 972.177   1
 -19 -10  -3 5514.87 1027.24   4
  19 -29  -3 5434.29 1053.10   2
  10  19  -3 7489.37 983.847   3
 -29  10  -3 4329.17 877.664   1
 -19 -10   0 12617.0 1396.56   2
  29 -19   0 11607.8 1335.95   3
  19 -29   0 12681.7 1308.40   4
 -10  29   0 14524.0 1419.75   1
  19 -29   0 11060.7 1005.00   2
 -19 -10   0 13108.6 1280.09   4
  10  19   0 11139.0 988.577   3
 -29  10   0 12218.6 932.016   1
 -10  29   3 3367.49 950.108   1
  29 -19   3 4188.55 999.807   3
  19 -29   3 3827.04 741.944   4
 -19 -10   3 4855.67 898.375   4
  10  19   3 2439.47 554.400   3
 -18 -11  -7-375.088 955.017   2
  29 -18  -7 803.413 791.341   3
  29 -18  -7 547.785 793.584   4
  29 -18  -7 789.784 1121.75   2
  18 -29  -7 1402.54 927.805   4
  18 -29  -7-238.080 1050.89   2
 -18 -11  -7 1986.59 959.336   4
 -29  11  -7 2600.48 1009.84   1
  11  18  -7 2309.64 935.591   3
 -11  29  -7 929.239 774.712   1
 -18 -11  -4-201.289 789.907   2
  29 -18  -4 790.087 761.843   3
 -11  29  -4 802.532 747.007   1
  18 -29  -4-151.134 786.746   4
  18 -29  -4 665.260 808.621   2
 -18 -11  -4 1155.03 737.685   4
  11  18  -4-43.3300 574.474   3
 -29  11  -4 143.665 630.341   1
 -29  11  -1 2340.29 651.963   1
  29 -18  -1 1412.54 812.876   3
 -18 -11  -1 2932.24 949.173   2
  18 -29  -1 2503.26 801.294   4
 -18 -11  -1 3987.58 840.947   4
  18 -29  -1 1973.70 695.148   2
 -11  29  -1 3485.61 882.206   1
  11  18  -1 1782.59 657.127   3
  29 -18   2 162.275 748.131   3
 -18 -11   2 777.088 722.752   2
 -11  29   2 1130.41 744.502   1
  18 -29   2 3507.73 753.065   4
 -18 -11   2 747.763 596.901   4
  11  18   2 2617.46 552.099   3
 -29  11   2 2200.76 493.185   1
 -11  29   5 2103.10 908.012   1
  29 -17  -5 7768.22 1157.65   3
  17 -29  -5 7733.56 1267.10   4
 -17 -12  -5 7391.61 1148.10   4
 -12  29  -5 9283.65 1175.14   1
  17 -29  -5 7344.94 1312.32   2
 -29  12  -5 6911.99 1117.51   1
  12  17  -5 7616.51 1134.52   3
 -17 -12  -5 6160.81 1292.46   2
 -29  12  -2 1956.00 699.333   1
 -17 -12  -2 821.025 783.654   2
  29 -17  -2 1061.79 706.599   3
  17 -29  -2 762.807 676.008   4
 -12  29  -2 836.426 706.406   1
 -17 -12  -2 726.290 637.235   4
  17 -29  -2 1565.13 727.600   2
  12  17  -2 424.290 559.702   3
 -17 -12   1 5435.40 1074.13   2
  29 -17   1 5734.79 1053.32   3
 -29  12   1 5163.69 682.940   1
  17 -29   1 4141.04 815.997   4
 -12  29   1 7428.31 1110.72   1
 -17 -12   1 5829.92 917.356   4
  17 -29   1 6248.22 664.844   2
  12  17   1 5314.84 770.296   3
  29 -17   4 1151.26 812.612   3
  17 -29   4 1554.81 563.079   4
 -12  29   4 1647.90 848.587   1
 -17 -12   4 1677.23 664.667   4
  29 -16  -6 11559.0 1360.48   3
  16 -29  -6 14479.6 1627.98   4
 -13  29  -6 11888.9 1364.57   1
  16 -29  -6 11160.9 1700.41   2
 -16 -13  -6 15764.7 1530.60   4
 -29  13  -6 15069.6 1557.34   1
  13  16  -6 15019.7 1425.34   3
 -16 -13  -6 14662.4 1701.60   2
 -29  13  -3 1418.20 679.601   1
 -16 -13  -3 1469.30 830.160   2
  29 -16  -3 2155.16 807.675   3
 -13  29  -3 1623.39 871.992   1
  16 -29  -3 2177.62 885.422   4
 -16 -13  -3 2153.67 743.708   4
  16 -29  -3 2498.40 798.841   2
  13  16  -3 773.364 639.911   3
 -16 -13   0 16701.8 1526.70   2
 -29  13   0 17469.0 1154.07   1
  29 -16   0 14150.7 1401.66   3
 -13  29   0 13521.7 1353.02   1
  16 -29   0 16706.6 1395.48   4
 -16 -13   0 19480.2 1495.00   4
  16 -29   0 16903.1 1181.59   2
  13  16   0 18535.8 1247.61   3
  29 -16   3 1441.35 806.307   3
  16 -29   3-67.7924 499.738   4
 -16 -13   3-279.959 531.568   4
 -13  29   3 49.5231 684.384   1
  13  16   3 53.0796 427.045   3
 -13  29   6 13799.8 1560.41   1
  29 -15  -7 4731.46 1066.02   3
  15 -29  -7 5760.31 1285.92   4
 -15 -14  -7 7280.07 1260.97   4
  15 -29  -7 3681.07 1327.54   2
 -14  29  -7 4323.60 1045.39   1
  14  15  -7 7420.49 1216.68   3
 -29  14  -7 4969.23 1171.66   1
 -15 -14  -7 5125.02 1195.35   2
 -14  29  -4 1264.31 700.913   1
 -15 -14  -4 735.107 837.027   2
  29 -15  -4 1164.37 764.702   3
  15 -29  -4 482.677 736.467   4
 -15 -14  -4 1232.06 799.987   4
  15 -29  -4 1468.71 898.189   2
  14  15  -4 499.276 643.566   3
 -29  14  -4 1791.24 815.061   1
 -15 -14  -1 7952.49 1156.36   2
  29 -15  -1 8118.90 1141.10   3
  15 -29  -1 10171.7 1172.63   4
  15 -29  -1 9158.23 1015.30   2
  14  15  -1 10309.4 1065.89   3
 -14  29  -1 10953.7 1185.90   1
 -29  14  -1 9395.03 987.040   1
 -29  14   2 239.377 440.225   1
  29 -15   2 15.5398 660.532   3
 -15 -14   2-617.301 692.000   2
  15 -29   2 452.031 571.998   4
 -15 -14   2-312.951 572.655   4
  14  15   2 212.486 444.470   3
 -14  29   5 1306.37 879.285   1
  29 -15   5 1100.88 864.358   3
  29 -14  -5 639.584 791.608   3
  14 -29  -5 645.976 714.502   4
 -14 -15  -5 2197.72 862.333   4
  14 -29  -5 846.086 835.244   2
 -15  29  -5 632.135 772.889   1
  15  14  -5 707.521 689.751   3
 -29  15  -5 1087.09 775.646   1
 -14 -15  -5 1110.00 930.292   2
 -14 -15  -2 174.155 716.377   2
  29 -14  -2 507.370 743.590   3
 -29  15  -2-410.483 579.183   1
 -15  29  -2-21.3084 715.466   1
  14 -29  -2 72.9518 602.069   4
 -14 -15  -2 1548.97 716.326   4
  14 -29  -2 1083.47 698.482   2
  15  14  -2 93.3617 641.576   3
 -14 -15   1 9856.53 1238.61   2
  29 -14   1 10280.8 1248.82   3
 -15  29   1 9640.34 1217.15   1
 -29  15   1 9026.16 885.454   1
  14 -29   1 11563.3 1137.29   4
 -14 -15   1 10907.2 1186.63   4
  14 -29   1 8707.85 836.389   2
  15  14   1 9138.77 906.643   3
  15  14   4 767.153 435.211   3
 -15  29   4 2334.45 915.839   1
  29 -14   4 1376.38 843.033   3
  14 -29   4 1266.49 503.779   4
 -14 -15   4 1656.73 640.020   4
  29 -13  -6 15562.1 1551.80   3
  13 -29  -6 19547.2 1838.83   4
 -16  29  -6 14342.8 1495.96   1
 -13 -16  -6 15435.1 1566.85   4
  13 -29  -6 11259.5 1699.77   2
 -29  16  -6 12055.7 1477.15   1
  16  13  -6 14951.4 1466.52   3
 -13 -16  -6 11964.3 1592.76   2
 -13 -16  -3-469.419 801.988   2
 -16  29  -3-345.137 737.427   1
  29 -13  -3 1520.76 761.106   3
 -29  16  -3-101.230 700.358   1
  13 -29  -3 623.416 689.004   4
 -13 -16  -3 484.463 651.617   4
  13 -29  -3-543.890 715.331   2
  16  13  -3 1291.25 676.430   3
 -13 -16   0 15653.5 1482.18   2
  29 -13   0 16758.7 1489.15   3
 -29  16   0 16250.8 1205.89   1
  13 -29   0 15663.1 1337.61   4
 -13 -16   0 18223.4 1429.36   4
  13 -29   0 13751.4 1120.83   2
  16  13   0 16030.2 1176.74   3
 -16  29   0 14858.8 1423.67   1
 -16  29   3 1447.14 781.826   1
  16  13   3 2133.47 553.546   3
  29 -13   3-522.213 719.011   3
 -13 -16   3 998.462 861.915   2
  13 -29   3 1062.57 556.210   4
 -29  16   3 798.399 529.130   1
 -13 -16   3-144.686 652.321   4
 -16  29   6 12526.1 1542.11   1
  29 -12  -7 10667.5 1395.41   3
 -17  29  -7 11174.6 1415.01   1
  12 -29  -7 8692.37 1398.18   4
 -12 -17  -7 7619.93 1243.94   4
  12 -29  -7 7671.34 1535.25   2
 -29  17  -7 7849.98 1265.73   1
 -12 -17  -7 11939.4 1644.67   2
  17  12  -7 8938.67 1233.89   3
 -12 -17  -4 1271.37 902.289   2
  29 -12  -4 465.602 715.512   3
 -29  17  -4 1225.18 736.068   1
  12 -29  -4 2225.37 925.035   4
 -12 -17  -4 57.7166 646.651   4
  12 -29  -4 1081.53 912.373   2
  17  12  -4 1264.61 797.088   3
 -17  29  -4 415.725 698.094   1
 -29  17  -1 5369.48 829.241   1
  29 -12  -1 5557.76 1013.63   3
  12 -29  -1 6194.14 1037.62   4
 -12 -17  -1 6132.18 1014.54   4
  12 -29  -1 6667.64 963.853   2
 -17  29  -1 6101.89 1016.80   1
  17  12  -1 4945.17 789.485   3
 -12 -17  -1 6891.38 1160.90   2
  12 -29   2 1032.73 480.277   2
 -29  17   2 509.554 478.550   1
  29 -12   2 1511.89 796.774   3
 -12 -17   2 1396.69 763.509   2
 -17  29   2 1499.87 789.123   1
  12 -29   2 1335.56 579.691   4
 -12 -17   2 1407.28 603.470   4
  17  12   2 636.357 517.656   3
  29 -12   5 4680.67 1012.38   3
 -17  29   5 6427.19 1197.01   1
 -12 -17   5 4924.49 793.714   4
  29 -11  -5 873.096 818.350   3
 -29  18  -5 756.278 793.330   1
  11 -29  -5-707.085 825.872   4
 -11 -18  -5 772.853 788.075   4
  11 -29  -5 2259.82 976.874   2
 -18  29  -5-117.692 827.683   1
  18  11  -5 11.0717 694.772   3
 -11 -18  -5 2390.55 976.241   2
 -11 -18  -2 1764.72 840.719   2
  29 -11  -2 939.502 721.334   3
 -18  29  -2 2138.34 764.474   1
 -29  18  -2 1271.33 687.444   1
  11 -29  -2 1835.70 798.189   4
 -11 -18  -2 699.331 631.027   4
  11 -29  -2 1329.75 772.300   2
  18  11  -2 1872.23 715.624   3
  29 -11   1 2686.18 845.524   3
 -11 -18   1 3293.63 948.008   2
  11 -29   1 3099.69 712.675   4
 -11 -18   1 3379.72 765.055   4
 -29  18   1 3407.55 688.888   1
 -18  29   1 1434.43 743.917   1
  11 -29   1 2504.87 628.795   2
  18  11   1 2343.72 671.567   3
  18  11   4 585.546 497.924   3
  29 -11   4-147.963 723.544   3
 -29  18   4 132.161 543.502   1
  11 -29   4-147.115 441.742   4
 -11 -18   4 1020.88 597.922   4
 -18  29   4 644.796 798.426   1
  29 -10  -6 5713.36 1107.32   3
 -19  29  -6 7061.33 1183.50   1
  10 -29  -6 7914.15 1334.85   4
 -10 -19  -6 7356.99 1219.54   4
  10 -29  -6 5193.33 1338.40   2
 -29  19  -6 5626.03 1123.99   1
  19  10  -6 4888.16 1073.77   3
 -10 -19  -6 5650.11 1254.72   2
 -10 -19  -3 3655.53 995.069   2
  29 -10  -3 1085.78 792.646   3
 -29  19  -3 3208.24 824.200   1
  10 -29  -3 5536.19 1049.09   4
 -19  29  -3 5676.78 1036.67   1
 -10 -19  -3 4723.83 941.759   4
  10 -29  -3 2435.52 855.714   2
  19  10  -3 2481.01 769.102   3
  29 -10   0 12274.2 1294.64   3
 -29  19   0 11959.2 1102.64   1
  10 -29   0 11452.7 1242.69   4
 -10 -19   0 12501.7 1240.97   4
  10 -29   0 10783.4 1059.20   2
 -19  29   0 13099.7 1340.05   1
  19  10   0 10672.0 1088.87   3
 -10 -19   0 13241.8 1414.84   2
 -10 -19   3 6621.15 1121.83   2
  29 -10   3 3760.98 911.231   3
  10 -29   3 5517.02 784.012   4
 -19  29   3 8285.00 1191.11   1
 -10 -19   3 6927.83 935.811   4
 -29  19   3 4021.13 764.438   1
  19  10   3 6733.07 838.607   3
  29 -10   6 6636.77 1116.71   3
 -19  29   6 6237.86 1274.49   1
  29  -9  -7 1503.49 887.900   3
 -29  20  -7 2637.82 1011.61   1
   9 -29  -7 3023.43 1094.14   4
  -9 -20  -7 2731.00 1102.89   4
 -20  29  -7 5089.08 1174.34   1
   9 -29  -7 2977.18 1248.03   2
  -9 -20  -7 4404.56 1198.89   2
  20   9  -7 4465.01 1086.87   3
  29  -9  -4 7403.35 1226.98   3
 -29  20  -4 5518.39 1068.26   1
   9 -29  -4 9361.03 1265.44   4
 -20  29  -4 5650.33 1088.40   1
  -9 -20  -4 8561.81 1194.89   4
   9 -29  -4 7765.85 1264.18   2
  -9 -20  -4 6974.57 1257.92   2
  20   9  -4 6842.54 1112.82   3
  29  -9  -1 6043.69 1057.29   3
  -9 -20  -1 4413.40 981.737   2
 -29  20  -1 5605.22 894.682   1
   9 -29  -1 5601.64 979.428   4
  -9 -20  -1 5569.00 973.898   4
 -20  29  -1 6817.54 1065.90   1
   9 -29  -1 5836.73 950.231   2
  20   9  -1 6162.43 926.630   3
  -9 -20   2 24128.8 1760.94   2
  29  -9   2 18129.2 1523.24   3
 -20  29   2 17035.5 1517.42   1
   9 -29   2 20724.0 1381.55   4
  -9 -20   2 22048.4 1479.69   4
 -29  20   2 20151.9 1348.97   1
  20   9   2 16266.3 1230.45   3
   9 -29   2 19620.2 1266.69   2
  29  -9   5 4658.72 1033.04   3
 -20  29   5 5151.69 1165.05   1
  -9 -20   5 5648.83 827.191   4
  29  -8  -5 239.590 801.491   3
 -29  21  -5-1707.85 858.884   1
   8 -29  -5 1125.18 835.410   4
  -8 -21  -5 35.6338 788.316   4
 -21  29  -5-503.756 798.425   1
   8 -29  -5 332.512 927.965   2
  -8 -21  -5 721.704 935.262   2
  21   8  -5 186.580 688.926   3
 -21  29  -2 1681.53 777.329   1
  -8 -21  -2 1298.91 811.460   2
  29  -8  -2 661.893 699.879   3
 -29  21  -2 851.919 649.200   1
   8 -29  -2 925.354 703.357   4
  -8 -21  -2 1675.72 752.093   4
   8 -29  -2 1093.31 777.719   2
  21   8  -2 1068.03 662.494   3
  21   8   1 2112.70 706.192   3
   8 -29   1 1288.21 617.609   2
  29  -8   1 1100.36 755.615   3
  -8 -21   1 1823.65 852.129   2
   8 -29   1 1762.75 659.577   4
  -8 -21   1 1772.16 706.922   4
 -21  29   1 1286.34 687.682   1
 -29  21   1 1519.47 632.707   1
  21   8   4 1557.06 592.404   3
  29  -8   4-464.523 798.790   3
 -21  29   4 947.936 813.222   1
 -29  21   4 81.7439 638.348   1
   8 -29   4 544.762 527.738   4
  -8 -21   4 1393.65 644.922   4
  29  -7  -6 5672.95 1122.66   3
 -29  22  -6 5605.84 1158.46   1
   7 -29  -6 4973.27 1203.78   4
  -7 -22  -6 5840.67 1228.89   4
 -22  29  -6 3239.73 1083.89   1
   7 -29  -6 4799.45 1266.27   2
  -7 -22  -6 6062.17 1379.01   2
  22   7  -6 3399.82 1025.81   3
 -29  22  -3 13918.9 1405.70   1
   7 -29  -3 18009.1 1629.80   4
 -22  29  -3 13131.7 1428.27   1
  -7 -22  -3 12927.6 1376.29   4
   7 -29  -3 9841.77 1304.15   2
  -7 -22  -3 14620.6 1606.08   2
  22   7  -3 12944.1 1301.70   3
  29  -7  -3 13980.8 1453.36   3
  29  -7   0 4583.09 952.414   3
 -22  29   0 6800.63 1024.29   1
 -29  22   0 6048.19 977.297   1
   7 -29   0 5686.20 990.747   4
  -7 -22   0 6697.84 1013.73   4
  22   7   0 5814.95 913.053   3
   7 -29   0 4917.34 884.959   2
  -7 -22   0 7105.04 1161.92   2
  22   7   3 6841.38 877.856   3
 -29  22   3 5850.09 952.400   1
   7 -29   3 5631.25 820.512   2
  29  -7   3 7423.80 1090.35   3
  -7 -22   3 7744.49 1163.54   2
 -22  29   3 4587.94 985.425   1
   7 -29   3 6198.36 842.947   4
  -7 -22   3 7661.90 978.296   4
  29  -7   6 2054.82 906.012   3
 -22  29   6 4593.75 1130.72   1
 -29  23  -4 8461.70 1197.13   1
 -23  29  -4 7229.10 1152.24   1
   6 -29  -4 6214.14 1267.11   4
  -6 -23  -4 7565.98 1190.92   4
   6 -29  -4 6550.34 1235.93   2
  23   6  -4 7116.12 1116.90   3
  -6 -23  -4 5170.80 1208.71   2
  29  -6  -4 8455.74 1224.13   3
  -6 -23  -1 579.242 833.892   2
  29  -6  -1 1324.17 799.437   3
 -23  29  -1 1367.54 798.148   1
   6 -29  -1 2453.69 855.376   4
  -6 -23  -1 1825.76 731.614   4
 -29  23  -1 254.098 657.059   1
   6 -29  -1 1927.35 799.683   2
  23   6  -1 1009.14 728.113   3
  23   6   2 4945.93 874.863   3
  -6 -23   2 7520.76 1137.80   2
 -23  29   2 7034.37 1091.27   1
  29  -6   2 5668.90 1008.89   3
 -29  23   2 4605.01 875.613   1
   6 -29   2 6220.65 885.243   4
  -6 -23   2 7153.08 961.901   4
   6 -29   2 6333.44 896.440   2
 -23  29   5 4007.60 1141.01   1
  23   6   5 3308.49 771.551   3
  29  -6   5 3142.68 905.627   3
  -6 -23   5 3901.95 713.765   4
 -29  23   5 3057.09 867.776   1
  29  -5  -5 590.193 793.061   3
 -29  24  -5-428.199 791.830   1
   5 -29  -5 909.419 854.870   4
  -5 -24  -5 1251.82 823.349   4
 -24  29  -5 689.967 926.205   1
   5 -29  -5 724.017 965.271   2
  -5 -24  -5 154.192 909.164   2
  24   5  -5 426.917 766.134   3
  29  -5  -2 6388.62 1091.51   3
  -5 -24  -2 4920.62 1034.99   2
   5 -29  -2 4847.03 1029.30   4
  -5 -24  -2 5207.17 1037.13   4
 -29  24  -2 5256.60 968.449   1
   5 -29  -2 3989.87 957.350   2
  24   5  -2 5880.22 1043.63   3
 -24  29  -2 5726.12 1043.75   1
  24   5   1-1.72665 618.259   3
   5 -29   1-107.648 610.385   2
  29  -5   1 628.281 770.094   3
 -29  24   1-303.423 660.086   1
  -5 -24   1 417.712 754.795   2
   5 -29   1-200.387 591.187   4
 -24  29   1 531.327 697.986   1
  -5 -24   1-249.643 605.595   4
  24   5   4 284.893 613.919   3
  29  -5   4 1100.61 711.215   3
 -29  24   4 954.944 736.932   1
   5 -29   4-108.130 503.976   4
  -5 -24   4 382.155 509.591   4
 -24  29   4 2110.40 877.459   1
 -29  25  -3 6600.22 1165.76   1
 -25  29  -3 11096.9 1335.17   1
   4 -29  -3 12094.2 1460.37   4
  -4 -25  -3 11778.5 1403.81   4
   4 -29  -3 8761.70 1329.47   2
  -4 -25  -3 8646.40 1323.05   2
  25   4  -3 7892.32 1149.47   3
  29  -4  -3 7438.13 1212.73   3
   4 -29   0 1312.04 688.241   2
  25   4   0 974.052 717.025   3
  -4 -25   0 2659.37 920.873   2
  29  -4   0 2564.43 890.410   3
 -25  29   0 3449.40 930.875   1
   4 -29   0 3538.89 898.039   4
  -4 -25   0 2812.74 819.923   4
 -29  25   0 2086.70 775.145   1
  25   4   3 5263.85 908.175   3
  29  -4   3 5883.55 1029.87   3
  -4 -25   3 6628.83 1120.04   2
   4 -29   3 2870.04 798.810   2
 -25  29   3 4838.82 1014.82   1
   4 -29   3 4507.69 801.774   4
  -4 -25   3 6422.79 920.911   4
 -29  25   3 4421.05 922.658   1
 -29  26  -4 8476.67 1273.98   1
   3 -29  -4 6552.79 1185.77   4
  -3 -26  -4 7809.22 1245.52   4
 -26  29  -4 7123.87 1229.29   1
   3 -29  -4 7055.33 1279.34   2
  -3 -26  -4 8767.30 1466.18   2
  29  -3  -4 6461.05 1222.24   3
  26   3  -4 4719.53 1055.60   3
 -26  29  -1 3183.92 925.400   1
  26   3  -1 1639.35 776.450   3
  -3 -26  -1 656.822 750.293   2
  29  -3  -1 300.104 721.715   3
   3 -29  -1 1486.84 738.151   4
  -3 -26  -1 915.496 731.688   4
 -29  26  -1 301.342 722.823   1
   3 -29  -1 1874.37 846.738   2
  26   3   2 2257.82 763.069   3
  29  -3   2 2013.36 761.982   3
   3 -29   2 3105.86 815.662   2
  -3 -26   2 3182.27 911.240   2
 -29  26   2 2631.15 836.282   1
   3 -29   2 3499.57 810.600   4
  -3 -26   2 4549.82 849.798   4
 -26  29   2 3654.16 1002.58   1
  26   3   5 785.200 741.662   3
  29  -3   5 47.7897 756.729   3
 -29  26   5 229.422 797.383   1
 -26  29   5 205.793 838.008   1
  29  -2  -5 2260.02 959.931   3
 -29  27  -5 177.373 896.881   1
   2 -29  -5 4203.31 1091.14   4
  -2 -27  -5 537.427 890.554   4
 -27  29  -5 2994.28 1056.41   1
   2 -29  -5-285.585 907.437   2
  -2 -27  -5 988.926 1033.11   2
  27   2  -5 2336.44 991.378   3
  27   2  -2 1395.38 842.008   3
  29  -2  -2 1281.20 883.450   3
   2 -29  -2 3975.17 1031.02   4
  -2 -27  -2 2117.11 887.212   4
 -29  27  -2 610.055 846.639   1
 -27  29  -2 3179.82 1058.39   1
   2 -29  -2 1490.06 802.035   2
  -2 -27  -2 2287.66 962.783   2
  27   2   1 4008.44 900.568   3
  29  -2   1 3067.10 990.121   3
  -2 -27   1 4696.71 980.543   2
 -29  27   1 4080.09 972.359   1
 -27  29   1 5020.59 1003.03   1
   2 -29   1 5918.69 989.705   4
  -2 -27   1 5062.02 971.759   4
   2 -29   1 4557.03 1015.89   2
  27   2   4 414.735 749.005   3
  29  -2   4 2038.06 885.312   3
   2 -29   4 1238.21 640.142   4
  -2 -27   4 2200.76 705.980   4
 -29  27   4 1721.63 867.653   1
 -27  29   4 326.799 834.105   1
  28   1  -3-1281.61 838.240   3
  29  -1  -3 1294.44 880.618   3
   1 -29  -3 945.587 874.807   4
  -1 -28  -3 1031.85 802.331   4
 -29  28  -3 1481.88 869.643   1
 -28  29  -3 1133.63 854.152   1
   1 -29  -3 1572.09 906.961   2
  -1 -28  -3-16.3044 820.032   2
   1 -29   0 1409.69 793.884   2
  28   1   0 671.362 692.422   3
  29  -1   0 1091.25 846.918   3
  -1 -28   0-74.9346 740.353   2
 -29  28   0 1632.87 770.061   1
 -28  29   0 96.2204 761.094   1
   1 -29   0 1089.24 766.486   4
  -1 -28   0 1109.48 705.113   4
 -29  28   3 1658.22 869.637   1
  28   1   3 2055.00 865.559   3
  29  -1   3 2167.69 805.213   3
 -28  29   3 1042.20 887.539   1
   1 -29   3 1581.50 834.594   2
  -1 -28   3 1089.80 816.003   2
   1 -29   3 2691.36 744.285   4
  -1 -28   3 2669.37 725.934   4
  29   0  -4 3636.85 1096.37   3
 -29  29  -4 2238.43 994.607   1
   0 -29  -4 1406.69 1117.26   2
   0 -29  -1 525.472 757.960   2
  29   0  -1 472.064 858.224   3
   0 -29  -1 339.240 697.168   4
 -29  29  -1 54.5378 813.165   1
  29   0   2 3685.30 967.723   3
   0 -29   2 5503.35 1054.42   2
   0 -29   2 6076.03 991.842   4
 -29  29   2 4445.45 1022.98   1
   0  30   0 6119.95 1199.52   1
  30 -30   0 3319.26 1148.74   4
   0  30   0 5233.65 909.862   3
  -1  30  -1 3094.89 1010.46   1
  30 -29  -1 2175.43 1111.15   4
  29 -30  -1 5272.88 1225.18   4
   1  29  -1 3827.97 1061.47   1
  -1  30  -1 2640.67 846.183   3
   1  29  -1 5160.03 939.571   3
  -1  30   2 1089.94 927.450   1
  30 -29   2 1687.97 877.188   4
  29 -30   2 1797.18 937.757   4
 -28  -2  -2 2014.19 956.367   2
  30 -28  -2 1314.46 843.819   3
  30 -28  -2 849.670 981.069   4
  28 -30  -2 2706.77 1134.46   4
   2  28  -2 1321.90 855.815   1
  30 -28  -2 2011.65 1046.48   2
  -2  30  -2 667.787 807.739   1
  28 -30  -2 2346.98 953.711   2
 -28  -2  -2 2326.03 909.210   4
  -2  30  -2 2491.38 829.454   3
   2  28  -2 1914.77 751.021   3
  -2  30   1 6091.74 1206.74   1
  30 -28   1 6073.90 1143.21   4
  28 -30   1 4940.03 1120.70   4
  -2  30   1 5721.77 868.413   3
   2  28   1 5654.32 872.580   3
  30 -28   4 749.241 740.409   4
  28 -30   4 2242.00 839.976   4
   3  27  -3 1438.91 850.680   1
 -27  -3  -3 2866.43 999.190   2
  30 -27  -3 3294.92 934.405   3
 -30   3  -3 4957.06 1094.39   2
  30 -27  -3 5130.99 1209.80   4
  27 -30  -3 1635.75 965.735   4
  30 -27  -3 2033.33 1095.44   2
  27 -30  -3 1891.33 979.652   2
 -27  -3  -3 2468.80 868.814   1
  -3  30  -3 6194.29 1122.97   1
 -27  -3  -3 3219.85 1035.47   4
 -30   3  -3 4278.35 893.646   1
  -3  30  -3 3390.21 948.074   3
   3  27  -3 2894.73 881.456   3
  -3  30   0 1515.00 876.690   1
  30 -27   0 4658.35 1047.12   3
  30 -27   0 2269.57 912.150   4
   3  27   0 2552.45 884.627   1
  27 -30   0 2920.04 933.280   4
  -3  30   0 2440.27 721.985   3
   3  27   0 1967.41 671.676   3
  30 -27   3 2741.16 902.120   4
  27 -30   3 1537.81 748.506   4
  -3  30   3 648.517 923.479   1
  -4  30  -4 1010.56 853.453   1
 -26  -4  -4 3967.70 1100.36   2
  30 -26  -4 1801.83 912.081   3
 -30   4  -4 1308.70 833.363   2
  30 -26  -4 244.992 988.893   4
  26 -30  -4 1871.87 1026.96   4
  30 -26  -4 795.234 1047.33   2
 -26  -4  -4 12.2572 842.701   1
  26 -30  -4 181.947 884.674   2
 -26  -4  -4 2240.52 898.194   4
 -30   4  -4 2337.16 876.738   1
  -4  30  -4 1385.98 846.559   3
   4  26  -4 1519.35 878.900   3
   4  26  -4 1324.68 775.305   1
   4  26  -1 6411.44 1077.64   1
 -26  -4  -1 7892.56 1290.44   2
  30 -26  -1 5084.30 1075.39   3
  30 -26  -1 7111.48 1298.39   4
  26 -30  -1 7013.45 1228.87   4
  30 -26  -1 6948.49 1192.40   2
 -26  -4  -1 7534.68 1171.20   4
  -4  30  -1 7279.70 1005.76   3
   4  26  -1 7331.82 991.268   3
  -4  30  -1 7050.36 1204.02   1
  -4  30   2 944.391 839.726   1
  26 -30   2 1734.30 777.691   4
  -4  30   2 746.029 567.761   3
   4  26   2 1354.40 568.371   3
 -25  -5  -5 1501.01 952.610   2
  30 -25  -5 2499.85 988.836   3
 -30   5  -5 2184.46 950.286   2
  30 -25  -5 1589.34 963.575   4
  25 -30  -5 3148.57 1061.49   4
  30 -25  -5 2377.22 1363.26   2
 -25  -5  -5 3087.99 1117.16   1
  25 -30  -5 5265.84 1295.05   2
 -25  -5  -5 3270.30 1040.69   4
 -30   5  -5 4687.92 1128.99   1
  -5  30  -5 3084.31 1018.84   3
  -5  30  -5 941.815 834.925   1
   5  25  -5 2885.78 932.479   3
   5  25  -2 370.633 770.442   1
 -25  -5  -2-67.6694 763.521   2
  30 -25  -2 412.383 828.986   3
  25 -30  -2 1120.93 845.592   4
  30 -25  -2 35.8022 851.141   2
 -25  -5  -2 818.793 674.431   1
  25 -30  -2-36.8662 715.567   2
  -5  30  -2-173.038 799.032   1
 -25  -5  -2-245.681 719.833   4
  -5  30  -2 998.986 690.999   3
   5  25  -2 155.138 625.869   3
 -30   5  -2 1818.55 706.388   1
  -5  30   1 7574.78 1221.38   1
  30 -25   1 5390.46 1132.06   3
  25 -30   1 6459.80 1130.06   4
  -5  30   1 6432.23 911.501   3
   5  25   1 5368.18 787.107   3
  25 -30   4 1595.70 651.890   4
  -6  30  -3 4011.38 948.267   1
 -24  -6  -3 2214.58 950.429   2
  30 -24  -3 2855.12 1047.21   3
  30 -24  -3 2249.74 1098.82   2
  24 -30  -3 4343.93 1162.51   4
 -24  -6  -3 3351.97 927.015   1
  24 -30  -3 2870.86 1000.47   2
 -24  -6  -3 3589.45 962.539   4
  -6  30  -3 4791.13 1119.38   3
 -30   6  -3 2722.70 798.755   1
   6  24  -3 4092.88 947.123   3
   6  24  -3 3368.96 864.306   1
  30 -24   0 3441.67 990.418   3
 -24  -6   0 2131.56 881.584   2
  30 -24   0 4923.62 1026.46   2
  -6  30   0 4728.32 1109.82   1
  24 -30   0 4720.46 1000.94   4
 -24  -6   0 5674.98 1054.70   4
  -6  30   0 4553.74 862.953   3
   6  24   0 3794.44 734.451   3
  24 -30   3 2627.42 779.433   4
  -6  30   3 5056.89 1128.96   1
 -23  -7  -4 456.737 811.257   2
  30 -23  -4-177.984 839.246   3
  30 -23  -4 2339.76 1055.35   2
  23 -30  -4 1123.05 991.891   4
  23 -30  -4 1726.34 977.100   2
   7  23  -4 1222.18 718.113   1
 -23  -7  -4 541.406 763.562   4
  -7  30  -4 60.3697 689.353   1
 -30   7  -4 1309.77 837.946   1
   7  23  -4 791.988 736.521   3
 -30   7  -1 2204.95 654.328   1
 -23  -7  -1 2771.96 989.479   2
  30 -23  -1 1302.06 829.035   3
  30 -23  -1 1640.00 919.915   2
  23 -30  -1 975.921 754.024   4
  -7  30  -1 2993.71 875.668   1
  23 -30  -1 3058.76 775.875   2
 -23  -7  -1 1321.89 728.552   4
   7  23  -1 2711.34 748.335   3
  30 -23   2-403.597 727.908   3
  -7  30   2 616.066 827.926   1
  23 -30   2 440.320 623.505   4
  -7  30   2 514.287 529.160   3
   7  23   2-224.826 473.703   3
 -22  -8  -5 6849.35 1301.57   2
  30 -22  -5 4819.51 1131.37   3
 -30   8  -5 6900.84 1068.30   2
  30 -22  -5 7674.15 1361.72   4
  30 -22  -5 4654.30 1384.01   2
  22 -30  -5 6320.53 1337.14   4
  22 -30  -5 6031.23 1345.06   2
 -30   8  -5 7934.28 1187.79   1
 -22  -8  -5 7510.17 1187.09   4
   8  22  -5 8575.54 1255.60   3
  -8  30  -5 7681.55 1249.34   1
  -8  30  -2 1120.26 815.465   1
 -22  -8  -2 2494.05 834.358   2
  30 -22  -2 990.286 840.904   3
  22 -30  -2 2689.88 965.052   4
  22 -30  -2 1988.48 831.486   2
 -22  -8  -2 1951.74 798.953   4
   8  22  -2 1399.32 666.840   3
 -30   8  -2 1753.35 661.931   1
  30 -22   1 1636.80 800.618   3
 -22  -8   1 2004.52 859.174   2
  22 -30   1 3172.98 843.972   4
  -8  30   1 2634.20 914.929   1
 -22  -8   1 1646.41 739.410   4
   8  22   1 2828.45 665.553   3
  22 -30   4 2887.09 704.035   4
  -8  30   4 3720.13 1146.46   1
 -21  -9  -6 4255.88 1153.82   2
  30 -21  -6 6668.23 1182.53   3
  -9  30  -6 6231.03 1150.77   1
 -30   9  -6 4326.12 912.688   2
  30 -21  -6 4446.89 1162.05   4
  30 -21  -6 3986.68 1398.41   2
  21 -30  -6 6161.46 1324.01   4
  21 -30  -6 7063.01 1510.35   2
 -21  -9  -6 5442.03 1188.12   4
 -30   9  -6 5999.33 1175.73   1
   9  21  -6 5224.77 1061.40   3
 -21  -9  -3 3280.76 1067.07   2
  30 -21  -3 4967.15 1047.91   3
  21 -30  -3 6356.28 1151.27   4
  21 -30  -3 4367.85 1004.99   2
 -21  -9  -3 6213.24 1071.52   4
  -9  30  -3 5397.72 1038.87   1
 -30   9  -3 4805.91 938.934   1
   9  21  -3 6425.47 976.861   3
  30 -21   0 6798.33 1139.61   3
 -21  -9   0 4122.48 1017.61   2
  21 -30   0 5254.51 1046.59   4
  -9  30   0 6144.00 1038.11   1
 -21  -9   0 5204.76 957.047   4
   9  21   0 4367.44 750.872   3
 -30   9   0 4960.97 713.632   1
  30 -21   3 1557.48 818.017   3
  21 -30   3 2537.68 735.588   4
  -9  30   3 1625.25 860.815   1
 -20 -10  -4 1313.81 868.257   2
  30 -20  -4 226.163 742.181   3
 -10  30  -4 2924.06 917.117   1
  20 -30  -4 730.852 845.673   4
  20 -30  -4 2302.68 927.666   2
 -20 -10  -4 1025.72 760.475   4
  10  20  -4 1353.39 725.330   3
 -30  10  -4 498.091 705.680   1
 -10  30  -1 804.232 709.863   1
 -30  10  -1 208.846 563.294   1
 -20 -10  -1 1149.36 868.339   2
  30 -20  -1 265.757 712.306   3
  20 -30  -1 1213.86 814.963   4
 -20 -10  -1 1813.95 790.736   4
  20 -30  -1 382.668 616.307   2
  10  20  -1 930.877 613.826   3
  30 -20   2 639.333 769.809   3
  20 -30   2 374.059 599.914   4
 -20 -10   2 4.93420 634.496   4
 -10  30   2 86.2294 789.278   1
  10  20   2-63.9508 437.160   3
 -10  30   5 275.924 935.102   1
 -19 -11  -5 4509.26 1227.80   2
  30 -19  -5 5824.20 1167.44   3
 -11  30  -5 5700.80 1065.38   1
  19 -30  -5 5366.14 1155.54   4
  19 -30  -5 5751.12 1367.28   2
 -19 -11  -5 6423.62 1136.22   4
 -30  11  -5 5985.35 1130.29   1
  11  19  -5 7704.86 1131.48   3
 -30  11  -2 1330.44 680.660   1
 -19 -11  -2 1986.13 847.681   2
  30 -19  -2 2867.66 965.308   3
  19 -30  -2 1892.20 856.337   4
 -19 -11  -2 1997.35 877.235   4
  19 -30  -2 1347.49 782.598   2
 -11  30  -2 1966.76 888.273   1
  11  19  -2 2217.54 658.907   3
 -19 -11   1 7176.05 1160.83   2
  30 -19   1 6977.49 1120.70   3
  19 -30   1 5771.05 981.255   4
 -30  11   1 3673.45 626.589   1
 -11  30   1 5784.43 1143.42   1
 -19 -11   1 7872.69 1060.11   4
  11  19   1 6140.27 804.823   3
  30 -19   4 4178.66 1024.16   3
  19 -30   4 4679.85 777.280   4
 -11  30   4 2017.18 1005.24   1
 -12  30  -6 4330.55 1069.84   1
 -18 -12  -6 4370.72 1135.02   2
  30 -18  -6 1882.09 911.468   3
  18 -30  -6 5455.56 1212.42   4
  18 -30  -6 5605.23 1360.23   2
 -18 -12  -6 4062.91 1029.30   4
 -30  12  -6 4224.04 1108.82   1
  12  18  -6 4525.88 1032.41   3
  30 -18  -3 7516.75 1183.94   3
  18 -30  -3 8346.62 1237.66   4
 -18 -12  -3 10698.5 1273.52   4
  18 -30  -3 6690.10 1144.01   2
 -30  12  -3 6869.49 1002.39   1
  12  18  -3 7411.03 1031.25   3
 -12  30  -3 6308.48 1053.01   1
 -18 -12  -3 8104.19 1311.48   2
 -30  12   0 12731.3 1000.21   1
 -18 -12   0 12520.0 1418.56   2
  30 -18   0 11615.6 1392.68   3
 -12  30   0 12817.8 1362.67   1
  18 -30   0 13512.5 1350.01   4
 -18 -12   0 11231.0 1213.22   4
  18 -30   0 11349.7 1025.75   2
  12  18   0 14625.3 1125.93   3
  30 -18   3 4880.62 1088.13   3
  18 -30   3 4909.15 837.663   4
 -18 -12   3 5789.19 983.037   4
  12  18   3 4820.86 671.640   3
 -12  30   3 5763.19 1100.44   1
 -17 -13  -4 2576.91 968.984   2
  30 -17  -4 4746.94 1022.94   3
  17 -30  -4 3424.16 1009.81   4
 -17 -13  -4 3965.77 1065.61   4
  17 -30  -4 2299.87 965.582   2
 -13  30  -4 5453.78 1033.74   1
  13  17  -4 3550.53 859.600   3
 -30  13  -4 4964.76 1011.25   1
 -17 -13  -1 3778.80 953.187   2
  30 -17  -1 4057.10 939.873   3
 -30  13  -1 3283.08 710.346   1
  17 -30  -1 3074.62 897.957   4
 -17 -13  -1 3330.43 847.938   4
 -13  30  -1 2995.84 854.194   1
  17 -30  -1 2904.17 784.697   2
  13  17  -1 3367.61 724.781   3
  30 -17   2 9470.69 1247.98   3
 -17 -13   2 9302.07 1252.56   2
  17 -30   2 9556.41 1079.19   4
 -30  13   2 7409.23 766.313   1
 -17 -13   2 10979.7 1134.81   4
 -13  30   2 9912.60 1363.28   1
  13  17   2 7527.60 821.438   3
  30 -17   5 1593.94 837.150   3
 -13  30   5 2550.56 1008.09   1
 -14  30  -5 1379.54 799.073   1
 -16 -14  -5 981.943 906.658   2
  30 -16  -5 3742.59 1039.77   3
  16 -30  -5 3553.00 1055.24   4
 -16 -14  -5 3974.93 1042.85   4
  16 -30  -5 471.387 880.896   2
  14  16  -5 1823.84 764.247   3
 -30  14  -5 2431.22 899.383   1
  30 -16  -2 6078.61 1076.06   3
 -16 -14  -2 5619.31 1110.45   2
  16 -30  -2 6090.44 1091.01   4
 -16 -14  -2 8037.21 1159.33   4
  16 -30  -2 5217.15 939.065   2
  14  16  -2 6672.25 968.199   3
 -14  30  -2 5255.52 1069.49   1
 -30  14  -2 5489.37 880.511   1
  30 -16   1 4799.42 1041.22   3
 -16 -14   1 4979.61 1030.78   2
 -14  30   1 3269.67 922.748   1
  16 -30   1 4160.21 823.263   4
 -16 -14   1 3604.53 828.226   4
 -30  14   1 3034.82 616.910   1
  14  16   1 4384.13 726.159   3
 -14  30   4 15449.1 1591.35   1
  16 -30   4 13487.2 1081.47   4
 -16 -14   4 13400.9 1214.10   4
  30 -15  -6 3502.39 981.650   3
  15 -30  -6 1917.48 946.333   4
 -15 -15  -6 845.529 828.193   4
  15 -30  -6 1324.99 1086.64   2
 -15  30  -6 1559.11 954.159   1
  15  15  -6 1204.59 776.378   3
 -30  15  -6 980.054 951.159   1
 -15 -15  -6 1472.52 974.025   2
  30 -15  -3 11719.3 1367.10   3
  15 -30  -3 14993.7 1499.26   4
 -15 -15  -3 17205.4 1548.50   4
  15 -30  -3 11140.2 1350.26   2
 -15  30  -3 13030.7 1375.01   1
  15  15  -3 15207.9 1337.02   3
 -30  15  -3 12316.2 1221.34   1
 -15 -15  -3 12864.3 1560.40   2
  30 -15   0 2745.67 893.847   3
 -15 -15   0 4465.33 996.570   2
  15 -30   0 4464.71 891.834   4
 -30  15   0 3679.19 714.099   1
 -15 -15   0 3841.71 871.125   4
  15 -30   0 3172.34 715.147   2
 -15  30   0 3170.40 908.207   1
  15  15   0 2423.60 666.900   3
  30 -15   3 13749.6 1450.03   3
  15 -30   3 15297.8 1192.91   4
 -15 -15   3 13328.6 1259.36   4
 -15  30   3 16427.2 1587.43   1
  15  15   3 11852.5 942.167   3
 -15  30   6 3390.21 1185.90   1
  30 -14  -4 10715.2 1315.67   3
  14 -30  -4 12538.5 1496.97   4
 -14 -16  -4 11025.3 1396.34   4
 -16  30  -4 14476.1 1496.26   1
  14 -30  -4 12893.8 1542.73   2
 -30  16  -4 9808.61 1216.52   1
  16  14  -4 11397.6 1243.65   3
 -14 -16  -4 10713.6 1422.56   2
 -14 -16  -1 4159.97 1013.50   2
  30 -14  -1 1903.54 916.170   3
 -30  16  -1 2395.83 710.297   1
  14 -30  -1 3498.23 907.041   4
 -16  30  -1 4167.43 901.285   1
 -14 -16  -1 3347.58 891.584   4
  14 -30  -1 1199.82 695.416   2
  16  14  -1 2726.89 742.118   3
  30 -14   2 7862.05 1222.08   3
 -14 -16   2 6717.98 1122.58   2
  14 -30   2 6447.96 907.707   4
 -16  30   2 4976.66 1015.11   1
 -14 -16   2 5589.40 944.190   4
 -30  16   2 5407.36 771.074   1
  16  14   2 6177.45 840.560   3
  30 -14   5 1843.06 891.583   3
 -16  30   5 1860.21 1028.74   1
 -30  17  -5 120.584 716.962   1
  30 -13  -5 1310.50 813.825   3
  13 -30  -5-285.902 830.022   4
 -13 -17  -5 1449.13 863.476   4
  13 -30  -5 2516.44 1069.15   2
 -17  30  -5 953.061 828.452   1
  17  13  -5 1889.30 791.922   3
 -13 -17  -5-894.932 870.227   2
  30 -13  -2 7705.34 1162.08   3
  13 -30  -2 8484.66 1213.60   4
 -13 -17  -2 11369.8 1286.50   4
  13 -30  -2 10400.2 1228.46   2
 -17  30  -2 10053.3 1264.72   1
  17  13  -2 8740.38 1030.17   3
 -13 -17  -2 9173.03 1324.55   2
 -30  17  -2 9287.48 1080.55   1
 -17  30   1 3464.55 900.544   1
  30 -13   1 2633.54 881.032   3
 -13 -17   1 1685.31 800.270   2
  13 -30   1 3230.58 800.694   4
 -13 -17   1 3820.63 911.619   4
 -30  17   1 3181.32 663.183   1
  13 -30   1 2675.74 655.595   2
  17  13   1 3230.49 700.304   3
  17  13   4 2561.34 592.034   3
  30 -13   4 3887.02 972.223   3
  13 -30   4 2710.58 623.961   4
 -13 -17   4 3641.81 798.191   4
 -17  30   4 4638.54 1045.70   1
 -30  18  -6 3931.29 1085.88   1
  30 -12  -6 4424.41 1120.15   3
  12 -30  -6 3377.13 1097.71   4
 -12 -18  -6 4678.80 1077.85   4
  12 -30  -6 2187.65 1076.55   2
 -18  30  -6 3599.69 971.231   1
  18  12  -6 4018.22 1046.28   3
 -12 -18  -6 4733.24 1216.78   2
  30 -12  -3 5631.30 1107.66   3
 -12 -18  -3 5654.04 1175.21   2
 -18  30  -3 5503.02 1021.54   1
 -30  18  -3 4243.30 953.197   1
  12 -30  -3 6799.99 1138.87   4
 -12 -18  -3 7001.40 1134.90   4
  12 -30  -3 5690.48 1127.05   2
  18  12  -3 4962.33 920.755   3
 -12 -18   0 12419.3 1413.27   2
  30 -12   0 12466.5 1327.27   3
 -30  18   0 11864.0 1094.75   1
  12 -30   0 15768.4 1379.39   4
 -12 -18   0 12564.7 1251.81   4
  12 -30   0 11892.3 1073.21   2
  18  12   0 13501.0 1162.02   3
 -18  30   0 10796.4 1257.64   1
  30 -12   3 7255.44 1161.63   3
 -12 -18   3 8505.38 1241.24   2
  12 -30   3 9143.83 965.470   4
 -12 -18   3 8270.67 991.950   4
 -18  30   3 6525.60 1156.60   1
  18  12   3 7231.78 826.005   3
 -30  18   3 7230.65 858.698   1
  30 -12   6 3268.14 977.093   3
 -18  30   6 1732.44 1031.75   1
 -11 -19  -4 6169.25 1215.70   2
  30 -11  -4 3182.25 996.667   3
  11 -30  -4 4990.32 1117.15   4
 -11 -19  -4 4173.39 992.212   4
  11 -30  -4 3717.35 1084.56   2
 -19  30  -4 5194.95 1069.16   1
  19  11  -4 4910.89 991.026   3
  30 -11  -1 8188.19 1195.61   3
 -30  19  -1 6513.27 954.622   1
 -19  30  -1 5791.33 1079.98   1
  11 -30  -1 7900.20 1111.96   4
 -11 -19  -1 8233.61 1126.49   4
  11 -30  -1 8632.72 1115.36   2
  19  11  -1 7431.33 986.104   3
 -11 -19  -1 7780.69 1209.61   2
  19  11   2 1561.15 598.139   3
  30 -11   2 1222.43 730.677   3
 -30  19   2 529.522 543.974   1
 -11 -19   2 1278.42 783.768   2
 -19  30   2 1659.91 834.440   1
  11 -30   2 1507.11 611.672   4
 -11 -19   2 2142.45 695.968   4
  30 -11   5 6112.12 1172.05   3
 -19  30   5 9232.26 1369.91   1
 -11 -19   5 5862.98 892.955   4
  30 -10  -5-93.7265 748.013   3
 -30  20  -5 20.2378 694.731   1
  10 -30  -5 1008.19 811.788   4
 -10 -20  -5 610.659 702.560   4
  10 -30  -5 1805.05 1020.91   2
 -20  30  -5-181.435 763.727   1
  20  10  -5-444.583 712.459   3
 -10 -20  -5 2712.46 1076.22   2
 -10 -20  -2 383.577 775.242   2
  30 -10  -2 812.552 766.939   3
 -20  30  -2-387.565 753.079   1
 -30  20  -2 361.112 610.544   1
  10 -30  -2 930.863 825.895   4
 -10 -20  -2 857.348 736.011   4
  10 -30  -2 151.334 681.134   2
  20  10  -2 916.014 721.988   3
  20  10   1 746.587 630.054   3
  10 -30   1-120.200 574.778   2
  30 -10   1 1562.15 789.698   3
 -10 -20   1 1321.98 852.537   2
  10 -30   1 430.471 568.658   4
 -10 -20   1 1058.25 631.740   4
 -20  30   1 1085.07 859.949   1
 -30  20   1 527.750 609.595   1
  20  10   4 1935.65 612.449   3
  30 -10   4 1051.39 771.461   3
 -30  20   4 1086.75 635.437   1
 -20  30   4-119.543 802.154   1
  10 -30   4 1730.17 612.383   4
 -10 -20   4 2836.75 738.266   4
  30  -9  -6 3843.04 1083.29   3
 -30  21  -6 2490.62 944.721   1
   9 -30  -6 4961.01 1172.76   4
  -9 -21  -6 4214.03 1095.17   4
 -21  30  -6 4335.79 1117.17   1
   9 -30  -6 4004.02 1333.72   2
  21   9  -6 1258.92 847.331   3
  -9 -21  -6 2498.11 1100.31   2
  -9 -21  -3 1764.51 957.449   2
  30  -9  -3 2158.18 875.499   3
 -30  21  -3 4003.39 902.911   1
   9 -30  -3 2827.17 999.823   4
  -9 -21  -3 4016.23 976.556   4
   9 -30  -3 2108.20 878.238   2
 -21  30  -3 3402.37 988.557   1
  21   9  -3 3818.73 913.327   3
  30  -9   0 4304.98 1005.19   3
  -9 -21   0 4683.72 1006.74   2
   9 -30   0 4870.83 906.251   4
 -21  30   0 3168.79 878.733   1
  -9 -21   0 5411.97 948.443   4
 -30  21   0 3995.44 818.541   1
   9 -30   0 2364.19 698.650   2
  21   9   0 4308.72 821.255   3
  21   9   3 3735.35 749.333   3
  30  -9   3 3662.11 994.482   3
  -9 -21   3 5660.31 1075.43   2
   9 -30   3 3538.25 756.147   4
 -21  30   3 5489.49 1096.67   1
  -9 -21   3 4863.81 879.719   4
 -30  21   3 4233.88 836.060   1
  30  -9   6 3675.23 1063.96   3
 -21  30   6 4489.84 1187.55   1
 -30  22  -4 5738.75 1095.16   1
  30  -8  -4 3671.70 1014.80   3
   8 -30  -4 4670.72 1120.08   4
  -8 -22  -4 3369.97 962.717   4
   8 -30  -4 1984.05 976.348   2
 -22  30  -4 3544.36 1036.37   1
  22   8  -4 2023.65 855.951   3
  -8 -22  -4 4268.27 1119.90   2
  -8 -22  -1 2070.37 841.047   2
  30  -8  -1 1601.05 848.427   3
 -22  30  -1 3062.10 862.128   1
   8 -30  -1 2043.97 761.873   4
  -8 -22  -1 4765.58 937.944   4
 -30  22  -1 1463.98 744.877   1
   8 -30  -1 2817.72 844.974   2
  22   8  -1 2175.74 824.219   3
 -22  30   2 2050.51 859.695   1
  22   8   2 2184.67 692.703   3
   8 -30   2 1677.09 664.984   2
  30  -8   2 2625.89 843.793   3
  -8 -22   2 2711.20 933.721   2
 -30  22   2 3006.19 778.319   1
   8 -30   2 1753.86 693.806   4
  -8 -22   2 2211.17 790.190   4
 -22  30   5 4929.67 1080.03   1
  30  -8   5 7788.75 1229.01   3
  -8 -22   5 6108.83 866.495   4
  30  -7  -5 1385.32 869.351   3
 -30  23  -5-410.051 823.532   1
   7 -30  -5 1331.88 922.551   4
  -7 -23  -5 1296.78 902.321   4
 -23  30  -5 1128.47 824.265   1
   7 -30  -5 979.199 1022.06   2
  -7 -23  -5 738.609 934.990   2
  23   7  -5 477.093 781.131   3
 -23  30  -2 991.418 732.027   1
  -7 -23  -2-68.5680 772.260   2
  30  -7  -2-103.133 763.958   3
   7 -30  -2-206.343 679.570   4
 -30  23  -2 1984.74 758.916   1
  -7 -23  -2 1597.45 806.482   4
   7 -30  -2 247.023 738.307   2
  23   7  -2 925.271 703.836   3
  23   7   1 1866.49 681.544   3
   7 -30   1-221.315 588.696   2
 -30  23   1 1494.64 725.911   1
  30  -7   1 1456.07 840.655   3
  -7 -23   1 2486.09 876.758   2
   7 -30   1 1800.86 712.907   4
  -7 -23   1 1621.13 717.018   4
 -23  30   1 1804.98 837.473   1
  23   7   4 1406.01 668.997   3
 -23  30   4 3222.40 1040.53   1
  30  -7   4 1225.45 901.584   3
 -30  23   4 221.589 667.132   1
   7 -30   4 951.334 557.984   4
  -7 -23   4 790.002 602.935   4
  30  -6  -3 2666.54 933.594   3
 -30  24  -3 3476.05 960.921   1
   6 -30  -3 2858.49 998.289   4
  -6 -24  -3 3240.97 942.509   4
   6 -30  -3 2956.66 996.418   2
 -24  30  -3 4087.99 987.705   1
  24   6  -3 1989.74 923.525   3
  -6 -24  -3 4136.93 1121.54   2
  24   6   0 3328.33 860.139   3
  30  -6   0 4833.38 1044.26   3
  -6 -24   0 3026.59 885.462   2
 -24  30   0 3734.88 980.234   1
 -30  24   0 4627.79 977.319   1
   6 -30   0 4280.72 906.485   4
  -6 -24   0 3667.62 877.659   4
   6 -30   0 3954.46 924.721   2
  24   6   3 2462.28 769.536   3
  30  -6   3 2623.99 880.290   3
  -6 -24   3 2763.57 943.611   2
 -24  30   3 1057.80 868.373   1
   6 -30   3 2843.58 727.160   4
  -6 -24   3 2542.71 727.814   4
 -30  24   3 1533.04 741.004   1
  30  -5  -4 1184.53 933.943   3
 -30  25  -4 1486.29 902.174   1
   5 -30  -4 1459.73 867.584   4
  -5 -25  -4 847.516 797.994   4
 -25  30  -4 877.624 914.309   1
   5 -30  -4 1710.92 979.476   2
  -5 -25  -4 2772.68 1082.89   2
  25   5  -4 2721.74 999.889   3
  -5 -25  -1 6203.89 1124.66   2
  30  -5  -1 4655.74 1029.20   3
 -30  25  -1 4768.26 1014.96   1
   5 -30  -1 6680.61 1074.01   4
  -5 -25  -1 6693.18 1068.07   4
 -25  30  -1 6546.14 1147.95   1
   5 -30  -1 5863.48 1032.99   2
  25   5  -1 5543.75 985.827   3
  25   5   2 1329.15 693.364   3
  30  -5   2 1047.24 795.651   3
   5 -30   2 389.912 663.906   2
  -5 -25   2 420.034 747.973   2
 -30  25   2 755.758 707.228   1
   5 -30   2 1265.28 628.247   4
  -5 -25   2 869.536 674.956   4
 -25  30   2 827.441 779.474   1
  30  -5   5 1471.71 856.434   3
 -30  25   5 2803.75 958.239   1
 -25  30   5 1671.89 1063.12   1
  30  -4  -5 1915.28 957.508   3
 -30  26  -5 1525.07 944.862   1
   4 -30  -5 1662.88 931.645   4
  -4 -26  -5 2051.34 976.474   4
 -26  30  -5 1587.62 1027.16   1
   4 -30  -5 3062.91 1135.34   2
  -4 -26  -5 4087.06 1212.90   2
  26   4  -5 1949.43 913.695   3
  26   4  -2 456.318 723.743   3
  -4 -26  -2 626.501 859.663   2
  30  -4  -2 205.197 757.031   3
   4 -30  -2 995.518 748.398   4
  -4 -26  -2 1195.85 774.606   4
 -30  26  -2 1001.64 774.095   1
   4 -30  -2 2216.28 879.428   2
 -26  30  -2 53.7732 868.490   1
  30  -4   1 5732.23 1103.60   3
  26   4   1 5430.89 996.638   3
  -4 -26   1 5012.39 1034.82   2
 -30  26   1 4941.49 1047.32   1
   4 -30   1 8719.55 1100.56   4
 -26  30   1 5469.50 1062.44   1
  -4 -26   1 6727.74 1119.79   4
   4 -30   1 5918.36 1014.66   2
  26   4   4 399.471 731.136   3
  30  -4   4 267.195 786.058   3
 -30  26   4 798.342 755.557   1
  -4 -26   4 1016.78 605.204   4
 -26  30   4 2560.64 975.039   1
  27   3  -3 1217.71 805.861   3
  30  -3  -3 564.453 800.270   3
   3 -30  -3 1000.96 896.862   4
  -3 -27  -3 1133.53 817.850   4
 -30  27  -3 607.296 817.371   1
 -27  30  -3 2212.43 1022.22   1
   3 -30  -3 2001.21 955.654   2
  -3 -27  -3 1752.88 961.800   2
   3 -30   0 4034.03 921.217   2
  27   3   0 3526.82 945.500   3
 -30  27   0 2866.04 945.848   1
  30  -3   0 2863.15 929.831   3
  -3 -27   0 4992.15 1024.03   2
 -27  30   0 1128.87 812.596   1
   3 -30   0 1483.17 810.191   4
  -3 -27   0 3787.94 880.450   4
 -30  27   3 1820.67 906.242   1
  27   3   3 417.838 704.689   3
  30  -3   3 2054.13 915.533   3
   3 -30   3 1380.65 770.484   2
  -3 -27   3 2462.31 856.304   2
 -27  30   3 3143.06 991.069   1
   3 -30   3 2100.08 690.305   4
  -3 -27   3 1088.65 696.426   4
  28   2  -4 1103.96 951.831   3
  30  -2  -4 922.029 888.008   3
   2 -30  -4 1341.41 955.746   4
  -2 -28  -4 1263.43 833.825   4
 -30  28  -4 577.948 947.746   1
 -28  30  -4 1093.46 899.890   1
   2 -30  -4 2212.10 1233.76   2
  -2 -28  -4 3027.49 1145.42   2
   2 -30  -1 3845.76 999.239   2
  -2 -28  -1 4615.01 1020.46   2
 -28  30  -1 6138.29 1153.99   1
  30  -2  -1 3778.12 1000.64   3
   2 -30  -1 6461.03 1182.44   4
  -2 -28  -1 8762.03 1272.20   4
 -30  28  -1 4594.02 1010.06   1
  28   2  -1 7618.41 1182.59   3
  28   2   2 1452.53 732.217   3
  30  -2   2 1751.35 844.653   3
   2 -30   2 1562.57 789.702   2
  -2 -28   2 2101.18 960.064   2
   2 -30   2 2266.44 804.511   4
  -2 -28   2 2202.15 797.754   4
 -30  28   2 489.389 778.124   1
 -28  30   2 1921.23 926.058   1
  -1 -29  -2 1257.35 928.681   2
  29   1  -2 767.391 797.245   3
  30  -1  -2-347.870 924.302   3
   1 -30  -2 906.717 805.730   4
  -1 -29  -2-114.763 747.657   4
 -30  29  -2 759.154 884.221   1
 -29  30  -2-778.933 900.372   1
   1 -30  -2 936.601 907.716   2
  29   1   1 3423.48 915.128   3
  30  -1   1 4781.97 1036.22   3
   1 -30   1 3306.51 931.866   2
  -1 -29   1 1734.18 876.621   2
 -30  29   1 3078.03 891.023   1
 -29  30   1 2903.90 961.917   1
   1 -30   1 5995.76 1019.88   4
  -1 -29   1 3728.10 929.819   4
  30   0   0 4430.36 1035.79   3
   0 -30   0 3318.11 992.335   2
 -30  30   0 5169.80 1144.06   1
   2  29   0 1427.58 901.517   1
  31 -29   0 2218.24 1045.23   4
  29 -31   0 2957.92 1017.40   4
  -2  31   0 2262.87 940.712   1
  -2  31   0 4328.73 885.868   3
   2  29   0 2593.02 817.738   3
  31 -28  -1 351.164 882.618   3
 -28  -3  -1 337.229 811.293   2
  31 -28  -1 993.542 869.618   4
  28 -31  -1 1606.26 917.574   4
   3  28  -1 123.889 755.640   1
  -3  31  -1 1172.09 824.473   3
   3  28  -1 376.419 640.814   3
  -3  31  -1-830.291 835.780   1
  31 -28   2 3562.51 1064.76   4
  28 -31   2 3817.67 957.562   4
  -3  31   2 2725.06 1005.34   1
 -27  -4  -2 6359.03 1291.70   2
  31 -27  -2 7187.57 1281.58   3
  31 -27  -2 2937.65 1108.33   4
  27 -31  -2 5876.54 1231.91   4
  31 -27  -2 6397.13 1292.34   2
  -4  31  -2 6740.91 1237.71   1
 -27  -4  -2 4768.59 1083.65   4
  -4  31  -2 6511.21 1064.47   3
   4  27  -2 6071.89 985.135   3
   4  27  -2 7407.94 1147.07   1
  31 -27   1 1351.58 874.263   4
  27 -31   1 885.268 838.790   4
  -4  31   1 2024.92 1005.72   1
  -4  31   1 2944.85 771.801   3
   4  27   1 2233.38 662.239   3
 -26  -5  -3 6695.19 1307.51   2
  31 -26  -3 6186.64 1232.33   3
  31 -26  -3 5887.06 1340.38   4
 -26  -5  -3 7458.49 1170.88   1
  26 -31  -3 7903.83 1328.70   4
  31 -26  -3 5808.61 1396.21   2
  -5  31  -3 8719.25 1318.34   1
  26 -31  -3 7292.41 1304.36   2
   5  26  -3 7401.16 1140.11   1
 -26  -5  -3 6817.48 1235.21   4
  -5  31  -3 8445.35 1328.97   3
   5  26  -3 8411.63 1232.16   3
 -31   5  -3 4532.41 975.414   1
  31 -26   0 4451.00 1044.91   3
 -26  -5   0 2428.03 977.259   2
  26 -31   0 2892.66 962.727   4
 -26  -5   0 3127.45 896.605   4
  -5  31   0 1975.85 752.615   3
   5  26   0 2627.67 672.585   3
  -5  31   0 1940.88 911.920   1
  26 -31   3 5909.45 1027.90   4
  -5  31   3 9870.04 1457.95   1
 -25  -6  -4 256.561 798.786   2
  31 -25  -4 2868.20 960.414   3
  31 -25  -4 2355.29 1106.40   4
  25 -31  -4 2236.97 1090.66   4
  31 -25  -4 4120.64 1394.80   2
 -25  -6  -4 3035.57 1020.57   1
  25 -31  -4 1866.69 1014.24   2
   6  25  -4 1646.28 805.832   1
 -25  -6  -4 630.835 794.934   4
  -6  31  -4 2862.07 1048.90   3
 -31   6  -4 2831.51 903.892   1
   6  25  -4 3577.51 984.476   3
  -6  31  -4 1965.42 849.417   1
 -25  -6  -1 3901.06 1103.64   2
  31 -25  -1 3346.01 1010.20   3
  31 -25  -1 2127.07 941.921   2
  25 -31  -1 3501.13 971.341   4
 -25  -6  -1 4655.63 1051.70   4
  -6  31  -1 2501.98 812.258   3
   6  25  -1 2934.06 756.313   3
  -6  31  -1 4939.74 1038.81   1
  31 -25   2 1022.40 845.540   3
  25 -31   2 1182.60 743.815   4
  -6  31   2-273.949 792.908   1
  -6  31   2 1071.87 576.839   3
 -24  -7  -5 1612.99 1007.32   2
  31 -24  -5 2186.72 1089.38   3
 -31   7  -5 3215.32 954.667   2
  31 -24  -5 4958.62 1185.90   4
  31 -24  -5 5804.98 1491.13   2
  24 -31  -5 3989.58 1144.93   4
  24 -31  -5 5032.24 1331.74   2
  -7  31  -5 3495.83 1100.69   1
 -24  -7  -5 1735.62 902.025   4
  -7  31  -5 1546.20 1053.16   3
 -31   7  -5 3433.78 1050.54   1
   7  24  -5 3826.57 974.923   3
 -24  -7  -2 8447.82 1352.46   2
  31 -24  -2 6724.01 1163.39   3
  24 -31  -2 6534.70 1218.90   4
  -7  31  -2 5478.46 1054.81   1
  31 -24  -2 5105.68 1206.83   2
 -24  -7  -2 3741.22 878.717   1
  24 -31  -2 4959.89 975.398   2
 -24  -7  -2 6671.62 1141.47   4
   7  24  -2 5513.43 1002.93   1
   7  24  -2 6202.73 939.516   3
 -31   7  -2 3260.66 785.022   1
  31 -24   1 2882.95 961.045   3
  24 -31   1 4567.21 998.177   4
 -24  -7   1 4156.04 944.204   4
  -7  31   1 4272.82 806.954   3
   7  24   1 3768.10 720.710   3
  -7  31   1 4298.34 1034.47   1
  24 -31   4 4252.73 844.387   4
  -7  31   4 6030.90 1345.39   1
 -23  -8  -3 11192.5 1452.73   2
  -8  31  -3 9846.64 1276.99   1
  31 -23  -3 12023.1 1434.27   3
  31 -23  -3 9248.31 1649.16   2
  23 -31  -3 13506.7 1623.02   4
  23 -31  -3 9745.37 1391.84   2
   8  23  -3 12403.6 1232.96   1
 -23  -8  -3 13579.4 1505.75   4
 -31   8  -3 9674.23 1144.30   1
   8  23  -3 9283.62 1140.95   3
  31 -23   0 3230.51 983.896   3
 -23  -8   0 4767.11 1087.74   2
  23 -31   0 6326.56 1129.21   4
 -23  -8   0 2900.89 879.397   4
   8  23   0 4911.03 811.241   3
  -8  31   0 5781.96 1134.81   1
  31 -23   3 5864.93 1096.01   3
  23 -31   3 7245.25 1045.23   4
  -8  31   3 7037.74 1304.95   1
 -22  -9  -4 1113.41 938.737   2
  31 -22  -4 22.7146 777.260   3
  31 -22  -4 493.426 1108.35   2
  22 -31  -4-188.972 898.899   4
  22 -31  -4-661.091 950.096   2
  -9  31  -4 92.5309 776.271   1
 -22  -9  -4-1284.91 802.425   4
   9  22  -4 591.680 692.307   3
 -31   9  -4 721.874 774.508   1
 -31   9  -1 437.798 556.145   1
 -22  -9  -1 417.231 856.735   2
  31 -22  -1 1810.43 901.781   3
  -9  31  -1 2346.54 863.266   1
  22 -31  -1 1144.19 879.495   4
  22 -31  -1 498.028 633.734   2
 -22  -9  -1 622.579 755.265   4
   9  22  -1 518.515 604.617   3
  -9  31   2 1206.35 882.721   1
  31 -22   2 986.350 827.186   3
  22 -31   2 1339.09 668.952   4
 -22  -9   2 130.952 669.846   4
   9  22   2 243.777 477.464   3
 -21 -10  -5 4027.35 1139.54   2
  31 -21  -5 5408.20 1107.94   3
  31 -21  -5 5671.28 1393.36   2
 -10  31  -5 3689.17 992.760   1
  21 -31  -5 4447.31 1166.00   4
  21 -31  -5 2362.82 1093.50   2
 -21 -10  -5 3328.06 986.089   4
 -31  10  -5 4734.69 1022.21   1
  10  21  -5 4075.35 995.771   3
 -31  10  -2 3027.40 754.940   1
 -21 -10  -2 2335.28 927.511   2
  31 -21  -2 3473.96 949.379   3
  21 -31  -2 4809.44 1060.85   4
 -21 -10  -2 5839.01 1083.58   4
  21 -31  -2 3167.21 928.437   2
  10  21  -2 5385.93 917.885   3
 -10  31  -2 4164.23 980.276   1
 -10  31   1 2824.53 942.535   1
  31 -21   1 5262.79 1152.02   3
 -21 -10   1 1929.19 866.875   2
  21 -31   1 4925.86 938.563   4
 -21 -10   1 6153.59 1054.48   4
  10  21   1 3350.61 683.608   3
 -10  31   4 4603.10 1183.20   1
  21 -31   4 5501.00 880.176   4
 -20 -11  -3 6846.51 1210.19   2
  31 -20  -3 5332.05 1079.63   3
  20 -31  -3 8446.91 1306.59   4
 -11  31  -3 5362.45 1052.65   1
 -20 -11  -3 7410.09 1234.21   4
  20 -31  -3 4423.03 1048.72   2
 -31  11  -3 6240.27 1016.00   1
  11  20  -3 10417.2 1136.39   3
 -31  11   0 8160.77 850.232   1
 -20 -11   0 7909.71 1289.22   2
  31 -20   0 8459.78 1213.56   3
  20 -31   0 9024.38 1191.97   4
 -11  31   0 5342.53 1048.96   1
 -20 -11   0 10715.2 1220.69   4
  11  20   0 8200.30 957.549   3
  31 -20   3 3878.08 1046.99   3
 -11  31   3 3505.10 1007.71   1
  20 -31   3 3427.88 784.630   4
 -20 -11   3 3321.94 842.941   4
 -19 -12  -4 916.344 834.687   2
  31 -19  -4 3183.22 968.235   3
 -12  31  -4 517.055 822.467   1
  19 -31  -4 1624.61 886.827   4
 -19 -12  -4 2829.85 897.595   4
  19 -31  -4-148.782 910.814   2
  12  19  -4 184.130 689.881   3
 -31  12  -4 1697.64 798.927   1
  31 -19  -1 2007.11 858.035   3
 -19 -12  -1 2398.08 949.126   2
 -31  12  -1 1436.98 611.145   1
  19 -31  -1 1972.74 759.962   4
 -19 -12  -1 1376.08 773.150   4
  19 -31  -1 1481.12 694.706   2
  12  19  -1 2189.00 673.524   3
 -12  31  -1 1532.34 951.019   1
  31 -19   2 853.515 783.393   3
 -19 -12   2 2839.87 923.468   2
 -12  31   2 2156.86 961.798   1
  19 -31   2 1751.84 688.087   4
 -19 -12   2 503.883 714.257   4
  12  19   2 1943.43 584.538   3
 -12  31   5 616.508 835.167   1
 -18 -13  -5 1854.19 961.456   2
  31 -18  -5 1877.29 839.443   3
 -13  31  -5 3270.71 999.249   1
  18 -31  -5 1707.06 998.495   4
 -18 -13  -5 1764.45 858.903   4
  18 -31  -5 990.705 1032.12   2
  13  18  -5 3427.71 952.714   3
 -31  13  -5 2668.91 1014.69   1
 -18 -13  -2 7095.72 1248.38   2
  31 -18  -2 10310.9 1352.80   3
  18 -31  -2 11527.7 1325.80   4
  18 -31  -2 7922.01 1150.02   2
 -18 -13  -2 12585.3 1393.25   4
  13  18  -2 11290.0 1168.75   3
 -31  13  -2 11472.1 1127.49   1
 -13  31  -2 11133.3 1325.52   1
  31 -18   1 6055.56 1141.82   3
 -18 -13   1 4080.91 1033.42   2
  18 -31   1 5152.78 945.914   4
 -13  31   1 4331.37 987.189   1
 -18 -13   1 5842.52 972.060   4
 -31  13   1 3774.02 660.064   1
  13  18   1 6102.77 785.977   3
  31 -18   4 8174.25 1269.62   3
  18 -31   4 7203.65 872.861   4
 -13  31   4 5639.25 1216.31   1
 -17 -14  -6 1218.59 941.148   2
  31 -17  -6 2216.38 938.479   3
  17 -31  -6 1722.39 1069.16   4
 -17 -14  -6 793.846 784.104   4
  17 -31  -6-45.0261 1000.64   2
  14  17  -6 2285.37 872.911   3
 -31  14  -6 1319.94 995.274   1
 -14  31  -6 2161.60 966.497   1
 -17 -14  -3 3966.42 1080.24   2
  31 -17  -3 4023.73 974.907   3
 -14  31  -3 4037.78 1032.08   1
  17 -31  -3 5170.37 1100.83   4
 -17 -14  -3 5501.96 1041.02   4
  17 -31  -3 2938.30 903.348   2
 -31  14  -3 5925.84 982.819   1
  14  17  -3 4947.83 947.936   3
 -14  31   0 5442.83 1056.93   1
  31 -17   0 3826.61 981.760   3
 -17 -14   0 3015.62 973.156   2
  17 -31   0 4166.05 958.754   4
 -31  14   0 2407.97 649.541   1
 -17 -14   0 3627.10 875.448   4
  17 -31   0 2738.22 698.117   2
  14  17   0 1834.31 643.402   3
  31 -17   3 4640.34 1126.97   3
  17 -31   3 3954.59 790.735   4
 -17 -14   3 4201.75 856.126   4
 -14  31   3 4325.12 1112.03   1
  14  17   3 3652.20 675.850   3
 -14  31   6 2918.70 1139.94   1
  31 -16  -4 5572.69 1129.61   3
 -15  31  -4 5612.21 1047.42   1
  16 -31  -4 9098.96 1357.24   4
  16 -31  -4 7896.10 1349.81   2
 -16 -15  -4 5401.45 1061.61   4
 -31  15  -4 7519.26 1146.76   1
  15  16  -4 6565.78 1055.11   3
 -16 -15  -4 6389.96 1299.25   2
 -16 -15  -1-146.793 804.619   2
  31 -16  -1 1559.82 851.129   3
 -31  15  -1 1103.98 615.573   1
  16 -31  -1 1266.60 763.057   4
 -16 -15  -1-380.904 649.414   4
 -15  31  -1 425.470 787.780   1
  16 -31  -1-79.1901 589.567   2
  15  16  -1 460.360 635.520   3
  31 -16   2 9674.45 1310.17   3
 -16 -15   2 6582.14 1204.13   2
  16 -31   2 12508.8 1206.27   4
 -15  31   2 13595.2 1468.54   1
 -16 -15   2 10899.1 1179.74   4
 -31  15   2 6359.83 773.969   1
  15  16   2 8358.85 893.419   3
 -15  31   5 1191.58 933.562   1
  31 -16   5 340.882 785.928   3
 -15 -16  -5-55.2242 833.758   2
 -31  16  -5 618.223 820.839   1
  31 -15  -5-206.086 777.830   3
  15 -31  -5 149.585 855.173   4
 -15 -16  -5 1583.09 868.431   4
  15 -31  -5 447.222 981.858   2
  16  15  -5 2070.97 796.498   3
 -16  31  -5 534.570 780.681   1
  31 -15  -2 9144.03 1333.99   3
  15 -31  -2 11871.9 1393.12   4
 -15 -16  -2 11002.1 1293.07   4
  15 -31  -2 6991.53 1072.39   2
 -16  31  -2 8106.53 1209.70   1
  16  15  -2 9702.97 1109.23   3
 -31  16  -2 8700.33 1092.88   1
 -15 -16  -2 7650.10 1281.67   2
 -16  31   1-19.0589 781.417   1
  31 -15   1-319.088 802.712   3
 -15 -16   1-601.549 713.394   2
  15 -31   1 289.427 654.406   4
 -15 -16   1 1682.04 714.495   4
 -31  16   1 209.997 489.383   1
  16  15   1 1025.71 573.768   3
 -16  31   4 3875.51 1069.03   1
  31 -15   4 6493.05 1184.83   3
 -15 -16   4 6410.18 965.552   4
 -31  17  -6 1560.78 909.880   1
  31 -14  -6 1607.78 898.968   3
  14 -31  -6 2649.25 1026.47   4
 -14 -17  -6 691.392 872.803   4
  14 -31  -6 39.9376 992.887   2
 -17  31  -6 971.589 860.806   1
  17  14  -6 440.099 825.757   3
 -14 -17  -6 1377.31 1021.17   2
 -14 -17  -3 5393.61 1129.73   2
  31 -14  -3 5343.82 1130.76   3
 -17  31  -3 4336.03 994.496   1
 -31  17  -3 2509.46 828.448   1
  14 -31  -3 7617.66 1218.62   4
 -14 -17  -3 4632.52 1026.66   4
  14 -31  -3 3137.75 943.884   2
  17  14  -3 4098.46 947.080   3
  31 -14   0 4422.71 1029.52   3
 -14 -17   0 4224.28 1036.71   2
  14 -31   0 5934.56 993.182   4
 -31  17   0 3377.10 744.661   1
 -14 -17   0 4716.11 940.327   4
 -17  31   0 4258.42 975.040   1
  14 -31   0 3284.16 750.646   2
  17  14   0 5295.38 849.116   3
  31 -14   3 6146.85 1191.82   3
 -14 -17   3 7403.77 1227.69   2
  14 -31   3 7314.00 939.036   4
 -14 -17   3 6091.96 924.714   4
 -17  31   3 9751.84 1347.21   1
  17  14   3 7291.61 842.759   3
 -17  31   6 2578.58 1146.76   1
 -13 -18  -4 5935.89 1271.84   2
  31 -13  -4 7030.57 1205.07   3
  13 -31  -4 8816.77 1289.64   4
 -13 -18  -4 8157.67 1251.25   4
 -18  31  -4 9414.27 1274.16   1
  13 -31  -4 7914.85 1325.56   2
  18  13  -4 7420.84 1092.82   3
 -31  18  -4 9619.76 1268.41   1
 -31  18  -1 6560.11 957.428   1
  31 -13  -1 4920.60 1055.55   3
  13 -31  -1 5058.86 973.145   4
 -18  31  -1 5300.56 1024.22   1
 -13 -18  -1 4839.32 1029.41   4
  13 -31  -1 3892.08 863.112   2
  18  13  -1 4515.13 832.521   3
 -13 -18  -1 8259.33 1275.69   2
  31 -13   2 8517.61 1249.68   3
 -13 -18   2 11847.0 1404.83   2
  13 -31   2 13423.5 1230.76   4
 -18  31   2 8432.22 1223.67   1
 -13 -18   2 10976.8 1174.78   4
 -31  18   2 7586.20 927.330   1
  18  13   2 9617.92 971.157   3
  31 -13   5 2378.08 966.610   3
 -18  31   5 408.091 879.862   1
 -13 -18   5 1925.93 673.456   4
  31 -12  -5 713.540 857.499   3
 -31  19  -5 606.115 812.252   1
  12 -31  -5-1058.80 888.474   4
 -12 -19  -5 477.779 786.908   4
  12 -31  -5-1004.22 1092.88   2
 -19  31  -5 1931.90 979.919   1
  19  12  -5-164.257 680.294   3
 -12 -19  -5 252.863 877.553   2
 -12 -19  -2 4168.18 1087.46   2
  31 -12  -2-185.265 718.515   3
 -19  31  -2 1416.02 797.914   1
 -31  19  -2 2389.43 786.192   1
  12 -31  -2 814.231 825.955   4
 -12 -19  -2 1730.60 819.011   4
  12 -31  -2 1360.48 767.907   2
  19  12  -2 2647.83 755.982   3
  31 -12   1 1886.12 838.544   3
 -12 -19   1 584.531 793.955   2
  12 -31   1 1995.54 804.153   4
 -12 -19   1 2337.38 743.324   4
 -31  19   1 1478.20 660.642   1
 -19  31   1 489.719 866.409   1
  19  12   1 1817.05 639.840   3
  12 -31   1 2134.39 643.490   2
  31 -12   4 1394.22 915.682   3
 -12 -19   4 580.491 597.442   4
 -19  31   4 1615.44 941.516   1
 -11 -20  -3 4675.21 1145.66   2
 -20  31  -3 3403.00 967.754   1
  31 -11  -3 4398.23 1037.23   3
 -31  20  -3 3884.26 966.968   1
  11 -31  -3 4962.97 1088.25   4
 -11 -20  -3 6282.91 1104.67   4
  11 -31  -3 5664.95 1128.44   2
  20  11  -3 3806.44 902.483   3
 -11 -20   0 8615.97 1234.17   2
  31 -11   0 8103.42 1197.14   3
 -31  20   0 7724.50 980.926   1
  11 -31   0 10226.1 1200.93   4
 -11 -20   0 7676.39 1061.19   4
  11 -31   0 6655.10 903.698   2
  20  11   0 7253.70 1012.58   3
 -20  31   0 9743.27 1296.73   1
  31 -11   3 8408.60 1213.97   3
 -11 -20   3 5344.69 1153.08   2
  11 -31   3 7908.30 938.005   4
 -11 -20   3 6489.06 962.986   4
 -31  20   3 2707.17 746.932   1
 -20  31   3 4605.19 1063.70   1
  20  11   3 5718.47 837.954   3
 -10 -21  -4 4983.63 1178.61   2
  31 -10  -4 4387.38 1065.45   3
  10 -31  -4 6745.29 1240.07   4
  10 -31  -4 7059.88 1286.95   2
 -21  31  -4 6136.17 1134.84   1
  21  10  -4 4767.50 1018.76   3
 -31  21  -4 6250.09 1163.46   1
 -10 -21  -1 3493.72 932.016   2
  31 -10  -1 3863.16 943.712   3
 -21  31  -1 3929.11 1006.91   1
  10 -31  -1 4921.10 991.962   4
 -31  21  -1 3752.07 898.930   1
 -10 -21  -1 4418.24 942.767   4
  10 -31  -1 5962.23 975.433   2
  21  10  -1 6782.27 1035.36   3
  21  10   2 3648.96 799.745   3
  31 -10   2 5892.73 1134.06   3
 -21  31   2 4040.43 999.170   1
 -10 -21   2 5927.15 1108.92   2
 -31  21   2 2522.29 764.871   1
  10 -31   2 3933.56 800.056   4
 -10 -21   2 4344.93 975.504   4
  31 -10   5 4015.64 1047.59   3
 -21  31   5 1859.74 1044.29   1
 -10 -21   5 4035.43 804.063   4
  31  -9  -5 1300.11 849.895   3
 -31  22  -5 298.045 825.531   1
   9 -31  -5 640.134 874.495   4
  -9 -22  -5 1174.11 828.269   4
 -22  31  -5 494.083 902.416   1
   9 -31  -5 2061.79 1127.23   2
  22   9  -5 323.751 722.583   3
  -9 -22  -5 969.025 1010.87   2
  -9 -22  -2 612.575 804.540   2
  31  -9  -2 856.589 804.598   3
 -22  31  -2 1590.86 918.307   1
   9 -31  -2 1203.99 786.407   4
 -31  22  -2 1231.09 816.846   1
  -9 -22  -2 1487.41 858.307   4
   9 -31  -2 32.7920 816.983   2
  22   9  -2 532.543 704.119   3
  22   9   1 1436.25 719.748   3
 -31  22   1 748.350 671.445   1
   9 -31   1 555.084 612.913   2
  31  -9   1 1180.59 794.841   3
  -9 -22   1 206.034 738.911   2
   9 -31   1 296.944 645.227   4
  -9 -22   1 1185.31 692.728   4
 -22  31   1 925.809 724.789   1
  22   9   4-17.7236 578.781   3
  31  -9   4-1441.68 860.627   3
 -22  31   4 1351.58 857.556   1
 -31  22   4-38.8404 614.621   1
  -9 -22   4-404.096 590.327   4
  31  -8  -3 2980.35 1044.85   3
   8 -31  -3 8282.03 1288.13   4
 -31  23  -3 6068.26 1098.66   1
  -8 -23  -3 8522.51 1270.60   4
 -23  31  -3 7251.24 1238.78   1
   8 -31  -3 2863.66 990.940   2
  -8 -23  -3 10030.0 1366.69   2
  23   8  -3 5928.54 1072.83   3
  31  -8   0 3318.19 950.102   3
  -8 -23   0 3114.67 972.024   2
 -23  31   0 3065.18 932.795   1
   8 -31   0 4634.74 936.168   4
  -8 -23   0 4299.56 912.335   4
 -31  23   0 4377.69 875.082   1
  23   8   0 6148.85 981.137   3
   8 -31   0 4215.04 916.244   2
  23   8   3 10310.6 1088.44   3
 -31  23   3 8721.26 1132.75   1
  31  -8   3 11810.8 1393.20   3
  -8 -23   3 12155.6 1476.41   2
   8 -31   3 13191.0 1204.64   4
 -23  31   3 13051.4 1520.11   1
  -8 -23   3 9534.66 1113.53   4
  31  -7  -4 4229.87 1111.38   3
 -31  24  -4 5749.64 1216.62   1
   7 -31  -4 7994.84 1283.39   4
  -7 -24  -4 7153.82 1252.01   4
   7 -31  -4 6974.01 1327.33   2
 -24  31  -4 4216.95 1056.74   1
  24   7  -4 5985.58 1118.64   3
  -7 -24  -4 4851.32 1250.43   2
  24   7  -1 2983.51 841.683   3
  -7 -24  -1 3284.60 1017.84   2
  31  -7  -1 2848.08 964.025   3
 -24  31  -1 2547.08 933.664   1
   7 -31  -1 3759.68 914.666   4
  -7 -24  -1 5488.20 1000.94   4
 -31  24  -1 2510.40 850.840   1
   7 -31  -1 2736.44 862.515   2
 -24  31   2 4240.38 1063.06   1
  24   7   2 3886.21 840.130   3
   7 -31   2 3247.17 844.038   2
  31  -7   2 2764.77 913.335   3
  -7 -24   2 4365.70 1071.44   2
 -31  24   2 5547.05 946.943   1
   7 -31   2 4962.03 893.205   4
  -7 -24   2 6734.70 1032.66   4
 -24  31   5 2737.60 1071.90   1
  31  -7   5 2946.39 994.942   3
 -25  31  -2-141.259 805.428   1
  -6 -25  -2 563.726 888.263   2
  31  -6  -2 185.636 735.470   3
   6 -31  -2 165.310 708.446   4
  -6 -25  -2 1979.08 866.229   4
 -31  25  -2 2283.66 912.949   1
   6 -31  -2 814.199 766.500   2
  25   6  -2 1302.79 794.762   3
  25   6   1 2361.91 788.576   3
   6 -31   1 2781.33 840.363   2
  31  -6   1 2608.37 884.417   3
  -6 -25   1 1739.33 837.398   2
 -31  25   1 3357.42 882.060   1
   6 -31   1 3506.30 849.952   4
  -6 -25   1 3687.21 849.577   4
 -25  31   1 2477.94 883.163   1
 -25  31   4 4170.11 1171.34   1
  25   6   4 2065.93 753.581   3
  31  -6   4 1639.20 945.528   3
 -31  25   4 765.341 794.129   1
  -6 -25   4 2113.53 708.160   4
  31  -5  -3 4924.66 1114.14   3
   5 -31  -3 6125.56 1176.06   4
  -5 -26  -3 8087.80 1284.02   4
 -31  26  -3 4064.65 1034.52   1
 -26  31  -3 5899.67 1205.74   1
   5 -31  -3 2690.28 956.554   2
  -5 -26  -3 3596.39 1150.01   2
  26   5  -3 2192.17 900.253   3
   5 -31   0 2673.79 856.370   2
  26   5   0 3510.69 905.428   3
  31  -5   0 2668.92 898.600   3
  -5 -26   0 3542.00 956.997   2
 -26  31   0 3004.06 952.406   1
   5 -31   0 3327.00 919.552   4
  -5 -26   0 3535.26 908.419   4
 -31  26   0 3500.89 906.190   1
  26   5   3 6536.67 1056.08   3
  31  -5   3 6440.93 1129.66   3
  -5 -26   3 5401.22 1111.34   2
 -26  31   3 6270.51 1208.16   1
   5 -31   3 6839.97 988.995   4
  -5 -26   3 7976.42 1066.63   4
 -31  26   3 4789.97 995.612   1
  27   4  -1 1510.54 852.797   3
  -4 -27  -1 2740.17 969.918   2
  31  -4  -1 297.108 783.808   3
 -27  31  -1 1160.35 919.594   1
   4 -31  -1 2977.78 877.208   4
  -4 -27  -1 2398.65 892.892   4
 -31  27  -1 2589.27 915.374   1
   4 -31  -1 2340.05 964.464   2
  27   4   2 4940.59 1022.70   3
  31  -4   2 3254.74 977.682   3
   4 -31   2 3517.60 952.511   2
  -4 -27   2 4060.91 1068.11   2
   4 -31   2 5673.19 981.416   4
  -4 -27   2 5057.45 937.991   4
 -31  27   2 3160.93 987.640   1
 -27  31   2 2770.00 941.180   1
  -3 -28  -2 1325.26 928.184   2
  28   3  -2 2297.52 974.633   3
  31  -3  -2 555.693 829.104   3
   3 -31  -2 1321.66 831.527   4
  -3 -28  -2 3182.26 1028.96   4
 -31  28  -2 1456.72 831.784   1
   3 -31  -2 1150.67 865.593   2
 -28  31  -2 1205.64 896.600   1
  28   3   1-356.916 760.996   3
  31  -3   1 1572.43 847.089   3
   3 -31   1 379.844 724.785   2
  -3 -28   1 336.095 825.708   2
 -31  28   1 464.311 747.722   1
 -28  31   1 1332.50 892.238   1
   3 -31   1 122.608 697.372   4
  -3 -28   1 83.1265 647.304   4
  29   2   0 2612.95 961.740   3
   2 -31   0 2024.01 813.903   2
  31  -2   0 3180.66 1023.65   3
  -2 -29   0 4001.16 1032.23   2
 -31  29   0 2776.41 928.304   1
 -29  31   0 1800.18 889.008   1
   2 -31   0 3032.24 908.073   4
  32 -28   0 315.804 810.352   3
  32 -28   0 79.2753 858.030   4
  -4  32   0 907.614 984.623   1
  28 -32   0-358.630 786.751   4
  -4  32   0-108.084 657.347   3
   4  28   0 483.231 615.101   3
  32 -27  -1 513.976 837.277   3
 -27  -5  -1 507.446 819.498   2
  32 -27  -1 1525.58 956.976   4
  27 -32  -1 726.500 833.280   4
  -5  32  -1 1739.30 1028.21   1
 -27  -5  -1-5.01605 779.648   4
  -5  32  -1 1287.33 829.537   3
   5  27  -1 1087.19 688.412   3
  -5  32   2 848.889 980.310   1
  27 -32   2 1208.01 833.232   4
 -26  -6  -2 4436.46 1169.96   2
  32 -26  -2 6931.58 1236.24   3
  32 -26  -2 4275.21 1183.38   4
  26 -32  -2 5262.94 1167.29   4
  32 -26  -2 6530.01 1408.11   2
   6  26  -2 5351.47 1032.76   1
 -26  -6  -2 6771.44 1161.44   4
  -6  32  -2 5939.21 1179.03   3
  -6  32  -2 6136.08 1167.26   1
   6  26  -2 7014.46 1030.61   3
  32 -26   1 2641.09 995.089   3
  -6  32   1 2612.62 1088.40   1
  26 -32   1 3201.68 971.999   4
  -6  32   1 2004.00 713.319   3
   6  26   1 1769.37 657.795   3
  -7  32  -3 3885.77 1149.01   1
   7  25  -3 1722.79 792.871   1
 -25  -7  -3 1019.56 923.423   2
  32 -25  -3 2653.20 985.468   3
  32 -25  -3 3067.03 1243.87   2
  25 -32  -3 2119.42 1146.77   4
 -25  -7  -3 2543.03 910.319   1
  25 -32  -3 2813.37 1037.13   2
 -25  -7  -3 4348.39 1050.41   4
  -7  32  -3 4172.16 1060.94   3
   7  25  -3 3647.40 974.672   3
 -32   7  -3 3214.34 853.842   1
  32 -25   0 1239.38 922.553   3
 -25  -7   0 981.997 882.620   2
  25 -32   0 1104.23 849.573   4
  -7  32   0-57.8648 885.564   1
 -25  -7   0 884.666 819.318   4
  -7  32   0 1601.29 732.836   3
   7  25   0 1874.62 690.665   3
  25 -32   3 5044.34 965.735   4
  -7  32   3 4630.90 1137.87   1
 -24  -8  -4 404.383 906.321   2
  32 -24  -4 115.095 862.330   3
  32 -24  -4-413.929 947.259   4
  32 -24  -4 309.418 1171.09   2
  24 -32  -4 421.708 843.335   4
  24 -32  -4 737.563 954.902   2
 -24  -8  -4 1097.05 796.601   4
  -8  32  -4-631.069 775.285   1
   8  24  -4-842.271 805.467   3
 -32   8  -4 362.000 775.889   1
 -24  -8  -1 1205.02 840.725   2
  32 -24  -1 1871.06 937.312   3
  32 -24  -1 615.035 886.100   2
  24 -32  -1 1234.02 826.482   4
 -24  -8  -1 847.631 741.112   4
  -8  32  -1 163.640 802.146   1
   8  24  -1 2367.12 769.763   3
  32 -24   2 422.101 868.404   3
  24 -32   2-518.520 667.401   4
  -8  32   2 2023.75 946.205   1
  -8  32   2 120.731 618.623   3
 -32   9  -2 1398.07 719.370   1
  -9  32  -2 1846.26 878.121   1
 -23  -9  -2 977.680 811.076   2
  32 -23  -2 1859.70 916.608   3
  23 -32  -2-213.899 809.666   4
  23 -32  -2 334.853 708.818   2
 -23  -9  -2 1334.10 819.155   4
   9  23  -2 248.108 649.167   3
  32 -23   1 2183.85 917.385   3
 -23  -9   1 3889.20 1084.00   2
  23 -32   1 4988.38 1017.99   4
  -9  32   1 3376.08 1041.94   1
 -23  -9   1 4377.70 987.794   4
   9  23   1 4107.97 780.356   3
  -9  32   4 4155.39 1159.83   1
 -22 -10  -3 2605.97 1012.30   2
  32 -22  -3 1554.15 906.750   3
  22 -32  -3 372.832 893.870   4
  22 -32  -3 847.764 843.326   2
 -22 -10  -3 1702.92 845.196   4
 -10  32  -3 852.431 847.863   1
  10  22  -3 2463.36 883.969   3
 -32  10  -3 1695.34 797.075   1
  32 -22   0 4767.33 1085.55   3
 -22 -10   0 3875.59 1024.09   2
  22 -32   0 2544.37 900.060   4
 -22 -10   0 5531.11 1048.38   4
 -10  32   0 5292.12 1124.57   1
  10  22   0 5757.81 869.862   3
  32 -22   3 2722.27 991.084   3
  22 -32   3 2634.88 804.504   4
 -10  32   3 3364.50 1117.33   1
 -21 -11  -4 1127.26 912.237   2
  32 -21  -4 297.245 827.771   3
  21 -32  -4 1744.43 909.316   4
 -11  32  -4 1857.88 845.095   1
  21 -32  -4 1272.18 974.052   2
 -21 -11  -4 157.277 739.178   4
  11  21  -4 177.286 698.929   3
 -32  11  -4 1793.25 850.289   1
 -11  32  -1-258.370 787.221   1
 -32  11  -1 809.618 589.985   1
 -21 -11  -1-309.979 802.173   2
  32 -21  -1-571.615 830.945   3
  21 -32  -1-500.919 775.181   4
 -21 -11  -1 484.451 772.934   4
  11  21  -1 629.616 631.141   3
  32 -21   2 1570.69 894.901   3
  21 -32   2 689.042 622.758   4
 -21 -11   2-89.2792 723.059   4
 -11  32   2 1640.31 871.924   1
  11  21   2 2414.57 634.865   3
 -11  32   5 2278.96 1100.40   1
 -20 -12  -5 3637.50 1131.30   2
  32 -20  -5 550.396 968.575   3
 -12  32  -5 3288.35 1022.10   1
  20 -32  -5 3985.06 1193.88   4
  20 -32  -5 2696.99 1226.72   2
 -20 -12  -5 4634.31 1083.96   4
  12  20  -5 3858.81 1001.18   3
 -32  12  -5 3322.52 962.594   1
 -32  12  -2 130.488 616.028   1
 -20 -12  -2 1217.02 921.947   2
  32 -20  -2 655.526 768.069   3
  20 -32  -2 534.361 793.859   4
 -20 -12  -2 755.770 773.721   4
  20 -32  -2 999.694 772.938   2
 -12  32  -2 587.453 832.685   1
  12  20  -2 144.708 581.533   3
  32 -20   1 11237.6 1434.67   3
 -20 -12   1 13234.2 1561.18   2
  20 -32   1 11315.4 1267.51   4
 -12  32   1 10184.1 1472.27   1
 -20 -12   1 14238.5 1395.27   4
  12  20   1 12444.8 1063.22   3
  32 -20   4 1810.60 982.212   3
 -12  32   4 351.038 925.062   1
 -32  13  -3 1000.83 721.148   1
 -19 -13  -3 1131.33 1009.55   2
  32 -19  -3 1789.74 911.133   3
  19 -32  -3 1027.58 860.975   4
 -13  32  -3 745.258 748.323   1
 -19 -13  -3 878.827 861.161   4
  19 -32  -3 1608.80 843.395   2
  13  19  -3 2001.58 739.156   3
 -19 -13   0 11797.3 1482.35   2
 -32  13   0 9597.79 954.980   1
  32 -19   0 14251.2 1507.14   3
 -13  32   0 10760.9 1301.90   1
  19 -32   0 12144.7 1339.74   4
 -19 -13   0 14069.2 1416.56   4
  13  19   0 12163.1 1115.05   3
 -13  32   3 3290.45 1025.73   1
  32 -19   3 1765.03 962.222   3
  19 -32   3 863.902 695.729   4
 -19 -13   3 1751.07 704.136   4
 -32  14  -4 3056.34 967.948   1
 -18 -14  -4 3538.86 1091.26   2
  32 -18  -4 1984.92 961.692   3
 -14  32  -4 2720.85 1075.49   1
  18 -32  -4 2563.87 1043.13   4
 -18 -14  -4 2956.69 885.124   4
  18 -32  -4 2681.49 1034.04   2
  14  18  -4 2610.56 931.291   3
  32 -18  -1 3902.29 1029.89   3
 -18 -14  -1 3015.29 982.644   2
 -32  14  -1 3318.22 747.629   1
  18 -32  -1 4588.93 1037.94   4
 -18 -14  -1 4809.16 982.126   4
  18 -32  -1 2127.47 746.458   2
 -14  32  -1 4397.50 978.952   1
  14  18  -1 2991.31 779.175   3
 -14  32   2 1676.98 872.386   1
  32 -18   2 1413.17 881.751   3
 -18 -14   2-1087.50 820.500   2
  18 -32   2-62.3651 571.768   4
 -18 -14   2 1611.75 706.538   4
  14  18   2 97.4650 514.672   3
 -14  32   5 883.592 946.744   1
 -32  15  -5 2246.15 956.138   1
 -17 -15  -5 4284.51 1189.46   2
 -15  32  -5 3560.71 1061.33   1
  32 -17  -5 134.396 839.210   3
  17 -32  -5 2175.17 1059.91   4
 -17 -15  -5 3072.77 1022.48   4
  17 -32  -5 4578.02 1272.58   2
  15  17  -5 1986.78 844.431   3
 -17 -15  -2 3171.10 1043.30   2
  32 -17  -2 4331.59 989.173   3
 -32  15  -2 2230.28 778.147   1
  17 -32  -2 1753.83 874.566   4
 -15  32  -2 2766.18 910.860   1
 -17 -15  -2 1703.01 801.789   4
  17 -32  -2 2867.38 892.414   2
  15  17  -2 612.329 690.911   3
  32 -17   1 6773.89 1163.02   3
 -17 -15   1 3640.04 946.261   2
  17 -32   1 3406.52 877.607   4
 -15  32   1 1628.32 869.338   1
 -17 -15   1 4846.31 953.003   4
 -32  15   1 3169.59 673.469   1
  15  17   1 4132.34 785.030   3
  32 -17   4 2115.25 1018.97   3
 -15  32   4 924.714 881.357   1
 -17 -15   4 673.647 682.302   4
 -16 -16  -3 3197.16 1055.10   2
  32 -16  -3 2734.60 983.651   3
 -32  16  -3 1974.21 794.186   1
 -16  32  -3 2569.16 935.446   1
  16 -32  -3 4961.15 1135.04   4
 -16 -16  -3 3407.66 908.154   4
  16 -32  -3 1784.34 901.939   2
  16  16  -3 2838.46 807.298   3
 -16 -16   0 8424.58 1300.46   2
 -16  32   0 9219.87 1338.53   1
  32 -16   0 5265.50 1109.16   3
 -32  16   0 6403.98 883.866   1
  16 -32   0 8070.27 1138.44   4
 -16 -16   0 7880.20 1086.15   4
  16  16   0 6714.89 926.218   3
  16  16   3 1961.55 632.485   3
  32 -16   3 2813.68 948.139   3
  16 -32   3 2557.68 745.100   4
 -16  32   3 2226.08 1013.73   1
 -16 -16   3 2873.65 835.796   4
 -15 -17  -4 7.22360 898.961   2
 -17  32  -4 286.593 816.028   1
 -32  17  -4 1738.77 833.570   1
  32 -15  -4 1096.51 838.580   3
  15 -32  -4 427.351 848.188   4
 -15 -17  -4 2967.90 949.359   4
  15 -32  -4 806.576 906.534   2
  17  15  -4 200.183 766.655   3
  32 -15  -1 4226.89 1031.89   3
 -15 -17  -1 2906.31 966.203   2
 -32  17  -1 2466.45 763.464   1
  15 -32  -1 2899.01 885.339   4
 -17  32  -1 5806.94 1121.04   1
 -15 -17  -1 4572.64 1009.74   4
  15 -32  -1 3287.26 888.383   2
  17  15  -1 2410.28 766.485   3
  32 -15   2 1191.73 845.366   3
 -15 -17   2 1414.91 842.554   2
  15 -32   2 2061.81 730.051   4
 -15 -17   2 2939.48 794.367   4
 -17  32   2 2417.86 883.026   1
  17  15   2 1078.73 632.439   3
  32 -15   5 2897.24 1086.54   3
 -17  32   5 3974.26 1158.31   1
 -14 -18  -5 1613.65 1035.32   2
 -32  18  -5 831.426 843.776   1
  32 -14  -5 1803.66 913.750   3
  14 -32  -5 1105.31 886.504   4
 -14 -18  -5 769.958 853.514   4
  14 -32  -5 1483.58 1023.27   2
  18  14  -5 1395.49 858.856   3
 -18  32  -5 1173.06 828.165   1
 -14 -18  -2 729.415 850.985   2
  32 -14  -2 494.736 779.093   3
 -32  18  -2 369.183 695.927   1
 -18  32  -2 323.645 744.269   1
  14 -32  -2 241.357 661.915   4
 -14 -18  -2 8.02233 740.615   4
  14 -32  -2 1954.20 901.461   2
  18  14  -2 731.017 702.039   3
 -18  32   1 2125.71 868.922   1
  32 -14   1 2169.21 916.423   3
 -14 -18   1 4279.04 1190.50   2
  14 -32   1 3154.44 804.664   4
 -14 -18   1 5186.70 952.510   4
 -32  18   1 2631.14 711.358   1
  18  14   1 3075.74 754.104   3
 -18  32   4 1226.13 927.708   1
  32 -14   4 4271.98 1134.39   3
 -14 -18   4 3235.50 815.258   4
 -13 -19  -3 961.225 848.686   2
  32 -13  -3 125.860 789.861   3
 -19  32  -3 1429.07 874.766   1
 -32  19  -3 830.169 688.208   1
  13 -32  -3 521.442 755.171   4
 -13 -19  -3 325.621 738.817   4
  13 -32  -3 1225.96 849.492   2
  19  13  -3 279.384 713.385   3
 -19  32   0 13004.8 1460.92   1
 -13 -19   0 11470.4 1436.69   2
  32 -13   0 11816.0 1438.22   3
 -32  19   0 8257.29 1015.39   1
  13 -32   0 10772.9 1238.28   4
 -13 -19   0 13867.7 1422.63   4
  13 -32   0 9237.95 1073.62   2
  19  13   0 12819.5 1206.99   3
 -19  32   3-39.1933 819.718   1
  19  13   3 1069.80 640.937   3
  32 -13   3 429.657 790.939   3
 -13 -19   3 586.809 821.760   2
  13 -32   3 692.052 541.734   4
 -13 -19   3 1214.04 671.583   4
 -12 -20  -4 923.470 972.528   2
  32 -12  -4 2439.23 945.324   3
 -32  20  -4 686.993 787.111   1
  12 -32  -4 1123.22 882.205   4
 -12 -20  -4 137.138 713.961   4
  12 -32  -4 2570.00 1062.71   2
  20  12  -4 2067.90 848.906   3
 -20  32  -4 3009.29 1059.75   1
  32 -12  -1 12890.8 1449.97   3
 -32  20  -1 10506.8 1192.49   1
  12 -32  -1 12035.9 1340.66   4
 -12 -20  -1 13711.2 1411.95   4
  12 -32  -1 12504.1 1299.30   2
 -20  32  -1 12551.7 1421.61   1
  20  12  -1 12476.5 1232.52   3
 -12 -20  -1 10393.5 1377.97   2
  20  12   2 1418.24 660.720   3
  32 -12   2 1091.67 821.523   3
 -12 -20   2 171.128 750.450   2
 -32  20   2-270.912 628.688   1
 -20  32   2 1522.20 936.496   1
  12 -32   2 732.366 650.067   4
 -12 -20   2 874.180 656.152   4
  32 -12   5 1221.31 858.133   3
 -20  32   5 1986.99 1101.86   1
 -12 -20   5 2228.03 773.851   4
  32 -11  -5 132.938 846.824   3
 -32  21  -5 662.176 828.047   1
  11 -32  -5 1114.78 944.139   4
 -11 -21  -5 1612.79 940.112   4
  11 -32  -5 824.547 1022.81   2
 -21  32  -5 396.763 878.285   1
  21  11  -5 1036.43 879.779   3
 -11 -21  -5 476.435 915.398   2
 -11 -21  -2 430.948 862.036   2
  32 -11  -2-695.283 845.215   3
 -21  32  -2 1225.81 821.480   1
 -32  21  -2 1140.96 723.847   1
  11 -32  -2 2437.30 898.883   4
 -11 -21  -2 2075.12 915.319   4
  11 -32  -2 1753.49 831.127   2
  21  11  -2 2432.43 800.953   3
  21  11   1 1609.25 693.731   3
  32 -11   1 817.810 890.643   3
 -11 -21   1 1295.34 810.188   2
  11 -32   1 1228.23 664.279   4
 -11 -21   1 485.492 639.151   4
 -21  32   1-156.573 768.468   1
 -32  21   1 383.183 642.599   1
  32 -11   4 858.338 839.612   3
 -11 -21   4-53.9689 610.323   4
 -21  32   4 1124.13 868.191   1
 -10 -22  -3 3615.45 1058.71   2
 -22  32  -3 4477.83 1071.79   1
  32 -10  -3 3335.00 997.986   3
 -32  22  -3 2365.99 904.022   1
  10 -32  -3 2964.12 995.910   4
 -10 -22  -3 3984.84 983.867   4
  10 -32  -3 1301.49 892.864   2
  22  10  -3 815.164 797.027   3
  32 -10   0 5142.74 1096.61   3
 -10 -22   0 5420.38 1125.71   2
  10 -32   0 5526.03 1015.50   4
 -10 -22   0 7520.45 1135.61   4
 -22  32   0 3708.69 982.228   1
 -32  22   0 4826.14 907.059   1
  10 -32   0 2358.45 789.792   2
  22  10   0 2535.47 933.877   3
  22  10   3 452.308 592.688   3
  32 -10   3 691.510 869.887   3
 -10 -22   3 2697.20 1006.89   2
  10 -32   3 2061.39 722.346   4
 -10 -22   3 1426.95 692.818   4
 -22  32   3 2228.60 1015.23   1
 -32  22   3 1557.38 708.415   1
  -9 -23  -4 1715.57 1089.64   2
  32  -9  -4 2789.72 993.470   3
 -32  23  -4 1646.71 841.040   1
   9 -32  -4 3936.48 1159.16   4
  -9 -23  -4 3743.83 994.413   4
   9 -32  -4 3613.94 1129.77   2
 -23  32  -4 3202.28 1086.58   1
  23   9  -4 1864.97 893.723   3
  -9 -23  -1 5213.92 1163.18   2
  32  -9  -1 4707.42 1076.43   3
 -23  32  -1 4163.48 1027.59   1
   9 -32  -1 7056.30 1136.19   4
  -9 -23  -1 6282.04 1148.42   4
 -32  23  -1 5014.81 975.400   1
   9 -32  -1 3512.62 958.289   2
  23   9  -1 3892.15 894.517   3
  23   9   2 319.993 608.980   3
 -23  32   2-508.787 781.941   1
  32  -9   2-147.911 704.591   3
  -9 -23   2 234.823 785.461   2
 -32  23   2 372.688 631.195   1
   9 -32   2 1077.52 633.173   4
  -9 -23   2 849.344 667.339   4
  -8 -24  -2-503.431 838.313   2
  32  -8  -2 1094.01 860.797   3
 -24  32  -2 1633.88 974.860   1
   8 -32  -2 1310.93 843.738   4
  -8 -24  -2 801.587 751.757   4
 -32  24  -2-1255.64 804.301   1
   8 -32  -2 1.14897 804.831   2
  24   8  -2 655.837 756.638   3
  24   8   1-923.112 736.370   3
   8 -32   1 2032.41 766.017   2
 -32  24   1 1192.00 739.297   1
  32  -8   1 692.273 823.955   3
  -8 -24   1 587.323 828.271   2
   8 -32   1 1815.82 798.559   4
  -8 -24   1 1417.44 788.620   4
 -24  32   1 827.872 818.826   1
  24   8   4 354.265 669.971   3
  32  -8   4 1307.65 821.158   3
 -24  32   4 161.020 940.784   1
  -8 -24   4 302.041 592.343   4
  -7 -25  -3 4314.33 1161.44   2
  32  -7  -3 3832.68 1129.89   3
   7 -32  -3 4519.90 1100.71   4
 -32  25  -3 4142.24 1039.93   1
 -25  32  -3 6036.69 1213.25   1
  -7 -25  -3 4531.30 1075.98   4
   7 -32  -3 1503.18 906.996   2
  25   7  -3 3102.57 1031.41   3
   7 -32   0 1993.18 821.468   2
  25   7   0 1151.70 752.690   3
  32  -7   0 2744.03 933.875   3
  -7 -25   0 1659.01 865.970   2
 -25  32   0 1840.75 850.257   1
   7 -32   0 45.0142 790.647   4
  -7 -25   0 2396.38 851.672   4
 -32  25   0 2100.82 815.484   1
  25   7   3 2478.98 790.726   3
  32  -7   3 2838.59 923.669   3
  -7 -25   3 2189.68 1015.37   2
 -25  32   3 3803.67 1071.77   1
   7 -32   3 3891.97 832.516   4
  -7 -25   3 3527.01 864.219   4
 -32  25   3 1881.45 808.908   1
  26   6  -1 1553.14 875.098   3
  -6 -26  -1 1921.86 915.900   2
  32  -6  -1 2722.93 989.037   3
 -26  32  -1 2512.24 1079.67   1
   6 -32  -1 2476.30 900.150   4
  -6 -26  -1 3770.29 952.697   4
 -32  26  -1 193.931 783.676   1
   6 -32  -1 2228.49 881.945   2
 -26  32   2 4927.25 1122.23   1
  26   6   2 4479.51 934.488   3
  32  -6   2 5619.30 1173.91   3
  -6 -26   2 4560.40 1091.55   2
 -32  26   2 2455.38 856.167   1
   6 -32   2 4543.61 925.370   4
  -6 -26   2 5508.28 1007.62   4
  27   5  -2-896.087 799.696   3
  -5 -27  -2 1554.73 908.779   2
 -27  32  -2 1169.76 950.017   1
  32  -5  -2 319.640 799.303   3
   5 -32  -2 1447.04 848.469   4
  -5 -27  -2 340.317 727.462   4
 -32  27  -2 1799.24 919.915   1
   5 -32  -2 1022.20 877.854   2
  27   5   1 1668.36 834.350   3
   5 -32   1 988.384 735.310   2
  32  -5   1 426.402 785.029   3
  -5 -27   1 1320.13 821.563   2
 -32  27   1 852.786 803.150   1
   5 -32   1-301.524 717.216   4
  -5 -27   1 751.952 780.509   4
 -27  32   1-243.555 833.410   1
  28   4   0-194.593 736.321   3
   4 -32   0 475.119 745.919   2
 -32  28   0 670.907 820.991   1
  32  -4   0 535.961 768.091   3
  -4 -28   0 164.595 869.727   2
 -28  32   0 1619.09 1008.00   1
   4 -32   0 29.1612 777.999   4
  -4 -28   0 2870.81 904.570   4
  -6  33   0 1663.49 997.356   1
  33 -27   0 2438.76 1068.98   3
  27 -33   0 2611.57 974.454   4
  -6  33   0 2418.69 850.262   3
   6  27   0 2778.65 774.500   3
  -7  33  -1 510.263 884.505   1
 -26  -7  -1 1280.03 955.288   2
  33 -26  -1 142.415 861.616   3
  26 -33  -1 722.834 840.637   4
 -26  -7  -1 2013.16 953.884   4
  -7  33  -1 1699.51 818.436   3
   7  26  -1 1733.11 726.619   3
  26 -33   2 1184.63 814.519   4
  -7  33   2-577.613 1088.60   1
 -25  -8  -2 4946.67 1204.81   2
  33 -25  -2 2903.01 1056.66   3
  33 -25  -2 2818.88 1135.32   2
  25 -33  -2 2458.38 1043.58   4
  -8  33  -2 5499.54 1249.27   1
 -25  -8  -2 2569.01 954.309   4
  -8  33  -2 3622.70 1042.15   3
   8  25  -2 3788.52 935.902   3
  -8  33   1 10469.2 1506.66   1
  33 -25   1 12176.8 1489.19   3
  25 -33   1 13384.6 1495.50   4
 -25  -8   1 12598.0 1475.12   4
  -8  33   1 16042.8 1359.16   3
   8  25   1 13420.5 1170.79   3
  -9  33  -3 3366.44 989.682   1
 -24  -9  -3 3591.54 1172.63   2
  33 -24  -3 3177.41 1093.10   3
  33 -24  -3 3276.40 1228.62   2
  24 -33  -3 3335.65 1132.75   4
  24 -33  -3 1378.62 911.922   2
 -24  -9  -3 827.630 791.081   4
   9  24  -3 3871.82 963.574   3
 -33   9  -3 1711.33 823.505   1
  -9  33   0 3836.33 1185.06   1
  33 -24   0 6151.80 1229.51   3
 -24  -9   0 5422.47 1226.84   2
  24 -33   0 2733.84 964.089   4
 -24  -9   0 5000.32 1090.76   4
   9  24   0 3686.16 806.623   3
  24 -33   3 2198.21 880.705   4
  -9  33   3 2687.48 1080.31   1
 -23 -10  -1 1411.03 924.566   2
  33 -23  -1 286.611 844.963   3
  23 -33  -1 560.866 872.571   4
 -10  33  -1 96.8227 864.700   1
 -23 -10  -1-533.854 782.728   4
  10  23  -1 363.295 615.481   3
 -10  33   2 1627.05 1027.77   1
  33 -23   2-219.106 867.489   3
  23 -33   2 903.749 715.728   4
 -23 -10   2-494.135 778.223   4
 -11  33  -2 4454.38 1110.04   1
 -33  11  -2 2409.97 745.544   1
 -22 -11  -2 3273.74 1078.88   2
  33 -22  -2 4739.74 1252.46   3
  22 -33  -2 3839.47 1055.08   4
 -22 -11  -2 4414.94 1042.35   4
  11  22  -2 4827.90 976.525   3
 -22 -11   1 10124.8 1449.79   2
  33 -22   1 6886.65 1254.67   3
  22 -33   1 9159.02 1262.24   4
 -22 -11   1 9277.78 1291.41   4
 -11  33   1 8368.71 1385.15   1
  11  22   1 7133.93 919.495   3
 -33  12  -3 2187.34 856.757   1
 -21 -12  -3 3298.98 1064.21   2
  33 -21  -3 3186.90 1024.04   3
  21 -33  -3 3250.21 1170.47   4
 -21 -12  -3 3507.69 990.309   4
  21 -33  -3 4014.54 1076.80   2
 -12  33  -3 3138.57 979.449   1
  12  21  -3 3427.82 927.878   3
  33 -21   0 1172.83 856.120   3
 -21 -12   0 2301.65 1004.42   2
  21 -33   0 1471.32 780.531   4
 -12  33   0 2241.80 992.943   1
 -21 -12   0 481.365 798.093   4
  12  21   0 2340.73 715.022   3
  33 -21   3 6471.45 1214.27   3
 -12  33   3 5568.37 1204.83   1
  21 -33   3 4138.52 892.618   4
 -21 -12   3 5356.55 993.403   4
 -33  13  -4 2244.64 926.242   1
 -20 -13  -4 4503.05 1158.11   2
  33 -20  -4 3150.12 1020.50   3
  20 -33  -4 1302.05 953.166   4
 -13  33  -4 1413.55 891.188   1
 -20 -13  -4 3109.84 953.615   4
  20 -33  -4 3231.15 1156.41   2
  13  20  -4 1596.11 814.268   3
 -13  33  -1 3151.93 979.684   1
  33 -20  -1 1225.19 938.550   3
 -20 -13  -1 2046.76 962.206   2
 -33  13  -1 1331.67 669.941   1
  20 -33  -1 422.949 781.126   4
 -20 -13  -1 1531.27 812.794   4
  13  20  -1 329.356 654.475   3
  33 -20   2 504.405 837.670   3
 -20 -13   2 1552.60 927.033   2
  20 -33   2 370.640 668.195   4
 -13  33   2-256.952 861.845   1
 -20 -13   2 1421.47 794.810   4
  13  20   2 736.752 564.732   3
 -19 -14  -2 4319.50 1128.12   2
  33 -19  -2-35.8170 817.496   3
 -33  14  -2 1918.29 756.442   1
  19 -33  -2 3022.22 995.407   4
 -19 -14  -2 3587.06 933.083   4
 -14  33  -2 2855.62 969.960   1
  19 -33  -2 2556.19 893.237   2
  14  19  -2 1963.64 801.109   3
  33 -19   1 2458.89 943.983   3
 -19 -14   1 410.613 879.976   2
  19 -33   1 2014.17 773.734   4
 -19 -14   1 1152.29 739.899   4
 -14  33   1 544.482 828.494   1
  14  19   1 1955.84 677.144   3
  33 -19   4 955.532 870.858   3
 -14  33   4 2806.87 1047.39   1
  33 -18  -3 9770.91 1468.16   3
 -18 -15  -3 5990.64 1202.46   2
  18 -33  -3 7259.44 1389.00   4
 -18 -15  -3 11997.8 1420.27   4
  18 -33  -3 6575.57 1193.74   2
  15  18  -3 9679.22 1190.95   3
 -15  33  -3 9876.29 1353.27   1
 -33  15  -3 8230.64 1137.63   1
 -15  33   0-496.103 868.315   1
  33 -18   0 2347.17 900.072   3
 -18 -15   0 631.385 841.843   2
  18 -33   0 855.678 813.778   4
 -33  15   0 1798.16 680.157   1
 -18 -15   0 1693.47 802.268   4
  15  18   0 2180.41 674.065   3
  33 -18   3 8054.36 1301.01   3
  18 -33   3 7294.24 1017.61   4
 -18 -15   3 8384.87 1166.42   4
 -15  33   3 7737.90 1312.68   1
 -17 -16  -4 1187.76 1072.70   2
 -33  16  -4 3508.05 999.147   1
  33 -17  -4 1986.63 935.008   3
 -16  33  -4 1851.26 924.355   1
  17 -33  -4 3754.68 1200.54   4
 -17 -16  -4 2849.18 1048.32   4
  17 -33  -4 2437.27 1018.08   2
  16  17  -4 1629.24 849.017   3
  33 -17  -1-264.398 794.065   3
 -17 -16  -1 2211.52 986.251   2
 -33  16  -1 2410.01 738.276   1
  17 -33  -1 2329.47 818.136   4
 -17 -16  -1 2424.41 844.050   4
 -16  33  -1 1284.16 824.291   1
  17 -33  -1 968.810 705.905   2
  16  17  -1 1131.59 685.002   3
  33 -17   2 1649.06 964.767   3
 -17 -16   2 1244.19 893.292   2
  17 -33   2 2269.28 743.217   4
 -17 -16   2 1656.47 770.036   4
 -16  33   2 845.594 876.239   1
  16  17   2 1775.86 670.988   3
 -16 -17  -2 1561.43 978.181   2
  33 -16  -2-132.842 851.543   3
 -33  17  -2 1396.93 714.383   1
  16 -33  -2 3001.32 994.887   4
 -17  33  -2 4137.43 997.330   1
 -16 -17  -2 2273.89 840.189   4
  16 -33  -2 1207.26 829.281   2
  17  16  -2 2536.58 771.330   3
  33 -16   1 1755.59 959.473   3
 -16 -17   1 823.112 845.130   2
 -17  33   1 1158.26 830.253   1
  16 -33   1 831.488 693.584   4
 -16 -17   1 2350.56 825.263   4
 -33  17   1 1831.77 634.959   1
  17  16   1 1933.47 693.149   3
 -17  33   4 2348.39 1033.55   1
 -16 -17   4 652.027 715.208   4
 -15 -18  -3 6926.19 1373.38   2
  33 -15  -3 5426.72 1216.57   3
  15 -33  -3 8604.07 1302.60   4
 -15 -18  -3 7249.27 1227.16   4
 -18  33  -3 7880.79 1292.44   1
  15 -33  -3 4980.38 1144.19   2
  18  15  -3 7582.11 1107.82   3
 -33  18  -3 7336.48 1116.41   1
  33 -15   0 583.445 890.181   3
 -15 -18   0 498.072 844.264   2
  15 -33   0 1691.05 845.680   4
 -15 -18   0 1526.06 736.563   4
 -33  18   0-580.063 611.590   1
 -18  33   0 64.6315 766.637   1
  18  15   0 1117.12 669.863   3
  33 -15   3 8743.57 1313.41   3
  15 -33   3 8940.72 1078.05   4
 -15 -18   3 7345.57 1050.09   4
 -18  33   3 11430.5 1461.32   1
 -14 -19  -4 3594.40 1163.89   2
 -19  33  -4 1822.44 1015.60   1
  33 -14  -4 1899.05 904.276   3
 -33  19  -4 3022.97 987.384   1
  14 -33  -4 2770.02 1013.23   4
 -14 -19  -4 532.753 938.183   4
  14 -33  -4 2793.47 1087.75   2
  19  14  -4 1787.00 843.503   3
  33 -14  -1 2661.85 990.253   3
 -14 -19  -1 3093.23 1014.42   2
  14 -33  -1 3224.73 904.025   4
 -33  19  -1 1938.27 788.309   1
 -19  33  -1 2888.96 984.241   1
 -14 -19  -1 3039.99 906.978   4
  14 -33  -1 1741.40 764.978   2
  19  14  -1 3829.05 834.424   3
  19  14   2 2467.98 699.383   3
  33 -14   2 3122.25 1019.69   3
 -14 -19   2 2847.10 1009.32   2
  14 -33   2 2535.94 815.641   4
 -19  33   2 3634.13 1104.18   1
 -14 -19   2 1988.58 783.474   4
 -13 -20  -2 2251.15 977.816   2
  33 -13  -2-472.006 773.464   3
 -20  33  -2 119.276 786.988   1
 -33  20  -2 1406.47 750.142   1
  13 -33  -2 1543.10 818.204   4
 -13 -20  -2 1486.00 817.523   4
  13 -33  -2 966.483 749.804   2
  20  13  -2 248.211 704.845   3
 -20  33   1 569.435 789.120   1
  33 -13   1 148.862 801.119   3
 -13 -20   1 401.616 818.202   2
  13 -33   1 879.252 723.112   4
 -13 -20   1 2165.77 792.623   4
 -33  20   1 613.644 586.639   1
  20  13   1 468.300 653.973   3
  33 -13   4 2547.85 1021.77   3
 -13 -20   4 3935.59 867.512   4
 -20  33   4 4666.44 1163.00   1
  33 -12  -3 7401.45 1343.86   3
 -21  33  -3 5008.78 1153.61   1
 -33  21  -3 4173.38 1028.68   1
  12 -33  -3 6587.39 1188.41   4
 -12 -21  -3 5591.54 1158.73   4
  12 -33  -3 4958.78 1254.66   2
  21  12  -3 6210.33 1122.34   3
 -12 -21  -3 7312.80 1392.53   2
  33 -12   0 1328.99 870.621   3
 -12 -21   0 3738.23 995.455   2
  12 -33   0 2542.13 849.983   4
 -12 -21   0 3615.61 931.411   4
 -21  33   0 2570.62 918.474   1
 -33  21   0 2020.09 742.786   1
  12 -33   0 2284.78 807.267   2
  21  12   0 2784.21 815.604   3
  21  12   3 1653.01 696.410   3
  33 -12   3 1271.59 876.185   3
 -12 -21   3 1641.05 1009.23   2
  12 -33   3 3115.34 794.104   4
 -12 -21   3 3422.01 855.695   4
 -21  33   3 1818.06 1002.21   1
  33 -11  -1 7715.63 1306.10   3
 -33  22  -1 6728.42 1082.05   1
  11 -33  -1 7887.04 1193.47   4
 -11 -22  -1 9965.52 1273.81   4
  11 -33  -1 6521.37 1097.54   2
 -22  33  -1 8749.52 1356.64   1
  22  11  -1 6262.31 1052.69   3
 -11 -22  -1 7157.71 1275.43   2
  22  11   2 3971.11 860.595   3
  33 -11   2 2758.73 1035.42   3
 -11 -22   2 3772.48 1066.60   2
 -22  33   2 4718.39 1139.58   1
 -33  22   2 2973.83 838.149   1
  11 -33   2 5832.04 1002.42   4
 -11 -22   2 5068.55 1024.85   4
 -10 -23  -2 2436.57 1062.29   2
  33 -10  -2 1356.74 940.432   3
 -23  33  -2-590.776 888.659   1
  10 -33  -2 3189.28 971.818   4
 -33  23  -2 342.359 777.203   1
 -10 -23  -2 1680.07 910.425   4
  10 -33  -2 793.657 844.823   2
  23  10  -2 292.634 695.236   3
  23  10   1-605.227 727.536   3
 -33  23   1 563.356 672.526   1
  33 -10   1 546.163 827.619   3
 -10 -23   1 141.192 760.053   2
  10 -33   1 351.744 673.825   4
 -10 -23   1 260.267 646.426   4
 -23  33   1 619.050 892.869   1
  -9 -24  -3 917.688 994.462   2
 -24  33  -3 2632.77 1020.14   1
  33  -9  -3 2290.72 1010.91   3
   9 -33  -3 4740.42 1138.57   4
 -33  24  -3 1790.41 893.854   1
  -9 -24  -3 3581.52 1097.26   4
   9 -33  -3 3477.22 1116.86   2
  24   9  -3 1560.21 892.370   3
   9 -33   0 4675.26 999.646   2
  24   9   0 1376.04 741.489   3
  33  -9   0 2773.38 947.547   3
  -9 -24   0 3656.21 1037.73   2
   9 -33   0 2505.75 881.675   4
 -24  33   0 3324.64 1037.10   1
  -9 -24   0 3990.95 1057.05   4
 -33  24   0 3720.11 914.254   1
  24   9   3 976.757 711.330   3
  33  -9   3 2809.96 1056.14   3
  -9 -24   3 2517.47 1035.27   2
   9 -33   3 2659.57 785.757   4
  -9 -24   3 4589.52 926.974   4
 -24  33   3 4061.28 1113.40   1
 -33  24   3 1164.65 743.291   1
  33  -8  -1 8190.78 1362.85   3
 -33  25  -1 11818.4 1323.68   1
   8 -33  -1 15296.7 1550.91   4
  -8 -25  -1 13713.9 1521.14   4
 -25  33  -1 12133.4 1568.13   1
   8 -33  -1 11917.0 1405.09   2
  25   8  -1 12867.9 1408.08   3
  -8 -25  -1 10618.8 1466.94   2
  25   8   2 2683.04 830.196   3
 -25  33   2 3207.95 1049.76   1
  33  -8   2 4291.30 1077.44   3
  -8 -25   2 3070.77 1013.32   2
 -33  25   2 2132.27 812.462   1
   8 -33   2 4633.48 910.157   4
  -8 -25   2 3627.45 901.879   4
  26   7  -2 1466.54 903.108   3
  -7 -26  -2 2361.15 1054.25   2
  33  -7  -2 1017.34 898.255   3
 -26  33  -2 772.600 892.642   1
   7 -33  -2 698.810 857.261   4
  -7 -26  -2 845.380 779.466   4
 -33  26  -2 1827.68 876.421   1
   7 -33  -2 1575.49 893.195   2
  26   7   1 1992.78 850.205   3
  33  -7   1 1336.26 918.156   3
  -7 -26   1 2338.64 1030.61   2
 -33  26   1 415.721 822.556   1
   7 -33   1 1578.10 748.716   4
  -7 -26   1 3764.42 973.698   4
 -26  33   1-27.6484 804.200   1
   6 -33   0 910.298 790.219   2
  27   6   0 2189.23 879.962   3
 -33  27   0 563.289 863.716   1
  33  -6   0 701.761 850.666   3
  -6 -27   0 426.398 854.700   2
 -27  33   0 2235.34 974.239   1
   6 -33   0 481.954 825.937   4
  -6 -27   0 2073.04 973.511   4
  34 -24   1 1693.12 870.858   3
 -24 -10   1 2077.06 989.649   2
  24 -34   1 1257.02 836.062   4
 -24 -10   1 1776.82 858.997   4
 -10  34   1 2178.49 963.707   1
  10  24   1 1594.54 686.172   3
  34 -23   0 2158.76 984.454   3
 -23 -11   0 2404.21 1013.31   2
  23 -34   0 4774.47 1083.73   4
 -23 -11   0 3571.25 983.367   4
 -11  34   0 2882.79 1043.82   1
  11  23   0 3722.47 840.903   3
 -22 -12  -1 37.2524 914.830   2
  34 -22  -1 1313.07 870.522   3
 -12  34  -1 1194.28 874.560   1
  22 -34  -1-218.075 806.008   4
 -22 -12  -1 631.552 821.368   4
  12  22  -1 1295.16 721.288   3
  34 -22   2-756.369 897.305   3
  22 -34   2 171.018 691.262   4
 -22 -12   2 122.202 712.975   4
 -12  34   2-677.169 875.218   1
 -34  13  -2 4639.45 917.411   1
  34 -21  -2 4502.50 1183.91   3
 -21 -13  -2 5293.81 1278.82   2
  21 -34  -2 4576.55 1166.04   4
 -21 -13  -2 7521.31 1214.62   4
  13  21  -2 5816.87 1008.59   3
 -13  34  -2 5980.49 1214.90   1
 -13  34   1 4036.78 1157.76   1
  34 -21   1 2899.63 1048.66   3
 -21 -13   1 4697.07 1178.99   2
  21 -34   1 3935.31 999.303   4
 -21 -13   1 3194.50 953.313   4
  13  21   1 3346.84 770.958   3
 -34  14  -3 3713.89 969.792   1
 -20 -14  -3 3517.84 1187.18   2
  34 -20  -3 4525.57 1089.24   3
  20 -34  -3 2589.49 1188.92   4
 -20 -14  -3 4294.95 1084.96   4
 -14  34  -3 5931.87 1191.70   1
  20 -34  -3 2872.54 1079.41   2
  14  20  -3 4520.55 1002.60   3
  34 -20   0 937.728 896.394   3
 -20 -14   0 1025.61 924.508   2
 -14  34   0 2948.67 1010.17   1
  20 -34   0 2980.98 970.167   4
 -20 -14   0 4938.11 1149.98   4
  14  20   0 2207.26 780.984   3
 -14  34   3 1059.97 1033.07   1
  34 -20   3 588.497 856.600   3
  20 -34   3 1164.40 706.805   4
 -20 -14   3 1965.78 807.158   4
 -15  34  -1 38.1301 815.471   1
  34 -19  -1 1866.84 953.334   3
 -19 -15  -1 242.113 848.720   2
 -34  15  -1-723.417 662.768   1
  19 -34  -1 577.698 799.781   4
 -19 -15  -1 990.993 789.873   4
  15  19  -1 219.020 614.646   3
  34 -19   2 4051.92 1117.70   3
 -19 -15   2 3536.13 1079.64   2
 -15  34   2 4326.99 1174.14   1
  19 -34   2 4025.28 907.446   4
 -19 -15   2 4723.67 987.005   4
  15  19   2 2420.18 701.902   3
 -18 -16  -2 1932.86 1029.64   2
  34 -18  -2 2454.10 1020.07   3
 -34  16  -2 2327.19 789.613   1
  18 -34  -2 3248.88 1049.00   4
 -18 -16  -2 993.073 865.117   4
 -16  34  -2 1500.72 927.524   1
  18 -34  -2 1954.97 838.508   2
  16  18  -2 3825.21 917.949   3
  34 -18   1 3020.95 993.137   3
 -18 -16   1 3832.70 1107.79   2
  18 -34   1 704.463 822.852   4
 -16  34   1 95.1177 860.333   1
 -18 -16   1 2463.61 814.763   4
  16  18   1 2224.36 749.057   3
  34 -17  -3 6860.70 1283.51   3
 -17 -17  -3 3801.59 1212.29   2
 -34  17  -3 4889.48 1051.65   1
  17 -34  -3 5265.86 1184.49   4
 -17 -17  -3 6705.94 1189.02   4
  17 -34  -3 2996.77 1043.83   2
 -17  34  -3 7858.34 1266.51   1
  17  17  -3 5161.14 997.240   3
 -17  34   0 2232.00 997.569   1
  34 -17   0 2636.55 1045.86   3
 -17 -17   0 2467.57 1053.72   2
  17 -34   0 1544.20 860.598   4
 -34  17   0 1126.91 652.939   1
 -17 -17   0 1529.28 859.954   4
  17  17   0 3369.11 822.926   3
  34 -17   3 6529.46 1271.91   3
  17 -34   3 7840.44 1064.08   4
 -17 -17   3 6905.03 1092.85   4
 -17  34   3 5041.38 1232.98   1
  34 -16  -1 3367.84 1046.32   3
 -16 -18  -1 1510.52 940.599   2
  16 -34  -1 2098.27 851.648   4
 -34  18  -1 1775.73 775.540   1
 -16 -18  -1 2929.64 932.908   4
 -18  34  -1 3404.47 1014.54   1
  18  16  -1 2649.53 836.654   3
  18  16   2 2240.15 723.410   3
  34 -16   2 2639.24 1026.20   3
 -16 -18   2 3495.55 1136.60   2
  16 -34   2 2902.54 833.681   4
 -16 -18   2 2477.39 934.036   4
 -18  34   2 2662.65 958.411   1
 -15 -19  -2 3133.90 1038.90   2
  34 -15  -2 1414.81 979.914   3
 -34  19  -2 2257.09 877.400   1
  15 -34  -2 3190.91 988.676   4
 -19  34  -2 2209.24 963.338   1
 -15 -19  -2 4421.87 1100.39   4
  15 -34  -2 1154.09 830.590   2
  19  15  -2 2541.58 852.406   3
  34 -15   1-258.005 782.786   3
 -15 -19   1 417.085 852.955   2
 -19  34   1 1647.98 936.931   1
  15 -34   1 1048.47 769.808   4
 -15 -19   1-1476.49 801.625   4
 -34  19   1-516.582 603.649   1
  19  15   1 654.970 666.587   3
 -14 -20  -3 2222.17 1076.99   2
  34 -14  -3 219.969 892.973   3
 -20  34  -3 1365.48 881.200   1
 -34  20  -3 2560.74 957.896   1
  14 -34  -3 2632.44 1055.74   4
 -14 -20  -3 3603.07 1044.97   4
  14 -34  -3-883.473 919.606   2
  20  14  -3 1631.52 859.672   3
 -14 -20   0 2139.10 966.279   2
  14 -34   0 1960.61 878.683   4
 -14 -20   0 1350.83 827.826   4
 -34  20   0 1131.20 655.204   1
 -20  34   0 2570.76 1136.09   1
  20  14   0 235.049 679.672   3
  34 -14   3 4135.77 1178.73   3
 -14 -20   3 6017.64 1237.32   2
 -20  34   3 3141.35 1066.51   1
 -14 -20   3 3299.61 884.009   4
 -13 -21  -1 6540.41 1292.43   2
  34 -13  -1 3262.74 1047.40   3
  13 -34  -1 2843.72 947.540   4
 -21  34  -1 5612.23 1157.91   1
 -34  21  -1 2692.52 856.165   1
 -13 -21  -1 4320.02 1072.72   4
  13 -34  -1 3837.32 976.787   2
  21  13  -1 3917.73 943.019   3
  21  13   2 2382.70 801.059   3
  34 -13   2 3935.93 1103.33   3
 -13 -21   2 4187.62 1217.55   2
 -21  34   2 4933.51 1181.68   1
  13 -34   2 4827.99 952.557   4
 -13 -21   2 7271.44 1146.76   4
 -12 -22  -2 15.9919 855.372   2
  34 -12  -2 12.9653 814.662   3
 -22  34  -2 257.755 918.808   1
  12 -34  -2 1861.36 972.995   4
 -34  22  -2-755.547 842.456   1
 -12 -22  -2 620.722 803.359   4
  12 -34  -2 1292.33 812.937   2
  22  12  -2 1742.42 877.490   3
  22  12   1-326.804 668.103   3
 -22  34   1 333.557 843.351   1
 -34  22   1-389.729 677.442   1
  34 -12   1-462.209 866.070   3
 -12 -22   1 648.939 819.808   2
  12 -34   1 569.419 755.718   4
 -12 -22   1 349.303 710.761   4
  23  11   0 3508.25 939.253   3
  34 -11   0 5689.56 1182.03   3
 -11 -23   0 5105.26 1203.33   2
  11 -34   0 2924.20 927.793   4
 -11 -23   0 3672.66 969.380   4
 -23  34   0 4055.07 1064.52   1
 -34  23   0 3333.14 879.595   1
  34 -10  -1 579.318 860.538   3
 -10 -24  -1-254.108 842.496   2
 -24  34  -1-109.214 893.612   1
  10 -34  -1 1608.17 861.353   4
 -10 -24  -1 2715.49 947.257   4
 -34  24  -1 2361.07 828.775   1
  10 -34  -1 1839.42 835.788   2
  24  10  -1 1692.42 863.091   3
  35 -20   1 7717.86 1354.64   3
 -20 -15   1 8206.97 1430.67   2
  20 -35   1 6240.67 1127.65   4
 -20 -15   1 9771.40 1327.29   4
 -15  35   1 7843.08 1335.67   1
  15  20   1 6987.10 957.854   3
  35 -19   0 2993.32 1152.06   3
 -19 -16   0 3419.38 1120.52   2
 -16  35   0 3864.49 1119.24   1
  19 -35   0 3159.68 943.680   4
 -19 -16   0 4725.39 1024.12   4
  16  19   0 4107.18 941.307   3
  35 -18  -1 3966.86 1198.43   3
 -18 -17  -1 4580.14 1210.54   2
  18 -35  -1 3483.63 1011.82   4
 -35  17  -1 3206.45 838.506   1
 -18 -17  -1 2426.76 927.924   4
  17  18  -1 5244.49 942.211   3
 -17  35  -1 2937.14 1024.58   1
  35 -17   1 2332.96 1011.55   3
 -17 -18   1 3684.11 1161.71   2
  17 -35   1 3257.71 905.700   4
 -18  35   1 5400.25 1174.90   1
 -17 -18   1 1727.95 831.974   4
  18  17   1 2573.18 776.174   3
 -19  35   0 2165.90 995.359   1
  35 -16   0 3101.31 1089.76   3
 -16 -19   0 2321.15 1034.91   2
  16 -35   0 4396.81 1086.70   4
 -16 -19   0 4261.35 992.305   4
 -35  19   0 3651.41 849.815   1
  19  16   0 3016.92 855.779   3
 -20  35  -1 8906.83 1391.68   1
  35 -15  -1 7312.75 1346.59   3
 -15 -20  -1 6232.86 1309.05   2
 -35  20  -1 7295.40 1109.40   1
  15 -35  -1 10317.4 1411.83   4
 -15 -20  -1 6985.53 1188.28   4
  20  15  -1 6995.42 1098.14   3
   0   0   0    0.00    0.00   0

TITL YY_Zn_Gly_Pyr_DCM in R3c
REM R3c (#161 in standard setting)
CELL 0.71073  27.151281  27.151281  10.133412  90.0000  90.0000 120.0000
ZERR   18.00   0.000616   0.000616   0.000231   0.0000   0.0000   0.0000
LATT -3
SYMM -y, x-y, z
SYMM -x+y,-x, z
SYMM -y,-x, z+1/2
SYMM -x+y, y, z+1/2
SYMM  x, x-y, z+1/2
SFAC C H N O Zn
UNIT 108.00 144.00 54.00 90.00 18.00
TREF
HKLF 4
END
;
_shelx_hkl_checksum              49842
_olex2_submission_special_instructions 'No special instructions were received'
_oxdiff_exptl_absorpt_empirical_details
;
Empirical correction (ABSPACK) includes:
- Absorption correction using spherical harmonics
- Frame scaling
- Detector area scaling
;
_oxdiff_exptl_absorpt_empirical_full_max 1.469
_oxdiff_exptl_absorpt_empirical_full_min 0.770
loop_
_space_group_symop_operation_xyz
'x, y, z'
'-y, x-y, z'
'-x+y, -x, z'
'-x+y, y, z+1/2'
'x, x-y, z+1/2'
'-y, -x, z+1/2'
'x+2/3, y+1/3, z+1/3'
'-y+2/3, x-y+1/3, z+1/3'
'-x+y+2/3, -x+1/3, z+1/3'
'-x+y+2/3, y+1/3, z+5/6'
'x+2/3, x-y+1/3, z+5/6'
'-y+2/3, -x+1/3, z+5/6'
'x+1/3, y+2/3, z+2/3'
'-y+1/3, x-y+2/3, z+2/3'
'-x+y+1/3, -x+2/3, z+2/3'
'-x+y+1/3, y+2/3, z+7/6'
'x+1/3, x-y+2/3, z+7/6'
'-y+1/3, -x+2/3, z+7/6'
loop_
_atom_site_label
_atom_site_type_symbol
_atom_site_fract_x
_atom_site_fract_y
_atom_site_fract_z
_atom_site_U_iso_or_equiv
_atom_site_adp_type
_atom_site_occupancy
_atom_site_site_symmetry_order
_atom_site_calc_flag
_atom_site_refinement_flags_posn
_atom_site_refinement_flags_adp
_atom_site_refinement_flags_occupancy
_atom_site_disorder_assembly
_atom_site_disorder_group
Zn1 Zn -0.69266(5) -0.68590(4) -0.13331(12) 0.0196(3) Uani 1 1 d . . . . .
Cl1 Cl -0.9201(2) -0.7407(2) -0.1341(7) 0.071(2) Uani 0.842(15) 1 d . . P . .
O2 O -0.7123(3) -0.6253(3) -0.1530(7) 0.0222(9) Uani 1 1 d . . . . .
N1 N -0.7167(4) -0.7372(4) -0.2849(8) 0.0202(16) Uani 1 1 d . U . . .
O1 O -0.7459(3) -0.7349(3) 0.0052(7) 0.0222(9) Uani 1 1 d . . . . .
Cl2 Cl -0.8320(3) -0.7124(3) -0.3279(8) 0.089(3) Uani 0.842(15) 1 d . . P . .
C5 C -0.6947(4) -0.5346(4) -0.2246(11) 0.0239(19) Uani 1 1 d . . . . .
H5A H -0.6690 -0.5096 -0.1572 0.029 Uiso 1 1 calc R . . . .
H5B H -0.6843 -0.5139 -0.3075 0.029 Uiso 1 1 calc R . . . .
N3 N -0.7513(4) -0.5491(4) -0.1914(8) 0.0204(16) Uani 1 1 d . . . . .
H3 H -0.7600 -0.5490 -0.1099 0.024 Uiso 1 1 calc R . . . .
N2 N -0.6120(4) -0.6494(4) -0.0798(9) 0.0239(18) Uani 1 1 d . U . . .
C2 C -0.7433(4) -0.7949(4) -0.2800(10) 0.0205(18) Uani 1 1 d . U . . .
H2 H -0.7559 -0.8168 -0.2037 0.025 Uiso 1 1 calc R . . . .
C3 C -0.7486(4) -0.8160(4) -0.4073(10) 0.0215(19) Uani 1 1 d . U . . .
C1 C -0.5651(5) -0.6201(4) -0.1516(10) 0.026(2) Uani 1 1 d . U . . .
H1 H -0.5647 -0.6145 -0.2422 0.031 Uiso 1 1 calc R . . . .
C6 C -0.6877(4) -0.5872(4) -0.2376(10) 0.0222(9) Uani 1 1 d . . . . .
C4 C -0.7914(4) -0.5630(5) -0.2848(10) 0.023(2) Uani 1 1 d . . . . .
C7 C -0.8475(9) -0.7176(11) -0.158(3) 0.087(9) Uani 0.842(15) 1 d . . P . .
H7A H -0.8383 -0.7444 -0.1167 0.104 Uiso 0.842(15) 1 calc R . P . .
H7B H -0.8245 -0.6808 -0.1161 0.104 Uiso 0.842(15) 1 calc R . P . .
O3 O -0.7796(4) -0.5590(5) -0.4027(8) 0.038(2) Uani 1 1 d . . . . .
loop_
_atom_site_aniso_label
_atom_site_aniso_U_11
_atom_site_aniso_U_22
_atom_site_aniso_U_33
_atom_site_aniso_U_23
_atom_site_aniso_U_13
_atom_site_aniso_U_12
Zn1 0.0263(6) 0.0246(6) 0.0077(5) -0.0002(4) -0.0007(4) 0.0127(5)
Cl1 0.040(2) 0.052(3) 0.123(6) -0.008(3) -0.017(3) 0.023(2)
O2 0.029(2) 0.026(2) 0.009(2) 0.0030(17) 0.0000(17) 0.0128(18)
N1 0.032(4) 0.026(4) 0.005(4) -0.003(3) -0.001(3) 0.015(3)
O1 0.029(2) 0.026(2) 0.009(2) 0.0030(17) 0.0000(17) 0.0128(18)
Cl2 0.062(3) 0.116(5) 0.105(6) -0.055(4) -0.031(3) 0.056(4)
C5 0.026(4) 0.028(5) 0.019(5) -0.001(4) -0.003(4) 0.014(4)
N3 0.028(4) 0.027(4) 0.008(4) 0.003(3) -0.002(3) 0.016(3)
N2 0.027(4) 0.031(4) 0.011(4) -0.001(3) -0.004(3) 0.012(3)
C2 0.030(5) 0.025(4) 0.008(4) -0.004(4) -0.001(4) 0.016(4)
C3 0.028(5) 0.022(4) 0.013(5) 0.000(4) -0.002(4) 0.011(4)
C1 0.036(5) 0.032(5) 0.006(4) 0.001(4) 0.004(4) 0.013(4)
C6 0.029(2) 0.026(2) 0.009(2) 0.0030(17) 0.0000(17) 0.0128(18)
C4 0.026(5) 0.033(5) 0.012(5) -0.005(4) -0.001(4) 0.017(4)
C7 0.038(9) 0.078(15) 0.16(3) 0.045(17) 0.007(12) 0.037(10)
O3 0.038(4) 0.073(6) 0.008(4) 0.005(4) 0.000(3) 0.032(4)
loop_
_atom_type_symbol
_atom_type_description
_atom_type_scat_dispersion_real
_atom_type_scat_dispersion_imag
_atom_type_scat_source
C C 0.0033 0.0016 'International Tables Vol C Tables 4.2.6.8 and 6.1.1.4'
H H 0.0000 0.0000 'International Tables Vol C Tables 4.2.6.8 and 6.1.1.4'
Cl Cl 0.1484 0.1585 'International Tables Vol C Tables 4.2.6.8 and 6.1.1.4'
N N 0.0061 0.0033 'International Tables Vol C Tables 4.2.6.8 and 6.1.1.4'
O O 0.0106 0.0060 'International Tables Vol C Tables 4.2.6.8 and 6.1.1.4'
Zn Zn 0.2839 1.4301 'International Tables Vol C Tables 4.2.6.8 and 6.1.1.4'
loop_
_geom_angle_atom_site_label_1
_geom_angle_atom_site_label_2
_geom_angle_atom_site_label_3
_geom_angle
_geom_angle_site_symmetry_1
_geom_angle_site_symmetry_3
_geom_angle_publ_flag
O2 Zn1 O1 102.8(3) . . ?
N1 Zn1 O2 112.4(3) . . ?
N1 Zn1 O1 102.0(3) . . ?
N1 Zn1 N2 117.8(4) . . ?
N2 Zn1 O2 107.6(3) . . ?
N2 Zn1 O1 113.4(3) . . ?
C6 O2 Zn1 120.4(7) . . ?
N2 N1 Zn1 125.8(7) 15_434 . ?
N2 N1 C2 107.7(8) 15_434 . ?
C2 N1 Zn1 126.1(7) . . ?
C6 O1 Zn1 136.7(7) 8_345 . ?
N3 C5 C6 112.4(8) . . ?
C4 N3 C5 121.4(9) . . ?
N1 N2 Zn1 122.1(7) 8_345 . ?
C1 N2 Zn1 129.8(8) . . ?
C1 N2 N1 107.9(9) . 8_345 ?
N1 C2 C3 109.1(9) . . ?
C2 C3 C4 129.2(9) . 12_334 ?
C1 C3 C2 104.2(9) 15_434 . ?
C1 C3 C4 126.1(9) 15_434 12_334 ?
N2 C1 C3 111.0(9) . 8_345 ?
O2 C6 O1 125.2(9) . 15_434 ?
O2 C6 C5 116.7(9) . . ?
O1 C6 C5 118.1(8) 15_434 . ?
N3 C4 C3 117.7(9) . 18_334 ?
O3 C4 N3 121.4(10) . . ?
O3 C4 C3 120.8(10) . 18_334 ?
Cl1 C7 Cl2 109.9(15) . . ?
loop_
_geom_bond_atom_site_label_1
_geom_bond_atom_site_label_2
_geom_bond_distance
_geom_bond_site_symmetry_2
_geom_bond_publ_flag
Zn1 O2 1.976(7) . ?
Zn1 N1 1.953(8) . ?
Zn1 O1 1.977(7) . ?
Zn1 N2 1.975(9) . ?
Cl1 C7 1.76(2) . ?
O2 C6 1.249(12) . ?
N1 N2 1.359(11) 15_434 ?
N1 C2 1.360(13) . ?
O1 C6 1.267(12) 8_345 ?
Cl2 C7 1.77(3) . ?
C5 N3 1.421(13) . ?
C5 C6 1.539(14) . ?
N3 C4 1.346(13) . ?
N2 N1 1.358(11) 8_345 ?
N2 C1 1.331(14) . ?
C2 C3 1.389(14) . ?
C3 C1 1.374(15) 15_434 ?
C3 C4 1.480(14) 12_334 ?
C1 C3 1.374(15) 8_345 ?
C6 O1 1.267(12) 15_434 ?
C4 C3 1.480(14) 18_334 ?
C4 O3 1.227(13) . ?
