#------------------------------------------------------------------------------
#$Date: 2020-08-22 01:47:13 +0300 (Sat, 22 Aug 2020) $
#$Revision: 255518 $
#$URL: file:///home/coder/svn-repositories/cod/cif/4/13/51/4135165.cif $
#------------------------------------------------------------------------------
#
# This file is available in the Crystallography Open Database (COD),
# http://www.crystallography.net/
#
# All data on this site have been placed in the public domain by the
# contributors.
#
data_4135165
loop_
_publ_author_name
'Yan, Yong'
'Carrington, Elliot J.'
'P\'etuya, R\'emi'
'Whitehead, George F. S.'
'Verma, Ajay'
'Hylton, Rebecca K.'
'Tang, Chiu C.'
'Berry, Neil G.'
'Darling, George R.'
'Dyer, Matthew S.'
'Antypov, Dmytro'
'Katsoulidis, Alexandros P.'
'Rosseinsky, Matthew J.'
_publ_section_title
;
 Amino Acid Residues Determine the Response of Flexible Metal-Organic
 Frameworks to Guests.
;
_journal_name_full               'Journal of the American Chemical Society'
_journal_paper_doi               10.1021/jacs.0c03853
_journal_year                    2020
_chemical_formula_moiety         'C6 H5 N3 O3 Zn, 0.73(C4 H8 O)'
_chemical_formula_sum            'C8.93 H10.85 N3 O3.73 Zn'
_chemical_formula_weight         285.22
_space_group_crystal_system      trigonal
_space_group_IT_number           161
_space_group_name_Hall           'R 3 -2"c'
_space_group_name_H-M_alt        'R 3 c :H'
_atom_sites_solution_hydrogens   geom
_atom_sites_solution_primary     direct
_audit_creation_date             2017-09-06
_audit_creation_method
;
Olex2 1.2
(compiled 2017.08.10 svn.r3458 for OlexSys, GUI svn.r5381)
;
_cell_angle_alpha                90
_cell_angle_beta                 90
_cell_angle_gamma                120
_cell_formula_units_Z            18
_cell_length_a                   27.0471(11)
_cell_length_b                   27.0471(11)
_cell_length_c                   10.1495(4)
_cell_measurement_reflns_used    9087
_cell_measurement_temperature    100
_cell_measurement_theta_max      25.0680
_cell_measurement_theta_min      2.5780
_cell_volume                     6430.1(4)
_computing_cell_refinement       'CrysAlisPro 1.171.38.46 (Rigaku OD, 2015)'
_computing_data_collection       'CrysAlisPro 1.171.38.46 (Rigaku OD, 2015)'
_computing_data_reduction        'CrysAlisPro 1.171.38.46 (Rigaku OD, 2015)'
_computing_molecular_graphics    'Olex2 (Dolomanov et al., 2009)'
_computing_publication_material  'Olex2 (Dolomanov et al., 2009)'
_computing_structure_refinement  'ShelXL (Sheldrick, 2015)'
_computing_structure_solution    'ShelXS (Sheldrick, 2008)'
_diffrn_ambient_temperature      100
_diffrn_detector                 'CCD plate'
_diffrn_measured_fraction_theta_full 0.999
_diffrn_measured_fraction_theta_max 0.999
_diffrn_measurement_details
;
List of Runs (angles in degrees, time in seconds):

  # Type    Start    End  Width  t~exp~   \w     \q     \k     \f   Frames
--------------------------------------------------------------------------
  1  \w   -110.00  15.00   1.00   10.00    --  -20.00 -68.00   0.00  125
  2  \w   -110.00  15.00   1.00   10.00    --  -20.00 -68.00 120.00  125
  3  \w   -110.00  15.00   1.00   10.00    --  -20.00 -68.00 240.00  125
  4  \w   -110.00  15.00   1.00   10.00    --  -20.00 -30.00  90.00  125
;
_diffrn_measurement_device       'abstract diffractometer'
_diffrn_measurement_device_type
'Rigaku Mo Rotating Anode Source With Saturn Detector'
_diffrn_measurement_method       '\w scans'
_diffrn_orient_matrix_type
'CrysAlisPro convention (1999,Acta A55,543-557)'
_diffrn_orient_matrix_UB_11      -0.0209946000
_diffrn_orient_matrix_UB_12      -0.0242364000
_diffrn_orient_matrix_UB_13      -0.0345466000
_diffrn_orient_matrix_UB_21      0.0148416000
_diffrn_orient_matrix_UB_22      0.0115377000
_diffrn_orient_matrix_UB_23      -0.0599603000
_diffrn_orient_matrix_UB_31      0.0159437000
_diffrn_orient_matrix_UB_32      -0.0139717000
_diffrn_orient_matrix_UB_33      0.0103612000
_diffrn_radiation_monochromator  graphite
_diffrn_radiation_probe          x-ray
_diffrn_radiation_type           MoK\a
_diffrn_radiation_wavelength     0.71073
_diffrn_reflns_av_R_equivalents  0.0592
_diffrn_reflns_av_unetI/netI     0.0298
_diffrn_reflns_Laue_measured_fraction_full 0.999
_diffrn_reflns_Laue_measured_fraction_max 0.999
_diffrn_reflns_limit_h_max       23
_diffrn_reflns_limit_h_min       -32
_diffrn_reflns_limit_k_max       32
_diffrn_reflns_limit_k_min       -28
_diffrn_reflns_limit_l_max       11
_diffrn_reflns_limit_l_min       -12
_diffrn_reflns_number            21484
_diffrn_reflns_point_group_measured_fraction_full 0.998
_diffrn_reflns_point_group_measured_fraction_max 0.998
_diffrn_reflns_theta_full        25.023
_diffrn_reflns_theta_max         25.023
_diffrn_reflns_theta_min         2.609
_diffrn_source                   'fine-focus sealed X-ray tube'
_diffrn_source_type              'Enhance (Mo) X-ray Source'
_exptl_absorpt_coefficient_mu    1.721
_exptl_absorpt_correction_T_max  1.00000
_exptl_absorpt_correction_T_min  0.64839
_exptl_absorpt_correction_type   multi-scan
_exptl_absorpt_process_details
;
CrysAlisPro 1.171.38.46 (Rigaku Oxford Diffraction, 2015)
Empirical absorption correction using spherical harmonics,
 implemented in SCALE3 ABSPACK scaling algorithm.
;
_exptl_crystal_colour            white
_exptl_crystal_colour_primary    white
_exptl_crystal_density_diffrn    1.326
_exptl_crystal_description       needle
_exptl_crystal_F_000             2614
_exptl_crystal_preparation       'Solvent Exchnage THF'
_exptl_crystal_size_max          0.246
_exptl_crystal_size_mid          0.026
_exptl_crystal_size_min          0.023
_refine_diff_density_max         1.266
_refine_diff_density_min         -0.415
_refine_diff_density_rms         0.133
_refine_ls_abs_structure_details
;
 Flack x determined using 1102 quotients [(I+)-(I-)]/[(I+)+(I-)]
 (Parsons, Flack and Wagner, Acta Cryst. B69 (2013) 249-259).
;
_refine_ls_abs_structure_Flack   0.005(15)
_refine_ls_extinction_method     none
_refine_ls_goodness_of_fit_ref   1.128
_refine_ls_hydrogen_treatment    constr
_refine_ls_matrix_type           full
_refine_ls_number_parameters     140
_refine_ls_number_reflns         2521
_refine_ls_number_restraints     20
_refine_ls_restrained_S_all      1.124
_refine_ls_R_factor_all          0.0578
_refine_ls_R_factor_gt           0.0559
_refine_ls_shift/su_max          0.001
_refine_ls_shift/su_mean         0.000
_refine_ls_structure_factor_coef Fsqd
_refine_ls_weighting_details
'w=1/[\s^2^(Fo^2^)+(0.0860P)^2^+40.4090P] where P=(Fo^2^+2Fc^2^)/3'
_refine_ls_weighting_scheme      calc
_refine_ls_wR_factor_gt          0.1467
_refine_ls_wR_factor_ref         0.1477
_reflns_Friedel_coverage         0.985
_reflns_Friedel_fraction_full    0.997
_reflns_Friedel_fraction_max     0.997
_reflns_number_gt                2438
_reflns_number_total             2521
_reflns_threshold_expression     'I > 2\s(I)'
_cod_data_source_file            ZnGlyPyr_THF_100K.cif
_cod_data_source_block           ZnGlyPyr_THF_100K
_cod_original_cell_volume        6430.1(6)
_cod_original_sg_symbol_H-M      'R 3 c'
_cod_database_code               4135165
_shelx_shelxl_version_number     2014/7
_chemical_oxdiff_formula         'Zn C6 H8 N3 O3'
_shelx_space_group_comment
;
The symmetry employed for this shelxl refinement is uniquely defined
by the following loop, which should always be used as a source of
symmetry information in preference to the above space-group names.
They are only intended as comments.
;
_reflns_odcompleteness_completeness 99.93
_reflns_odcompleteness_iscentric 1
_reflns_odcompleteness_theta     24.97
_olex2_refinement_description
;
1. Fixed Uiso
 At 1.2 times of:
  All C(H) groups, All C(H,H) groups, All N(H) groups
2. Rigid bond restraints
 Zn1, O2
 with sigma for 1-2 distances of 0.01 and sigma for 1-3 distances of 0.01
3. Uiso/Uaniso restraints and constraints
Uanis(Zn1) \\sim Ueq: with sigma of 0.05 and sigma for terminal atoms of 0.01
Uanis(C4) \\sim Ueq, Uanis(O1) \\sim Ueq: with sigma of 0.05 and sigma for
terminal atoms of 0.1
Uanis(O2) = Uanis(N1) = Uanis(O3) = Uanis(N2)
Uanis(C4) = Uanis(O1)
4. Others
 Sof(O4)=Sof(C8)=Sof(H8A)=Sof(H8B)=Sof(C9)=Sof(H9A)=Sof(H9B)=Sof(C7)=Sof(H7A)=
 Sof(H7B)=Sof(C10)=Sof(H10A)=Sof(H10B)=FVAR(1)
5.a Secondary CH2 refined with riding coordinates:
 C5(H5A,H5B), C8(H8A,H8B), C9(H9A,H9B), C7(H7A,H7B), C10(H10A,H10B)
5.b Aromatic/amide H refined with riding coordinates:
 N3(H3), C1(H1), C2(H2)
;
_shelx_res_file
;
    yy_zn_gly_pyr_thf.res created by SHELXL-2014/7

TITL YY_Zn_Gly_Pyr_THF in R3c #161
REM reset to R3c #161
CELL 0.71073 27.047101 27.047101 10.149466 90 90 120
ZERR 18 0.001092 0.001092 0.000357 0 0 0
LATT -3
SYMM -Y,+X-Y,+Z
SYMM +Y-X,-X,+Z
SYMM +Y-X,+Y,0.5+Z
SYMM +X,+X-Y,0.5+Z
SYMM -Y,-X,0.5+Z
SFAC C H N O Zn
UNIT 160.65 195.31 54 67.16 18
DELU Zn1 O2
ISOR 0.05 0.01 Zn1
ISOR 0.05 0.1 C4 O1
EADP O2 N1 O3 N2
EADP C4 O1

L.S. 16
PLAN  20
TEMP -173.15
BOND
fmap 2
acta
REM <olex2.extras>
REM <HklSrc "%.\\YY_Zn_Gly_Pyr_THF.hkl">
REM </olex2.extras>

WGHT    0.086000   40.409000
FVAR       1.09786   0.73109
ZN1   5    0.647602    0.674614    0.519040    11.00000    0.03664    0.03765 =
         0.00386   -0.00036    0.00077    0.01804
N1    3    0.595248    0.644803    0.670648    11.00000    0.04139    0.04104 =
         0.00887   -0.00148   -0.00051    0.01988
O2    4    0.598009    0.676839    0.379435    11.00000    0.04139    0.04104 =
         0.00887   -0.00148   -0.00051    0.01988
O1    4    0.446049    0.554330    0.455361    11.00000    0.04814    0.04364 =
         0.00612    0.00053   -0.00222    0.01553
N3    3    0.463325    0.581743    0.242792    11.00000    0.04208    0.04474 =
         0.00566   -0.00089   -0.00015    0.02302
AFIX  43
H3    2    0.452891    0.572968    0.160041    11.00000   -1.20000
AFIX   0
N2    3    0.684169    0.629339    0.465380    11.00000    0.04139    0.04104 =
         0.00887   -0.00148   -0.00051    0.01988
O3    4    0.706187    0.754990    0.541227    11.00000    0.04139    0.04104 =
         0.00887   -0.00148   -0.00051    0.01988
C4    1    0.438175    0.541767    0.336174    11.00000    0.04814    0.04364 =
         0.00612    0.00053   -0.00222    0.01553
C6    1    0.564162    0.644268    0.289787    11.00000    0.04546    0.03273 =
         0.00583    0.00251    0.00305    0.01882
C1    1    0.539754    0.615021    0.666626    11.00000    0.03810    0.03606 =
         0.00899    0.00004    0.00066    0.01781
AFIX  43
H1    2    0.517630    0.605732    0.588320    11.00000   -1.20000
AFIX   0
C5    1    0.506903    0.638500    0.275610    11.00000    0.04829    0.03814 =
         0.00993   -0.00149   -0.00363    0.02238
AFIX  23
H5A   2    0.496621    0.649904    0.359321    11.00000   -1.20000
H5B   2    0.508578    0.664961    0.206061    11.00000   -1.20000
AFIX   0
C3    1    0.401377    0.482763    0.293142    11.00000    0.03701    0.04353 =
         0.00961    0.00085    0.00119    0.02277
C2    1    0.711168    0.610054    0.538603    11.00000    0.03736    0.04225 =
         0.01140    0.00443    0.00120    0.02144
AFIX  43
H2    2    0.714065    0.612752    0.631906    11.00000   -1.20000
AFIX   0

O4    4    0.600674    0.489525    0.699774    21.00000    0.05967    0.06642 =
         0.02077   -0.00950   -0.01082    0.01273
C8    1    0.541745    0.484427    0.523079    21.00000    0.05412    0.05260 =
         0.05696    0.01100   -0.00987    0.01737
AFIX  23
H8A   2    0.552886    0.523161    0.490784    21.00000   -1.20000
H8B   2    0.502563    0.457222    0.492654    21.00000   -1.20000
AFIX   0
C9    1    0.585388    0.465557    0.477103    21.00000    0.04232    0.04101 =
         0.03289   -0.00420   -0.00689    0.00113
AFIX  23
H9A   2    0.565929    0.429503    0.426345    21.00000   -1.20000
H9B   2    0.615934    0.495417    0.422022    21.00000   -1.20000
AFIX   0
C7    1    0.546255    0.483445    0.668273    21.00000    0.10518    0.07435 =
         0.04264   -0.00827   -0.00601    0.06405
AFIX  23
H7A   2    0.542893    0.515105    0.707774    21.00000   -1.20000
H7B   2    0.515213    0.446954    0.703755    21.00000   -1.20000
AFIX   0
C10   1    0.609425    0.457446    0.605107    21.00000    0.04192    0.05409 =
         0.06750    0.01879   -0.00135    0.01800
AFIX  23
H10A  2    0.589514    0.416624    0.630344    21.00000   -1.20000
H10B  2    0.650669    0.470900    0.595646    21.00000   -1.20000
AFIX   0
HKLF 4

REM  YY_Zn_Gly_Pyr_THF in R3c #161
REM R1 =  0.0559 for    2438 Fo > 4sig(Fo)  and  0.0578 for all    2521 data
REM    140 parameters refined using     20 restraints

END

WGHT      0.0859     40.4485

REM Highest difference peak  1.266,  deepest hole -0.415,  1-sigma level  0.133
Q1    1   0.6175  0.6397  0.5231  11.00000  0.05    1.27
Q2    1   0.6708  0.6610  0.5185  11.00000  0.05    1.18
Q3    1   0.6698  0.7179  0.5245  11.00000  0.05    0.87
Q4    1   0.6868  0.6979  0.5165  11.00000  0.05    0.86
Q5    1   0.6234  0.6871  0.5125  11.00000  0.05    0.71
Q6    1   0.4598  0.5299  0.4611  11.00000  0.05    0.47
Q7    1   0.6892  0.3864  0.4014  11.00000  0.05    0.47
Q8    1   0.6541  0.3690  0.8421  11.00000  0.05    0.45
Q9    1   0.4368  0.5069  0.3156  11.00000  0.05    0.44
Q10   1   0.6958  0.3932  0.8007  11.00000  0.05    0.43
Q11   1   0.4246  0.5180  0.3041  11.00000  0.05    0.39
Q12   1   0.6687  0.3559  0.7587  11.00000  0.05    0.38
Q13   1   0.6739  0.3652  0.6966  11.00000  0.05    0.38
Q14   1   0.6667  0.3333  0.7973  10.33333  0.05    0.36
Q15   1   0.5257  0.5000  0.6064  11.00000  0.05    0.36
Q16   1   0.5145  0.4613  0.5979  11.00000  0.05    0.35
Q17   1   0.6667  0.3333  0.6283  10.33333  0.05    0.35
Q18   1   0.5167  0.6130  0.2716  11.00000  0.05    0.35
Q19   1   0.4821  0.5578  0.4614  11.00000  0.05    0.35
Q20   1   0.4963  0.5826  0.2379  11.00000  0.05    0.34
;
_shelx_res_checksum              76912
_shelx_hkl_file
;
   0   0 -12 63899.1 3169.55   3
   0   0  -9 721.770 851.693   3
   0   0  -6 304176. 4562.40   3
   0   0  -3-524.951 448.803   2
   0   0  -3-116.937 333.605   3
   0   0  -3 136.496 395.614   4
   0   0   3 1.28530 233.475   1
   0   0   3-70.0128 415.850   2
   0   0   3 302.231 415.846   4
   0   0   3-27.3193 351.212   3
   0   0   6 280558. 3102.02   1
   0   0   9-50.6273 431.221   1
  -1   0 -10 1814.54 948.907   3
   0   1 -10 1571.10 922.955   3
   1  -1 -10-322.619 946.628   3
  -1   0  -7-501.071 641.693   3
   0   1  -7 339.645 641.547   3
   1  -1  -7-54.7973 567.670   3
   0   1  -4 30610.4 1190.11   3
  -1   0  -4 32095.8 1254.72   3
   1  -1  -4 31836.7 1229.48   3
  -1   0  -4 31681.6 1317.20   2
   0   1  -4 32430.0 1392.62   4
   1  -1  -4 30889.4 1312.20   2
  -1   0  -4 32705.7 1422.81   4
   1  -1  -4 34127.0 1411.08   4
   0   1  -4 33313.1 1423.08   2
   0   1  -1 110.913 176.377   4
   1  -1  -1-48.7157 162.239   2
   1  -1  -1 228.519 132.326   3
   0   1  -1-35.6867 190.505   2
  -1   0  -1 10.6351 154.645   3
   0   1  -1 117.887 144.348   3
   1  -1  -1 90.0631 178.868   4
   1  -1   2 31396.3 873.050   3
   0   1   2 29628.1 672.982   1
  -1   0   2 30156.8 917.312   4
   0   1   2 30299.5 838.049   2
  -1   0   2 30433.6 928.013   2
   0   1   2 30273.2 821.844   3
  -1   0   2 30745.6 814.879   3
  -1   0   5 497.779 352.996   1
   0   1   5-211.126 350.075   1
  -1   0   5-270.202 527.029   2
  -1   0   5 340.315 538.490   4
   1  -1   5-40.0868 493.207   3
  -1   0   5 345.994 450.342   3
   0   1   5 165.718 445.919   3
   1  -1   5-102.922 271.438   1
  -1   0   8 4395.12 590.363   1
   0   1   8 4579.26 604.421   1
   1  -1   8 3979.40 511.855   1
  -1   0  11-55.3076 505.324   1
   0   1  11-116.686 526.865   1
   0  -1 -11-73.4680 860.419   3
  -1   1 -11 571.302 970.791   3
   1   0 -11 860.635 1036.48   3
  -1   1  -8 3324.56 783.413   3
   1   0  -8 4440.94 935.989   3
   0  -1  -8 3772.60 809.005   3
   0  -1  -5 213.516 517.729   2
   1   0  -5-20.3592 586.505   4
   1   0  -5 154.905 481.428   3
  -1   1  -5-150.680 497.995   3
  -1   1  -5 105.014 591.182   4
   0  -1  -5 413.765 587.730   4
   1   0  -5 601.932 598.338   2
   0  -1  -5-173.951 502.325   3
  -1   1  -5 467.569 572.924   2
  -1   1  -2 32099.1 970.132   4
   0  -1  -2 33296.5 883.920   3
   0  -1  -2 30237.5 911.159   4
   1   0  -2 31503.1 817.666   3
  -1   1  -2 30725.2 936.316   2
   1   0  -2 32172.9 963.408   2
   0  -1  -2 32072.3 886.281   2
   0  -1  -2 30224.0 687.317   1
  -1   1  -2 29753.7 846.167   3
  -1   1   1-56.5248 157.554   2
   0  -1   1 3.81978 184.261   2
   0  -1   1-24.2110 132.725   3
  -1   1   1-78.6892 173.653   4
   1   0   1 34.3732 134.021   3
  -1   1   1 241.909 139.811   1
  -1   1   1 177.616 149.249   3
   0  -1   1 75.6439 181.410   4
   0  -1   4 31373.8 843.367   1
  -1   1   4 30888.2 1288.99   4
   1   0   4 29102.4 1192.02   3
   0  -1   4 28708.6 1286.96   2
   0  -1   4 31830.8 1205.23   3
  -1   1   4 31810.4 1279.29   2
   1   0   4 31760.5 856.865   1
  -1   1   4 29364.5 1173.04   3
   0  -1   4 30617.2 1298.71   4
  -1   1   4 30954.2 969.742   1
  -1   1   7-294.706 402.776   1
   1   0   7-156.273 337.206   1
   0  -1   7 189.154 327.466   1
  -1   1  10 659.722 538.179   1
   1   0  10-11.8345 431.682   1
   0  -1  10 588.186 474.236   1
   2  -2 -11 730.156 898.621   3
   0   2 -11 1636.78 1109.13   3
  -2   0 -11 1065.24 1035.60   3
  -2   0  -8 15064.8 1372.62   3
   0   2  -8 15198.1 1354.72   3
   2  -2  -8 16587.9 1312.24   3
   2  -2  -5 121.684 559.933   2
  -2   0  -5-304.838 624.517   4
   2  -2  -5 95.4987 562.267   4
  -2   0  -5 142.069 459.844   3
   0   2  -5-79.5357 602.059   2
   2  -2  -5-57.3148 463.806   3
   0   2  -5-325.228 578.188   4
   0   2  -5-20.0046 499.162   3
  -2   0  -5-227.403 584.339   2
  -2   0  -2 38553.5 689.860   1
  -2   0  -2 40531.6 992.264   3
   2  -2  -2 41662.9 1044.24   2
   0   2  -2 40976.6 1143.61   2
   2  -2  -2 41790.6 925.138   3
   0   2  -2 39507.5 933.580   3
   0   2  -2 43507.1 1132.46   4
   2  -2  -2 41614.8 1081.43   4
   0   2   1 316.947 174.753   1
  -2   0   1-25.1011 200.957   4
   0   2   1-146.808 168.058   3
  -2   0   1 52.8563 137.613   3
  -2   0   1 269.903 214.484   2
   2  -2   1 81.3705 173.180   3
   2  -2   4 44972.2 804.220   1
  -2   0   4 47462.0 1431.29   3
  -2   0   4 42463.2 1561.96   4
   2  -2   4 46224.8 1465.23   3
   0   2   4 41525.0 1403.36   3
   0   2   4 45785.8 1198.69   1
  -2   0   4 41859.4 1525.67   2
  -2   0   7-157.039 385.222   1
  -2   0   7 105.784 589.005   2
   2  -2   7 78.3622 287.433   1
   0   2   7-148.720 362.167   1
  -2   0  10 6560.04 787.135   1
   0   2  10 5842.54 761.113   1
   2  -2  10 5983.75 574.122   1
   1   1 -12 11587.2 1584.60   3
  -1   2 -12 14502.2 1824.24   3
   2  -1 -12 12292.1 1606.10   3
  -1  -1 -12 12919.8 1694.77   3
  -2   1 -12 9998.74 1560.26   3
   1  -2 -12 9479.19 1467.62   3
  -1  -1  -9 54290.9 2426.62   3
  -1   2  -9 54532.2 2547.09   3
  -2   1  -9 53656.5 2530.02   3
   2  -1  -9 51663.7 2351.59   3
   1   1  -9 46942.5 2377.55   3
   1  -2  -9 52089.6 2367.36   3
   2  -1  -6 81638.7 2377.66   3
  -1  -1  -6 87656.2 2457.79   3
   1  -2  -6 85492.2 2566.51   2
  -2   1  -6 81571.3 2379.70   3
   1  -2  -6 82933.1 2336.00   3
   1   1  -6 86198.2 2394.11   3
  -1   2  -6 80564.3 2381.86   3
   2  -1  -3 193616. 2404.60   3
  -1   2  -3 186983. 2528.74   3
   1   1  -3 201147. 2885.86   2
   2  -1  -3 206593. 2820.12   2
  -1  -1  -3 195611. 2003.70   1
  -1   2  -3 193707. 2754.48   4
   1  -2  -3 202393. 2827.21   4
   2  -1  -3 209147. 2931.92   4
   1  -2  -3 191514. 2416.92   3
  -2   1  -3 188062. 2522.29   3
   1   1  -3 198942. 2505.81   3
   1   1  -3 207998. 2911.38   4
  -2   1  -3 198403. 2758.29   4
  -2   1  -3 186983. 1554.07   1
  -1   2  -3 199726. 2877.23   2
   1  -2  -3 186971. 2186.48   1
   1  -2  -3 200475. 2635.81   2
  -2   1  -3 195575. 2746.47   2
  -1  -1  -3 199315. 2625.96   2
  -1   2   3 190205. 2472.59   2
   1   1   3 194426. 2505.38   3
  -2   1   3 204273. 2510.19   3
   1   1   3 186618. 1893.98   1
   2  -1   3 192202. 1485.58   1
  -2   1   3 190936. 2648.11   2
  -1  -1   3 184060. 2711.39   2
   1  -2   3 189479. 2705.50   2
  -1   2   3 195393. 2190.26   1
  -1  -1   3 189629. 2403.42   3
   1  -2   3 194854. 1467.55   1
  -2   1   3 192923. 2762.85   4
  -1  -1   3 186749. 2713.38   4
   1  -2   3 193842. 2475.26   3
  -1   2   3 198407. 2463.80   3
   1  -2   3 193405. 2685.31   4
  -1  -1   6 80497.5 2501.90   4
  -2   1   6 79654.4 1863.52   1
   2  -1   6 80659.9 1477.79   1
   1  -2   6 78631.0 1459.92   1
  -1  -1   6 78625.0 1668.97   1
  -1  -1   6 79857.9 2477.71   2
   1   1   6 80071.4 1699.69   1
  -2   1   6 78938.0 2456.33   2
  -1   2   6 78114.1 1830.23   1
  -2   1   6 81458.6 2518.49   4
   2  -1   9 50990.6 1428.47   1
  -1   2   9 51137.9 1741.68   1
  -1  -1   9 51766.6 1606.69   1
   1  -2   9 51221.1 1408.74   1
   1   1   9 52373.5 1653.48   1
  -2   1   9 49846.6 1747.93   1
  -2   2 -10 10101.4 1377.09   3
   2   0 -10 9101.93 1277.78   3
   0  -2 -10 8671.26 1278.16   3
   0  -2  -7 74.3905 515.497   3
   2   0  -7-113.764 629.948   3
  -2   2  -7 312.383 618.945   3
  -2   2  -4 48252.2 1671.04   2
   0  -2  -4 45340.5 1237.82   1
   2   0  -4 46068.4 1672.43   2
   0  -2  -4 46202.3 1446.58   3
   0  -2  -4 47432.4 1549.12   2
  -2   2  -4 46270.3 1535.86   3
   2   0  -4 45138.4 1398.41   3
   2   0  -4 47254.0 1675.56   4
  -2   2  -4 44340.6 1604.08   4
   0  -2  -4 50969.1 1739.78   4
   0  -2  -1 163.066 156.338   3
   2   0  -1 88.1380 185.239   4
  -2   2  -1 109.005 170.926   3
   2   0  -1 158.120 216.006   2
   0  -2  -1 73.4704 194.165   1
   2   0  -1-38.6063 125.937   3
  -2   2   2 43335.7 1023.47   2
   0  -2   2 46366.9 1187.39   2
   0  -2   2 45106.9 995.893   3
   2   0   2 46340.5 1078.78   3
  -2   2   2 45400.8 984.771   1
   2   0   2 41914.3 702.961   1
   0  -2   2 46147.7 1127.49   4
  -2   2   2 45914.0 996.505   3
  -2   2   2 46288.2 1117.95   4
   2   0   5 74.4141 290.396   1
   2   0   5 102.603 480.055   3
  -2   2   5 278.970 516.200   2
   0  -2   5 150.861 258.386   1
  -2   2   5 41.3000 501.500   3
   0  -2   5 23.9557 513.898   4
   0  -2   5 144.686 465.401   3
  -2   2   5-116.844 367.591   1
   0  -2   5 112.451 528.691   2
  -2   2   8 14432.3 981.970   1
   2   0   8 16855.2 883.860   1
   0  -2   8 15835.1 838.889   1
  -2   2  11 322.576 571.251   1
   0   3 -12 31726.5 2480.26   3
  -3   0 -12 35127.4 2471.47   3
   3  -3 -12 31461.8 2288.39   3
   0   3  -9-195.538 731.194   3
  -3   0  -9-370.486 707.607   3
   3  -3  -9 5.75694 730.107   3
   0   3  -6 300187. 4514.74   3
  -3   0  -6 311172. 4683.56   3
   3  -3  -6 305395. 4341.47   3
  -3   0  -3-187.858 335.706   3
   0   3  -3 331.792 475.950   4
   3  -3  -3-280.691 395.786   2
   3  -3  -3 41.8276 332.353   3
  -3   0  -3 471.696 244.960   1
   3  -3  -3-17.7034 421.731   4
   0   3  -3 224.743 494.644   2
   0   3  -3 419.494 393.877   3
  -3   0   0 331623. 2033.17   1
   0   3   0 330573. 2032.13   1
  -3   0   3 46.1252 400.445   2
  -3   0   3-128.324 323.580   3
  -3   0   3-200.346 448.049   4
   3  -3   3 474.464 372.508   3
   0   3   3 344.278 381.598   3
   0   3   3 338.372 300.334   1
   3  -3   6 183127. 1834.99   1
   0   3   6 186474. 2871.13   1
  -3   0   6 188203. 2874.55   1
  -3   0   6 182001. 3760.45   2
  -3   0   9 88.4350 501.375   1
   3  -3   9-101.202 268.782   1
   0   3   9-168.653 481.860   1
   1   2 -10 1696.57 930.313   3
  -1   3 -10 1525.56 1051.58   3
   3  -2 -10 15.0611 819.477   3
   2  -3 -10 1378.93 880.145   3
  -2  -1 -10 1274.29 882.440   3
  -3   1 -10 273.763 889.284   3
  -3   1  -7 36678.9 1850.54   3
   1   2  -7 32124.7 1667.79   3
   3  -2  -7 38839.3 1786.58   3
  -1   3  -7 35243.1 1774.26   3
  -2  -1  -7 35030.8 1754.17   3
   2  -3  -7 36643.8 1692.51   3
   2  -3  -4 1265.12 414.670   3
  -2  -1  -4 284.460 399.238   3
  -1   3  -4 1297.55 563.160   4
   1   2  -4 1594.67 630.448   2
   1   2  -4 1181.28 606.697   4
  -3   1  -4 2224.36 493.364   3
  -3   1  -4 1347.41 275.601   1
  -2  -1  -4 1049.63 327.164   1
   2  -3  -4 1342.25 521.754   4
  -1   3  -4 1200.37 594.104   2
  -2  -1  -4 1385.22 481.615   2
  -1   3  -4 1479.25 446.612   3
   2  -3  -4 1636.12 507.214   2
   3  -2  -4 1033.71 547.188   4
  -3   1  -4 1149.38 555.430   2
   3  -2  -4 445.090 464.457   2
  -3   1  -4 1342.19 541.954   4
   3  -2  -4 843.797 470.601   3
   1   2  -4 2763.95 539.714   3
   1   2  -1 6927.19 432.223   2
   2  -3  -1 5679.48 293.185   3
   3  -2  -1 6112.61 327.091   2
  -3   1  -1 5985.35 255.530   1
   3  -2  -1 6317.42 259.662   3
   1   2  -1 6234.53 317.682   1
   1   2  -1 7067.66 310.339   3
  -1   3  -1 6245.06 422.571   2
   2  -3  -1 5962.33 404.881   1
  -1   3  -1 6193.81 348.589   4
  -2  -1  -1 6128.67 334.027   1
   2  -3  -1 6740.61 345.706   4
   3  -2  -1 7063.08 356.668   4
   1   2  -1 6559.90 362.570   4
  -1   3  -1 6810.94 347.387   3
  -3   1  -1 6485.20 349.416   3
  -2  -1  -1 5787.81 322.515   3
  -1   3   2 104676. 1554.26   1
  -2  -1   2 108564. 1423.85   3
   3  -2   2 113345. 1616.90   3
  -3   1   2 110778. 1776.87   4
   2  -3   2 106236. 1554.77   3
  -3   1   2 111734. 1454.96   3
   2  -3   2 105612. 1622.11   4
   1   2   2 107752. 1418.31   1
   1   2   2 109706. 1611.05   3
  -1   3   2 106290. 1404.46   2
  -2  -1   2 107204. 1822.33   2
  -3   1   2 104162. 1689.50   2
  -1   3   2 109915. 1538.12   3
  -2  -1   2 110403. 1763.03   4
   3  -2   5 3132.61 602.039   3
  -3   1   5 3258.48 722.376   4
  -1   3   5 3158.36 504.854   1
   3  -2   5 2855.56 299.621   1
   2  -3   5 2589.61 594.923   3
   1   2   5 3482.79 625.184   3
  -2  -1   5 2236.34 658.413   2
  -2  -1   5 3044.01 567.221   3
   2  -3   5 2704.73 285.229   1
  -2  -1   5 2498.34 629.885   4
  -1   3   5 3188.74 590.886   3
  -3   1   5 2987.67 672.755   2
  -3   1   5 2902.81 489.607   1
   1   2   5 2298.77 398.090   1
  -3   1   5 3496.76 590.807   3
  -2  -1   8 993.407 676.200   2
  -1   3   8 1402.92 509.173   1
   3  -2   8 1289.03 345.969   1
  -3   1   8 368.388 691.798   2
  -3   1   8 942.632 488.565   1
   1   2   8 1110.32 461.876   1
   2  -3   8 1404.22 353.094   1
  -2  -1   8 1354.32 478.384   1
  -3   1  11 203.275 581.165   1
   1   2  11 472.385 569.559   1
  -1   3  11-26.8582 604.513   1
  -2  -1  11 0.46064 530.027   1
   1  -3 -11-278.894 833.893   3
  -1  -2 -11-735.527 913.864   3
  -2   3 -11 705.077 981.502   3
   3  -1 -11 18.1721 950.053   3
   2   1 -11-287.305 907.454   3
  -3   2 -11 37.8996 970.480   3
  -1  -2  -8 1185.93 678.572   3
   3  -1  -8 1765.30 792.700   3
  -3   2  -8 1528.23 702.828   3
   2   1  -8 1848.98 792.954   3
   1  -3  -8 1605.18 706.589   3
  -2   3  -8 884.617 687.825   3
  -2   3  -5 2845.39 586.892   3
  -2   3  -5 3842.82 780.461   4
   3  -1  -5 2719.84 561.087   3
  -1  -2  -5 2667.96 581.249   3
  -3   2  -5 2600.15 638.231   2
   1  -3  -5 2665.10 595.067   3
  -3   2  -5 2140.52 586.681   3
   3  -1  -5 3585.44 754.271   4
   2   1  -5 2341.93 532.092   3
   1  -3  -5 2986.08 644.272   2
   1  -3  -5 3201.52 686.869   4
  -1  -2  -5 4100.09 774.406   4
  -3   2  -5 4222.29 797.623   4
   2   1  -5 3701.20 725.395   4
   2   1  -5 3043.28 688.426   2
  -2   3  -5 3394.06 727.356   2
  -1  -2  -5 2639.42 447.559   1
   3  -1  -5 3560.43 675.046   2
  -1  -2  -5 3357.29 663.468   2
   1  -3  -2 115015. 1568.09   3
   2   1  -2 118778. 1974.08   2
  -1  -2  -2 114163. 1594.20   3
   1  -3  -2 114969. 1695.62   4
  -3   2  -2 114426. 1695.63   3
   2   1  -2 115844. 1796.27   4
   1  -3  -2 109953. 1600.98   1
  -1  -2  -2 112850. 1475.02   1
   2   1  -2 115670. 1529.21   3
   1  -3  -2 113162. 1501.73   2
  -2   3  -2 111568. 1623.13   3
   3  -1  -2 114355. 1464.78   3
   3  -1  -2 117780. 1799.50   4
   3  -1  -2 117248. 1807.22   2
  -2   3  -2 114233. 1727.86   4
  -2   3  -2 113130. 1856.59   2
  -2   3   1 5432.75 298.952   3
   1  -3   1 5716.09 351.855   4
   1  -3   1 6068.87 329.034   3
  -3   2   1 6573.69 345.083   2
  -1  -2   1 5910.62 291.736   3
   1  -3   1 6387.68 404.282   2
   2   1   1 5486.51 312.614   3
  -2   3   1 5867.62 328.573   4
  -1  -2   1 6279.83 379.820   4
  -1  -2   1 6134.58 417.651   2
   3  -1   1 5788.97 254.708   1
   2   1   1 6179.44 316.177   1
  -3   2   1 6266.45 268.859   3
   3  -1   1 6572.79 349.270   3
  -2   3   1 6116.04 388.740   1
  -3   2   1 6689.29 369.893   4
  -1  -2   1 5648.13 285.059   1
  -1  -2   4 1107.06 420.130   3
  -3   2   4 1664.33 453.601   3
   1  -3   4 1454.40 539.927   2
   2   1   4 1015.15 455.189   3
   3  -1   4 1483.61 257.596   1
  -3   2   4 1597.96 577.437   4
  -2   3   4 1077.66 420.623   3
   1  -3   4 1046.79 530.668   4
   2   1   4 1217.38 299.588   1
   1  -3   4 883.506 416.218   3
  -3   2   4 1475.59 393.603   1
   3  -1   4 977.738 443.300   3
  -1  -2   4 1246.46 550.586   2
  -2   3   4 1462.59 431.599   1
  -1  -2   4 1746.43 580.257   4
  -2   3   4 1582.48 503.726   2
  -3   2   4 1663.11 562.849   2
  -3   2   7 34830.5 1772.35   2
  -1  -2   7 32741.3 1803.36   2
  -1  -2   7 34638.6 1186.20   1
  -3   2   7 37193.6 1459.58   1
   3  -1   7 37250.4 1100.51   1
   2   1   7 36026.5 1228.73   1
   1  -3   7 35260.0 1047.11   1
  -2   3   7 35195.7 1410.75   1
  -1  -2   7 36228.2 1874.86   4
   1  -3  10 319.054 376.500   1
   2   1  10 796.904 484.353   1
  -1  -2  10 571.902 484.557   1
   3  -1  10 1177.72 411.504   1
  -2   3  10 1200.34 555.986   1
  -3   2  10 576.561 571.032   1
   0  -3 -12 36759.0 2499.38   3
   3   0 -12 35169.5 2485.44   3
  -3   3 -12 42421.5 2792.79   3
   0  -3  -9 221.337 744.267   3
  -3   3  -9 71.5404 784.066   3
   3   0  -9 409.451 741.753   3
  -3   3  -6 179466. 3570.82   3
   3   0  -6 178370. 3376.78   3
   0  -3  -6 194801. 3785.61   2
   0  -3  -6 195738. 3572.87   3
   0  -3  -3-30.8028 334.311   2
   3   0  -3 111.287 458.445   2
  -3   3  -3-197.303 425.801   4
   3   0  -3-8.38546 309.765   3
  -3   3  -3 109.322 413.587   2
  -3   3  -3 185.161 398.578   3
   3   0  -3 8.47685 445.956   4
   0  -3  -3-121.306 333.377   1
   0  -3  -3-115.213 355.467   3
   0  -3   0 351227. 2131.46   1
   3   0   0 347171. 1921.06   2
   3   0   0 348617. 2118.51   1
  -3   3   3-21.1591 357.147   2
   0  -3   3-114.911 420.165   2
  -3   3   3 427.451 331.590   3
   0  -3   3-174.169 340.992   3
   3   0   3 250.451 412.625   3
   0  -3   3 253.482 199.882   1
  -3   3   3-147.883 442.026   4
  -3   3   3 89.6918 331.703   1
   3   0   3 167.375 217.512   1
   0  -3   3 252.592 417.712   4
  -3   3   6 287916. 4440.99   2
   0  -3   6 279897. 4615.44   4
  -3   3   6 279564. 3758.08   1
   3   0   6 283935. 2917.88   1
   0  -3   6 282339. 4701.68   2
   0  -3   6 277302. 2810.12   1
   3   0   9 170.456 406.307   1
   0  -3   9 61.6943 397.974   1
  -3   3   9 160.458 516.828   1
   0   4 -10 29540.9 2142.97   3
  -4   0 -10 33500.0 2140.83   3
   4  -4 -10 35810.6 2120.07   3
  -4   0  -7-396.675 547.303   3
   0   4  -7-80.6590 620.251   3
   4  -4  -7 130.983 557.758   3
   4  -4  -4 7681.20 643.716   3
  -4   0  -4 7322.86 724.221   3
   0   4  -4 8208.79 891.103   2
   0   4  -4 8377.62 821.345   4
   0   4  -4 6487.80 698.865   3
   4  -4  -4 7629.88 749.725   2
   4  -4  -4 7585.99 793.581   4
  -4   0  -4 7623.07 505.748   1
   0   4  -1 53.6478 283.955   2
   0   4  -1 222.297 215.895   3
  -4   0  -1-4.81391 206.288   2
  -4   0  -1 7.62110 203.487   3
  -4   0  -1 190.739 240.667   1
   0   4  -1 203.167 210.632   4
   4  -4  -1-148.367 198.782   4
   0   4  -1 31.4584 218.465   1
   4  -4  -1 174.953 160.567   2
  -4   0   2 65922.4 1071.52   3
   0   4   2 65840.9 1268.18   3
  -4   0   2 62949.4 1488.82   2
   4  -4   2 65570.4 1281.59   3
   0   4   2 63746.0 1302.11   1
  -4   0   2 62674.1 1409.61   4
   0   4   5 472.704 414.115   1
  -4   0   5 72.8342 511.319   4
  -4   0   5-31.9689 557.492   2
  -4   0   5 345.929 415.459   3
   4  -4   5 335.677 524.143   3
   0   4   5-355.941 470.590   3
   0   4   8 40916.0 1570.51   1
  -4   0   8 46137.9 1672.05   1
  -4   0   8 45892.1 2252.75   2
  -4   0   8 42394.5 2231.94   4
   0   4  11 489.901 647.133   1
  -4   0  11-414.766 624.466   1
   3  -4 -11 1847.53 996.365   3
  -3  -1 -11 57.4317 909.697   3
   4  -3 -11-720.742 881.691   3
  -1   4 -11 138.190 927.099   3
  -4   1 -11-315.834 963.471   3
   1   3 -11 1097.91 1033.17   3
  -3  -1  -8 17730.8 1425.47   3
   4  -3  -8 20015.4 1396.72   3
  -4   1  -8 18735.5 1534.68   3
   3  -4  -8 19902.5 1449.52   3
  -1   4  -8 18380.7 1472.95   3
   3  -4  -5 14620.1 1075.44   2
   4  -3  -5 17004.4 1001.84   3
   1   3  -5 15354.3 1137.46   4
  -4   1  -5 13512.1 1013.40   3
   1   3  -5 14208.8 997.058   3
   4  -3  -5 13489.7 1074.28   2
  -1   4  -5 14458.1 1143.49   4
  -4   1  -5 13951.1 1101.99   2
   4  -3  -5 14695.5 1145.36   4
  -1   4  -5 14596.8 1153.56   2
  -1   4  -5 14186.9 995.158   3
  -4   1  -5 15851.9 1168.06   4
   3  -4  -5 14512.6 1108.82   4
   1   3  -5 14930.4 1189.92   2
  -3  -1  -5 15665.3 1033.01   3
  -3  -1  -5 15103.4 759.714   1
  -3  -1  -5 14250.5 1110.94   2
   3  -4  -5 16211.8 990.900   3
  -4   1  -5 15904.0 648.260   1
  -3  -1  -5 15363.6 1102.42   4
   3  -4  -2 1952.10 402.819   4
   1   3  -2 2442.15 420.927   4
   3  -4  -2 2100.01 329.002   3
   1   3  -2 2218.09 277.345   1
  -3  -1  -2 2292.44 328.205   1
   1   3  -2 2447.91 350.822   3
   4  -3  -2 2642.10 414.448   4
  -4   1  -2 2137.39 263.022   1
   3  -4  -2 1970.27 349.185   2
   3  -4  -2 1954.76 401.123   1
   4  -3  -2 1870.57 299.705   3
   1   3  -2 2401.42 511.823   2
   4  -3  -2 2057.08 384.132   2
  -1   4  -2 2788.10 502.689   2
  -4   1  -2 2749.14 406.813   3
  -1   4  -2 2218.30 216.582   1
  -1   4  -2 1805.55 391.759   4
  -3  -1  -2 1569.76 351.429   3
  -1   4  -2 1405.78 317.091   3
  -3  -1   1 15836.3 563.528   1
   3  -4   1 16491.2 530.518   3
  -4   1   1 15943.2 564.993   4
   1   3   1 15913.9 522.393   3
  -3  -1   1 16370.3 376.570   3
  -4   1   1 14883.0 579.553   2
  -1   4   1 16874.7 521.156   3
   4  -3   1 15416.1 503.219   3
  -1   4   1 15731.9 613.818   1
  -3  -1   1 16817.2 656.569   2
   1   3   1 15576.1 579.099   1
   3  -4   1 15865.7 416.391   1
   4  -3   4 1138.19 466.906   3
   1   3   4 1364.78 412.310   3
   4  -3   4 1305.11 160.404   1
  -4   1   4 1648.19 466.624   3
  -1   4   4 1528.33 492.367   3
   1   3   4 1311.22 374.499   1
  -3  -1   4 2333.98 411.713   3
  -4   1   4 1479.50 607.164   2
  -3  -1   4 1820.30 519.832   4
  -3  -1   4 1450.16 595.713   2
   3  -4   4 1886.10 457.518   3
  -4   1   4 799.252 484.554   4
  -1   4   4 2074.31 429.240   1
   1   3   7 6782.02 687.019   1
  -3  -1   7 6418.96 962.199   4
   3  -4   7 6019.23 382.869   1
  -4   1   7 7725.55 1013.79   4
  -1   4   7 7289.76 740.363   1
  -4   1   7 7311.58 766.994   1
  -4   1   7 7771.64 998.925   2
   4  -3   7 7698.45 423.621   1
  -3  -1   7 6302.90 668.146   1
  -3  -1   7 7546.07 1017.53   2
   3  -4  10 4656.38 357.556   1
  -3  -1  10 6171.85 795.878   1
   1   3  10 7680.31 854.387   1
  -4   1  10 5249.77 794.753   1
   4  -3  10 6103.02 428.378   1
  -1   4  10 7551.72 862.923   1
  -4   2  -9 59433.0 2699.96   3
   2  -4  -9 61424.9 2535.95   3
  -2   4  -9 59090.0 2649.11   3
   2   2  -9 51641.4 2482.12   3
  -2  -2  -9 61047.7 2573.86   3
   4  -2  -9 55858.0 2438.12   3
  -2  -2  -6 28701.3 1434.13   3
  -2  -2  -6 29957.2 1184.75   1
   4  -2  -6 31756.1 1478.58   3
  -2   4  -6 30405.6 1558.54   3
   2   2  -6 27974.7 1429.41   3
   2  -4  -6 31688.6 1468.54   3
  -4   2  -6 28558.3 1501.57   3
   2  -4  -6 30020.4 1542.40   2
   4  -2  -3 241125. 2626.30   3
   2  -4  -3 243031. 3128.95   4
  -2   4  -3 233225. 2864.49   3
  -2  -2  -3 228890. 2773.38   3
  -2  -2  -3 238744. 2494.03   1
  -2   4  -3 240973. 3287.12   2
   2   2  -3 250889. 3436.24   2
  -2   4  -3 250640. 3182.58   4
   2   2  -3 239545. 2758.08   3
   2  -4  -3 249105. 2795.67   2
   2  -4  -3 238781. 2727.65   3
  -4   2  -3 237741. 1613.17   1
   4  -2  -3 251247. 3209.25   4
   4  -2  -3 251299. 3202.13   2
  -4   2  -3 239366. 2966.88   3
   2   2  -3 244471. 3181.54   4
   2  -4  -3 241031. 2856.43   1
   2   2   0 89789.2 1174.19   1
  -2   4   0 91418.1 1164.71   1
  -2  -2   0 93854.0 1017.48   2
  -4   2   0 93781.5 1040.08   2
  -2  -2   0 85442.6 1038.57   4
   2   2   0 87526.7 1062.28   4
   2  -4   0 91244.4 1167.08   1
   4  -2   0 93648.5 1044.33   2
  -2  -2   0 83910.4 1133.46   1
  -4   2   0 86111.6 934.437   4
   4  -2   0 89892.1 963.179   4
   2   2   0 91719.3 989.744   2
   2  -4   3 223489. 2937.47   4
  -2   4   3 221233. 2632.64   3
  -4   2   3 224764. 2517.50   3
   2  -4   3 216569. 2689.20   3
  -4   2   3 220492. 2911.52   2
   2   2   3 224165. 2798.88   3
  -2  -2   3 222083. 2521.16   3
   4  -2   3 224281. 2827.27   3
  -2  -2   3 218813. 3157.06   2
  -2   4   3 217401. 2652.06   1
   4  -2   3 214768. 1460.30   1
  -4   2   3 219720. 3020.21   4
   2   2   3 213763. 2258.53   1
  -2   4   3 219316. 2526.68   2
  -2  -2   3 228344. 3136.56   4
  -2  -2   6 27385.6 1612.99   2
  -4   2   6 29269.7 1562.46   2
   4  -2   6 28745.7 797.379   1
  -2   4   6 27768.6 1248.03   1
   2   2   6 27333.3 1091.81   1
   2  -4   6 24171.0 711.047   1
  -2  -2   6 28516.0 1661.24   4
  -4   2   6 30214.1 1625.11   4
  -4   2   6 25971.2 1224.32   1
   2   2   9 58569.9 1789.99   1
  -2  -2   9 57529.0 1727.67   1
   2  -4   9 53294.5 1156.12   1
  -4   2   9 53817.3 1965.85   1
  -4   2   9 57911.4 2557.53   2
   2  -4   9 57340.9 1248.73   1
   4  -2   9 57046.4 1325.71   1
  -2   4   9 56065.3 1976.24   1
  -4   3 -10 8900.32 1442.84   3
  -1  -3 -10 5690.60 1109.01   3
   3   1 -10 6737.86 1170.96   3
   4  -1 -10 8505.86 1153.09   3
  -3   4 -10 8218.19 1431.74   3
   1  -4 -10 8002.36 1195.72   3
   4  -1  -7 7497.93 942.006   3
   1  -4  -7 6170.73 863.549   3
  -3   4  -7 7470.30 971.871   3
   3   1  -7 7057.41 903.104   3
  -4   3  -7 6907.96 959.973   3
  -1  -3  -7 7390.49 911.824   3
   4  -1  -4 1375.64 534.862   4
  -4   3  -4 2736.89 564.161   3
   1  -4  -4 2707.79 471.904   1
  -3   4  -4 2675.97 611.401   2
   3   1  -4 2271.21 532.692   4
   3   1  -4 1919.20 468.346   3
  -1  -3  -4 1847.94 508.411   3
  -3   4  -4 2433.18 546.152   3
   4  -1  -4 2816.98 643.416   2
   1  -4  -4 2392.42 459.992   3
  -1  -3  -4 3129.17 486.643   1
   1  -4  -4 2312.35 529.961   2
  -4   3  -4 2128.98 613.517   4
  -1  -3  -4 2259.65 507.477   2
  -3   4  -4 2613.67 584.106   4
   4  -1  -4 2471.65 507.803   3
   1  -4  -4 1694.30 496.885   4
  -4   3  -4 2808.19 605.559   2
   3   1  -4 2432.73 676.021   2
  -1  -3  -1 14256.3 487.702   3
   3   1  -1 13974.0 527.387   4
  -1  -3  -1 13227.3 570.858   1
   4  -1  -1 13771.2 537.076   2
  -3   4  -1 14622.8 402.548   1
  -3   4  -1 14318.4 479.816   4
  -3   4  -1 14184.4 516.439   3
  -4   3  -1 14742.9 514.361   3
   4  -1  -1 13956.6 529.264   4
   3   1  -1 14215.4 372.576   3
  -1  -3  -1 14435.1 353.299   2
   3   1  -1 12607.3 515.558   1
   1  -4  -1 14626.3 605.563   1
   3   1  -1 13133.9 580.729   2
   3   1   2 2910.43 332.770   1
  -1  -3   2 2164.75 469.622   2
   1  -4   2 2189.31 424.654   4
  -1  -3   2 1983.80 361.130   4
   3   1   2 2691.65 395.329   3
  -4   3   2 2745.33 434.002   4
  -3   4   2 1889.95 335.048   2
   4  -1   2 2522.13 389.689   3
   1  -4   2 2428.16 344.492   3
  -1  -3   2 2770.06 339.758   3
   4  -1   2 2516.93 256.257   1
  -4   3   2 2125.91 404.201   2
  -3   4   2 1398.40 378.075   1
  -1  -3   2 2461.43 290.280   1
  -3   4   2 2309.94 417.554   4
  -3   4   2 2094.62 327.313   3
   1  -4   2 2011.41 450.369   2
  -4   3   2 2133.45 322.946   3
   1  -4   2 2248.13 223.254   1
   4  -1   5 16756.9 624.824   1
  -4   3   5 16705.5 988.452   3
   4  -1   5 16435.1 1057.31   3
  -1  -3   5 16820.1 1210.40   2
  -4   3   5 15862.6 1138.19   4
   3   1   5 16886.8 742.299   1
  -3   4   5 16620.6 988.181   3
  -1  -3   5 17290.3 1016.90   3
   1  -4   5 15526.8 1109.57   2
  -1  -3   5 18621.3 1225.74   4
  -4   3   5 15102.7 902.785   1
  -4   3   5 17078.2 1119.78   2
   3   1   5 17810.2 1083.53   3
  -3   4   5 16722.1 1040.44   2
   1  -4   5 16082.6 545.713   1
  -3   4   5 17221.7 944.156   1
   1  -4   5 14845.6 961.278   3
   1  -4   5 16514.7 1112.75   4
  -1  -3   8 18851.4 1518.11   2
  -3   4   8 17423.9 1158.81   1
   1  -4   8 17710.6 723.518   1
   4  -1   8 17293.5 796.059   1
   3   1   8 17529.4 922.234   1
  -1  -3   8 17346.3 916.850   1
   1  -4   8 17267.5 756.933   1
  -4   3   8 18535.4 1174.35   1
  -4   3   8 17692.7 1439.68   2
  -3   4  11 461.179 619.176   1
   3   1  11 448.284 515.900   1
  -4   3  11 394.378 639.778   1
   0  -4 -11-234.512 922.163   3
   4   0 -11 14.8291 889.321   3
  -4   4 -11-1340.26 1087.45   3
  -4   4  -8 44539.9 2136.48   3
   0  -4  -8 43395.6 2044.09   3
   4   0  -8 45638.5 2090.31   3
   4   0  -5-20.6535 584.717   2
   4   0  -5 134.551 601.886   4
   0  -4  -5 94.0372 545.034   4
   0  -4  -5 699.242 552.833   2
   4   0  -5-60.7130 418.783   3
   0  -4  -5-206.403 466.442   3
   0  -4  -5 107.931 379.054   1
  -4   4  -5 464.654 668.456   2
  -4   4  -5-95.9775 474.996   3
  -4   4  -5 111.367 603.534   4
  -4   4  -2 57621.0 1250.50   3
   4   0  -2 56307.0 1033.24   3
   0  -4  -2 55862.5 1269.66   1
   4   0  -2 56553.0 1315.19   4
   4   0  -2 59311.8 1419.12   2
   0  -4  -2 57150.5 1172.09   3
   0  -4   1 125.354 198.485   1
   0  -4   1 152.877 219.350   4
   0  -4   1 576.841 321.559   2
   4   0   1 188.316 222.996   3
   4   0   1 277.128 228.333   1
  -4   4   1 116.043 169.934   2
  -4   4   1 47.3136 222.923   4
  -4   4   1 11.6517 166.541   3
  -4   4   1 333.519 300.972   1
  -4   4   4 10298.0 757.986   1
   0  -4   4 9566.70 888.164   4
   0  -4   4 9111.15 847.414   2
   0  -4   4 9861.79 450.472   1
   4   0   4 10464.2 825.172   3
  -4   4   4 10233.4 899.869   4
  -4   4   4 9139.54 706.347   3
  -4   4   4 10267.3 795.281   2
   0  -4   4 9043.61 711.129   3
   4   0   4 9673.07 518.026   1
   0  -4   7 217.153 304.362   1
   4   0   7 61.9341 325.976   1
  -4   4   7 164.106 520.147   1
  -4   4   7 440.659 613.493   2
   0  -4   7 234.208 300.736   1
   0  -4   7-20.4109 594.465   4
   0  -4   7 341.632 645.360   2
  -4   4  10 23013.9 1413.07   1
   0  -4  10 21426.7 953.389   1
   4   0  10 23198.5 1055.42   1
  -5   0 -11 2206.96 997.006   3
   0   5 -11 341.382 1031.17   3
   5  -5 -11 218.819 873.307   3
  -5   0  -8 3061.72 874.794   3
   5  -5  -8 2241.28 726.230   3
   0   5  -8 2233.07 828.056   3
   5  -5  -5 10.9781 412.429   3
  -5   0  -5 55.8451 552.922   3
   0   5  -5 875.517 493.131   3
   5  -5  -5-106.353 524.511   4
  -5   0  -5 196.940 328.244   1
   0   5  -5 477.190 578.385   4
   5  -5  -5 638.151 542.597   2
   0   5  -2 117455. 1438.43   1
   5  -5  -2 119044. 1575.98   2
  -5   0  -2 121592. 1608.85   1
   0   5  -2 121308. 1781.99   3
  -5   0  -2 123515. 1814.39   3
   0   5  -2 120485. 2136.64   2
   0   5  -2 119596. 1836.27   4
   5  -5  -2 124301. 1845.06   4
   5  -5  -2 120280. 1543.63   3
  -5   0   1 166.110 264.615   4
   0   5   1 46.3814 298.631   1
  -5   0   1 66.1283 307.848   2
   5  -5   1 11.0270 235.860   3
  -5   0   1 301.026 290.759   1
   0   5   1 358.576 220.166   3
  -5   0   4 15555.7 1102.63   2
  -5   0   4 17398.0 1152.86   4
   0   5   4 18131.2 1006.63   3
   5  -5   4 17028.4 943.355   3
  -5   0   4 18449.2 881.090   3
   0   5   4 15944.1 867.773   1
   0   5   7-22.3980 431.038   1
  -5   0   7 883.987 768.062   4
  -5   0   7 36.3207 428.603   1
  -5   0   7-310.300 669.714   2
   0   5  10 30024.6 1538.00   1
  -5   0  10 29173.6 1554.04   1
  -5   0  10 30015.8 2117.69   2
   1   4  -9 30342.8 1936.40   3
   4  -5  -9 31468.0 1861.54   3
  -1   5  -9 32878.1 2041.09   3
  -5   1  -9 30699.3 2002.84   3
   5  -4  -9 32404.8 1896.17   3
  -5   1  -6 42075.2 1811.22   3
  -4  -1  -6 43432.4 1790.29   3
  -1   5  -6 41171.4 1800.50   3
   1   4  -6 43653.1 1826.52   3
   5  -4  -6 43150.8 1665.60   3
  -4  -1  -6 46741.0 1383.81   1
   4  -5  -6 40247.3 1824.10   2
   4  -5  -6 45101.8 1717.51   3
  -5   1  -6 43103.3 1151.94   1
  -4  -1  -3 75414.1 1392.84   1
  -4  -1  -3 70622.7 1605.26   3
   1   4  -3 70763.0 1754.66   4
   1   4  -3 73724.5 1973.13   2
   5  -4  -3 76124.1 1809.24   4
   4  -5  -3 76601.0 1773.13   4
   5  -4  -3 77025.8 1689.52   2
  -1   5  -3 70575.4 1622.62   3
  -1   5  -3 75813.0 1824.42   4
   5  -4  -3 73154.2 1452.87   3
  -5   1  -3 72771.1 1647.08   3
   4  -5  -3 72978.8 1496.39   3
  -1   5  -3 72206.7 1954.42   2
   4  -5  -3 74287.8 1607.05   2
   1   4  -3 69457.3 1564.97   3
  -5   1  -3 74647.1 1198.55   1
   5  -4   0 13392.4 365.519   4
   1   4   0 12489.8 558.344   1
  -5   1   0 11865.3 556.775   1
  -4  -1   0 12950.7 586.759   1
   4  -5   0 12943.7 567.170   1
  -1   5   0 12729.3 364.061   4
   1   4   0 11789.8 457.591   4
  -4  -1   0 11907.5 501.374   4
  -4  -1   0 12790.4 498.160   2
  -5   1   0 10867.1 470.949   4
   5  -4   0 13824.6 459.400   2
  -5   1   0 12791.2 515.455   2
  -1   5   0 11886.5 549.290   1
   1   4   0 13555.8 425.899   2
  -1   5   0 13707.7 397.369   2
   1   4   3 217260. 2766.33   3
  -1   5   3 211442. 2743.45   1
  -1   5   3 216054. 2709.48   3
   4  -5   3 217794. 2752.93   3
  -4  -1   3 213050. 3079.36   4
   5  -4   3 217093. 2768.26   3
  -5   1   3 217067. 3124.78   2
  -4  -1   3 220176. 2422.90   3
  -4  -1   3 202866. 3145.37   2
  -5   1   3 216189. 3086.56   4
   1   4   3 206016. 2562.18   1
  -5   1   3 220276. 2490.93   3
  -5   1   6 20456.7 1425.19   4
  -4  -1   6 19975.0 1421.32   2
  -4  -1   6 19040.4 1369.11   4
   1   4   6 20519.5 1037.57   1
  -1   5   6 20016.3 1083.27   1
  -5   1   6 19716.4 1381.07   2
  -4  -1   9 58953.7 1941.20   1
  -4  -1   9 59713.6 2750.32   2
  -5   1   9 60102.6 2732.02   2
  -5   1   9 60683.6 2104.25   1
   1   4   9 64392.7 2029.08   1
  -1   5   9 63029.4 2097.02   1
  -4  -1   9 61677.3 2760.17   4
   5  -3 -10 22465.4 1697.28   3
   2   3 -10 21944.7 1817.26   3
  -2   5 -10 20572.3 1829.41   3
  -5   2 -10 20239.3 1768.17   3
   3  -5 -10 19359.9 1638.48   3
  -3  -2 -10 21643.7 1799.36   3
   3  -5  -7 39420.9 1773.70   3
  -3  -2  -7 34453.7 1334.48   1
  -2   5  -7 37504.3 1891.38   3
   5  -3  -7 39307.5 1740.11   3
   2   3  -7 38342.7 1830.58   3
  -5   2  -7 40677.2 1933.36   3
  -3  -2  -7 35330.3 1784.71   3
   5  -3  -4 7293.49 761.640   4
   5  -3  -4 6227.78 759.014   2
   3  -5  -4 7863.84 719.576   2
  -5   2  -4 6626.32 405.811   1
  -3  -2  -4 7725.43 581.262   1
  -3  -2  -4 7077.72 692.044   3
  -2   5  -4 8456.66 892.135   4
   2   3  -4 7369.44 783.102   4
   2   3  -4 6668.86 692.857   3
   3  -5  -4 7430.49 651.498   3
   3  -5  -4 7243.04 741.071   4
  -5   2  -4 7817.51 719.251   3
  -2   5  -4 7075.86 724.435   3
   5  -3  -4 8398.61 651.084   3
  -2   5  -4 7362.22 869.081   2
   2   3  -4 7177.84 849.845   2
   3  -5  -1 52033.7 1150.87   1
  -5   2  -1 60813.1 993.021   3
  -3  -2  -1 61667.0 1149.08   1
   5  -3  -1 59773.9 686.350   3
  -5   2  -1 58158.1 941.103   1
  -2   5  -1 50087.6 962.752   3
   2   3  -1 61714.6 1194.62   2
  -2   5  -1 59123.8 1149.16   2
   2   3  -1 60771.6 1053.73   4
   5  -3  -1 60442.6 1011.22   2
  -3  -2  -1 59000.4 1018.00   4
  -2   5  -1 61714.2 920.267   4
   3  -5  -1 60024.5 907.299   4
  -3  -2  -1 58594.5 932.666   3
   5  -3  -1 61135.9 979.259   4
   2   3  -1 61630.9 919.583   3
  -3  -2  -1 59127.8 899.629   2
  -2   5  -1 60793.1 919.723   1
   2   3  -1 59487.5 1070.34   1
  -3  -2   2 73345.6 1271.94   1
  -5   2   2 70632.4 1116.33   3
   2   3   2 71838.1 1329.92   1
  -3  -2   2 70868.4 1654.06   2
  -5   2   2 68678.7 1469.64   4
  -3  -2   2 71651.6 1508.44   4
   5  -3   2 72761.7 1358.77   3
   3  -5   2 70342.1 1336.45   3
   3  -5   2 68820.7 1343.63   4
  -2   5   2 72878.6 1317.62   3
   2   3   2 73110.2 1345.07   3
  -2   5   2 69179.1 1047.16   2
  -5   2   2 66283.3 1434.16   2
  -3  -2   2 71704.1 1143.77   3
  -2   5   2 72042.0 1488.28   1
  -5   2   5 8294.06 753.169   3
  -5   2   5 6336.00 777.290   2
  -2   5   5 7023.28 675.893   1
   3  -5   5 6848.62 703.085   3
   5  -3   5 7914.74 817.547   3
  -3  -2   5 8658.66 927.268   2
   2   3   5 7135.09 755.873   3
  -3  -2   5 8457.16 744.436   3
  -2   5   5 9217.62 824.301   3
   5  -3   5 6764.93 328.957   1
   2   3   5 7183.53 597.889   1
  -5   2   5 7467.26 858.813   4
  -3  -2   5 8248.18 894.367   4
  -5   2   8 37131.6 1606.65   1
   5  -3   8 34875.7 889.481   1
  -2   5   8 36969.5 1616.09   1
   2   3   8 33897.6 1376.48   1
  -5   2   8 37142.0 2069.29   4
  -3  -2   8 37982.5 2096.31   2
  -5   2   8 35190.4 1973.29   2
  -3  -2   8 35531.1 1398.06   1
  -3  -2   8 34581.8 2028.28   4
   3  -5   8 28800.4 664.424   1
   3  -5   8 30548.9 707.809   1
  -5   2  11 1253.08 735.902   1
  -2   5  11 1527.04 750.288   1
   2   3  11 1306.02 592.436   1
  -3  -2  11 847.294 558.619   1
  -2  -3 -11 2398.40 1000.51   3
   3   2 -11 2911.65 1082.06   3
  -3   5 -11 2442.53 1210.31   3
   5  -2 -11 2952.55 1003.66   3
   2  -5 -11 2063.29 992.884   3
  -5   3 -11 2155.39 1062.03   3
   5  -2  -8 38641.8 1850.41   3
   2  -5  -8 40522.1 1941.91   3
  -5   3  -8 38773.3 2062.17   3
  -2  -3  -8 37490.3 1939.39   3
  -3   5  -8 41015.6 2134.90   3
   3   2  -8 39829.8 1983.67   3
  -5   3  -5 9654.30 901.652   3
   5  -2  -5 8934.71 957.847   4
   5  -2  -5 9375.94 960.800   2
   2  -5  -5 10220.5 814.836   1
  -2  -3  -5 10669.1 729.203   1
  -3   5  -5 9523.16 912.177   3
  -2  -3  -5 10889.8 920.542   2
   2  -5  -5 10580.2 896.187   2
   2  -5  -5 10330.6 992.852   4
  -5   3  -5 8938.73 977.762   2
   2  -5  -5 8334.85 778.350   3
  -3   5  -5 9499.09 979.067   2
   3   2  -5 9232.16 1027.74   2
   3   2  -5 9810.01 974.896   4
  -5   3  -5 8392.97 941.897   4
   5  -2  -5 10061.8 810.884   3
  -2  -3  -5 10604.4 880.384   3
   3   2  -5 8975.16 814.967   3
  -3   5  -5 9640.52 959.195   4
   3   2  -2 69980.7 1610.06   2
  -2  -3  -2 65464.1 1295.07   3
   3   2  -2 66987.9 1413.79   4
  -3   5  -2 69356.3 1382.41   4
  -5   3  -2 66814.7 833.054   1
  -2  -3  -2 69774.0 1352.11   1
   5  -2  -2 69693.2 1429.93   4
   2  -5  -2 66429.5 1455.10   1
   5  -2  -2 66457.9 1058.33   3
  -5   3  -2 66673.6 1374.71   3
   2  -5  -2 67633.1 1060.34   2
   2  -5  -2 66331.4 1252.76   3
   3   2  -2 66161.4 1158.15   3
  -3   5  -2 64331.5 1348.21   3
   5  -2  -2 68435.8 1423.04   2
  -3   5  -2 70542.1 1578.25   2
  -2  -3   1 57606.1 1061.40   1
  -3   5   1 56844.1 1217.68   1
  -2  -3   1 60728.0 1076.37   4
  -3   5   1 59598.0 970.326   3
   2  -5   1 58567.8 1103.59   2
   3   2   1 57914.5 1076.11   1
  -5   3   1 61132.9 1033.12   2
  -5   3   1 57381.3 698.217   3
  -5   3   1 59869.8 1021.18   4
   2  -5   1 57376.9 920.913   4
  -2  -3   1 62163.0 1252.12   2
   5  -2   1 60948.9 953.231   3
   2  -5   1 59525.8 929.569   1
   3   2   1 61133.8 976.650   3
   3   2   4 6996.41 727.096   3
  -2  -3   4 5767.67 454.524   1
   2  -5   4 5282.40 595.352   3
  -3   5   4 5747.62 616.490   1
   2  -5   4 5094.42 256.751   1
  -2  -3   4 5652.55 585.721   3
  -5   3   4 6912.16 735.653   2
  -3   5   4 5456.61 615.464   2
   2  -5   4 5403.41 693.759   4
  -2  -3   4 6149.59 733.586   4
   5  -2   4 5945.71 351.419   1
  -2  -3   4 5328.91 728.181   2
   2  -5   4 7116.13 822.067   2
  -3   5   4 5149.19 653.518   3
   3   2   4 5810.30 492.268   1
   5  -2   4 5331.16 656.415   3
  -5   3   4 6229.65 725.747   4
  -5   3   4 5753.28 575.518   3
  -5   3   7 36195.6 1562.13   1
   2  -5   7 30388.8 819.025   1
   5  -2   7 35706.4 952.521   1
  -3   5   7 34359.6 1492.34   1
   2  -5   7 32423.3 773.463   1
  -2  -3   7 34570.0 1931.31   2
   3   2   7 37013.5 1299.05   1
  -2  -3   7 32234.3 1213.23   1
  -5   3   7 35077.3 1907.34   4
  -2  -3   7 37133.1 1959.72   4
  -5   3   7 31732.9 1730.14   2
  -2  -3  10 15552.7 988.060   1
  -3   5  10 15878.0 1245.85   1
   3   2  10 15774.7 1007.10   1
   5  -2  10 16091.4 725.830   1
  -5   3  10 17902.6 1304.39   1
  -4   5  -9 63728.2 2804.33   3
  -5   4  -9 67341.2 2887.92   3
   1  -5  -9 66480.3 2652.24   3
  -1  -4  -9 71479.6 2776.54   3
   4   1  -9 73036.2 2860.07   3
   5  -1  -9 71204.6 2697.78   3
  -4   5  -6 19138.5 1327.44   3
  -1  -4  -6 20048.8 1243.69   3
   1  -5  -6 19993.4 1311.66   2
   4   1  -6 18482.8 1189.40   3
   1  -5  -6 20027.6 1222.12   3
   5  -1  -6 21867.0 1257.48   3
  -1  -4  -6 18679.7 1057.53   1
  -5   4  -6 19622.9 1312.24   3
   1  -5  -6 20854.4 1177.32   1
  -1  -4  -6 19277.5 1258.11   2
  -1  -4  -3 230230. 2807.55   1
   5  -1  -3 231860. 2523.94   3
  -5   4  -3 233222. 3012.87   3
  -1  -4  -3 236040. 2860.48   3
  -4   5  -3 228289. 2940.12   3
   4   1  -3 243981. 3429.41   2
   5  -1  -3 237451. 3191.96   4
  -4   5  -3 240545. 3127.46   4
   1  -5  -3 237275. 2791.44   3
   1  -5  -3 234058. 2589.82   2
   4   1  -3 233131. 2609.24   3
  -4   5  -3 237442. 3364.56   2
   1  -5  -3 232095. 2927.77   1
   5  -1  -3 235929. 3203.52   2
   5  -1   0 16142.1 579.313   4
   4   1   0 18620.9 587.636   2
   4   1   0 16686.8 637.241   1
   4   1   0 17893.2 360.055   3
   1  -5   0 16756.2 641.902   1
   4   1   0 15898.5 570.895   4
  -1  -4   0 18158.0 511.602   2
  -5   4   0 18173.3 505.686   2
   1  -5   0 18585.0 467.822   2
  -5   4   0 17839.1 402.439   4
  -1  -4   0 18032.3 676.980   1
  -4   5   0 17398.1 635.554   1
  -1  -4   0 17466.2 517.234   4
   1  -5   0 18717.5 411.114   4
   5  -1   3 78364.8 1171.12   1
  -5   4   3 73704.6 1764.44   4
   1  -5   3 78483.7 1019.61   1
   4   1   3 80626.8 1741.15   3
  -1  -4   3 75748.8 1536.86   3
   1  -5   3 75499.0 1588.77   3
  -5   4   3 79846.6 1570.59   3
  -4   5   3 75782.7 1764.65   4
  -4   5   3 78014.6 1567.17   3
   1  -5   3 77875.6 1973.55   2
  -1  -4   3 79494.5 1887.55   4
   5  -1   3 80139.6 1743.23   3
  -4   5   3 76270.1 1750.40   1
   1  -5   3 77785.8 1796.67   4
   4   1   3 73124.9 1335.45   1
  -1  -4   3 75798.0 1964.37   2
  -1  -4   3 77808.2 1232.29   1
  -4   5   3 75994.6 1568.14   2
  -5   4   3 72477.9 1672.94   2
  -4   5   6 33979.2 1478.87   1
  -1  -4   6 40080.1 1896.81   4
  -1  -4   6 41649.8 1120.31   1
   1  -5   6 37902.4 959.343   1
  -5   4   6 39500.7 1553.07   1
  -4   5   6 41596.3 1709.47   2
  -1  -4   6 38992.7 1886.68   2
  -5   4   6 39105.5 1711.89   2
   5  -1   6 40374.7 1056.40   1
   4   1   6 38791.0 1187.24   1
   1  -5   6 38834.2 878.402   1
   1  -5   6 41763.5 1857.36   4
   1  -5   6 37238.5 1844.83   2
  -5   4   6 41885.7 1882.69   4
   4   1   9 25347.9 1160.83   1
  -5   4   9 23915.0 1429.32   1
   1  -5   9 23790.1 870.241   1
  -4   5   9 26565.5 1508.18   1
  -1  -4   9 23874.3 1065.45   1
   1  -5   9 22034.6 801.516   1
  -5   4   9 29175.1 1860.03   2
   5  -1   9 25804.3 986.537   1
  -1  -4   9 22780.4 991.821   1
   5   0 -10 27618.8 1897.81   3
  -5   5 -10 27926.6 2101.59   3
   0  -5  -7-344.891 570.457   3
  -5   5  -7-210.242 663.874   3
   5   0  -7 604.018 538.698   3
   0  -5  -7-201.404 528.462   1
   5   0  -4 20684.0 1156.26   4
  -5   5  -4 21432.8 1268.52   2
   0  -5  -4 19518.8 985.543   2
   0  -5  -4 19746.0 1001.99   3
  -5   5  -4 20796.3 1142.02   3
  -5   5  -4 22302.4 1201.40   4
   5   0  -4 21201.9 1247.22   2
   0  -5  -4 21233.1 1015.49   1
   5   0  -4 19374.0 930.175   3
  -5   5  -1 566.254 257.796   3
   5   0  -1 130.992 260.394   2
   0  -5  -1-4.65416 312.910   1
   5   0  -1 187.278 266.781   4
   0  -5  -1 310.096 128.432   2
   0  -5   2 113193. 1429.75   1
   0  -5   2 115359. 2092.78   2
  -5   5   2 110347. 1979.90   1
   5   0   2 111619. 1507.45   1
   0  -5   2 114018. 1627.36   3
   5   0   2 117719. 1762.04   3
  -5   5   2 111325. 1521.75   3
  -5   5   2 112366. 1757.22   4
   0  -5   2 112974. 1828.47   4
  -5   5   2 110871. 1601.64   2
   0  -5   5 331.757 235.160   1
   0  -5   5-198.349 561.026   2
  -5   5   5-5.43562 516.365   2
   0  -5   5-248.954 418.604   3
  -5   5   5 163.150 410.909   3
   5   0   5-69.4538 475.400   3
  -5   5   5-403.293 484.592   1
   0  -5   5 593.277 558.942   4
   5   0   5 280.741 270.556   1
  -5   5   5 118.688 463.939   4
   0  -5   8 1466.91 392.908   1
  -5   5   8 2506.19 794.636   2
   0  -5   8 1550.11 381.460   1
   5   0   8 1719.78 475.454   1
  -5   5   8 1539.45 637.818   1
  -5   5  11-569.194 692.479   1
   6  -6  -9-121.623 758.296   3
  -6   0  -9 308.068 709.421   3
   0   6  -9 455.894 781.236   3
   0   6  -6 65592.8 2269.70   3
  -6   0  -6 71472.1 2335.91   3
   6  -6  -6 71773.6 2441.23   2
  -6   0  -6 73164.7 1685.99   1
   6  -6  -6 73345.5 2137.13   3
   0   6  -3 638.793 436.986   2
   0   6  -3 74.3123 248.337   1
   6  -6  -3 193.552 293.441   3
   0   6  -3 128.265 364.377   3
   0   6  -3 299.511 436.001   4
  -6   0  -3 272.114 310.674   1
  -6   0  -3 350.873 371.351   3
   6  -6  -3 271.558 333.381   2
   6  -6  -3-55.3191 379.072   4
   6  -6   0 53128.5 609.104   4
   0   6   0 52996.4 853.569   2
   0   6   0 50460.7 1184.97   1
  -6   0   0 52296.4 1116.18   4
  -6   0   0 51487.9 1195.61   1
  -6   0   0 54664.3 1139.86   2
   0   6   0 51582.9 909.921   4
  -6   0   3 572.948 295.754   3
  -6   0   3-49.9959 494.675   2
   0   6   3 385.669 325.203   3
   0   6   3-381.431 367.961   1
  -6   0   3 647.301 453.123   4
   6  -6   3 570.647 367.700   3
   0   6   6 58208.0 1825.72   1
  -6   0   6 54929.7 2267.16   4
  -6   0   6 53569.0 2227.03   2
  -6   0   9-545.549 552.776   1
   0   6   9 108.680 544.951   1
  -6   0   9 516.710 963.408   4
  -6   0   9 46.1884 849.264   2
   5  -6 -10 2847.89 962.773   3
   6  -5 -10 2716.48 905.825   3
   1   5 -10 2472.45 1019.27   3
  -5  -1 -10 2962.66 1014.48   3
  -6   1 -10 1734.04 902.538   3
  -1   6 -10 3073.18 1079.27   3
  -5  -1  -7 38673.8 1380.11   1
  -5  -1  -7 37439.6 1837.90   3
   1   5  -7 40504.5 1996.82   3
  -6   1  -7 37441.7 1185.61   1
   6  -5  -7 39545.9 1743.18   3
  -1   6  -7 35075.7 1863.85   3
   5  -6  -7 40819.4 1775.28   3
  -6   1  -7 43261.8 2027.45   3
   6  -5  -4 3523.54 592.598   2
  -6   1  -4 4328.86 428.039   1
  -1   6  -4 3777.26 638.240   4
  -5  -1  -4 3692.14 582.596   3
   5  -6  -4 4830.88 598.634   2
  -1   6  -4 3403.64 715.063   2
   1   5  -4 4289.50 742.539   2
   5  -6  -4 3543.56 634.836   4
   6  -5  -4 4959.68 561.269   3
  -6   1  -4 3485.48 591.324   3
  -5  -1  -4 4295.67 493.226   1
   6  -5  -4 3362.22 592.062   4
  -1   6  -4 3811.81 633.250   3
   1   5  -4 3978.30 556.646   3
   1   5  -4 4055.46 665.199   4
   5  -6  -4 3714.37 526.352   3
  -1   6  -1 212803. 2301.16   2
  -5  -1  -1 208118. 2095.23   4
  -6   1  -1 202163. 2025.71   4
   6  -5  -1 203973. 1697.02   4
  -6   1  -1 202175. 1805.91   3
   5  -6  -1 205142. 1589.53   4
   1   5  -1 194745. 2061.26   1
  -5  -1  -1 202677. 1978.90   2
   6  -5  -1 211340. 1839.51   2
  -1   6  -1 202387. 2007.40   1
  -5  -1  -1 199066. 1733.17   3
   1   5  -1 206779. 2262.74   2
  -5  -1  -1 206760. 2244.61   1
   1   5  -1 212091. 1984.12   4
  -6   1  -1 202463. 2058.95   2
  -6   1  -1 203854. 2109.21   1
  -1   6  -1 207313. 1760.95   4
   5  -6  -1 206645. 1458.64   2
   1   5   2 2136.58 378.900   3
  -6   1   2 1867.38 424.651   4
   5  -6   2 1578.11 344.155   3
  -6   1   2 1916.70 470.200   2
   1   5   2 2476.55 456.926   1
  -5  -1   2 1810.94 268.554   3
   6  -5   2 1419.99 330.833   3
  -5  -1   2 1856.73 520.409   2
  -6   1   2 2037.45 267.634   3
  -5  -1   2 1725.68 379.861   1
  -1   6   2 1820.98 363.193   3
  -1   6   2 2117.31 430.792   1
  -5  -1   2 1795.84 432.418   4
   1   5   5 27756.4 1165.03   1
  -5  -1   5 28666.9 1205.40   3
  -6   1   5 32986.8 1290.51   3
  -6   1   5 28107.6 1487.94   4
  -1   6   5 27325.4 1203.50   1
  -5  -1   5 29153.3 1568.45   2
  -5  -1   5 25572.2 1449.63   4
  -6   1   5 27799.5 1534.14   2
   1   5   8 3799.23 669.692   1
  -6   1   8 2251.31 928.428   4
  -5  -1   8 2174.95 589.223   1
  -6   1   8 2697.37 932.501   2
  -1   6   8 3194.93 672.843   1
  -5  -1   8 3037.23 931.170   2
  -5  -1   8 2417.75 893.317   4
  -6   1   8 3181.56 706.359   1
   1   5  11 5202.07 856.955   1
  -1   6  11 5628.97 941.420   1
  -6   1  11 4996.61 883.218   1
  -5  -1  11 4737.65 847.777   1
   2   4 -11 5224.57 1291.56   3
  -4  -2 -11 9806.77 1466.62   3
  -6   2 -11 4702.01 1186.56   3
   4  -6 -11 8084.52 1329.22   3
   6  -4 -11 4839.10 1133.25   3
  -2   6 -11 6317.05 1422.39   3
   4  -6  -8 1639.02 693.185   3
  -6   2  -8 949.549 734.056   3
  -4  -2  -8 510.615 678.730   3
   6  -4  -8 1610.39 739.425   3
   2   4  -8 1170.56 812.470   3
  -2   6  -8 304.300 724.163   3
   6  -4  -5 52507.1 1617.10   3
  -6   2  -5 50373.4 1100.21   1
  -4  -2  -5 49969.2 1756.11   3
   4  -6  -5 54288.2 1808.01   2
  -2   6  -5 53245.1 1976.83   4
   6  -4  -5 51916.9 1911.42   2
  -6   2  -5 50986.6 1807.64   3
   4  -6  -5 54746.3 1970.67   4
   2   4  -5 50268.4 1771.63   3
   2   4  -5 52179.0 1955.44   4
   4  -6  -5 50928.2 1664.93   3
   6  -4  -5 51906.5 1958.83   4
  -4  -2  -5 53730.6 1489.10   1
  -2   6  -5 49356.1 1809.84   3
   6  -4  -2 48241.0 915.066   3
  -4  -2  -2 50992.7 1188.82   1
   6  -4  -2 50457.4 1226.98   4
  -2   6  -2 53178.1 1213.58   4
   2   4  -2 51453.5 1271.94   4
   2   4  -2 50091.8 1084.49   1
   4  -6  -2 48523.8 1073.36   3
   6  -4  -2 50099.7 1161.83   2
   4  -6  -2 48768.7 903.077   2
  -2   6  -2 50321.7 1223.76   3
  -6   2  -2 51020.5 1212.78   3
   4  -6  -2 50539.8 1385.18   1
   2   4  -2 51168.0 1452.73   2
  -2   6  -2 52192.9 1442.87   2
   4  -6  -2 50823.0 1185.10   4
   2   4  -2 50564.7 1110.06   3
  -6   2  -2 51641.5 972.565   1
  -2   6  -2 49826.4 849.998   1
  -4  -2  -2 48801.1 1143.73   3
  -4  -2   1 45405.1 1085.12   1
  -6   2   1 46514.7 1023.38   4
   2   4   1 45993.8 755.369   2
  -2   6   1 47293.8 975.634   3
  -6   2   1 46493.0 1062.43   2
  -4  -2   1 46607.7 1133.46   2
   6  -4   1 45024.7 880.971   3
   4  -6   1 44947.5 889.428   1
   2   4   1 44187.6 1096.89   1
  -2   6   1 44304.0 1144.40   1
  -4  -2   1 47057.7 1066.08   4
   2   4   1 46037.6 939.376   3
  -2   6   4 32006.2 1242.84   3
  -4  -2   4 33807.8 1157.80   3
  -6   2   4 32725.3 1137.44   3
  -2   6   4 31848.0 1242.00   1
  -6   2   4 30851.4 1413.15   2
  -6   2   4 29601.6 1427.37   4
   6  -4   4 30370.3 1263.47   3
  -4  -2   4 33504.9 1513.31   2
   6  -4   4 27061.1 478.985   1
   2   4   4 34342.2 1344.24   3
  -4  -2   4 33213.8 1484.27   4
   2   4   4 32728.8 1141.00   1
   4  -6   4 28790.6 1172.40   3
  -6   2   7 58526.4 2511.83   4
  -2   6   7 56518.8 1896.02   1
  -4  -2   7 55773.2 2436.34   4
  -6   2   7 53976.9 2311.38   2
   2   4   7 59649.7 1779.84   1
  -4  -2   7 57645.6 2471.04   2
  -6   2   7 53699.2 1923.39   1
   2   4  10 3954.97 738.279   1
  -4  -2  10 2117.67 1111.68   2
  -2   6  10 4687.24 834.810   1
  -6   2  10 2928.48 733.182   1
  -4  -2  10 3512.66 704.643   1
  -6   2  10 3317.90 1035.48   2
  -3   6  -9 543.512 773.417   3
   3  -6  -9 1860.90 851.377   3
   6  -3  -9 1000.13 737.982   3
   3   3  -9 1776.27 791.240   3
  -3  -3  -9 321.272 712.947   3
  -6   3  -9 148.730 801.695   3
   3  -6  -6 90977.0 2436.43   3
  -3   6  -6 83944.1 2566.35   3
  -3  -3  -6 87146.6 2066.82   1
   6  -3  -6 86388.0 2292.34   3
   3  -6  -6 86690.3 2552.43   2
   3   3  -6 85136.4 2425.94   3
  -3  -3  -6 86086.4 2455.55   3
  -6   3  -6 85523.4 2560.53   3
  -3   6  -3 13350.9 952.371   2
  -6   3  -3 12887.3 811.295   3
  -3  -3  -3 15064.5 772.713   1
   6  -3  -3 14169.4 663.407   3
   6  -3  -3 15147.2 899.104   4
  -3   6  -3 12211.3 331.936   1
   3  -6  -3 12830.7 799.717   1
   3   3  -3 14760.2 889.020   4
   3  -6  -3 14264.8 744.420   3
   6  -3  -3 14956.0 887.474   2
   3  -6  -3 13906.9 722.888   2
   3   3  -3 11930.0 681.096   3
  -3   6  -3 14428.0 870.461   4
   3  -6  -3 15612.8 896.740   4
  -6   3  -3 15105.1 492.571   1
   3   3  -3 14396.5 987.940   2
  -3  -3  -3 14851.6 791.928   3
  -3   6  -3 12440.3 777.463   3
   3   3   0 785835. 4188.52   1
  -3   6   0 787865. 4161.18   1
   3  -6   0 784246. 4160.36   1
   3   3   0 774058. 3878.47   4
  -6   3   3 14320.4 673.507   3
  -3   6   3 12902.2 652.768   2
   3   3   3 14908.2 815.587   3
   3  -6   3 11883.9 335.542   1
  -3   6   3 12715.8 710.363   3
   6  -3   3 13382.0 435.852   1
  -3  -3   3 13717.9 898.788   4
  -6   3   3 12876.3 833.210   2
  -6   3   3 12534.6 854.176   4
   3   3   3 14129.9 697.825   1
   3  -6   3 13323.4 736.440   3
  -3  -3   3 12652.9 922.238   2
   3  -6   3 12085.4 814.516   4
  -3   6   3 14001.2 822.619   1
  -3  -3   3 13405.7 678.425   3
   6  -3   3 14049.7 790.621   3
  -3  -3   3 13643.4 647.310   1
  -6   3   6 67735.9 2034.86   1
  -3  -3   6 72695.2 2540.46   4
  -3  -3   6 72295.9 1667.05   1
   3   3   6 78246.0 1847.16   1
  -3   6   6 73817.4 2108.43   1
   6  -3   6 75666.2 1125.47   1
  -6   3   6 70022.5 2398.26   2
  -6   3   6 76327.4 2554.18   4
  -3  -3   6 71809.8 2566.03   2
  -3  -3   9 994.777 828.958   2
  -3   6   9 1276.77 636.280   1
  -3  -3   9 557.108 819.887   4
  -6   3   9 785.619 605.980   1
  -6   3   9 522.996 767.866   2
  -3  -3   9 1398.76 533.377   1
  -3  -3   9 229.097 489.514   1
   3   3   9 1176.43 518.837   1
   6  -3   9 648.550 234.307   1
  -6   4 -10 1501.26 990.092   3
  -4   6 -10 4045.70 1071.10   3
   2  -6 -10 5031.04 1124.79   3
   4   2 -10 3416.76 1030.34   3
  -2  -4 -10 3215.85 975.581   3
   6  -2 -10 4057.18 1013.71   3
  -2  -4  -7 50874.9 2055.12   3
   2  -6  -7 67422.4 2305.30   3
   6  -2  -7 62089.8 2171.67   3
  -4   6  -7 57962.2 2375.88   3
  -2  -4  -7 59304.4 1922.75   1
  -6   4  -7 58899.7 2345.56   3
   4   2  -7 61185.8 2208.91   3
  -4   6  -4 32088.5 1413.17   4
   2  -6  -4 32060.9 1216.45   2
  -4   6  -4 32224.5 1499.48   2
  -2  -4  -4 31816.6 1268.77   3
   6  -2  -4 33829.5 1445.96   2
  -6   4  -4 31179.1 1346.36   3
   2  -6  -4 31811.8 1219.59   3
   4   2  -4 34888.1 1565.78   2
   2  -6  -4 32598.5 1265.63   1
   2  -6  -4 34451.8 1452.03   4
   4   2  -4 32938.3 1453.93   4
  -2  -4  -4 32654.6 1218.74   1
   4   2  -4 31207.4 1195.91   3
   6  -2  -4 30463.7 1373.96   4
  -4   6  -4 31171.7 1314.80   3
   6  -2  -4 34337.8 1192.60   3
  -6   4  -4 26143.5 521.087   1
  -4   6  -1 49491.5 925.160   1
   4   2  -1 53513.3 778.163   3
   4   2  -1 48567.8 1140.77   1
   6  -2  -1 51753.4 1090.07   2
   4   2  -1 50612.8 1071.62   4
  -2  -4  -1 50590.6 1187.12   1
   4   2  -1 50971.0 1155.33   2
  -2  -4  -1 52056.8 806.933   2
  -4   6  -1 51664.6 1050.54   3
  -2  -4  -1 50994.5 951.407   3
   6  -2  -1 48604.4 1009.51   4
  -6   4  -1 50681.6 957.382   3
   2  -6  -1 51339.0 1261.93   1
  -4   6  -1 50656.9 810.351   4
  -2  -4  -1 50997.8 987.252   4
   2  -6   2 48830.5 1188.61   4
  -2  -4   2 48281.8 1271.16   4
  -2  -4   2 47233.4 1006.00   3
   4   2   2 47898.4 1121.43   1
  -4   6   2 47640.5 1063.28   3
   6  -2   2 48601.2 932.830   1
  -4   6   2 45999.6 939.002   2
   6  -2   2 50607.3 1172.42   3
  -2  -4   2 50250.8 1083.05   1
   2  -6   2 49534.3 1140.95   3
   2  -6   2 48874.0 880.801   1
   4   2   2 51588.1 1207.60   3
  -6   4   2 47169.5 1190.70   2
  -2  -4   2 50225.4 1469.10   2
  -4   6   2 48381.3 1346.19   1
  -6   4   2 47154.6 1247.43   4
   2  -6   2 49684.1 1374.32   2
  -6   4   2 47842.9 941.524   3
   2  -6   5 52057.2 1941.12   2
  -4   6   5 48136.9 1656.31   3
   2  -6   5 49902.9 817.470   1
   2  -6   5 50060.5 1875.74   4
   4   2   5 51716.0 1365.02   1
  -2  -4   5 51834.8 1635.72   3
  -2  -4   5 49627.2 1997.07   2
  -4   6   5 54472.1 1744.35   1
  -2  -4   5 53934.6 1273.52   1
  -6   4   5 55240.8 1661.84   3
  -4   6   5 52790.1 1673.49   2
  -6   4   5 53787.2 1952.54   4
   6  -2   5 51126.3 1805.99   3
  -6   4   5 54099.9 1738.25   1
   6  -2   5 52634.7 1032.20   1
  -2  -4   5 51138.2 1922.84   4
  -6   4   5 50005.8 1842.23   2
  -6   4   8 1056.64 674.613   2
   4   2   8 788.607 412.229   1
  -2  -4   8 1176.61 793.563   4
  -2  -4   8 324.171 684.778   2
   2  -6   8 917.618 222.701   1
  -4   6   8 890.329 594.383   1
  -6   4   8 1704.79 647.193   1
  -2  -4   8 709.689 443.797   1
   2  -6   8 844.612 241.794   1
  -2  -4   8 154.333 409.725   1
   6  -2   8 655.300 303.264   1
   4   2  11 6871.65 801.635   1
  -6   4  11 5644.98 972.905   1
  -4   6  11 8262.18 1052.13   1
  -5   6 -11 7369.47 1513.52   3
   1  -6 -11 7568.00 1365.34   3
  -1  -5 -11 8032.27 1320.99   3
   5   1 -11 6681.27 1337.18   3
  -6   5 -11 6203.43 1353.02   3
   6  -1 -11 7884.86 1274.93   3
  -1  -5  -8 2687.60 869.118   3
  -6   5  -8 2659.10 891.167   3
   6  -1  -8 2504.03 754.268   3
  -5   6  -8 665.443 761.669   3
   5   1  -8 2091.93 772.548   3
   1  -6  -8 1729.08 739.974   3
  -1  -5  -5 28364.6 1236.87   1
  -6   5  -5 28333.2 1508.45   4
   1  -6  -5 27897.5 1318.52   3
  -1  -5  -5 27409.8 1298.09   3
   6  -1  -5 28904.4 1543.29   2
  -5   6  -5 29436.7 1471.89   4
   1  -6  -5 29593.1 1313.49   2
  -6   5  -5 29238.0 1425.77   3
   1  -6  -5 26947.0 1252.85   1
  -1  -5  -5 29415.1 1318.13   2
   6  -1  -5 29618.8 1266.13   3
   5   1  -5 25976.8 1210.35   3
   1  -6  -5 26467.8 1446.74   4
  -5   6  -5 25588.7 1372.71   3
  -5   6  -2 2309.75 385.389   4
   6  -1  -2 2638.42 296.969   3
  -5   6  -2 2322.61 398.211   3
   5   1  -2 2655.10 301.077   3
   1  -6  -2 2771.06 383.691   3
   1  -6  -2 2380.95 462.923   1
   5   1  -2 2783.38 442.790   4
   6  -1  -2 2564.76 392.745   4
   5   1  -2 2788.74 447.853   2
  -6   5  -2 3245.30 442.339   3
  -1  -5  -2 2870.76 405.184   3
   1  -6  -2 2629.39 282.031   2
   6  -1  -2 2935.36 498.345   2
  -5   6  -2 2838.41 252.496   1
  -1  -5  -2 2897.79 455.991   1
  -6   5   1 206627. 1884.35   4
  -5   6   1 204573. 1529.95   2
   1  -6   1 206864. 2099.00   1
  -1  -5   1 213166. 2411.87   2
   6  -1   1 205479. 1855.28   3
   6  -1   1 202226. 2105.59   1
   5   1   1 204272. 2010.04   2
  -5   6   1 206237. 1683.33   4
   1  -6   1 205242. 1872.89   4
  -6   5   1 202637. 1857.17   2
   5   1   1 204349. 2204.75   1
  -1  -5   1 203937. 2161.59   1
  -5   6   1 206707. 2513.99   1
   5   1   1 206069. 1852.25   3
   1  -6   1 211675. 2280.40   2
  -6   5   1 209209. 1622.75   3
  -1  -5   1 205920. 2027.62   4
   6  -1   4 4554.94 394.924   1
  -5   6   4 3506.67 555.888   2
   5   1   4 5179.77 678.664   3
  -6   5   4 4334.41 627.106   2
  -6   5   4 4207.06 663.064   4
   1  -6   4 4350.63 649.291   4
  -5   6   4 3732.19 591.771   1
  -1  -5   4 4323.69 749.214   2
  -5   6   4 4438.67 652.216   4
   6  -1   4 4907.70 661.772   3
  -1  -5   4 4284.17 398.452   1
  -5   6   4 3823.93 562.835   3
   1  -6   4 4532.27 696.310   2
   1  -6   4 4271.88 332.225   1
   5   1   4 3634.77 422.550   1
  -6   5   4 4254.49 528.298   3
  -6   5   4 3638.10 582.766   1
  -1  -5   4 3508.73 685.502   4
  -1  -5   4 3646.42 508.633   3
   1  -6   4 3501.34 506.970   3
  -6   5   7 37533.2 1868.03   2
  -1  -5   7 40196.0 2060.80   4
   1  -6   7 39323.4 1992.58   4
   6  -1   7 38934.2 1110.89   1
  -5   6   7 38291.2 1684.36   1
  -1  -5   7 37747.0 1126.38   1
  -6   5   7 36263.4 1920.67   4
  -5   6   7 38724.6 1788.98   2
   1  -6   7 32274.9 959.874   1
  -1  -5   7 39482.3 2093.98   2
   1  -6   7 36906.8 927.826   1
   5   1   7 37953.3 1264.16   1
  -6   5   7 37521.9 1648.34   1
   6  -1  10 1162.94 402.027   1
   5   1  10 1640.71 551.118   1
  -5   6  10 1037.53 705.861   1
  -1  -5  10 1223.32 457.303   1
  -6   5  10 1614.63 747.151   1
  -6   6  -9-68.8276 788.843   3
   0  -6  -9 122.783 727.298   3
   6   0  -9 1202.38 784.434   3
  -6   6  -6 69825.9 2380.00   3
   0  -6  -6 71802.2 2225.10   2
   6   0  -6 65874.2 2037.29   3
   0  -6  -6 65832.1 2048.33   1
   0  -6  -6 68529.9 2179.72   3
   6   0  -3 715.720 321.047   3
   6   0  -3 143.158 419.856   4
   0  -6  -3 267.169 300.508   2
   0  -6  -3-110.129 386.737   1
  -6   6  -3 79.0426 384.944   4
  -6   6  -3 507.050 415.421   3
   0  -6  -3-2.87292 310.913   3
   6   0  -3 478.259 427.025   2
  -6   6   0 75754.3 723.192   4
   0  -6   0 71588.9 1440.90   1
   6   0   0 73910.7 1432.58   1
  -6   6   0 70872.5 1380.25   1
  -6   6   0 71591.6 1028.12   2
   6   0   0 74045.3 1304.42   2
   0  -6   0 72179.5 1040.07   4
   6   0   0 72665.3 1342.57   4
   0  -6   0 77350.5 1139.62   2
  -6   6   3 411.234 331.460   3
   0  -6   3 458.615 397.585   4
  -6   6   3 413.615 441.798   4
   0  -6   3 68.4216 475.364   2
  -6   6   3 412.983 449.505   1
   0  -6   3 160.057 306.719   3
   6   0   3 240.235 386.173   3
   6   0   3 529.323 302.449   1
  -6   6   3 371.111 387.751   2
   0  -6   3 296.826 260.858   1
   0  -6   6 74673.9 2557.64   4
  -6   6   6 69091.8 2247.26   2
   6   0   6 76907.3 1607.40   1
  -6   6   6 76539.9 2493.69   4
   0  -6   6 72790.6 1373.65   1
  -6   6   6 75471.9 2237.13   1
   6   0   9-126.410 400.834   1
   0  -6   9-143.471 332.066   1
  -6   6   9-496.941 628.477   1
   0  -6   9 151.032 322.058   1
   7  -7 -10 56331.6 2579.67   3
  -7   0 -10 51183.7 2656.05   3
   0   7 -10 56341.0 2876.54   3
   7  -7  -7 762.488 561.139   3
  -7   0  -7 855.623 460.361   1
   0   7  -7 342.973 652.738   3
  -7   0  -7 449.749 575.878   3
   0   7  -4 9395.15 789.395   3
   7  -7  -4 10149.5 705.114   3
   7  -7  -4 9787.84 859.373   4
  -7   0  -4 9892.10 827.240   3
  -7   0  -4 11062.0 705.926   1
   7  -7  -4 11779.0 811.440   2
   0   7  -4 9159.19 859.691   4
   0   7  -4 9186.27 993.574   2
  -7   0  -1 532.334 270.679   4
   0   7  -1 589.296 346.553   2
  -7   0  -1 237.967 315.858   1
   7  -7  -1 69.1494 195.979   2
  -7   0  -1 278.763 295.256   2
  -7   0  -1 406.752 198.055   3
   7  -7  -1 294.131 191.849   4
   0   7  -1 162.591 318.963   1
   0   7  -1 120.137 231.834   4
   0   7   2 88328.4 1656.95   3
  -7   0   2 86326.0 1950.54   2
   7  -7   2 84781.2 1584.59   3
  -7   0   2 84544.6 1814.95   4
   0   7   2 82844.4 1797.44   1
  -7   0   2 83083.2 1037.09   3
  -7   0   2 86252.5 1790.22   1
  -7   0   5 219.842 382.386   3
   0   7   5-473.440 458.024   1
  -7   0   5 194.191 619.343   2
  -7   0   5 318.656 650.161   4
  -7   0   8 71531.2 2943.44   2
   0   7   8 71716.0 2302.00   1
  -7   0   8 71890.0 2962.37   4
   0   7  11 596.021 763.150   1
  -7   0  11 566.880 665.926   1
  -7   0  11-226.379 884.660   2
  -6  -1 -11 17247.5 1809.44   3
   7  -6 -11 11000.1 1389.37   3
  -1   7 -11 13205.6 1689.28   3
  -7   1 -11 12545.3 1608.35   3
   1   6 -11 12337.8 1619.91   3
   6  -7 -11 12214.1 1499.74   3
  -6  -1  -8 3399.11 639.665   1
   7  -6  -8 4389.35 856.816   3
  -1   7  -8 3975.08 990.848   3
   1   6  -8 4915.75 1007.45   3
   6  -7  -8 4126.83 853.475   3
  -6  -1  -8 4931.87 1015.01   3
  -7   1  -8 3940.70 925.805   3
   6  -7  -5 15060.6 938.777   3
  -7   1  -5 14602.8 738.411   1
   7  -6  -5 13337.5 1046.75   4
  -6  -1  -5 15081.6 848.847   1
  -6  -1  -5 14414.6 1017.00   3
   1   6  -5 13259.6 1011.84   3
  -1   7  -5 13014.5 1003.88   3
   6  -7  -5 13010.7 1077.06   4
  -1   7  -5 14847.6 1125.08   4
   7  -6  -5 13229.8 1019.47   2
   7  -6  -5 12787.3 870.539   3
   6  -7  -5 15860.2 1068.18   2
  -7   1  -5 12936.2 1016.16   3
   1   6  -2 12932.2 632.506   1
   6  -7  -2 13262.6 610.163   3
   1   6  -2 12554.7 654.924   3
  -7   1  -2 14630.4 709.878   3
   1   6  -2 14723.1 861.164   2
  -1   7  -2 13869.9 848.340   2
  -1   7  -2 13558.9 672.636   4
   7  -6  -2 12602.6 591.063   2
  -7   1  -2 12422.3 625.168   1
   6  -7  -2 13954.7 678.706   4
  -1   7  -2 12548.3 574.977   1
  -1   7  -2 13975.5 724.033   3
   7  -6  -2 13598.1 663.295   4
  -6  -1  -2 12280.8 625.730   3
  -6  -1  -2 13362.2 691.568   1
   1   6  -2 13507.2 693.910   4
   6  -7  -2 13524.9 516.472   2
   7  -6  -2 13075.4 546.370   3
  -7   1   1 314.067 288.172   4
  -6  -1   1 1273.32 398.463   2
   1   6   1 530.332 364.955   1
  -1   7   1 384.299 352.227   1
   1   6   1 966.464 287.451   3
  -6  -1   1 542.396 368.920   1
   1   6   1 829.403 177.193   2
  -7   1   1 563.497 331.420   1
  -6  -1   1 940.134 373.758   4
  -1   7   1 743.772 292.023   3
  -7   1   1 858.147 368.114   2
   7  -6   4 22041.0 1088.33   3
   1   6   4 22725.6 1136.20   3
  -7   1   4 22322.5 946.083   3
  -6  -1   4 21373.1 1259.05   2
   6  -7   4 21351.6 1060.90   3
  -7   1   4 22429.5 1254.93   4
   1   6   4 22349.8 1052.80   1
  -7   1   4 20731.3 1265.90   2
  -1   7   4 20860.5 1075.19   3
  -1   7   4 20811.4 1068.41   1
  -6  -1   4 20233.1 900.509   3
  -6  -1   4 18842.1 1190.63   4
  -7   1   7 11534.3 1242.80   2
  -1   7   7 12520.4 1004.99   1
  -6  -1   7 13783.9 1390.75   2
   1   6   7 12862.2 985.465   1
  -6  -1   7 11431.1 1296.15   4
  -7   1   7 12176.3 1361.90   4
  -1   7  10 1582.28 734.642   1
   1   6  10 2708.61 743.455   1
  -7   1  10 2658.75 1054.02   2
  -6  -1  10 2799.49 1005.37   2
  -7   1  10 2274.17 771.892   1
  -6  -1  10 2457.89 1032.56   4
  -6  -1  10 2305.54 747.892   1
  -7   1  10 3093.79 1051.21   4
   5  -7  -9 12829.2 1290.11   3
   7  -5  -9 13966.4 1305.09   3
  -7   2  -9 13031.3 1482.60   3
   2   5  -9 12297.7 1389.32   3
  -2   7  -9 14981.5 1578.30   3
  -5  -2  -9 13284.1 1378.14   3
  -5  -2  -6 35361.5 1652.20   3
  -5  -2  -6 32849.5 1280.74   1
   5  -7  -6 35802.6 1545.46   3
   7  -5  -6 34083.6 1462.91   3
   2   5  -6 33413.0 1612.10   3
  -2   7  -6 32549.1 1696.35   3
  -7   2  -6 33282.1 1630.79   3
   5  -7  -6 34949.2 1703.76   2
  -7   2  -6 34850.8 1017.06   1
  -5  -2  -3 139186. 2194.87   1
   7  -5  -3 143304. 2451.23   4
  -2   7  -3 138447. 1503.97   1
   5  -7  -3 142257. 2128.02   3
   2   5  -3 134599. 2451.13   4
  -7   2  -3 134889. 2294.47   3
   5  -7  -3 148578. 1998.17   2
   5  -7  -3 148026. 2444.16   4
   7  -5  -3 137263. 1909.20   3
  -7   2  -3 141047. 1780.85   1
  -2   7  -3 137315. 2734.03   2
   2   5  -3 150007. 2896.50   2
   2   5  -3 139487. 1954.19   1
   5  -7  -3 141441. 2566.12   1
   7  -5  -3 139821. 2268.75   2
  -2   7  -3 147353. 2471.93   4
   2   5  -3 136085. 2190.40   3
  -2   7  -3 140739. 2401.75   3
  -5  -2  -3 136255. 2262.84   3
  -7   2   0 172571. 2175.34   1
  -2   7   0 179028. 1497.83   2
  -2   7   0 171482. 2168.18   1
   7  -5   0 172606. 1833.72   2
   2   5   0 173336. 1910.04   4
   2   5   0 170778. 2166.12   1
  -5  -2   0 172372. 1968.94   2
   5  -7   0 178195. 2232.30   1
  -5  -2   0 176569. 2242.62   1
  -2   7   0 170472. 1289.07   4
  -5  -2   0 172379. 2033.73   4
   7  -5   0 178013. 1538.97   4
   2   5   0 176010. 1711.65   2
  -7   2   0 176933. 2049.77   2
  -7   2   0 168121. 1915.33   4
  -7   2   3 141023. 1920.50   3
   2   5   3 134415. 2242.61   1
  -7   2   3 130533. 2546.91   2
  -2   7   3 140139. 2272.62   3
  -2   7   3 137877. 2428.96   1
  -5  -2   3 138268. 2751.52   2
  -7   2   3 134458. 2525.15   4
  -5  -2   3 136250. 1880.66   3
  -5  -2   3 138689. 2608.65   4
  -5  -2   3 142191. 2198.01   1
   5  -7   3 137411. 2259.39   3
   2   5   3 137449. 2327.38   3
   7  -5   3 145278. 2329.59   3
  -5  -2   6 22331.3 1548.54   4
  -2   7   6 24506.0 1240.88   1
  -5  -2   6 21458.0 1533.49   2
  -7   2   6 21905.3 1205.55   3
  -7   2   6 20698.8 1456.91   2
   2   5   6 22706.7 1140.00   1
  -7   2   6 21108.8 1446.24   4
  -2   7   9 33261.1 1694.42   1
  -5  -2   9 34263.8 2196.03   2
   2   5   9 32702.2 1544.26   1
  -5  -2   9 30671.2 1500.79   1
  -7   2   9 36099.1 2299.18   4
  -7   2   9 33907.8 1725.50   1
  -5  -2   9 37352.1 2351.69   4
  -7   2   9 31402.7 2069.14   2
   4  -7 -10 7951.41 1273.70   3
  -3   7 -10 6773.05 1307.33   3
  -7   3 -10 6191.85 1269.95   3
   7  -4 -10 7373.81 1171.58   3
   3   4 -10 6421.51 1213.47   3
  -4  -3 -10 6687.02 1181.37   3
  -3   7  -7 1922.54 808.984   3
  -4  -3  -7 1547.12 671.467   3
  -4  -3  -7 2352.80 570.929   1
   4  -7  -7 2406.93 713.879   3
   3   4  -7 1498.13 640.875   3
   7  -4  -7 1933.10 619.966   3
  -7   3  -7 3629.55 807.164   3
   4  -7  -4 41807.1 1377.57   2
   3   4  -4 40682.3 1759.81   2
   3   4  -4 39591.8 1371.26   3
  -7   3  -4 42453.3 913.000   1
  -4  -3  -4 41078.8 1294.85   1
  -3   7  -4 36676.3 1423.87   3
   7  -4  -4 42205.4 1273.91   3
   7  -4  -4 39801.1 1562.89   4
  -7   3  -4 39424.1 1468.71   3
   3   4  -4 40037.8 1596.19   4
  -3   7  -4 40295.2 1575.12   4
   4  -7  -4 38244.6 1472.25   1
   4  -7  -4 40892.1 1566.78   4
   7  -4  -4 40514.5 1533.08   2
  -4  -3  -4 42842.7 1470.33   3
   4  -7  -4 40253.8 1353.95   3
  -3   7  -4 38031.2 1657.11   2
   4  -7  -1 80102.9 1651.57   1
  -7   3  -1 81939.8 1266.57   4
   3   4  -1 79542.9 1470.52   2
  -4  -3  -1 83752.4 1576.75   1
  -3   7  -1 85036.0 1471.95   2
  -3   7  -1 80753.5 1313.26   1
  -7   3  -1 78889.1 1367.08   2
  -4  -3  -1 83762.7 1236.94   2
  -3   7  -1 82486.0 1033.18   4
  -7   3  -1 80270.1 1353.11   1
   7  -4  -1 83159.2 1253.07   4
   4  -7  -1 82215.0 1068.36   4
   7  -4  -1 85728.6 1373.32   2
  -7   3  -1 81303.8 1219.91   3
  -4  -3  -1 83680.8 1378.29   4
   3   4  -1 82013.9 1388.63   4
   3   4  -1 79100.0 1462.41   1
  -4  -3  -1 82473.5 1190.23   3
  -7   3   2 22788.9 641.897   3
   3   4   2 23600.9 901.596   1
   7  -4   2 26828.4 877.223   3
  -4  -3   2 25282.6 1092.37   2
   4  -7   2 23784.5 631.249   1
   4  -7   2 24164.0 866.310   3
  -4  -3   2 24788.1 884.589   1
   3   4   2 25651.0 897.978   3
  -3   7   2 24711.2 843.355   3
  -3   7   2 20009.6 515.358   2
  -7   3   2 23807.4 951.000   4
  -4  -3   2 24705.3 695.644   3
   4  -7   2 24783.3 843.900   4
  -3   7   2 22765.3 1010.42   1
  -4  -3   2 23566.4 962.229   4
  -7   3   2 24662.9 975.115   2
  -7   3   5 12517.9 1057.53   4
  -4  -3   5 13017.3 775.900   1
  -3   7   5 12157.8 899.824   1
   3   4   5 12089.2 797.035   1
  -4  -3   5 10654.6 1051.28   4
  -4  -3   5 11261.4 840.365   3
  -7   3   5 10701.0 1003.23   2
  -7   3   5 12456.1 847.480   3
  -4  -3   5 10870.1 1091.05   2
   7  -4   5 10499.0 379.739   1
  -3   7   8 12815.8 1095.96   1
  -7   3   8 13093.8 1355.30   2
   3   4   8 15374.5 1013.31   1
  -4  -3   8 13637.1 1425.80   4
  -4  -3   8 12408.6 890.087   1
  -7   3   8 15931.2 1480.86   4
  -7   3   8 13388.2 1123.23   1
  -4  -3   8 14729.9 1515.41   2
   3   4  11 5666.20 838.409   1
  -3   7  11 4612.79 877.117   1
  -7   3  11 2704.59 856.046   1
  -4  -3  11 4206.37 758.665   1
   3  -7 -11 5339.90 1158.98   3
   7  -3 -11 2521.06 1016.11   3
  -7   4 -11 3800.02 1066.51   3
  -4   7 -11 6170.27 1344.32   3
   4   3 -11 4904.88 1278.58   3
  -3  -4 -11 5366.73 1248.39   3
  -7   4  -8 12654.4 1339.36   3
   3  -7  -8 13021.5 1222.63   3
   4   3  -8 12376.8 1243.32   3
  -3  -4  -8 10981.6 1013.84   1
  -3  -4  -8 14525.5 1345.07   3
   7  -3  -8 13219.8 1190.27   3
  -4   7  -8 13724.0 1375.59   3
  -7   4  -5 13367.1 1027.84   3
   3  -7  -5 14937.6 987.701   2
   4   3  -5 12643.7 935.467   3
   7  -3  -5 11694.4 823.630   3
   3  -7  -5 11729.1 944.857   1
  -4   7  -5 13094.0 1042.56   3
  -3  -4  -5 13239.4 967.104   3
  -3  -4  -5 12279.7 964.835   2
   7  -3  -5 9940.18 977.936   2
   3  -7  -5 13011.4 1097.76   4
  -3  -4  -5 12927.1 864.629   1
  -7   4  -5 11064.5 418.364   1
   3  -7  -5 12136.8 900.258   3
  -4   7  -5 13110.0 1098.69   4
   7  -3  -2 34866.4 1071.46   2
   4   3  -2 33588.5 867.608   3
   3  -7  -2 34431.8 986.870   3
   4   3  -2 31847.2 1076.40   4
   3  -7  -2 30135.6 627.815   2
   7  -3  -2 33664.8 714.791   3
   4   3  -2 31431.8 995.427   1
  -4   7  -2 34195.5 1200.69   2
  -4   7  -2 33426.7 712.983   1
  -7   4  -2 34585.2 772.117   1
  -3  -4  -2 33012.7 962.998   3
   4   3  -2 32916.9 1218.10   2
  -7   4  -2 31447.2 1003.02   3
   3  -7  -2 32463.4 1173.98   1
  -3  -4  -2 35497.6 1139.18   1
   7  -3  -2 33716.6 1030.30   4
  -4   7  -2 33169.4 997.688   4
  -4   7  -2 33789.1 1064.18   3
  -3  -4   1 76648.2 1441.96   1
  -7   4   1 78299.1 850.519   3
   3  -7   1 77389.7 1303.76   1
  -7   4   1 75780.1 1337.54   2
  -4   7   1 76916.1 1616.57   1
   4   3   1 75293.6 1474.49   1
  -3  -4   1 77638.1 1526.92   2
  -3  -4   1 77209.6 1393.29   4
   4   3   1 77160.7 1216.30   3
   4   3   1 77330.1 1194.07   2
  -7   4   1 77849.3 1285.98   4
   3  -7   1 78203.8 1084.20   4
   7  -3   1 77034.8 1122.84   3
   7  -3   4 37099.9 1384.44   3
   4   3   4 39245.8 1448.01   3
  -3  -4   4 37720.1 1641.73   2
  -4   7   4 36405.1 1410.89   1
   3  -7   4 36059.8 1431.45   4
   3  -7   4 32344.8 1273.45   3
  -4   7   4 35604.4 1289.60   3
  -4   7   4 35503.5 1196.23   2
  -3  -4   4 35989.4 1090.90   1
  -7   4   4 36181.4 1516.57   4
  -3  -4   4 37942.8 1571.53   4
   3  -7   4 31038.1 580.557   1
  -3  -4   4 35534.8 1217.26   3
  -7   4   4 33735.8 1438.04   2
  -7   4   4 35769.3 1192.81   3
   4   3   4 35469.2 1152.56   1
   7  -3   4 36085.1 801.712   1
  -7   4   7 2777.00 797.879   4
  -3  -4   7 2170.05 844.907   4
   4   3   7 2939.45 501.764   1
  -7   4   7 2092.03 749.727   2
  -4   7   7 2203.15 637.464   1
  -3  -4   7 2601.29 477.214   1
  -7   4   7 1894.52 662.235   1
   7  -3   7 2203.76 298.651   1
  -3  -4   7 1623.85 768.600   2
  -4   7  10 6380.06 928.047   1
  -7   4  10 6000.48 940.987   1
   4   3  10 7194.19 831.078   1
  -3  -4  10 5416.01 731.527   1
  -2  -5  -9 35705.7 2029.45   3
   5   2  -9 39404.4 2155.07   3
  -7   5  -9 35814.3 2209.25   3
   2  -7  -9 40256.6 2160.00   3
  -5   7  -9 35202.5 2155.69   3
   7  -2  -9 42482.9 2109.12   3
   2  -7  -6 27212.4 1400.12   3
  -7   5  -6 27221.4 1537.42   3
   2  -7  -6 24374.1 1346.51   1
  -5   7  -6 22327.4 1421.56   3
   7  -2  -6 27103.7 1334.18   3
   5   2  -6 24410.3 1335.05   3
   2  -7  -6 25774.3 1392.50   2
  -2  -5  -6 24367.0 1406.62   2
  -2  -5  -6 25939.3 1400.76   3
  -2  -5  -6 25465.9 1270.63   1
  -5   7  -3 139363. 2404.29   3
  -5   7  -3 147479. 2460.99   4
  -7   5  -3 142159. 2444.45   3
   5   2  -3 131670. 2604.90   2
   2  -7  -3 142499. 1939.77   2
   2  -7  -3 147209. 2270.73   3
   5   2  -3 141053. 2045.58   3
   7  -2  -3 147213. 2536.66   4
   2  -7  -3 144092. 2562.43   1
   5   2  -3 145829. 2532.55   4
  -2  -5  -3 143500. 2266.98   3
  -2  -5  -3 148954. 2423.75   1
   7  -2  -3 144037. 2604.99   2
   7  -2  -3 147829. 1929.82   3
  -7   5  -3 143953. 1294.37   1
  -5   7  -3 148916. 2780.29   2
   5   2   0 183032. 2167.42   4
   2  -7   0 189799. 2281.20   1
  -2  -5   0 192745. 2355.95   1
   5   2   0 180793. 2203.39   1
  -7   5   0 183779. 1561.05   4
   5   2   0 193870. 2064.03   2
   2  -7   0 186567. 1523.71   2
   2  -7   0 192068. 1324.65   4
   7  -2   0 182472. 2041.06   4
   7  -2   0 192099. 2113.09   2
  -5   7   0 186793. 2268.03   1
  -2  -5   0 180691. 1908.84   4
   5   2   0 191393. 1406.52   3
  -7   5   0 196488. 1929.39   2
  -2  -5   0 193096. 1904.07   2
  -5   7   3 131941. 2097.86   3
   7  -2   3 135046. 1670.74   1
   2  -7   3 135785. 1511.69   1
  -2  -5   3 135187. 2746.88   2
  -7   5   3 131361. 1943.34   3
   5   2   3 138200. 2339.98   3
   5   2   3 129549. 2006.18   1
  -7   5   3 131426. 2318.80   2
  -2  -5   3 136120. 2022.65   3
   2  -7   3 137911. 2601.34   2
  -5   7   3 133707. 2516.59   1
   7  -2   3 145221. 2381.98   3
  -5   7   3 133643. 1950.57   2
   2  -7   3 127783. 2140.72   3
   2  -7   3 134147. 2353.02   4
  -7   5   3 140651. 2529.75   4
  -2  -5   3 137139. 2528.64   4
  -2  -5   3 132696. 1894.57   1
  -2  -5   6 29379.8 1751.19   2
  -5   7   6 26977.3 1357.15   2
  -7   5   6 31171.0 1509.39   1
  -5   7   6 32945.6 1516.40   1
  -2  -5   6 30043.6 1047.09   1
   5   2   6 32568.7 1187.10   1
  -7   5   6 34305.0 1776.05   4
   2  -7   6 28883.8 689.622   1
  -7   5   6 28388.3 1552.64   2
  -2  -5   6 29978.2 1681.16   4
   7  -2   6 31619.3 903.249   1
   2  -7   6 33195.0 1681.62   4
  -5   7   9 9508.67 1062.59   1
   7  -2   9 9099.59 574.010   1
   5   2   9 10094.3 838.472   1
  -2  -5   9 7774.68 719.567   1
  -7   5   9 10452.5 1097.48   1
  -2  -5   9 9884.53 803.583   1
  -7   5   9 9643.62 1321.23   2
  -2  -5   9 10025.3 1408.17   2
  -2  -5   9 11697.1 1382.52   4
   1  -7 -10 3591.90 1004.65   3
  -6   7 -10 4965.85 1195.61   3
   7  -1 -10 3949.89 968.307   3
   6   1 -10 3190.07 1013.72   3
  -1  -6 -10 1651.04 900.150   3
  -7   6 -10 5305.36 1177.79   3
   1  -7  -7 14815.9 1198.69   3
  -1  -6  -7 13559.8 1196.64   3
   6   1  -7 14134.0 1157.22   3
  -6   7  -7 13757.5 1304.30   3
   7  -1  -7 14864.8 1173.58   3
  -7   6  -7 14281.7 1290.16   3
   7  -1  -4 22708.0 960.887   3
   1  -7  -4 21376.9 1128.09   1
   6   1  -4 22871.9 999.677   3
  -1  -6  -4 20109.0 1012.06   3
  -1  -6  -4 22096.4 1133.88   1
   7  -1  -4 21328.1 1208.82   4
   6   1  -4 23470.8 1224.92   4
   7  -1  -4 22663.2 1292.77   2
  -7   6  -4 22110.1 1187.36   4
  -6   7  -4 22273.2 1200.63   4
   6   1  -4 21138.0 1255.59   2
  -7   6  -4 21775.7 1163.46   3
  -6   7  -4 18883.0 1067.05   3
  -6   7  -4 20052.7 1291.94   2
  -1  -6  -4 22344.8 1013.95   2
   1  -7  -4 23585.5 1004.02   2
   1  -7  -4 17167.6 952.286   3
  -1  -6  -1 709.568 377.861   1
  -6   7  -1 336.475 257.073   1
   1  -7  -1 351.807 367.364   1
  -1  -6  -1 648.272 186.546   2
   6   1  -1 57.7482 344.412   1
   7  -1  -1 199.930 293.824   2
   6   1  -1 689.739 302.710   4
  -1  -6  -1 265.384 242.944   4
  -6   7  -1 663.565 281.884   3
   6   1  -1 373.172 355.995   2
  -7   6  -1 506.810 243.413   3
   1  -7  -1 746.751 223.333   4
   6   1  -1 276.633 137.267   3
   7  -1  -1 587.949 283.861   4
  -6   7   2 12896.2 602.969   3
   1  -7   2 12621.7 705.219   4
  -1  -6   2 13699.7 879.159   2
  -1  -6   2 12406.4 727.216   4
  -6   7   2 13268.7 826.713   1
  -7   6   2 12573.8 554.971   3
  -7   6   2 12552.5 705.236   4
   1  -7   2 13182.5 598.227   1
   7  -1   2 13791.5 694.431   3
   6   1   2 13396.2 688.795   1
  -6   7   2 13428.6 574.709   2
   6   1   2 14486.6 691.869   3
  -7   6   2 12839.8 639.135   2
  -1  -6   2 13583.7 654.739   1
   1  -7   2 12817.4 833.913   2
  -6   7   2 13902.5 675.579   4
   7  -1   2 12399.8 612.925   1
  -1  -6   5 14433.0 1232.88   2
   1  -7   5 16802.8 1259.19   2
  -7   6   5 15063.8 1064.16   2
  -6   7   5 18267.3 1060.78   3
  -1  -6   5 15505.1 956.563   3
   6   1   5 17262.8 804.017   1
  -6   7   5 15154.9 1004.32   2
  -1  -6   5 15464.3 717.585   1
  -7   6   5 16476.4 1081.93   1
   7  -1   5 17073.8 739.579   1
  -7   6   5 17791.3 1235.10   4
  -6   7   5 19236.8 1167.40   1
  -7   6   5 15162.3 932.991   3
  -1  -6   5 15498.2 1189.91   4
  -6   7   5 15938.0 1076.97   4
   1  -7   5 16839.2 623.623   1
   1  -7   5 18030.7 1204.74   4
  -1  -6   8 4808.85 529.889   1
   1  -7   8 4122.14 390.838   1
  -1  -6   8 5301.67 554.172   1
   7  -1   8 5526.33 539.549   1
  -6   7   8 5973.50 878.693   1
   1  -7   8 3817.79 401.692   1
   6   1   8 4242.43 571.262   1
  -1  -6   8 6321.64 1109.89   2
  -6   7   8 4816.46 846.304   2
  -7   6   8 4570.30 861.790   2
  -7   6   8 5669.17 870.179   1
  -1  -6   8 5092.71 1032.43   4
  -6   7  11 8364.15 1096.46   1
  -7   6  11 10150.2 1212.09   1
  -7   7 -11-207.409 1032.87   3
   0  -7 -11-337.595 970.652   3
   7   0 -11 380.227 927.552   3
   7   0  -8 86946.7 2821.02   3
   0  -7  -8 87352.5 2881.92   3
  -7   7  -5-174.543 546.212   4
   0  -7  -5 157.732 433.408   3
  -7   7  -5 721.798 563.581   3
   0  -7  -5-21.1563 449.897   1
   0  -7  -5 171.334 470.878   2
   7   0  -5-311.332 434.243   3
   0  -7  -2 79474.1 1535.16   3
   7   0  -2 81620.9 1698.44   4
  -7   7  -2 83316.4 1231.48   1
   7   0  -2 83425.7 1816.50   2
  -7   7  -2 83908.8 1675.08   3
   0  -7  -2 83680.3 1868.63   1
   0  -7  -2 80824.3 927.269   2
   7   0  -2 82353.3 1137.96   3
   7   0   1 339.594 321.243   4
   7   0   1 442.109 245.963   3
   0  -7   1 262.494 311.743   1
  -7   7   1 392.995 235.348   2
   0  -7   1 349.371 256.191   4
   7   0   1 246.522 272.153   2
  -7   7   1 89.8273 224.147   4
   7   0   1 220.575 328.949   1
   0  -7   1 532.605 383.363   2
  -7   7   1-175.657 414.143   1
   0  -7   4 11289.1 1005.37   2
   0  -7   4 11852.6 796.126   3
   0  -7   4 12573.6 992.875   4
   7   0   4 12440.2 900.384   3
  -7   7   4 11864.8 843.477   2
  -7   7   4 12912.9 987.657   4
  -7   7   4 13062.2 941.026   1
   7   0   4 12211.9 664.667   1
  -7   7   4 12526.7 782.089   3
   0  -7   4 12261.5 608.641   1
  -7   7   7-55.5166 607.106   1
   0  -7   7-306.616 675.796   4
   0  -7   7-868.024 763.328   2
   7   0   7-148.583 340.752   1
  -7   7   7-27.7664 636.931   2
   0  -7   7 35.6354 305.780   1
   7   0  10 40952.0 1369.31   1
  -7   7  10 45131.2 2136.06   1
   8  -8 -11-8.14582 832.055   3
  -8   0 -11-159.544 865.770   3
   0   8 -11-21.8374 1056.21   3
  -8   0  -8 30385.4 1824.03   3
   8  -8  -8 30437.9 1659.08   3
   0   8  -8 31276.8 1975.37   3
  -8   0  -8 27354.2 1239.78   1
  -8   0  -5-5.02879 464.311   3
   0   8  -5-442.088 478.402   3
   8  -8  -5 226.490 414.982   3
   8  -8  -5-249.091 451.714   2
   8  -8  -5-619.019 572.335   4
  -8   0  -5 88.6849 379.470   1
  -8   0  -2 188764. 2550.86   1
  -8   0  -2 182485. 2236.00   3
   0   8  -2 189873. 2914.57   2
   8  -8  -2 186464. 2176.31   4
   8  -8  -2 188842. 2011.30   2
   0   8  -2 188674. 2560.24   3
   0   8  -2 183668. 2337.73   1
   0   8  -2 185392. 2338.15   4
  -8   0  -2 180676. 2464.44   4
  -8   0  -2 185612. 2422.76   2
   0   8   1 423.323 284.361   3
  -8   0   1 30.4686 338.106   1
   0   8   1 257.808 370.926   1
  -8   0   1 377.093 384.805   2
  -8   0   1 499.372 333.592   4
   0   8   1 226.996 138.432   2
  -8   0   4 60327.4 1425.56   3
  -8   0   4 58553.6 2005.78   4
   0   8   4 55899.4 1733.75   3
   0   8   4 59447.4 1803.00   1
   8  -8   4 55888.9 1699.24   3
  -8   0   4 58327.1 2071.23   2
  -8   0   7 5.82359 670.207   4
  -8   0   7 245.140 707.792   2
   0   8   7-94.6355 510.147   1
  -8   0  10 24605.6 2096.98   2
  -8   0  10 25400.4 2210.04   4
   0   8  10 23249.9 1511.97   1
  -8   0  10 20879.6 1471.07   1
  -8   1  -9 15791.3 1505.86   3
   8  -7  -9 13721.8 1351.59   3
   1   7  -9 13459.6 1497.20   3
  -1   8  -9 14154.4 1544.63   3
  -7  -1  -9 14236.2 1408.03   3
   7  -8  -9 13457.5 1326.09   3
   1   7  -6 2695.06 686.195   3
   7  -8  -6 3985.29 752.044   2
  -7  -1  -6 4453.43 612.523   1
   7  -8  -6 3944.87 667.110   3
  -7  -1  -6 2017.71 597.357   3
  -1   8  -6 4934.92 786.766   3
  -8   1  -6 3144.85 491.045   1
   8  -7  -6 4022.90 651.051   3
  -8   1  -6 2680.26 689.877   3
   1   7  -3 17747.5 763.661   1
  -1   8  -3 17559.2 949.102   3
   7  -8  -3 16795.0 730.941   2
  -1   8  -3 16025.1 1058.78   2
  -7  -1  -3 18683.0 892.857   1
   1   7  -3 16751.7 892.448   3
   7  -8  -3 16434.2 763.425   3
  -1   8  -3 14754.6 871.717   4
  -8   1  -3 17070.0 927.260   3
   8  -7  -3 17154.8 748.083   3
   7  -8  -3 16121.8 881.083   4
  -7  -1  -3 15646.4 849.562   3
   1   7  -3 16378.6 1100.16   2
   8  -7  -3 16839.0 827.579   2
   1   7  -3 18236.6 939.694   4
   8  -7  -3 17806.6 914.994   4
  -8   1  -3 17622.3 801.658   1
  -1   8  -3 16342.1 689.983   1
  -7  -1   0 281.912 327.914   4
  -7  -1   0 368.156 344.282   1
   1   7   0 489.403 243.423   4
   1   7   0 67.8325 362.573   1
   1   7   0 215.603 218.837   2
  -8   1   0 621.296 346.546   1
  -1   8   0 718.868 342.177   1
   8  -7   0 384.716 178.636   4
  -1   8   0 655.201 216.962   4
  -1   8   0 555.547 219.894   2
  -7  -1   0 127.694 297.495   2
  -8   1   0 382.663 303.603   2
  -8   1   0 485.608 283.844   4
   1   7   3 72183.9 1722.48   3
  -7  -1   3 72876.6 1773.86   1
   1   7   3 73309.8 1836.78   1
   8  -7   3 70871.2 1677.28   3
  -7  -1   3 70940.1 1982.70   4
  -8   1   3 67695.5 1973.80   2
  -1   8   3 71625.2 1863.63   1
  -7  -1   3 68679.5 2027.30   2
  -7  -1   3 70118.8 1296.61   3
  -1   8   3 65029.3 1627.53   3
  -8   1   3 73746.0 1310.32   3
   7  -8   3 67104.3 1658.20   3
  -8   1   3 72629.7 1962.97   4
   1   7   6 6210.33 764.902   1
  -7  -1   6 5687.75 973.820   4
  -8   1   6 5821.58 715.975   3
  -1   8   6 5719.54 761.964   1
  -8   1   6 5649.39 917.943   2
  -7  -1   6 6114.73 1014.47   2
  -8   1   6 5524.94 1020.99   4
  -8   1   9 56825.0 2242.09   1
   1   7   9 58216.3 2153.88   1
  -7  -1   9 56941.6 2782.38   2
  -7  -1   9 54971.5 2105.18   1
  -8   1   9 62461.1 2977.22   4
  -1   8   9 57807.2 2204.29   1
  -7  -1   9 61557.9 2981.78   4
  -8   1   9 57361.2 2811.54   2
  -6  -2 -10 16576.6 1634.90   3
   2   6 -10 13891.5 1599.12   3
  -2   8 -10 14899.0 1625.97   3
   8  -6 -10 21525.8 1690.01   3
   6  -8 -10 19562.1 1646.75   3
  -8   2 -10 16661.1 1692.47   3
   6  -8  -7 77373.4 2398.57   3
  -8   2  -7 70286.0 1549.06   1
   2   6  -7 70285.6 2529.45   3
  -2   8  -7 71755.3 2644.71   3
  -6  -2  -7 72820.3 2044.42   1
   8  -6  -7 75632.0 2352.84   3
  -8   2  -7 77043.9 2712.96   3
  -6  -2  -7 73166.8 2513.55   3
  -2   8  -4 21298.0 1347.14   2
  -6  -2  -4 21766.7 1096.89   3
   6  -8  -4 21435.6 976.933   2
   2   6  -4 16380.8 1093.10   4
   2   6  -4 20018.2 1313.74   2
   6  -8  -4 20138.0 1129.42   4
   8  -6  -4 19049.7 889.316   3
  -2   8  -4 21087.7 1194.62   4
  -8   2  -4 22105.1 822.106   1
   8  -6  -4 19725.7 1062.65   2
   2   6  -4 19902.8 1037.63   3
  -2   8  -4 19686.6 1080.13   3
  -6  -2  -4 21371.9 983.905   1
  -8   2  -4 20559.7 1109.59   3
   6  -8  -4 19317.7 954.730   3
   8  -6  -4 23017.8 1192.55   4
  -2   8  -4 18645.8 636.755   1
   2   6  -1 25643.7 832.905   4
   6  -8  -1 25658.4 551.153   2
  -8   2  -1 27762.2 859.709   4
  -6  -2  -1 25958.3 822.501   2
   6  -8  -1 25504.0 559.936   4
  -2   8  -1 25495.0 896.803   2
  -6  -2  -1 23801.3 832.753   4
  -6  -2  -1 26615.5 695.838   3
   2   6  -1 23646.2 903.599   1
   8  -6  -1 25586.7 691.247   4
   8  -6  -1 26522.0 797.772   2
  -8   2  -1 21751.0 816.484   2
  -2   8  -1 26723.7 680.201   4
  -2   8  -1 23792.0 856.734   1
  -8   2  -1 25151.2 910.906   1
   6  -8  -1 25856.3 1059.35   1
  -8   2  -1 24938.1 685.470   3
   2   6  -1 25486.4 921.679   2
  -6  -2  -1 26303.9 978.006   1
   2   6   2 48123.6 1245.36   3
  -2   8   2 48942.8 1448.19   1
  -2   8   2 45668.7 1221.51   3
  -6  -2   2 45265.0 1497.08   2
  -8   2   2 46665.0 1372.97   4
  -8   2   2 45924.2 813.627   3
  -6  -2   2 44635.3 1346.88   4
   8  -6   2 47552.8 1183.01   3
   6  -8   2 46681.9 1213.35   3
  -8   2   2 47779.6 1439.72   2
  -6  -2   2 47482.1 1325.87   1
   2   6   2 45060.3 1333.41   1
  -6  -2   5 11458.3 1090.50   4
  -8   2   5 9089.72 1010.77   2
  -6  -2   5 10258.0 768.236   3
   2   6   5 10777.8 825.577   1
  -6  -2   5 10379.9 772.825   1
  -2   8   5 10441.5 879.905   1
  -6  -2   5 10475.4 1051.69   2
  -8   2   5 10718.7 1071.29   4
  -8   2   5 12414.1 848.485   3
  -8   2   8 12217.1 1331.26   2
  -6  -2   8 10950.7 1361.57   4
   2   6   8 14235.0 1080.87   1
  -8   2   8 15427.4 1521.04   4
  -2   8   8 15195.6 1173.20   1
  -8   2   8 14422.2 1176.87   1
  -6  -2   8 13730.3 1457.59   2
  -8   2  11 11328.3 1252.12   1
   2   6  11 13142.8 1168.35   1
  -6  -2  11 12924.5 1694.06   2
  -6  -2  11 13611.0 1205.65   1
  -2   8  11 13255.1 1285.85   1
   3   5 -11 8484.51 1476.40   3
   8  -5 -11 8279.82 1257.73   3
  -3   8 -11 6673.95 1306.47   3
  -8   3 -11 7881.22 1397.21   3
   5  -8 -11 8262.38 1321.98   3
  -5  -3 -11 11522.7 1530.29   3
  -8   3  -8 30308.7 1885.81   3
  -5  -3  -8 23113.1 1320.54   1
  -3   8  -8 24673.7 1754.35   3
   5  -8  -8 27857.2 1638.69   3
   3   5  -8 26994.2 1739.04   3
   8  -5  -8 28613.0 1624.94   3
  -5  -3  -8 28977.2 1748.55   3
   5  -8  -5 37486.9 1683.55   4
  -5  -3  -5 37904.9 1547.96   3
   8  -5  -5 37368.7 1362.86   3
  -3   8  -5 36768.2 1679.82   4
   8  -5  -5 39402.1 1672.08   2
   3   5  -5 36877.8 1524.67   3
   5  -8  -5 35817.9 1420.28   3
   5  -8  -5 39865.1 1523.57   2
  -8   3  -5 35090.2 1564.89   3
  -3   8  -5 36577.3 1598.29   3
  -5  -3  -5 37943.6 1390.62   1
  -8   3  -5 37940.5 975.549   1
  -5  -3  -2 24404.9 805.702   2
   5  -8  -2 24713.0 1118.81   1
  -3   8  -2 25155.2 854.281   4
  -8   3  -2 27483.5 950.866   3
   5  -8  -2 25431.0 859.725   4
   3   5  -2 25674.0 851.832   3
   8  -5  -2 26197.1 659.535   3
   8  -5  -2 25112.2 872.794   4
  -3   8  -2 26311.6 1102.12   2
   3   5  -2 24058.0 1062.03   2
   8  -5  -2 25361.9 893.980   2
   3   5  -2 25656.5 955.070   4
   5  -8  -2 25274.8 552.431   2
  -5  -3  -2 25092.8 859.582   3
  -8   3  -2 26375.7 814.260   1
  -3   8  -2 24332.9 737.781   1
  -5  -3  -2 25896.2 1011.03   1
   3   5  -2 24939.3 916.044   1
  -3   8  -2 26351.7 1000.79   3
  -5  -3   1 89600.3 1643.68   4
   3   5   1 84164.7 1213.00   2
   3   5   1 86929.5 1721.26   1
  -3   8   1 83926.1 1758.01   1
  -8   3   1 90830.5 1622.59   2
  -5  -3   1 90012.9 1740.50   2
   5  -8   1 86816.0 1481.33   1
  -5  -3   1 92324.7 1742.13   1
   8  -5   1 91474.6 1290.58   3
   3   5   1 90171.6 1424.86   3
  -8   3   1 88036.9 1523.55   4
   3   5   4 108663. 2377.93   3
  -8   3   4 105799. 2584.48   4
  -5  -3   4 104850. 2674.56   2
  -3   8   4 105339. 2238.97   3
  -5  -3   4 104928. 1973.29   3
  -5  -3   4 105268. 2029.70   1
  -5  -3   4 102562. 2565.56   4
  -3   8   4 105304. 2389.84   1
   8  -5   4 104569. 2264.63   3
   5  -8   4 105506. 2243.69   3
  -8   3   4 110760. 2016.57   3
  -8   3   4 102567. 2534.27   2
   3   5   4 103164. 2105.77   1
  -5  -3   7 13340.8 911.543   1
  -5  -3   7 11329.8 1277.85   2
   3   5   7 13500.0 962.424   1
  -8   3   7 11125.3 1222.97   4
  -8   3   7 11611.5 1263.17   2
  -5  -3   7 12798.8 1304.08   4
  -8   3   7 10486.1 982.285   1
  -3   8   7 12878.5 1077.22   1
  -5  -3  10 4800.52 810.034   1
  -5  -3  10 4245.00 1285.85   2
  -5  -3  10 3829.52 1057.40   4
  -3   8  10 5009.94 930.502   1
  -8   3  10 5286.85 1141.10   2
  -8   3  10 4927.50 994.013   1
   3   5  10 4444.52 778.850   1
  -8   4  -9 12553.3 1477.46   3
   4  -8  -9 13318.8 1371.70   3
   4   4  -9 13713.6 1391.86   3
  -4   8  -9 11484.8 1401.65   3
  -4  -4  -9 15562.6 1447.17   3
   8  -4  -9 15028.0 1364.18   3
  -8   4  -6 8611.77 948.582   3
  -4  -4  -6 9024.56 850.199   1
   8  -4  -6 8280.26 812.352   3
  -4  -4  -6 9537.99 980.650   3
   4  -8  -6 9513.00 868.053   3
   4  -8  -6 8575.18 935.336   2
   4   4  -6 8764.55 931.726   3
  -4   8  -6 8947.06 1013.07   3
  -8   4  -6 7279.72 419.619   1
   4   4  -3 80848.2 1932.36   4
   8  -4  -3 84644.0 1899.61   2
  -8   4  -3 88781.3 1935.92   3
  -4   8  -3 83365.9 2175.66   2
  -8   4  -3 84214.0 1284.60   1
  -4   8  -3 89563.1 1925.03   4
   4  -8  -3 86535.1 1906.84   4
  -4  -4  -3 87579.7 1901.22   1
   4  -8  -3 84197.2 1730.11   3
   8  -4  -3 84873.5 1440.96   3
   4  -8  -3 86427.6 1464.76   2
   8  -4  -3 80539.2 1897.48   4
   4   4  -3 84148.1 2162.61   2
   4  -8  -3 86343.9 2084.03   1
  -4   8  -3 83617.1 1084.74   1
   4   4  -3 82252.7 1663.26   3
  -4  -4  -3 83192.2 1775.60   3
  -4   8   0 8257.76 607.689   1
   4   4   0 8142.68 623.654   1
   8  -4   0 8023.65 467.368   4
  -4  -4   0 7655.31 618.014   1
  -4  -4   0 6826.62 525.032   4
   8  -4   0 6702.22 479.491   2
  -8   4   0 7158.40 449.713   4
   4   4   0 6094.36 512.482   4
  -8   4   0 7602.84 318.071   3
  -8   4   0 8160.42 520.499   2
   4   4   0 7243.63 478.737   2
   4  -8   0 6772.23 578.862   1
  -4  -4   0 7858.59 511.320   2
   4   4   3 73981.6 1674.69   1
  -8   4   3 79400.1 1439.03   3
  -4   8   3 75390.4 1328.35   2
  -4  -4   3 75972.9 1609.76   1
  -4   8   3 76227.0 1689.41   3
  -4   8   3 73860.4 1929.88   1
   4  -8   3 77850.1 1063.93   1
  -4  -4   3 75060.0 1461.68   3
  -4  -4   3 74041.4 2137.56   2
   8  -4   3 72770.7 1689.84   3
   4  -8   3 72095.2 1685.55   3
   4  -8   3 77102.3 1774.99   4
   4   4   3 76505.3 1778.35   3
  -8   4   3 73503.0 1929.29   4
  -8   4   3 74713.3 1901.76   2
  -4  -4   3 75598.9 1968.91   4
  -4  -4   6 6757.90 1039.17   4
  -4  -4   6 7952.10 1052.60   2
  -4  -4   6 6360.00 614.880   1
  -4   8   6 7494.01 838.410   1
   8  -4   6 6028.78 342.131   1
  -8   4   6 8292.11 1064.99   4
  -8   4   6 6251.94 918.055   2
   4   4   6 8193.11 733.443   1
  -4  -4   9 12240.3 993.414   1
  -4   8   9 12119.4 1145.16   1
  -8   4   9 14819.8 1576.02   4
   4   4   9 10475.7 938.075   1
  -8   4   9 11088.8 1130.45   1
  -8   4   9 13091.0 1447.87   2
  -4  -4   9 12090.5 1484.83   2
  -4  -4   9 11728.4 1460.66   4
   5   3 -10 2745.21 1056.57   3
  -5   8 -10 3720.32 1185.55   3
  -8   5 -10 3913.67 1136.74   3
   8  -3 -10 3745.20 1020.90   3
   3  -8 -10 2367.55 916.549   3
  -3  -5 -10 5622.38 1100.14   3
  -3  -5  -7 17211.7 1302.03   3
   3  -8  -7 15987.7 1218.13   3
  -3  -5  -7 13798.9 1082.59   1
   5   3  -7 14794.6 1219.28   3
  -8   5  -7 14837.8 1268.69   3
   8  -3  -7 16159.1 1175.18   3
  -5   8  -7 14527.1 1328.03   3
  -8   5  -4 107336. 2404.96   3
   8  -3  -4 106485. 1936.15   3
   8  -3  -4 106898. 2461.87   4
  -3  -5  -4 107567. 2260.60   1
   3  -8  -4 101871. 2378.40   1
  -3  -5  -4 95587.1 2128.88   3
   3  -8  -4 99686.1 2129.75   3
  -5   8  -4 107534. 2431.36   3
   5   3  -4 104853. 2137.86   3
   3  -8  -4 107587. 2493.93   4
  -5   8  -4 112844. 2541.09   4
   5   3  -4 101256. 2465.06   4
   5   3  -4 94540.2 2517.35   2
   3  -8  -4 109743. 2040.97   2
  -8   5  -4 102410. 1206.07   1
   8  -3  -4 104039. 2471.23   2
  -5   8  -4 105144. 2654.45   2
  -8   5  -1 90685.3 1366.75   3
  -3  -5  -1 92375.6 1505.24   4
  -8   5  -1 90080.6 1269.94   4
   8  -3  -1 94280.7 1635.42   2
   5   3  -1 90452.3 1597.85   4
   5   3  -1 90914.8 1663.63   2
  -5   8  -1 88450.1 1470.54   1
  -8   5  -1 88437.8 1479.14   2
   3  -8  -1 95189.7 1878.26   1
   8  -3  -1 89641.9 1475.72   4
  -3  -5  -1 90646.3 1287.08   2
  -3  -5  -1 93934.5 1819.61   1
   5   3  -1 90101.4 1703.13   1
  -5   8  -1 88718.7 1025.34   4
  -5   8   2 21855.3 610.267   2
   3  -8   2 23763.5 868.121   4
   8  -3   2 24979.9 862.915   3
  -3  -5   2 24597.7 920.097   1
  -8   5   2 23430.4 669.897   3
   3  -8   2 23951.9 748.225   1
  -3  -5   2 22820.8 963.546   4
  -8   5   2 22763.0 909.507   2
  -5   8   2 23684.8 850.792   3
   5   3   2 23743.1 922.596   1
  -8   5   2 24080.9 948.303   4
   3  -8   2 23616.4 1000.74   2
  -5   8   2 23458.5 1071.15   1
   5   3   2 25019.4 908.355   3
  -3  -5   2 24735.6 1117.15   2
  -8   5   5 37097.3 1372.12   3
  -3  -5   5 35495.5 1784.24   2
  -8   5   5 37534.3 1707.77   4
  -8   5   5 33533.0 1567.97   2
   3  -8   5 37724.0 1631.65   4
   3  -8   5 29955.6 623.819   1
  -5   8   5 35224.8 1340.32   2
  -5   8   5 36849.5 1547.81   1
  -3  -5   5 34686.6 1149.75   1
   5   3   5 37557.5 1283.38   1
  -3  -5   5 34051.5 1670.91   4
   8  -3   5 35737.1 883.645   1
  -3  -5   5 32384.4 1313.81   3
   8  -3   8 24696.6 770.803   1
  -8   5   8 25247.4 1733.65   2
  -3  -5   8 22352.0 1090.79   1
  -3  -5   8 25783.0 1895.58   2
  -5   8   8 24618.0 1495.16   1
   5   3   8 25278.8 1223.89   1
  -8   5   8 28165.0 1647.96   1
  -8   5   8 28151.3 1837.49   4
  -3  -5   8 28834.0 2021.81   4
  -5   8  11 5986.03 1050.03   1
   5   3  11 5455.72 790.705   1
  -8   5  11 6349.57 1041.00   1
  -2  -6 -11 16779.3 1761.97   3
   6   2 -11 14754.2 1639.90   3
  -6   8 -11 15803.3 1912.14   3
   2  -8 -11 20813.9 1860.63   3
  -8   6 -11 18375.8 1976.13   3
   8  -2 -11 19842.8 1722.77   3
  -8   6  -8 15760.1 1423.83   3
   2  -8  -8 19499.8 1435.49   3
   8  -2  -8 17453.0 1322.40   3
   6   2  -8 17579.4 1385.37   3
  -2  -6  -8 13601.4 1261.28   3
  -6   8  -8 19159.3 1643.67   3
  -2  -6  -5 12228.5 935.032   1
   2  -8  -5 10926.0 843.543   2
  -8   6  -5 11256.2 1028.15   4
   8  -2  -5 12597.9 857.376   3
   6   2  -5 12419.3 882.759   3
   2  -8  -5 10331.3 918.821   1
  -2  -6  -5 11958.9 925.402   3
   2  -8  -5 12578.3 925.178   3
  -2  -6  -5 11513.1 922.341   2
  -8   6  -5 9832.62 935.826   3
  -6   8  -5 12816.0 1056.31   3
  -6   8  -5 12251.2 1042.58   4
   2  -8  -5 11258.9 1042.74   4
  -6   8  -2 47200.7 1319.54   3
   8  -2  -2 50601.2 1391.78   2
   6   2  -2 47145.1 1459.33   2
   2  -8  -2 51037.1 1524.81   1
   8  -2  -2 49599.6 1316.38   4
  -8   6  -2 49169.4 1277.05   3
  -6   8  -2 49696.6 1172.36   4
  -2  -6  -2 51457.6 1485.22   1
  -2  -6  -2 48747.9 1205.83   3
  -2  -6  -2 48468.3 901.792   2
   6   2  -2 48147.2 971.541   3
  -6   8  -2 50659.1 969.321   1
   8  -2  -2 49537.2 790.476   3
   6   2  -2 47386.6 1322.40   4
  -2  -6   1 35405.5 1162.17   2
  -8   6   1 32778.1 897.206   2
   6   2   1 34073.3 925.676   2
   6   2   1 35588.9 1010.22   4
  -2  -6   1 32644.7 961.018   4
  -6   8   1 33283.3 1179.67   1
   6   2   1 34208.8 1092.61   1
  -2  -6   1 32377.1 1065.29   1
  -6   8   1 29941.8 629.709   4
  -8   6   1 33352.9 854.889   4
   2  -8   1 31896.1 987.365   2
   2  -8   1 33791.1 1011.97   1
   8  -2   1 32838.0 772.825   3
   2  -8   1 35116.5 826.009   4
  -6   8   1 32157.2 645.898   2
   6   2   1 33425.7 839.792   3
   8  -2   4 22037.2 1150.35   3
  -8   6   4 20643.0 1121.16   2
  -6   8   4 20293.8 1000.78   3
   8  -2   4 19988.1 747.240   1
  -2  -6   4 20460.8 848.893   1
   2  -8   4 18585.1 983.522   3
  -2  -6   4 23896.8 1378.28   2
   6   2   4 20182.5 910.500   1
  -8   6   4 21870.6 997.744   3
  -2  -6   4 19992.0 957.423   3
  -8   6   4 21434.5 1175.86   4
   2  -8   4 19436.8 1090.30   4
   6   2   4 22360.4 1129.49   3
  -6   8   4 21718.5 1197.86   1
  -2  -6   4 21980.6 1230.37   4
   2  -8   4 17078.3 1123.10   2
  -6   8   4 19449.0 941.209   2
   2  -8   4 21023.6 663.287   1
   6   2   7 70488.6 1818.66   1
  -8   6   7 69266.7 2682.07   4
  -2  -6   7 70847.4 2812.86   2
  -2  -6   7 68776.8 2707.91   4
  -8   6   7 70705.0 2356.50   1
  -6   8   7 68215.5 2331.08   1
  -2  -6   7 66185.7 1614.22   1
   2  -8   7 60799.0 1030.94   1
  -8   6   7 65152.4 2436.30   2
  -6   8   7 74340.2 2384.04   2
   2  -8   7 70222.0 2600.13   4
   8  -2   7 71988.0 1442.28   1
   6   2  10 16208.3 1053.63   1
  -2  -6  10 14854.3 935.320   1
  -8   6  10 17355.6 1472.98   1
  -6   8  10 16058.2 1376.19   1
  -8   6  10 15360.4 1556.92   2
   8  -1  -9 67211.1 2600.83   3
  -1  -7  -9 64207.3 2703.93   3
  -8   7  -9 60208.0 2817.11   3
   7   1  -9 68471.0 2740.89   3
   1  -8  -9 62058.5 2600.86   3
  -7   8  -6 7957.79 962.545   3
  -1  -7  -6 7753.20 849.442   3
   8  -1  -6 8934.01 858.254   3
   1  -8  -6 9040.19 924.060   2
  -8   7  -6 8658.05 1015.86   3
   1  -8  -6 8517.78 895.441   3
   7   1  -6 9534.57 906.227   3
  -1  -7  -6 9000.58 936.305   2
   1  -8  -3 75736.8 1358.14   2
   8  -1  -3 75053.0 1376.12   3
  -1  -7  -3 78909.6 1963.25   1
  -1  -7  -3 76833.5 1731.81   3
  -7   8  -3 81146.9 1870.43   4
   1  -8  -3 73234.2 1713.45   3
   7   1  -3 76712.7 1446.31   3
  -8   7  -3 78820.6 1882.15   3
   7   1  -3 75827.0 2024.47   2
   8  -1  -3 72292.1 1836.58   4
  -7   8  -3 73365.8 1825.54   3
  -7   8  -3 67095.5 946.435   1
   1  -8  -3 74938.4 1980.41   1
   8  -1  -3 77730.3 1986.34   2
   7   1  -3 74525.4 1870.55   4
  -8   7  -3 75016.6 1005.99   1
  -1  -7   0 948.881 274.245   4
  -1  -7   0 849.702 307.335   2
   1  -8   0 471.107 203.143   4
   1  -8   0 373.780 260.156   2
   8  -1   0 769.148 310.051   4
   1  -8   0 581.833 366.790   1
   7   1   0 518.766 349.666   1
  -7   8   0 1143.68 237.492   2
  -8   7   0 479.724 218.503   2
  -1  -7   0 472.330 362.973   1
  -8   7   0 578.662 171.944   4
   7   1   0 522.748 283.864   2
   7   1   0 909.505 179.698   3
   8  -1   0 468.956 322.028   2
   7   1   0 805.374 361.833   4
  -7   8   0 108.792 341.705   1
  -1  -7   3 17084.7 761.477   1
  -7   8   3 16570.2 797.959   3
  -7   8   3 16629.9 807.363   2
  -8   7   3 17343.8 1049.06   1
   7   1   3 15693.7 786.494   1
  -1  -7   3 16057.1 964.500   4
  -1  -7   3 17508.9 1127.75   2
   1  -8   3 16522.3 697.267   1
  -8   7   3 15982.3 915.201   4
   8  -1   3 15074.4 712.640   1
   8  -1   3 17877.5 932.350   3
  -8   7   3 15688.2 746.159   3
  -7   8   3 17460.2 943.554   4
  -8   7   3 16644.6 867.694   2
  -1  -7   3 16389.1 805.369   3
   1  -8   3 17256.8 957.324   4
  -7   8   3 17416.4 1033.86   1
   7   1   3 18640.2 934.183   3
   1  -8   3 16381.5 838.701   3
   1  -8   3 16838.0 1052.99   2
  -1  -7   6 4542.44 932.533   2
  -7   8   6 5413.20 763.872   2
  -7   8   6 4548.17 751.298   1
   1  -8   6 4484.38 398.011   1
   1  -8   6 4818.68 919.559   2
  -8   7   6 5681.28 842.093   2
  -1  -7   6 5648.53 525.200   1
  -1  -7   6 6066.89 928.161   4
  -8   7   6 5642.91 865.322   4
  -8   7   6 5300.11 799.000   1
   7   1   6 5161.28 566.198   1
   8  -1   6 5600.02 523.247   1
   1  -8   6 5685.53 885.528   4
  -1  -7   9 13844.1 1555.26   2
  -7   8   9 11888.8 1218.23   1
  -1  -7   9 11803.4 1444.03   4
  -8   7   9 10554.2 1268.88   2
  -1  -7   9 10671.7 753.527   1
   8  -1   9 10441.7 705.595   1
   7   1   9 10508.3 814.815   1
   1  -8   9 7891.33 501.036   1
  -8   7   9 12044.7 1209.97   1
  -8   8 -10 21539.8 2003.26   3
   8   0 -10 26279.3 1853.83   3
   0  -8 -10 26865.3 1945.98   3
   0  -8  -7 45.4751 607.813   3
   8   0  -7 23.0076 576.992   3
  -8   8  -7-592.686 708.711   3
   0  -8  -4 59333.3 1876.95   1
   8   0  -4 58430.5 1878.08   4
   8   0  -4 53438.7 1968.96   2
   0  -8  -4 57899.4 1709.63   3
  -8   8  -4 56613.2 1862.93   4
  -8   8  -4 55213.9 1793.97   3
   0  -8  -4 56492.8 1475.31   2
   8   0  -4 56081.5 1453.65   3
  -8   8  -1 517.825 314.656   1
   8   0  -1-52.4151 300.283   4
   0  -8  -1-82.6774 240.196   4
   0  -8  -1 174.592 400.036   1
  -8   8  -1-95.3216 166.417   4
   8   0  -1 315.516 339.388   2
  -8   8  -1 255.028 284.011   3
   0  -8  -1-84.8936 172.429   2
   8   0   2 191180. 2496.50   1
   8   0   2 203161. 2477.26   3
  -8   8   2 192212. 2200.55   3
  -8   8   2 204348. 3154.63   1
  -8   8   2 193022. 2221.46   2
   0  -8   2 193314. 2591.42   4
  -8   8   2 195801. 2427.90   4
   0  -8   2 202472. 3045.80   2
   0  -8   2 197572. 2478.00   1
   0  -8   5 108.906 290.710   1
  -8   8   5 21.0016 423.429   3
  -8   8   5-326.743 474.421   2
   0  -8   5-36.0412 594.022   2
   0  -8   5-54.6604 541.164   4
  -8   8   5 230.251 505.845   1
   8   0   5-192.739 316.726   1
  -8   8   5-453.996 544.285   4
   0  -8   8 26311.4 1813.92   4
   0  -8   8 23461.6 894.651   1
   8   0   8 25047.6 1067.87   1
  -8   8   8 27223.0 1676.95   2
   0  -8   8 22448.9 1757.61   2
  -8   8   8 26119.4 1615.15   1
  -8   8  11-473.199 779.007   1
   0   9  -9 481.681 855.891   3
   9  -9  -9-615.906 735.759   3
  -9   0  -9 1579.97 909.099   3
   0   9  -6 8629.61 1002.94   3
   9  -9  -6 9375.33 868.719   3
  -9   0  -6 7721.28 933.724   3
   9  -9  -6 8349.11 945.087   2
  -9   0  -6 8611.24 746.571   1
   0   9  -3 343.330 327.904   1
  -9   0  -3 938.341 379.971   1
   9  -9  -3 344.031 317.874   3
   9  -9  -3-61.9614 390.517   4
  -9   0  -3 275.810 374.339   3
   0   9  -3 126.853 493.298   2
   9  -9  -3 58.2723 283.698   2
   0   9  -3 154.730 382.355   4
   0   9  -3 316.472 424.478   3
   0   9   0 33320.4 892.699   4
   0   9   0 34740.8 827.393   2
  -9   0   0 34678.3 1146.25   4
   0   9   0 35517.1 1224.33   1
  -9   0   0 35726.4 1239.14   1
  -9   0   0 36370.7 1176.69   2
   9  -9   3-136.189 345.332   3
  -9   0   3 142.347 237.933   3
  -9   0   3 83.0116 426.072   1
   0   9   3 518.724 399.589   3
  -9   0   3-13.7506 495.908   2
  -9   0   3-199.006 451.606   4
   0   9   3-479.509 459.659   1
   0   9   6 8443.03 892.779   1
  -9   0   6 7098.24 1055.75   2
  -9   0   6 7072.29 1067.83   4
  -9   0   6 8981.95 797.396   3
  -9   0   9 610.548 988.456   2
   0   9   9 478.464 681.422   1
  -9   0   9 822.611 706.173   1
  -9   0   9 1047.88 1071.67   4
   8  -9 -10 14943.4 1450.75   3
   1   8 -10 12040.1 1511.54   3
  -1   9 -10 11563.0 1595.71   3
  -9   1 -10 12107.5 1567.34   3
  -8  -1 -10 12220.9 1524.05   3
   9  -8 -10 12674.0 1390.54   3
  -1   9  -7 48263.0 2218.96   3
   1   8  -7 51498.9 2281.95   3
  -9   1  -7 47459.3 1483.70   1
  -9   1  -7 50362.8 2174.35   3
   8  -9  -7 53316.8 2006.28   3
  -8  -1  -7 47462.5 1652.40   1
   9  -8  -7 50313.1 1943.79   3
  -8  -1  -7 49905.1 2155.61   3
  -1   9  -4 15982.1 1020.02   4
   1   8  -4 15848.5 1051.56   4
  -9   1  -4 16208.1 1024.10   3
  -8  -1  -4 16816.1 924.586   1
   8  -9  -4 16015.9 1018.31   4
  -9   1  -4 15340.1 816.416   1
   9  -8  -4 15086.7 809.845   3
   9  -8  -4 14299.5 862.489   2
  -8  -1  -4 15047.4 955.114   3
   1   8  -4 14551.3 768.331   1
   8  -9  -4 14519.2 841.187   3
  -1   9  -4 14280.7 675.499   1
   8  -9  -4 15403.8 831.940   2
   1   8  -4 14883.8 957.572   3
   9  -8  -4 14827.5 989.415   4
   1   8  -4 15329.8 1221.84   2
  -1   9  -4 12957.3 944.893   3
  -1   9  -4 13658.8 1134.94   2
  -9   1  -1 61188.5 1041.46   3
  -9   1  -1 63917.6 1469.68   4
  -8  -1  -1 64429.2 1514.59   4
   1   8  -1 61733.4 1480.63   1
  -1   9  -1 62280.0 1472.36   1
  -8  -1  -1 64424.9 1582.57   1
   8  -9  -1 62865.2 1062.78   2
   1   8  -1 66720.1 1346.16   4
  -9   1  -1 64164.7 1544.55   1
  -8  -1  -1 63789.1 1057.78   3
  -8  -1  -1 63692.3 1420.27   2
   9  -8  -1 63213.6 1204.92   2
   1   8  -1 64283.0 1450.60   2
   9  -8  -1 63609.2 1000.10   4
  -1   9  -1 64262.1 1166.39   4
  -1   9  -1 61587.3 1421.13   2
  -9   1  -1 66856.9 1469.63   2
   8  -9  -1 60465.8 842.656   4
  -8  -1   2 21286.3 1039.65   4
  -8  -1   2 22912.8 1048.75   1
  -9   1   2 19656.5 1007.87   1
  -1   9   2 19580.0 1029.44   1
  -1   9   2 21165.8 910.767   3
  -8  -1   2 22013.8 1106.60   2
  -9   1   2 18500.9 443.068   3
   9  -8   2 20533.3 851.041   3
  -9   1   2 22539.4 1104.24   2
  -9   1   2 22827.9 1045.42   4
   1   8   2 20622.0 888.038   3
   1   8   2 19535.2 1007.07   1
  -9   1   5 28717.7 1620.55   2
  -8  -1   5 33868.7 1252.33   3
  -9   1   5 32306.5 1223.70   3
  -1   9   5 32230.9 1455.88   1
  -8  -1   5 29487.7 1328.91   1
  -8  -1   5 29398.3 1698.14   2
  -9   1   5 33123.5 1739.11   4
  -8  -1   5 31199.9 1687.72   4
   1   8   5 33921.5 1465.66   1
  -9   1   8 31518.0 2048.01   4
   1   8   8 30446.8 1563.44   1
  -8  -1   8 30343.5 2070.98   2
  -1   9   8 31369.8 1645.75   1
  -8  -1   8 30172.7 2070.98   4
  -9   1   8 32107.5 2096.80   2
  -8  -1  11 23026.0 2223.37   2
   1   8  11 18156.2 1444.98   1
  -8  -1  11 23041.4 2206.22   4
  -1   9  11 19438.7 1525.82   1
  -8  -1  11 18636.3 1462.45   1
  -9   1  11 17782.4 1525.91   1
  -9   1  11 22892.0 2117.31   4
  -9   1  11 22601.0 2105.80   2
  -7  -2 -11 18492.9 1857.02   3
   2   7 -11 21368.2 2059.57   3
   9  -7 -11 22228.7 1837.31   3
   7  -9 -11 23594.6 1897.30   3
  -9   2 -11 21563.6 2023.31   3
  -2   9 -11 21193.5 2060.05   3
  -2   9  -8 8474.15 1263.12   3
  -7  -2  -8 9306.80 1112.76   3
   9  -7  -8 11085.5 1117.09   3
  -9   2  -8 10488.2 1288.73   3
  -7  -2  -8 8937.83 912.216   1
   7  -9  -8 12262.5 1153.55   3
   2   7  -8 10901.1 1287.75   3
  -9   2  -8 8777.37 674.061   1
   9  -7  -5 56794.6 1675.58   3
  -2   9  -5 57962.3 2029.15   3
   7  -9  -5 61191.3 1800.22   3
   7  -9  -5 60912.1 1798.71   2
  -7  -2  -5 62853.8 1762.80   1
  -9   2  -5 62975.5 2072.32   3
  -2   9  -5 59473.7 2075.42   4
   9  -7  -5 61402.3 1994.25   2
  -9   2  -5 60248.7 1458.21   1
  -7  -2  -5 60810.9 1950.11   3
   7  -9  -5 63949.2 2138.27   4
   2   7  -5 56250.0 1898.68   3
  -2   9  -2 62626.8 1331.59   4
  -9   2  -2 62243.6 1422.84   4
  -9   2  -2 67113.5 1484.54   1
   7  -9  -2 66582.3 1313.91   4
  -7  -2  -2 67864.1 1640.64   1
  -9   2  -2 66353.5 1412.75   3
   2   7  -2 66036.6 1497.65   4
   2   7  -2 65496.5 1465.92   3
  -7  -2  -2 65510.9 1418.36   2
  -2   9  -2 63748.4 1350.21   1
   2   7  -2 66108.5 1510.00   1
   9  -7  -2 68140.4 1383.19   2
  -2   9  -2 67009.4 1739.36   2
   7  -9  -2 66900.3 1030.57   2
  -7  -2  -2 63797.7 1359.76   3
   9  -7  -2 63222.4 1332.46   4
  -9   2  -2 65766.9 1498.34   2
  -7  -2  -2 59946.3 1460.06   4
   2   7  -2 68056.8 1744.91   2
  -2   9  -2 61694.2 1548.03   3
  -7  -2   1 53351.1 1452.62   1
   2   7   1 56268.2 1241.09   3
  -7  -2   1 47005.3 1294.83   4
   2   7   1 55914.3 945.692   2
  -2   9   1 55119.8 1543.32   1
   2   7   1 46132.0 1370.24   1
  -9   2   1 56151.2 1446.88   2
  -7  -2   1 55826.6 1470.52   2
  -9   2   1 57827.4 1381.70   4
  -7  -2   4 1007.05 601.503   4
  -7  -2   4 1067.70 349.327   3
  -9   2   4 2242.43 613.975   4
   7  -9   4 1301.39 488.678   3
   2   7   4 345.378 428.086   1
  -2   9   4 504.135 437.641   3
   2   7   4 1488.24 484.785   3
   9  -7   4 777.621 385.454   3
  -2   9   4 978.344 523.795   1
  -7  -2   4 1738.36 670.466   2
  -7  -2   4 1471.08 457.115   1
  -9   2   4 1456.09 384.102   3
  -9   2   4 1798.13 671.985   2
  -9   2   7 3824.36 931.880   2
  -9   2   7 3962.55 954.058   4
   2   7   7 4902.31 756.002   1
  -7  -2   7 5453.35 1024.99   2
  -7  -2   7 3649.10 954.557   4
  -2   9   7 3823.06 741.291   1
  -9   2  10 5620.42 964.093   1
  -2   9  10 6903.46 1010.43   1
  -7  -2  10 6195.81 1450.98   4
  -9   2  10 8126.36 1417.55   4
   2   7  10 6696.33 936.125   1
  -7  -2  10 7779.93 1375.79   2
  -9   2  10 5171.54 1176.68   2
  -7  -2  10 5150.17 905.531   1
  -6  -3  -9 766.431 783.470   3
   9  -6  -9 486.915 719.044   3
  -9   3  -9 440.894 767.475   3
  -3   9  -9 683.514 882.368   3
   6  -9  -9-74.6724 664.239   3
   3   6  -9 685.300 820.970   3
   3   6  -6 40934.8 1784.13   3
  -9   3  -6 42519.9 1137.40   1
   9  -6  -6 46179.8 1661.19   3
  -6  -3  -6 44742.6 1835.33   3
  -9   3  -6 42510.2 1888.34   3
  -6  -3  -6 44346.2 1598.72   1
   6  -9  -6 46653.3 1829.43   2
  -3   9  -6 41768.0 2002.26   3
   6  -9  -6 42175.4 1689.00   3
   6  -9  -3 18733.9 1108.20   1
   6  -9  -3 20417.9 990.920   4
  -6  -3  -3 20497.4 982.426   1
   9  -6  -3 21025.4 1008.75   4
   6  -9  -3 19352.5 865.149   3
   3   6  -3 20606.0 912.782   1
   9  -6  -3 19278.0 924.303   2
   9  -6  -3 20217.4 743.684   3
  -9   3  -3 22505.1 1021.90   3
   6  -9  -3 20892.8 712.957   2
   3   6  -3 18564.6 1160.57   2
  -9   3  -3 21861.2 820.060   1
  -3   9  -3 19336.4 1025.47   3
  -6  -3  -3 21119.0 957.302   3
   3   6  -3 19303.1 1008.09   4
  -3   9  -3 20137.5 994.313   4
   3   6  -3 20539.0 927.100   3
  -3   9  -3 20911.3 1185.33   2
  -3   9  -3 20207.0 697.052   1
  -3   9   0 83780.4 1720.66   1
   3   6   0 85232.2 1365.46   2
  -9   3   0 85092.5 1616.98   2
  -3   9   0 84112.5 1163.78   2
   9  -6   0 88415.1 1498.32   2
  -6  -3   0 86227.5 1628.05   4
   3   6   0 83865.7 1550.39   4
   9  -6   0 87579.5 1269.01   4
  -6  -3   0 85255.0 1778.83   1
  -9   3   0 83900.9 1488.44   4
  -3   9   0 82568.0 946.390   4
  -6  -3   0 87949.3 1605.21   2
   6  -9   0 83641.7 1736.97   1
  -9   3   0 85488.0 1730.23   1
   3   6   0 81837.6 1717.69   1
  -6  -3   3 1635.33 409.964   1
   9  -6   3 1807.99 443.486   3
   6  -9   3 1548.17 446.232   3
   3   6   3 1354.78 435.475   1
  -3   9   3 1660.03 421.254   3
  -9   3   3 1092.69 304.116   3
  -6  -3   3 1659.51 553.888   2
  -3   9   3 1606.82 504.218   1
  -6  -3   3 1877.19 343.003   3
  -9   3   3 1376.84 492.841   2
  -9   3   3 1736.13 523.584   4
   3   6   3 2295.13 491.547   3
  -6  -3   3 1190.33 483.354   4
  -9   3   6 23618.1 1571.55   4
  -3   9   6 25126.1 1366.27   1
  -9   3   6 28236.6 1356.71   3
  -6  -3   6 21789.3 1584.53   2
  -6  -3   6 22797.2 1171.25   1
  -6  -3   6 24009.5 1642.72   4
   3   6   6 24637.7 1218.49   1
  -9   3   6 24330.4 1607.85   2
   3   6   9 1231.49 600.014   1
  -3   9   9 94.7805 649.851   1
  -9   3   9 1319.65 929.760   4
  -9   3   9-45.1260 789.060   2
  -6  -3   9-396.517 954.113   4
  -6  -3   9 979.892 871.571   2
  -9   3   9 1449.83 704.437   1
  -5  -4 -10 8297.31 1236.13   3
  -4   9 -10 7182.64 1319.14   3
   4   5 -10 5932.44 1183.34   3
  -9   4 -10 9084.91 1385.47   3
   9  -5 -10 6978.20 1100.58   3
   5  -9 -10 6705.36 1128.97   3
  -4   9  -7 58270.2 2485.54   3
  -9   4  -7 62868.5 2442.25   3
   9  -5  -7 64220.1 2155.28   3
  -5  -4  -7 63735.0 2340.83   3
   4   5  -7 61057.9 2327.69   3
  -5  -4  -7 59580.9 2004.13   1
   5  -9  -7 65426.5 2260.60   3
  -4   9  -4 455.293 457.431   4
   4   5  -4 1006.53 445.221   3
   4   5  -4 759.962 510.614   4
   5  -9  -4 1422.03 556.177   1
   9  -5  -4 1484.09 384.186   3
   5  -9  -4 1630.92 445.932   3
  -9   4  -4 1837.19 329.220   1
  -4   9  -4 1701.29 640.584   2
  -5  -4  -4 1399.39 507.008   1
  -5  -4  -4 1081.90 478.834   3
   5  -9  -4 1426.16 431.483   2
  -4   9  -4 1086.61 204.023   1
  -4   9  -4 964.477 488.479   3
   4   5  -4 1636.75 622.376   2
  -9   4  -4 1550.57 546.100   3
   5  -9  -4 1629.62 512.720   4
   9  -5  -4 1888.45 514.812   2
   9  -5  -4 1377.71 515.678   4
   9  -5  -1 46371.2 1048.11   4
   4   5  -1 47845.0 1319.38   1
  -9   4  -1 47180.9 982.461   3
  -9   4  -1 46028.6 1187.98   1
  -9   4  -1 45782.6 1178.27   2
  -5  -4  -1 48012.0 1112.78   2
  -5  -4  -1 47159.4 1202.14   4
  -5  -4  -1 46008.1 978.371   3
  -9   4  -1 45166.1 1070.56   4
  -5  -4  -1 44231.2 1339.91   1
   9  -5  -1 46503.8 1154.22   2
   5  -9  -1 43399.2 783.583   4
   4   5  -1 48736.6 1224.78   4
  -4   9  -1 46928.7 771.334   4
   4   5  -1 46158.1 1234.87   2
  -4   9  -1 46057.7 1169.74   1
  -4   9  -1 44614.8 1171.71   2
   5  -9  -1 47238.4 1426.04   1
  -4   9   2 3850.72 447.103   3
  -9   4   2 4060.26 320.731   3
  -5  -4   2 3820.08 570.924   4
  -4   9   2 3875.41 574.313   1
  -5  -4   2 3850.86 525.182   1
   5  -9   2 4692.34 408.653   1
   4   5   2 3645.92 477.655   3
  -9   4   2 4206.78 579.594   2
   5  -9   2 3789.14 425.531   4
  -9   4   2 5235.80 564.286   4
   4   5   2 4507.26 544.601   1
   9  -5   2 4486.11 443.685   3
  -5  -4   2 4256.22 630.203   2
  -9   4   5 33973.2 1303.53   3
  -5  -4   5 29799.8 1202.22   1
  -5  -4   5 31444.3 1707.58   2
  -9   4   5 32439.8 1640.10   2
  -5  -4   5 30473.0 1615.25   4
  -9   4   5 30611.7 1629.21   4
   4   5   5 31434.8 1273.77   1
  -5  -4   5 28839.1 1217.04   3
  -4   9   5 30153.8 1448.92   1
  -5  -4   8 5218.49 1111.78   4
  -9   4   8 3807.84 918.367   2
  -5  -4   8 2928.94 621.342   1
  -9   4   8 4059.15 846.504   1
  -5  -4   8 3496.66 1020.92   2
   4   5   8 3477.69 643.886   1
  -4   9   8 3098.26 789.984   1
  -9   4   8 3493.75 969.596   4
  -9   4  11 17624.8 1503.63   1
  -5  -4  11 22320.7 2120.70   2
   4   5  11 18591.8 1313.86   1
  -5  -4  11 18386.9 1269.30   1
  -4   9  11 17354.4 1470.61   1
   9  -4 -11 28193.4 2035.64   3
  -4  -5 -11 25342.3 2036.00   3
  -5   9 -11 20951.8 2059.82   3
   4  -9 -11 22237.6 1928.29   3
  -9   5 -11 24998.2 2181.10   3
   5   4 -11 21752.6 1943.38   3
  -5   9  -8 5680.05 1085.33   3
   9  -4  -8 4985.65 859.138   3
   4  -9  -8 4761.11 948.477   3
  -4  -5  -8 4960.16 994.910   3
  -9   5  -8 6295.68 1035.30   3
   5   4  -8 4576.93 934.495   3
  -9   5  -5 28004.7 727.439   1
   9  -4  -5 32153.4 1257.93   3
   4  -9  -5 29895.9 1348.99   3
   5   4  -5 30323.8 1361.26   3
  -4  -5  -5 30954.0 1398.58   3
   4  -9  -5 34112.7 1359.11   2
   4  -9  -5 30504.3 1534.27   4
  -9   5  -5 32351.4 1538.64   3
  -4  -5  -5 30404.5 1382.67   1
  -5   9  -5 29643.9 1495.20   3
  -5   9  -5 30690.0 1567.81   4
   5   4  -2 7743.98 632.210   1
  -9   5  -2 5695.84 515.601   3
  -4  -5  -2 6381.04 564.445   4
  -5   9  -2 5583.85 487.136   4
  -5   9  -2 5488.28 407.489   1
  -5   9  -2 5813.21 563.116   3
   5   4  -2 5854.52 635.499   2
  -4  -5  -2 6004.47 631.156   1
  -5   9  -2 6340.31 633.120   2
   9  -4  -2 6136.02 319.782   3
   4  -9  -2 6951.35 725.033   1
  -9   5  -2 6736.86 451.089   1
   9  -4  -2 5824.77 531.967   4
  -4  -5  -2 5646.25 416.328   2
  -4  -5  -2 6224.36 503.865   3
   9  -4  -2 5879.83 575.885   2
   5   4  -2 7030.32 486.885   3
   5   4  -2 6040.89 581.686   4
   9  -4   1 48283.7 937.495   3
  -9   5   1 49429.1 1231.50   2
   4  -9   1 46693.2 1208.37   1
   5   4   1 46825.5 1337.97   1
  -4  -5   1 50211.0 1384.51   2
   5   4   1 50392.9 1229.35   4
  -4  -5   1 48992.3 1245.63   4
  -4  -5   1 50523.3 1376.76   1
  -5   9   1 47375.3 1427.67   1
   5   4   1 49585.1 1085.22   2
  -9   5   1 48035.9 703.893   3
   4  -9   1 47452.7 874.033   4
  -9   5   1 51511.8 1185.36   4
   5   4   1 48195.3 1064.48   3
   4  -9   4 935.430 456.303   4
   4  -9   4 708.322 201.832   1
  -9   5   4 942.990 515.026   2
   5   4   4 901.159 477.377   3
   4  -9   4 977.974 438.332   3
   9  -4   4 1470.92 292.721   1
  -9   5   4 1319.75 536.918   4
   9  -4   4 1267.38 471.921   3
  -5   9   4 1317.59 451.174   3
  -4  -5   4 327.483 470.492   4
  -5   9   4 1028.65 494.559   1
  -9   5   4 882.374 373.946   3
  -5   9   4 1809.67 408.510   2
  -4  -5   4 1701.96 683.677   2
  -4  -5   4 726.898 354.607   1
  -4  -5   4 543.989 348.108   3
   5   4   4 1115.10 393.580   1
  -4  -5   7 58491.1 2500.77   4
  -4  -5   7 59728.0 2624.69   2
  -4  -5   7 54321.9 1653.08   1
   5   4   7 61271.5 1854.99   1
  -9   5   7 51850.3 2306.84   2
   9  -4   7 53070.2 992.702   1
  -9   5   7 65237.3 2649.57   4
  -9   5   7 59229.4 2233.56   1
  -5   9   7 65170.3 2266.25   1
  -4  -5  10 8168.41 1439.98   2
  -9   5  10 5706.91 1012.86   1
  -4  -5  10 6309.21 1288.37   4
  -4  -5  10 4915.05 735.261   1
  -9   5  10 7351.72 1323.12   2
   5   4  10 5533.44 830.759   1
  -5   9  10 7165.90 1046.46   1
  -6   9  -9 1239.22 926.136   3
  -9   6  -9 506.687 844.336   3
   6   3  -9 1423.46 808.875   3
   3  -9  -9-308.980 715.441   3
  -3  -6  -9 1203.70 820.816   3
   9  -3  -9 883.715 715.674   3
   6   3  -6 27866.3 1424.61   3
  -3  -6  -6 27184.1 1525.55   2
  -9   6  -6 30675.7 1647.63   3
  -6   9  -6 26512.6 1598.01   3
   3  -9  -6 30243.5 1482.59   2
   3  -9  -6 30158.0 1490.74   3
  -3  -6  -6 30738.9 1543.32   3
   9  -3  -6 32052.2 1393.69   3
  -3  -6  -6 27251.6 1408.58   1
  -6   9  -3 1160.20 456.343   4
  -6   9  -3 1864.48 497.522   3
   3  -9  -3 2501.41 566.771   1
   6   3  -3 1258.47 455.809   4
   3  -9  -3 1229.02 391.495   3
   6   3  -3 1605.86 370.969   3
  -3  -6  -3 1525.93 504.486   1
   9  -3  -3 1409.91 301.142   3
  -6   9  -3 1284.47 511.072   2
  -9   6  -3 1614.85 264.552   1
   9  -3  -3 1354.75 446.898   2
  -9   6  -3 2045.15 504.090   3
  -6   9  -3 1912.84 242.900   1
   9  -3  -3 1522.50 454.358   4
  -3  -6  -3 1837.08 435.858   3
   6   3  -3 1620.12 565.770   2
   3  -9  -3 1536.72 305.595   2
   9  -3   0 107914. 1726.14   4
  -3  -6   0 102254. 1630.39   2
  -3  -6   0 102514. 1629.42   4
  -3  -6   0 106548. 2000.62   1
   6   3   0 104134. 1239.02   3
  -6   9   0 103229. 1922.50   1
  -9   6   0 105988. 1258.64   3
   6   3   0 107631. 1726.93   2
  -9   6   0 106955. 1647.99   2
  -9   6   0 106371. 1395.67   4
   3  -9   0 108420. 1972.91   1
   6   3   0 101852. 1849.06   4
   9  -3   0 109460. 1795.70   2
   3  -9   0 105667. 1049.18   4
   6   3   3 19987.3 1007.79   3
  -6   9   3 18985.6 1103.51   1
  -3  -6   3 19005.9 888.658   1
   6   3   3 17824.1 875.791   1
  -6   9   3 18505.1 749.071   2
   3  -9   3 18278.0 953.197   4
  -9   6   3 18964.7 765.492   3
  -3  -6   3 20097.8 1196.77   2
   3  -9   3 17339.5 1081.29   2
   9  -3   3 19355.7 756.737   1
   9  -3   3 19536.9 939.132   3
   3  -9   3 19385.0 705.267   1
  -3  -6   3 18469.6 1065.06   4
  -9   6   3 20106.3 1045.92   4
  -6   9   3 19684.1 901.499   3
  -9   6   3 18645.4 978.095   2
   9  -3   6 42662.3 1046.68   1
  -9   6   6 43897.9 2032.01   4
  -9   6   6 42287.4 1829.94   1
   6   3   6 42922.9 1444.02   1
  -3  -6   6 37796.9 1290.76   1
  -3  -6   6 39493.4 2033.71   2
   3  -9   6 34526.1 696.505   1
  -9   6   6 41300.4 1888.11   2
  -3  -6   6 38305.1 1945.51   4
  -6   9   6 39525.2 1581.31   2
  -6   9   6 42489.1 1797.15   1
   3  -9   6 41310.0 1871.79   4
  -3  -6   9 573.287 830.632   4
  -3  -6   9 1091.38 951.199   2
  -6   9   9 1.50804 676.104   1
  -3  -6   9 679.849 492.106   1
   9  -3   9 536.168 260.361   1
   6   3   9 280.245 510.964   1
  -9   6   9 637.804 732.589   1
  -9   6   9-534.546 821.820   2
   7   2 -10 6909.39 1202.68   3
   2  -9 -10 6906.11 1190.71   3
   9  -2 -10 8439.54 1224.75   3
  -2  -7 -10 6671.24 1203.18   3
  -7   9 -10 7037.12 1362.85   3
  -9   7 -10 5580.06 1261.09   3
  -7   9  -7 4376.68 887.125   3
   7   2  -7 4455.19 765.986   3
   9  -2  -7 5109.96 799.231   3
  -9   7  -7 5593.09 945.691   3
  -2  -7  -7 3608.95 800.673   3
   2  -9  -7 2850.24 735.002   3
   7   2  -4 1407.36 421.901   3
  -9   7  -4 1566.96 526.788   3
  -7   9  -4 1402.60 614.208   2
   7   2  -4 632.304 478.140   4
  -2  -7  -4 1187.44 532.598   1
   9  -2  -4 771.738 493.907   4
   7   2  -4 938.192 589.480   2
  -7   9  -4 1474.77 528.165   4
   2  -9  -4 1643.95 459.789   3
   2  -9  -4 1015.08 517.314   1
  -9   7  -4 886.149 158.475   1
  -7   9  -4 726.958 483.143   3
  -2  -7  -4 1069.74 419.566   3
   9  -2  -4 1454.91 400.523   3
   2  -9  -4 776.036 358.778   2
   9  -2  -4 1327.17 516.809   2
   2  -9  -1 54071.7 947.901   4
  -2  -7  -1 55008.6 1552.80   1
  -7   9  -1 52963.9 1265.39   1
   9  -2  -1 56259.9 1398.93   2
  -9   7  -1 53300.5 1158.60   3
  -7   9  -1 53427.5 1269.16   3
   7   2  -1 51319.4 1339.27   2
   7   2  -1 56150.1 1377.50   4
   2  -9  -1 52072.7 1515.03   1
   9  -2  -1 53335.9 1295.39   4
  -2  -7  -1 53760.1 990.080   2
  -2  -7  -1 54422.0 1207.26   4
   7   2  -1 50993.3 1460.17   1
  -9   7  -1 52995.7 946.773   4
   9  -2   2 65080.8 1417.28   3
  -7   9   2 61784.4 1117.62   2
   7   2   2 59829.6 1521.76   1
   2  -9   2 63749.2 1388.90   1
  -9   7   2 60229.6 1410.70   2
   9  -2   2 60418.9 1403.81   1
  -7   9   2 63953.6 1805.65   1
  -7   9   2 63303.4 1364.32   3
   7   2   2 65892.2 1477.15   3
   2  -9   2 61657.6 1668.68   2
   2  -9   2 61630.5 1426.01   4
  -9   7   2 58019.6 1432.64   4
  -2  -7   2 59864.4 1474.91   1
  -7   9   2 60225.4 1261.13   4
  -2  -7   2 61229.3 1536.88   4
  -2  -7   2 62457.1 1780.99   2
  -9   7   2 60554.9 1149.82   3
  -7   9   5 55761.0 1758.41   2
  -9   7   5 51770.6 1864.16   2
  -9   7   5 53937.0 1680.87   3
  -7   9   5 56744.1 2020.55   1
  -2  -7   5 60104.1 2170.74   4
   2  -9   5 54349.2 1106.91   1
   2  -9   5 56181.2 2002.31   4
  -9   7   5 51048.2 1936.11   1
  -2  -7   5 52490.2 2221.55   2
  -2  -7   5 54713.4 1437.13   1
  -9   7   5 60643.9 2096.10   4
   7   2   5 52232.4 1474.88   1
   2  -9   5 59191.6 2203.84   2
   9  -2   5 56158.2 1306.92   1
  -2  -7   8 7523.34 684.092   1
  -7   9   8 9118.75 1080.90   1
  -9   7   8 9758.00 1183.45   2
  -2  -7   8 8796.52 1303.45   2
   9  -2   8 7887.63 583.381   1
  -7   9   8 10254.3 1074.55   2
   2  -9   8 5820.00 342.615   1
  -9   7   8 9833.32 1101.94   1
  -9   7   8 8327.80 1191.77   4
   7   2   8 9581.99 806.094   1
   2  -9   8 5050.08 349.356   1
  -2  -7   8 11065.4 1394.13   4
  -9   7  11 16299.7 1503.69   1
  -7   9  11 13625.6 1435.07   1
   1  -9 -11 20305.8 1878.19   3
  -9   8 -11 18427.6 1996.14   3
   8   1 -11 24225.9 1988.10   3
   9  -1 -11 24150.2 1935.20   3
  -8   9 -11 21548.3 2139.72   3
  -1  -8 -11 24086.4 1990.71   3
   8   1  -8 30603.9 1714.17   3
   9  -1  -8 35704.1 1779.65   3
   1  -9  -8 30286.3 1756.27   3
  -9   8  -8 31177.1 1947.92   3
  -8   9  -8 35514.0 2136.44   3
  -1  -8  -8 31455.2 1834.37   3
  -9   8  -5 29985.7 1530.31   3
   8   1  -5 29089.8 1240.62   3
  -9   8  -5 32081.1 1603.35   4
   1  -9  -5 30590.5 1403.90   3
  -1  -8  -5 32105.3 1344.65   2
   9  -1  -5 32850.7 1305.81   3
  -1  -8  -5 27901.8 1429.51   1
  -1  -8  -5 32406.2 1429.17   3
  -8   9  -5 29686.3 1517.79   3
   1  -9  -5 32546.6 1303.40   2
  -8   9  -5 33213.5 1592.28   4
   9  -1  -2 16450.9 486.889   3
   8   1  -2 19262.4 927.015   4
   8   1  -2 17636.9 555.548   3
  -1  -8  -2 18927.1 538.457   2
   9  -1  -2 19481.2 972.864   2
   9  -1  -2 20573.4 921.015   4
   8   1  -2 18653.0 964.304   2
  -9   8  -2 20537.7 919.599   3
   1  -9  -2 16993.7 384.402   2
  -8   9  -2 19400.7 729.893   1
   1  -9  -2 18885.1 1044.89   1
  -8   9  -2 18212.4 888.640   3
  -1  -8  -2 21142.1 1068.49   1
   1  -9   1 63848.1 1232.89   4
   8   1   1 61331.0 1481.27   4
   1  -9   1 65933.2 1521.10   2
   9  -1   1 66228.8 1484.55   2
   8   1   1 66693.6 1205.77   3
   8   1   1 66461.5 1580.64   1
   9  -1   1 68477.9 1577.07   1
  -1  -8   1 65500.3 1575.56   1
   8   1   1 65161.2 1422.55   2
  -1  -8   1 63763.3 1564.50   2
  -9   8   1 66688.0 1188.03   4
  -9   8   1 62284.6 1253.66   2
   9  -1   1 64557.9 1146.21   3
  -8   9   1 63064.0 1094.41   2
  -8   9   1 63011.1 1034.71   4
   9  -1   1 64265.0 1458.78   4
   1  -9   1 61830.2 1525.51   1
  -8   9   1 61949.6 1700.02   1
  -1  -8   1 61916.8 1327.53   4
  -1  -8   4 12302.8 814.291   3
  -9   8   4 14400.4 932.615   2
  -8   9   4 15493.9 997.571   4
  -8   9   4 13590.9 854.868   2
   8   1   4 15500.4 1018.86   3
   9  -1   4 13942.4 746.721   1
  -8   9   4 14567.4 1060.05   1
  -9   8   4 13953.3 809.749   3
  -1  -8   4 12843.9 1118.23   2
  -8   9   4 12503.5 798.547   3
   1  -9   4 13761.9 1158.63   2
  -9   8   4 14341.7 1061.85   1
   8   1   4 15114.1 810.600   1
  -1  -8   4 13565.0 727.601   1
  -9   8   4 14593.8 1012.59   4
   1  -9   4 13982.0 1016.64   4
  -1  -8   4 13221.5 1001.92   4
   1  -9   4 12970.9 857.881   3
   9  -1   4 15519.1 984.810   3
   1  -9   4 14452.2 693.006   1
  -9   8   7 48459.3 2070.96   1
  -9   8   7 45787.0 2156.12   4
   1  -9   7 43919.7 1093.91   1
  -8   9   7 44759.4 1941.71   2
   1  -9   7 47959.9 2372.32   2
   8   1   7 46362.7 1487.96   1
  -1  -8   7 50134.8 2458.11   2
   1  -9   7 50356.9 2291.17   4
  -9   8   7 46359.3 2040.35   2
   9  -1   7 44723.4 1318.16   1
  -1  -8   7 42260.1 1271.81   1
  -8   9   7 47855.3 2064.38   1
  -1  -8   7 44939.6 2232.67   4
  -9   8  10 11923.2 1424.39   2
  -9   8  10 9539.36 1200.72   1
   8   1  10 10615.7 867.433   1
   9  -1  10 8045.07 654.849   1
  -8   9  10 8224.91 1132.87   1
  -9   9  -9 492.213 869.058   3
   9   0  -9 493.683 746.863   3
   0  -9  -9-239.914 702.029   3
  -9   9  -6 11405.3 1159.34   3
   0  -9  -6 10400.1 968.094   2
   9   0  -6 11800.1 923.188   3
   0  -9  -6 11975.7 999.447   3
   9   0  -3 237.257 268.395   3
   9   0  -3 20.6988 380.623   4
   9   0  -3 0.42576 460.436   2
   0  -9  -3 292.244 341.401   3
   0  -9  -3 523.334 493.044   1
  -9   9  -3 393.187 397.857   3
  -9   9  -3 117.566 234.375   1
   0  -9   0 38523.8 1030.73   2
   9   0   0 35338.8 641.719   3
   0  -9   0 39691.4 1345.25   1
  -9   9   0 38859.5 947.436   2
   9   0   0 42696.2 1356.02   1
   9   0   0 38533.1 1181.95   2
  -9   9   0 39214.6 663.815   4
   0  -9   0 38833.1 954.403   4
   9   0   0 38177.0 1220.70   4
  -9   9   0 38953.8 1312.36   1
   9   0   3 527.331 413.287   3
  -9   9   3 770.223 510.866   1
   0  -9   3 323.813 411.328   4
  -9   9   3 270.104 311.158   3
   0  -9   3 344.673 514.398   2
  -9   9   3 43.4843 406.378   4
   9   0   3 291.272 363.828   1
  -9   9   3 837.986 396.801   2
   0  -9   3 369.490 341.938   1
  -9   9   6 6924.95 918.969   4
   9   0   6 6267.81 616.952   1
   0  -9   6 6121.79 538.529   1
   0  -9   6 6071.95 1052.43   2
  -9   9   6 7101.50 932.160   1
  -9   9   6 6202.03 795.596   2
   0  -9   6 7604.78 1017.83   4
  -9   9   9 111.567 724.356   1
  -9   9   9 926.616 829.938   2
   0  -9   9 95.2818 303.700   1
   9   0   9 415.038 433.767   1
   0  -9   9-623.332 886.279   4
   0  10 -10 37257.7 2480.62   3
 -10   0 -10 34205.9 2262.69   3
  10 -10 -10 40466.3 2219.84   3
  10 -10  -7 809.826 542.016   3
 -10   0  -7 487.341 501.476   1
   0  10  -7-116.927 689.188   3
 -10   0  -7 75.3678 614.904   3
  10 -10  -4 129797. 2620.00   4
   0  10  -4 124041. 2158.12   1
  10 -10  -4 128804. 2279.41   3
 -10   0  -4 130273. 2484.68   1
   0  10  -4 124758. 2692.71   3
   0  10  -4 125176. 2641.83   4
  10 -10  -4 127934. 2244.28   2
 -10   0  -1 347.482 209.834   3
  10 -10  -1 581.319 280.328   2
   0  10  -1 124.368 285.282   4
   0  10  -1 567.387 405.398   1
 -10   0  -1 763.079 401.475   4
 -10   0  -1 882.890 403.732   1
 -10   0  -1 271.194 384.492   2
   0  10  -1 535.427 350.023   2
  10 -10  -1 330.440 177.275   4
   0  10   2 125788. 2563.53   1
   0  10   2 128328. 2250.84   3
 -10   0   2 127053. 2611.87   2
 -10   0   2 129659. 2502.08   4
 -10   0   2 130743. 2587.39   1
 -10   0   5-289.029 623.977   2
   0  10   5-283.574 507.658   1
 -10   0   5 187.087 578.851   4
 -10   0   5-192.608 359.530   3
 -10   0   8 50270.8 2673.29   2
   0  10   8 52484.2 2152.44   1
 -10   0   8 52268.2 2692.16   4
 -10   0  11 849.968 756.898   1
 -10   0  11 337.216 1259.88   2
   0  10  11-941.294 755.298   1
 -10   0  11-74.1862 1299.71   4
  -9  -1 -11 12302.5 1562.50   3
  -1  10 -11 11392.7 1685.35   3
  10  -9 -11 13837.6 1554.78   3
 -10   1 -11 11800.8 1659.35   3
   9 -10 -11 12805.5 1493.94   3
   1   9 -11 13712.1 1773.33   3
   1   9  -8 278.353 743.148   3
 -10   1  -8 884.960 812.131   3
  -9  -1  -8 1298.66 746.986   3
  -9  -1  -8 1547.77 649.632   1
  10  -9  -8 1229.33 669.756   3
 -10   1  -8 495.396 512.136   1
   9 -10  -8 514.112 583.138   3
  -1  10  -8 943.459 772.273   3
  10  -9  -5 16044.7 938.506   3
  -9  -1  -5 16527.7 1011.81   1
   9 -10  -5 17108.6 1003.98   3
  -9  -1  -5 16777.5 1108.88   3
   9 -10  -5 15807.0 1182.56   4
   9 -10  -5 15612.3 991.992   2
  10  -9  -5 17818.0 1092.44   2
   1   9  -5 15517.0 1147.28   3
  10  -9  -5 17690.6 1205.91   4
  -1  10  -5 15244.1 1134.71   3
 -10   1  -5 17173.9 1157.39   3
 -10   1  -5 16812.0 930.268   1
  -9  -1  -2 5011.73 541.943   2
   1   9  -2 4006.98 504.642   3
  -9  -1  -2 3872.99 429.592   3
 -10   1  -2 4985.95 557.822   1
   9 -10  -2 4051.12 397.406   4
   1   9  -2 6319.99 608.272   1
  10  -9  -2 3896.99 400.921   4
  -9  -1  -2 4350.37 535.402   4
  -1  10  -2 4005.28 444.327   4
 -10   1  -2 4854.19 544.889   2
 -10   1  -2 4074.93 459.620   3
  -1  10  -2 5025.09 572.332   3
  -1  10  -2 3974.93 622.199   2
  -9  -1  -2 5089.41 596.821   1
   1   9  -2 4307.67 636.619   2
 -10   1  -2 4396.88 540.524   4
  -1  10  -2 4318.47 491.734   1
  10  -9  -2 4031.07 411.030   2
   1   9  -2 5910.01 539.031   4
   9 -10  -2 4992.60 394.944   2
 -10   1   1 1463.83 408.571   4
   1   9   1 2372.34 386.766   3
  -9  -1   1 2534.94 472.423   4
   1   9   1 2990.96 265.559   2
  -1  10   1 2287.38 179.891   2
   1   9   1 2383.03 498.076   1
 -10   1   1 2228.01 446.628   2
  -1  10   1 2457.08 496.166   1
  -9  -1   1 2356.40 487.069   1
 -10   1   1 2403.71 513.856   1
  -9  -1   1 1728.37 447.357   2
 -10   1   4 21636.1 853.053   3
  -9  -1   4 18740.9 1086.20   1
 -10   1   4 20732.8 1310.23   4
 -10   1   4 17666.6 1244.67   2
  -9  -1   4 19605.7 825.718   3
   1   9   4 19173.2 1144.64   1
  -9  -1   4 19415.3 1322.25   2
  -9  -1   4 18557.7 1245.47   4
  -1  10   4 19307.4 1170.08   1
  10  -9   4 19289.1 1055.96   3
 -10   1   7 12720.4 1386.66   2
  -9  -1   7 11072.9 1318.33   2
 -10   1   7 12889.9 1392.29   4
  -1  10   7 12853.3 1120.16   1
   1   9   7 11835.4 1055.12   1
  -9  -1   7 12387.8 1357.92   4
 -10   1  10 5190.05 1014.72   1
  -9  -1  10 4092.15 1199.53   2
 -10   1  10 4330.45 1268.86   2
  -1  10  10 4314.41 947.529   1
   1   9  10 5647.63 979.553   1
  -9  -1  10 6044.28 947.631   1
  -9  -1  10 5739.93 1405.10   4
 -10   1  10 4429.71 1216.47   4
 -10   2  -9 8152.36 1262.79   3
  10  -8  -9 9011.75 1109.73   3
   8 -10  -9 9904.48 1204.11   3
   2   8  -9 9621.69 1385.63   3
  -8  -2  -9 9404.37 1266.99   3
  -2  10  -9 9981.84 1388.37   3
  -2  10  -6 18777.8 1358.54   3
  -8  -2  -6 23160.3 1412.03   3
   8 -10  -6 22327.7 1262.84   3
 -10   2  -6 22239.2 1012.88   1
 -10   2  -6 22800.7 1487.64   3
   8 -10  -6 25140.8 1392.10   2
  -8  -2  -6 23106.1 1229.44   1
   2   8  -6 21017.5 1418.68   3
  10  -8  -6 24422.2 1243.08   3
   2   8  -3 23013.3 1096.05   4
  -2  10  -3 23290.2 1277.17   2
   8 -10  -3 24218.2 788.478   2
 -10   2  -3 22970.2 963.135   1
  -8  -2  -3 23802.6 1033.54   3
  -8  -2  -3 23807.0 1096.27   1
  10  -8  -3 23936.7 1018.23   4
 -10   2  -3 25145.2 1091.25   3
  10  -8  -3 23116.2 829.684   3
   2   8  -3 23541.8 999.217   1
  10  -8  -3 24383.8 980.731   2
   8 -10  -3 24533.3 1043.72   4
  -8  -2  -3 21861.2 965.392   2
  -2  10  -3 24181.0 1043.51   4
   2   8  -3 23310.5 1304.23   2
  -2  10  -3 21265.3 1085.65   3
  -2  10  -3 23658.5 891.582   1
   2   8  -3 24837.1 1087.32   3
  -2  10   0 18409.9 608.779   2
 -10   2   0 18923.6 942.949   1
  -2  10   0 17671.0 922.560   1
   2   8   0 17633.8 753.203   4
  -8  -2   0 18502.1 956.214   1
 -10   2   0 18313.8 824.582   4
  -8  -2   0 17731.1 865.543   2
  -8  -2   0 18130.3 858.211   4
   2   8   0 16559.3 890.259   1
  -2  10   0 18663.6 592.233   4
   2   8   0 19145.7 696.772   2
 -10   2   0 19570.9 895.069   2
  10  -8   0 18186.0 577.916   4
 -10   2   3 42325.5 1623.76   2
   2   8   3 45835.7 1472.69   3
 -10   2   3 44255.1 963.505   3
  -8  -2   3 46671.2 1525.78   1
  -8  -2   3 44870.7 1015.40   3
  -2  10   3 43946.2 1416.91   3
   8 -10   3 43479.7 1399.21   3
  -2  10   3 41825.3 1554.55   1
  -8  -2   3 43326.2 1636.94   4
   2   8   3 44718.2 1536.34   1
  -8  -2   3 47428.6 1777.01   2
 -10   2   3 47117.7 1680.80   4
  10  -8   3 45383.1 1380.40   3
 -10   2   6 3220.47 814.296   2
  -8  -2   6 2038.13 790.307   4
  -8  -2   6 2244.02 805.531   2
  -2  10   6 3431.32 687.909   1
   2   8   6 3118.68 635.111   1
 -10   2   6 2613.93 892.194   4
 -10   2   6 2645.36 571.783   3
  -2  10   9 18731.8 1440.69   1
  -8  -2   9 23516.8 1991.57   2
   2   8   9 18182.0 1336.48   1
 -10   2   9 19294.5 1469.55   1
 -10   2   9 17985.5 1786.12   4
  -8  -2   9 20827.0 1881.60   4
 -10   2   9 19031.9 1833.95   2
  -3  10 -10 23891.9 2070.36   3
   7 -10 -10 27779.1 1908.51   3
  -7  -3 -10 28107.6 2060.92   3
   3   7 -10 24702.5 2024.04   3
 -10   3 -10 23891.6 1988.15   3
  10  -7 -10 26995.0 1835.95   3
  -7  -3  -7 550.361 604.031   1
   3   7  -7 727.523 655.189   3
  -7  -3  -7 203.493 633.799   3
   7 -10  -7 92.1333 554.743   3
  -3  10  -7 51.4936 648.405   3
 -10   3  -7 621.205 644.713   3
  10  -7  -7 827.296 573.342   3
 -10   3  -7 541.537 355.768   1
  10  -7  -4 147926. 2727.93   2
  -3  10  -4 151237. 1869.09   1
  10  -7  -4 151755. 2287.22   3
 -10   3  -4 150596. 2830.25   3
  -7  -3  -4 157913. 2797.98   1
   7 -10  -4 153933. 2266.77   2
  10  -7  -4 148296. 2843.05   4
   7 -10  -4 154831. 2607.26   3
 -10   3  -4 155605. 2270.91   1
  -7  -3  -4 146957. 2715.47   3
  -3  10  -4 151060. 3392.17   2
   3   7  -4 149711. 2929.11   4
  -3  10  -4 153093. 2896.29   4
   7 -10  -4 156832. 2940.94   4
  -3  10  -4 145268. 2918.02   3
   3   7  -4 149296. 2713.44   3
   3   7  -4 146144. 3300.04   2
   3   7  -1 20790.3 856.378   4
 -10   3  -1 19216.5 645.338   3
  10  -7  -1 19490.5 795.498   2
 -10   3  -1 21557.3 878.555   2
 -10   3  -1 20910.4 859.930   4
   7 -10  -1 17429.3 445.138   4
  -7  -3  -1 21435.4 931.313   4
  -7  -3  -1 20980.9 671.937   3
   3   7  -1 19553.8 925.282   1
  -3  10  -1 21963.5 873.230   2
 -10   3  -1 20085.4 891.707   1
   3   7  -1 20121.6 872.833   2
  -3  10  -1 20504.7 601.587   4
  -7  -3  -1 21289.2 853.720   2
   7 -10  -1 21711.8 1068.27   1
  10  -7  -1 21036.5 705.739   4
  -7  -3  -1 20513.3 987.754   1
  -3  10  -1 18344.5 884.968   1
 -10   3   2 58895.1 1658.94   2
   3   7   2 62725.4 1490.92   3
  -7  -3   2 64038.9 1711.97   4
  -3  10   2 63454.1 1521.85   3
 -10   3   2 61745.5 1644.47   4
   3   7   2 61326.3 1693.57   1
  -7  -3   2 65372.1 1858.49   2
  -7  -3   2 63499.2 1668.85   1
  10  -7   2 61207.9 1355.29   3
   7 -10   2 61144.9 1285.30   1
  -3  10   5 3896.62 695.714   1
 -10   3   5 3540.49 759.779   2
 -10   3   5 3162.46 721.251   4
   3   7   5 4608.89 648.237   1
  -7  -3   5 4906.21 648.810   1
  -7  -3   5 3705.95 798.904   4
 -10   3   5 4369.26 559.559   3
  -7  -3   5 4336.17 869.197   2
  -7  -3   5 4554.68 573.770   3
 -10   3   8 56224.0 2271.17   1
  -3  10   8 53382.8 2158.01   1
  -7  -3   8 50939.1 2598.31   2
   3   7   8 49811.6 1916.46   1
 -10   3   8 50501.4 2517.74   2
 -10   3   8 55851.4 2712.05   4
  -7  -3   8 52173.7 2683.39   4
   3   7  11 1736.26 748.690   1
  -7  -3  11 856.225 1014.44   4
  -3  10  11 1967.63 899.496   1
 -10   3  11 1847.96 1097.67   2
  -7  -3  11 3077.39 1263.12   2
  -7  -3  11 2465.33 786.387   1
 -10   3  11 2620.52 952.093   1
  -4  10 -11 1162.52 1039.77   3
   4   6 -11 868.510 1044.25   3
  10  -6 -11 2440.33 1005.59   3
   6 -10 -11 1977.74 1024.23   3
 -10   4 -11 2480.23 1117.13   3
  -6  -4 -11 461.160 979.710   3
  -6  -4  -8 16324.0 1405.21   3
   4   6  -8 16857.5 1437.08   3
 -10   4  -8 16364.2 1524.19   3
  10  -6  -8 19354.7 1363.01   3
   6 -10  -8 14612.4 1260.08   3
  -4  10  -8 15669.5 1553.67   3
  -4  10  -5 34773.4 1633.15   4
  10  -6  -5 36369.9 1320.92   3
 -10   4  -5 36683.2 1616.14   3
   6 -10  -5 36050.2 1356.64   2
  -4  10  -5 35005.2 1632.24   3
   6 -10  -5 35035.0 1421.11   3
   4   6  -5 33909.5 1482.26   3
  -6  -4  -5 35768.5 1519.82   3
  -6  -4  -5 37215.6 1471.40   1
  10  -6  -5 33629.0 1567.08   2
   6 -10  -5 34660.7 1619.38   4
 -10   4  -5 36955.6 1046.78   1
   4   6  -2 52181.2 1259.18   3
  -6  -4  -2 52242.1 1239.47   2
  -4  10  -2 48585.6 1527.77   2
  -6  -4  -2 50558.7 1346.14   4
  -4  10  -2 48518.2 1173.33   1
  -6  -4  -2 49716.1 1222.59   3
 -10   4  -2 52334.4 1287.72   1
   6 -10  -2 52579.4 1699.55   1
  -6  -4  -2 54210.4 1572.14   1
  10  -6  -2 50678.0 1329.66   2
   4   6  -2 48674.1 1414.90   1
   6 -10  -2 45544.8 654.144   2
  -4  10  -2 49622.4 1143.16   4
 -10   4  -2 49896.4 1263.02   4
  -4  10  -2 42359.3 1317.96   3
  10  -6  -2 50933.7 1262.64   4
   4   6  -2 49894.1 1556.90   2
   4   6  -2 50196.3 1395.43   4
   6 -10  -2 48940.1 1146.85   4
 -10   4  -2 53346.7 1340.23   3
 -10   4   1 1046.66 359.767   4
  -6  -4   1 1273.51 368.932   4
  10  -6   1 1565.06 277.639   3
  -4  10   1 1812.81 478.386   1
 -10   4   1 1584.27 417.985   2
   4   6   1 1357.78 270.041   2
   4   6   1 1297.44 339.303   4
  -6  -4   1 1027.73 405.174   1
   6 -10   1 1822.10 413.382   1
   4   6   1 1219.07 400.238   1
   4   6   1 1500.20 327.662   3
  -6  -4   1 1157.00 441.735   2
 -10   4   4 29449.1 1461.65   2
  -6  -4   4 30145.5 1499.11   4
  -6  -4   4 30025.3 1057.12   3
  -4  10   4 26871.2 1229.80   3
  10  -6   4 31261.3 1297.19   3
   4   6   4 29249.7 1248.78   1
 -10   4   4 31436.3 1499.53   4
   4   6   4 28544.2 1296.90   3
 -10   4   4 31556.0 1089.14   3
  -6  -4   4 29156.4 1202.96   1
  -6  -4   4 29656.2 1592.94   2
  -4  10   4 29542.3 1404.60   1
  -4  10   7 2940.05 743.008   1
 -10   4   7 2354.31 794.279   4
  -6  -4   7 1766.62 552.269   1
  -6  -4   7 1548.39 903.565   4
   4   6   7 2269.91 587.166   1
 -10   4   7 1623.50 795.983   2
  -6  -4   7 2412.39 866.955   2
  -6  -4  10 20818.5 2008.93   4
  -4  10  10 19829.2 1556.15   1
 -10   4  10 18496.5 1805.37   2
 -10   4  10 17038.9 1797.44   4
  -6  -4  10 21156.2 2038.45   2
 -10   4  10 19262.8 1554.53   1
   4   6  10 20392.4 1359.46   1
  -6  -4  10 18618.2 1330.51   1
  10  -5  -9 22159.1 1544.14   3
  -5  10  -9 23277.2 1949.13   3
   5   5  -9 18687.4 1580.09   3
   5 -10  -9 22292.9 1655.79   3
 -10   5  -9 23764.2 1965.94   3
  -5  -5  -9 24132.3 1786.75   3
  -5  10  -6 11790.9 1205.20   3
  -5  -5  -6 11553.9 1007.04   1
 -10   5  -6 15399.1 1272.16   3
  10  -5  -6 12965.7 941.651   3
  -5  -5  -6 12267.0 1058.00   3
 -10   5  -6 11562.4 529.173   1
   5 -10  -6 13547.3 1072.50   3
   5   5  -6 12077.4 1047.86   3
   5 -10  -6 12575.2 1031.75   2
 -10   5  -3 58257.1 1229.44   1
   5   5  -3 54331.6 1400.61   3
   5 -10  -3 53654.8 1553.47   4
  -5  10  -3 50733.7 1614.12   3
 -10   5  -3 52216.2 1561.08   3
   5 -10  -3 51410.7 1774.95   1
  -5  -5  -3 52728.2 1479.64   3
  10  -5  -3 52432.0 1078.68   3
   5   5  -3 52567.2 1515.39   1
   5   5  -3 54834.9 1825.64   2
  -5  10  -3 53195.1 1793.72   2
  -5  10  -3 52926.6 1062.81   1
  -5  -5  -3 52726.9 1260.24   2
  10  -5  -3 53045.4 1580.63   2
  10  -5  -3 51209.5 1531.24   4
   5   5  -3 51987.3 1621.32   4
  -5  -5  -3 54811.5 1680.10   1
   5 -10  -3 51979.8 1475.05   3
  -5  10  -3 55359.7 1510.69   4
   5 -10  -3 50917.3 932.003   2
   5   5   0 77322.6 1646.24   4
  10  -5   0 81277.4 1448.92   4
  -5  -5   0 81888.8 1847.53   1
  -5  -5   0 79100.4 1583.92   4
   5   5   0 79565.8 1767.69   1
  -5  10   0 77817.0 1718.43   1
 -10   5   0 78479.1 1406.22   4
  -5  -5   0 77467.4 1562.13   2
 -10   5   0 79366.2 1583.63   2
   5 -10   0 77024.5 1772.50   1
  -5  10   0 76075.2 1196.94   2
   5   5   0 82407.6 1514.77   2
 -10   5   0 79259.0 1008.24   3
  10  -5   0 82816.6 1585.71   2
  -5  -5   3 53501.0 1872.77   2
  10  -5   3 48639.5 1412.01   3
  -5  10   3 47214.1 967.479   2
   5   5   3 52892.0 1530.56   3
   5 -10   3 50803.2 1066.17   1
  -5  10   3 47863.4 1703.32   1
  -5  10   3 51559.7 1457.85   3
  -5  -5   3 50690.0 1474.11   1
   5   5   3 50380.2 1519.50   1
 -10   5   3 53698.9 1183.04   3
 -10   5   3 52903.2 1664.41   4
   5 -10   3 51453.0 1442.33   4
 -10   5   3 48438.2 1635.20   2
  -5  -5   3 51211.1 1738.11   4
  -5  -5   6 12260.4 1247.32   4
 -10   5   6 10848.6 1133.35   2
   5   5   6 11025.6 875.233   1
  -5  -5   6 12613.0 1371.55   2
 -10   5   6 13232.4 1225.51   4
 -10   5   6 12698.0 962.775   3
  -5  -5   6 11215.3 841.081   1
  -5  10   6 12998.9 1092.04   1
  -5  -5   9 24150.5 1979.81   2
  -5  -5   9 21975.0 1919.82   4
  -5  10   9 22241.3 1583.73   1
   5   5   9 22840.0 1322.40   1
 -10   5   9 22093.6 1572.21   1
 -10   5   9 20180.5 1870.67   4
 -10   5   9 22802.0 1836.53   2
  -4  -6 -10 23588.2 1861.85   3
  -6  10 -10 17757.8 1814.63   3
 -10   6 -10 21702.5 1948.41   3
  10  -4 -10 22622.7 1718.12   3
   6   4 -10 20685.9 1778.67   3
   4 -10 -10 22590.0 1765.01   3
   4 -10  -7 2529.31 775.716   2
   6   4  -7 827.860 633.267   3
  10  -4  -7 1816.79 624.168   3
   4 -10  -7 2194.93 707.714   3
  -4  -6  -7 1873.13 686.052   3
 -10   6  -7 1311.65 775.436   3
  -6  10  -7 1809.79 754.910   3
 -10   6  -4 28376.8 784.717   1
  10  -4  -4 27400.0 981.379   3
   6   4  -4 30370.7 1180.85   3
  -6  10  -4 32042.9 1381.93   4
 -10   6  -4 28889.5 1329.24   3
  10  -4  -4 27832.1 1314.55   4
  -4  -6  -4 30115.4 1277.45   3
  -6  10  -4 26834.3 1553.24   2
   4 -10  -4 30172.1 1252.81   3
  -6  10  -4 25124.9 571.764   1
  -6  10  -4 28227.9 1340.76   3
  10  -4  -4 26806.1 1341.79   2
   4 -10  -4 29200.9 1349.14   4
   4 -10  -4 26857.4 1401.16   1
   4 -10  -4 29090.2 1022.72   2
  -4  -6  -4 29726.3 1341.02   1
   6   4  -1 806.413 357.904   2
   4 -10  -1 1234.79 204.145   4
 -10   6  -1 1092.57 323.526   2
   6   4  -1 1960.63 404.618   4
  10  -4  -1 1654.65 368.159   4
  -6  10  -1 921.196 352.810   1
  -4  -6  -1 1293.25 349.935   4
  -6  10  -1 1246.30 166.541   4
  10  -4  -1 1225.28 351.804   2
   6   4  -1 849.445 409.897   1
   4 -10  -1 1681.54 455.594   1
  -4  -6  -1 1541.84 481.208   1
 -10   6  -1 1308.29 299.899   4
  -4  -6  -1 1381.26 294.833   2
 -10   6  -1 1650.87 299.701   3
   6   4   2 47893.9 1409.36   1
  -4  -6   2 47193.1 1437.54   4
 -10   6   2 47276.3 1374.54   4
  -6  10   2 49930.1 1642.42   1
   4 -10   2 45246.3 1170.94   4
  10  -4   2 47842.7 1184.98   3
 -10   6   2 47195.8 925.625   3
 -10   6   2 47858.5 1389.83   2
   6   4   2 48884.2 1295.36   3
  -6  10   2 45879.8 1257.35   3
  -6  10   2 41923.9 769.663   2
   4 -10   2 47959.8 1208.78   1
  -4  -6   2 46218.0 1378.89   1
  -4  -6   2 49332.5 1668.25   2
   6   4   5 34151.5 1322.66   1
  -4  -6   5 32226.5 1760.92   2
  10  -4   5 32822.6 926.863   1
  -6  10   5 33001.1 1579.67   1
  -4  -6   5 30692.7 1642.55   4
  -4  -6   5 31282.7 1212.03   1
 -10   6   5 31982.2 1280.27   3
  -4  -6   5 30823.2 1273.03   3
 -10   6   5 29917.8 1576.05   4
  -6  10   5 33287.9 1258.91   2
 -10   6   5 28554.5 1503.95   2
   4 -10   5 31127.8 1504.98   4
   4 -10   5 27764.4 659.929   1
  -4  -6   8 13917.4 1558.95   2
  10  -4   8 12174.7 523.898   1
 -10   6   8 11233.0 1292.34   2
  -6  10   8 16689.9 1381.27   1
   6   4   8 14987.1 1031.11   1
  -4  -6   8 12647.0 932.430   1
 -10   6   8 16151.4 1542.38   4
 -10   6   8 15305.3 1310.14   1
  -4  -6   8 17818.2 1638.98   4
 -10   6  11 2312.41 1109.09   2
  -6  10  11 1140.69 862.959   1
   6   4  11 859.530 631.596   1
 -10   6  11 787.020 831.002   1
  -7  10 -11 1568.39 1293.11   3
 -10   7 -11 1482.31 1025.98   3
   3 -10 -11 902.765 936.779   3
   7   3 -11 2609.33 1108.57   3
  -3  -7 -11 2354.09 1127.58   3
  10  -3 -11 1931.25 911.476   3
   3 -10  -8 53623.8 2302.71   3
  10  -3  -8 55127.6 2167.32   3
  -7  10  -8 46819.2 2419.26   3
 -10   7  -8 55228.1 2533.36   3
   7   3  -8 54781.7 2256.13   3
  -3  -7  -8 49380.3 2260.91   3
   7   3  -5 3440.40 595.935   3
  10  -3  -5 4488.70 590.134   3
   3 -10  -5 4497.83 670.275   3
 -10   7  -5 3275.35 654.631   3
  -7  10  -5 4705.11 783.516   3
   3 -10  -5 4920.85 634.217   2
  -3  -7  -5 4840.77 684.390   3
   3 -10  -5 4952.73 778.179   4
  -7  10  -5 4748.22 804.772   4
 -10   7  -5 3358.31 228.075   1
  -3  -7  -5 4200.82 685.926   1
  -3  -7  -2 59983.5 1749.78   1
  -3  -7  -2 62310.9 1443.13   4
  10  -3  -2 59826.8 1473.51   4
  -3  -7  -2 59723.6 1410.23   3
  -7  10  -2 59844.4 1246.45   1
  10  -3  -2 61374.6 1594.99   2
   7   3  -2 60551.8 1677.83   2
  -3  -7  -2 61021.3 1125.77   2
  -7  10  -2 62360.4 1286.88   4
   7   3  -2 61170.4 1574.82   4
   3 -10  -2 62149.3 1823.52   1
   7   3  -2 61762.2 1671.20   1
  -7  10  -2 60480.6 1575.79   3
   7   3  -2 61378.6 1143.66   3
 -10   7  -2 60261.9 1469.94   3
  -3  -7   1 20752.8 972.598   1
   7   3   1 23456.2 782.656   3
   3 -10   1 21093.7 853.803   2
  10  -3   1 21632.5 646.736   3
   7   3   1 21523.3 993.052   1
   7   3   1 22420.8 837.272   2
 -10   7   1 21125.7 830.426   2
   7   3   1 19709.4 892.529   4
  -3  -7   1 22718.3 899.562   4
  -7  10   1 20603.6 553.718   2
 -10   7   1 20788.8 777.579   4
  -7  10   1 21687.0 1070.40   1
   3 -10   1 22929.0 717.984   4
  -3  -7   1 22409.8 1030.19   2
   3 -10   1 21506.6 936.306   1
  10  -3   1 21484.1 847.860   4
  -3  -7   4 155373. 3374.02   2
   3 -10   4 146671. 1889.44   1
  10  -3   4 154598. 2821.25   3
  -7  10   4 150164. 3117.56   1
  -7  10   4 144871. 2608.01   3
 -10   7   4 151279. 2452.66   3
   3 -10   4 148027. 3164.01   2
  10  -3   4 146359. 2110.25   1
 -10   7   4 147534. 2889.80   2
  -3  -7   4 150211. 3094.28   4
  -3  -7   4 144217. 2396.47   1
   7   3   4 143242. 2484.80   1
  -3  -7   4 140069. 2412.03   3
 -10   7   4 154236. 3067.51   4
   3 -10   4 151144. 2882.84   4
   7   3   4 154966. 2894.80   3
  -7  10   4 148536. 2342.95   2
  10  -3   7-197.100 305.581   1
  -7  10   7 230.031 623.722   1
 -10   7   7-249.489 594.945   1
  -3  -7   7 860.589 747.765   2
   3 -10   7 55.5956 130.733   1
 -10   7   7 1305.02 749.278   2
  -3  -7   7 607.335 457.391   1
  -7  10   7 699.854 564.542   2
  -3  -7   7 606.422 668.931   4
 -10   7   7 852.476 674.730   4
   3 -10   7 481.265 655.524   4
   7   3   7 87.2279 451.145   1
  -3  -7  10 17112.8 1047.37   1
 -10   7  10 20145.6 1630.03   1
 -10   7  10 22596.4 1863.29   2
  -7  10  10 21198.2 1643.71   1
  -3  -7  10 21933.0 1962.59   4
  -3  -7  10 19752.5 1943.70   2
   7   3  10 18927.5 1194.31   1
  -8  10  -9 20218.2 1818.69   3
  -2  -8  -9 20097.6 1616.76   3
   8   2  -9 22891.6 1671.39   3
   2 -10  -9 25309.0 1757.53   3
 -10   8  -9 24016.1 1906.13   3
  10  -2  -9 19022.2 1474.13   3
  -2  -8  -6 3623.83 678.895   3
   8   2  -6 3059.96 637.528   3
  -8  10  -6 1967.09 695.606   3
   2 -10  -6 2955.98 648.489   3
  -2  -8  -6 2648.26 692.081   2
   2 -10  -6 2829.67 660.271   2
  10  -2  -6 2884.05 572.989   3
 -10   8  -6 3492.45 796.228   3
  -2  -8  -3 49469.7 1698.82   1
  10  -2  -3 46824.6 1628.11   2
  10  -2  -3 51959.7 1056.18   3
  -8  10  -3 49056.3 1445.93   4
  -8  10  -3 50665.7 1645.48   3
  -2  -8  -3 47235.0 1414.74   3
   2 -10  -3 39568.0 1309.90   3
   8   2  -3 51993.8 1213.85   3
  10  -2  -3 49529.4 1550.36   4
   2 -10  -3 43267.7 922.268   2
   8   2  -3 41939.4 1489.78   4
   2 -10  -3 50196.5 1750.54   1
 -10   8  -3 50491.1 1571.89   3
   8   2  -3 49413.1 1751.19   2
  -2  -8  -3 49749.4 1042.47   2
  -8  10  -3 48682.2 977.281   1
   2 -10   0 21795.2 1030.04   1
  -2  -8   0 20746.8 1021.88   1
   2 -10   0 21087.4 609.197   4
  10  -2   0 21059.3 891.672   4
   8   2   0 19825.7 860.946   2
 -10   8   0 21089.2 616.836   4
 -10   8   0 20009.3 786.604   2
  10  -2   0 19390.2 875.492   2
  -8  10   0 20023.0 634.154   2
   8   2   0 19197.9 552.942   3
   8   2   0 17830.9 874.530   4
  -2  -8   0 20526.5 781.255   4
  -2  -8   0 19749.0 815.150   2
   8   2   0 20963.4 1002.50   1
   2 -10   0 20339.2 686.473   2
  -8  10   0 20177.6 978.643   1
   8   2   3 27431.7 1101.88   1
  -8  10   3 26596.4 1354.63   1
  -8  10   3 27099.4 1045.28   3
  10  -2   3 26875.1 1017.58   1
  -8  10   3 27651.0 967.363   2
  -2  -8   3 28941.4 1290.25   4
   8   2   3 28682.7 1182.39   3
  -2  -8   3 26169.4 1046.06   1
   2 -10   3 25594.5 1135.58   4
 -10   8   3 26784.9 1112.51   2
 -10   8   3 27984.0 952.798   3
  10  -2   3 28133.9 1154.74   3
   2 -10   3 29076.0 1377.21   2
 -10   8   3 28972.7 1249.15   4
  -2  -8   3 27916.9 1420.45   2
  -8  10   3 26181.7 1057.88   4
   2 -10   3 25726.9 939.471   1
  -2  -8   6 20976.8 1564.60   2
   2 -10   6 23196.2 1595.78   2
 -10   8   6 22940.1 1543.43   4
   2 -10   6 20050.5 732.094   1
  -2  -8   6 21085.0 1486.83   4
  -8  10   6 23411.2 1462.52   1
 -10   8   6 23114.0 1433.50   2
  10  -2   6 22226.1 910.642   1
  -2  -8   6 19420.9 944.850   1
  -8  10   6 21975.4 1254.17   2
   8   2   6 21531.7 1068.00   1
   2 -10   6 22370.2 1492.47   4
 -10   8   6 20680.1 1404.96   1
 -10   8   9 7335.18 1136.49   2
  10  -2   9 6074.98 551.366   1
  -2  -8   9 8755.82 1440.66   2
  -8  10   9 6392.83 1046.54   1
 -10   8   9 7672.38 1168.48   1
  -2  -8   9 4757.73 1129.14   4
   8   2   9 4838.85 721.852   1
   1 -10 -10 6720.42 1198.02   3
  -1  -9 -10 2773.77 992.969   3
   9   1 -10 5389.63 1114.66   3
 -10   9 -10 3676.79 1157.13   3
  10  -1 -10 4473.25 1054.07   3
  -9  10 -10 1070.49 953.480   3
  10  -1  -7 16500.0 1189.08   3
   1 -10  -7 15755.3 1267.14   3
   9   1  -7 13232.7 1103.00   3
  -1  -9  -7 15113.7 1221.36   3
   1 -10  -7 13183.9 1161.78   2
  -9  10  -7 16032.1 1416.11   3
 -10   9  -7 14486.1 1412.26   3
  10  -1  -4 20923.7 895.321   3
 -10   9  -4 18909.7 541.015   1
   1 -10  -4 19113.4 1071.62   3
 -10   9  -4 20995.4 1184.26   3
  -1  -9  -4 23666.4 1141.95   3
  -1  -9  -4 20160.8 1243.16   1
  -9  10  -4 15651.2 441.741   1
  -9  10  -4 20386.7 1208.60   3
 -10   9  -4 18735.3 519.788   1
   1 -10  -4 20557.2 876.104   2
   9   1  -4 20457.6 925.582   3
  -9  10  -4 22172.7 1200.97   4
  -1  -9  -1 4844.05 463.090   4
  -1  -9  -1 4966.91 628.209   1
  10  -1  -1 4850.56 533.885   2
  -9  10  -1 3902.46 449.581   3
 -10   9  -1 4135.24 419.340   3
  10  -1  -1 4852.45 549.566   4
 -10   9  -1 4716.25 303.364   4
   1 -10  -1 4362.16 383.868   4
   1 -10  -1 3600.92 602.333   1
   9   1  -1 3516.93 496.912   4
  -1  -9  -1 4361.73 363.875   2
  -9  10  -1 4932.80 263.616   4
  -9  10  -1 4875.32 512.645   1
   9   1  -1 4535.79 235.875   3
   1 -10  -1 3858.32 297.685   2
   9   1  -1 4633.01 541.615   2
  -9  10   2 5364.82 490.212   3
 -10   9   2 5418.42 474.136   3
 -10   9   2 5412.12 531.032   4
  10  -1   2 4619.75 508.735   3
  10  -1   2 5541.81 570.976   1
  -1  -9   2 5182.30 575.587   4
  -1  -9   2 5422.46 576.690   1
  -9  10   2 6289.56 772.646   1
  -1  -9   2 5718.10 680.273   2
  -9  10   2 4335.10 454.547   4
 -10   9   2 5213.92 703.358   1
   1 -10   2 4785.17 532.172   4
   1 -10   2 5407.78 675.640   2
   1 -10   2 5987.75 577.527   1
   9   1   2 6015.99 598.237   1
 -10   9   2 4915.27 487.455   2
  -9  10   2 5223.51 437.691   2
   9   1   2 6394.81 562.406   3
  -9  10   5 15805.6 1204.01   1
 -10   9   5 11706.2 974.031   2
  -9  10   5 11726.8 927.671   2
 -10   9   5 12769.9 1108.58   4
 -10   9   5 12422.3 904.876   3
   1 -10   5 12757.6 701.589   1
  -1  -9   5 11744.5 1229.94   2
  -1  -9   5 12365.9 752.283   1
   1 -10   5 15794.5 1279.97   2
   9   1   5 12691.2 820.893   1
 -10   9   5 12565.2 1109.21   1
  -1  -9   5 12930.0 1121.15   4
   1 -10   5 13623.5 1083.47   4
  -9  10   5 14762.2 1105.01   4
  10  -1   5 11306.5 720.453   1
  -1  -9   8 845.225 448.184   1
 -10   9   8 1191.53 761.922   2
  -9  10   8-289.377 627.880   2
  -1  -9   8-210.445 810.181   2
   1 -10   8 1071.50 845.676   4
   9   1   8 975.585 496.809   1
   1 -10   8 1002.15 325.818   1
  10  -1   8 1406.05 455.632   1
 -10   9   8 1846.59 814.289   1
  -1  -9   8 1685.89 919.189   4
  -9  10   8 2313.59 789.351   1
  -9  10  11 7996.71 1280.98   1
 -10   9  11 8989.58 1341.75   1
  10   0 -11 327.604 911.523   3
 -10  10 -11-589.482 988.244   3
   0 -10 -11 482.872 959.531   3
  10   0  -8 53676.7 2185.94   3
   0 -10  -8 57523.4 2396.94   3
 -10  10  -8 52537.8 2631.17   3
  10   0  -5-33.4678 375.963   3
 -10  10  -5-179.974 568.105   4
   0 -10  -5 195.409 432.107   2
   0 -10  -5 662.986 510.215   3
 -10  10  -5 1460.56 575.344   3
   0 -10  -2 118997. 1234.62   2
  10   0  -2 115448. 2336.38   2
   0 -10  -2 129016. 2689.19   1
 -10  10  -2 129172. 2000.66   1
   0 -10  -2 127591. 1964.90   4
  10   0  -2 126503. 2336.47   4
 -10  10  -2 124319. 2245.02   3
   0 -10   1 119.571 410.450   1
 -10  10   1 352.360 463.953   1
 -10  10   1 127.641 255.351   2
   0 -10   1-78.2376 369.955   2
  10   0   1 311.048 390.213   1
  10   0   1 329.106 328.845   2
  10   0   1 239.068 355.518   4
   0 -10   1 460.351 333.053   4
 -10  10   1 282.863 239.250   4
  10   0   1 406.001 267.744   3
  10   0   4 125318. 2689.22   3
   0 -10   4 126323. 3112.09   2
   0 -10   4 117455. 2109.61   1
  10   0   4 120280. 2243.33   1
 -10  10   4 130312. 2734.41   4
 -10  10   4 125288. 2997.35   1
   0 -10   4 122377. 2773.58   4
 -10  10   4 115806. 2245.59   3
 -10  10   4 121889. 2450.31   2
   0 -10   7 280.190 373.476   1
   0 -10   7 653.435 879.065   2
 -10  10   7 169.491 597.783   2
 -10  10   7-64.2696 619.535   1
   0 -10   7 641.739 756.911   4
  10   0   7 308.218 416.449   1
  10   0  10 33211.3 1311.86   1
 -10  10  10 36978.8 2210.93   2
 -10  10  10 37130.1 2181.99   1
   0  11 -11 299.745 1104.00   3
  11 -11 -11 728.014 841.967   3
 -11   0 -11 948.424 1044.55   3
  11 -11  -8 10467.6 1081.58   3
 -11   0  -8 7647.17 1153.11   3
   0  11  -8 9330.56 1288.31   3
   0  11  -5-80.7666 498.402   3
 -11   0  -5 190.881 491.062   1
   0  11  -5 368.525 370.851   1
  11 -11  -5 728.723 544.653   4
  11 -11  -5-148.277 380.371   3
  11 -11  -5 68.2857 430.802   2
 -11   0  -5 745.675 515.603   3
 -11   0  -2 10168.5 734.987   2
 -11   0  -2 9913.61 749.972   4
 -11   0  -2 10327.6 806.421   1
  11 -11  -2 9218.96 557.714   2
 -11   0  -2 9587.85 598.186   3
   0  11  -2 9306.27 638.756   4
   0  11  -2 8868.72 709.941   1
  11 -11  -2 9793.66 532.246   4
   0  11  -2 9168.56 798.083   2
 -11   0   1 576.221 471.744   1
   0  11   1-204.379 351.581   3
   0  11   1 908.647 493.288   1
 -11   0   1 502.734 465.218   2
 -11   0   1 298.998 386.376   4
   0  11   1-53.9697 175.807   2
 -11   0   4 16559.8 722.029   3
   0  11   4 15564.8 1118.34   1
 -11   0   4 17257.1 1256.20   4
 -11   0   4 17244.1 1306.88   2
 -11   0   7-22.2136 777.289   2
 -11   0   7 105.921 795.258   4
   0  11   7-92.6170 598.507   1
 -11   0  10 2249.04 997.200   2
   0  11  10 5133.76 985.816   1
 -11   0  10 5270.59 1356.30   4
 -11   0  10 3775.03 957.632   1
 -11   1  -9 15450.8 1553.05   3
  10 -11  -9 17915.1 1474.78   3
 -10  -1  -9 15289.4 1555.72   3
  11 -10  -9 16446.4 1403.25   3
  -1  11  -9 14154.4 1609.94   3
   1  10  -9 17986.5 1741.77   3
  -1  11  -6 2455.55 715.809   3
  10 -11  -6 2823.78 630.767   3
 -10  -1  -6 2752.70 720.133   3
  11 -10  -6 1753.61 521.955   3
 -11   1  -6 1816.27 606.662   3
 -10  -1  -6 1447.90 529.109   1
   1  10  -6 2114.58 710.325   3
  10 -11  -6 2811.95 687.112   2
 -11   1  -6 1447.95 551.153   1
  10 -11  -3 13269.0 644.345   2
 -10  -1  -3 13724.0 831.355   2
 -11   1  -3 13742.7 816.687   3
 -10  -1  -3 13540.9 827.673   3
   1  10  -3 13227.7 838.949   4
  11 -10  -3 14460.1 759.829   2
  -1  11  -3 13285.6 777.401   1
 -11   1  -3 13947.5 858.774   4
   1  10  -3 14580.7 843.794   1
  10 -11  -3 14595.4 811.082   4
 -10  -1  -3 14142.2 912.214   4
   1  10  -3 14809.3 925.169   3
  11 -10  -3 12219.3 760.931   4
 -10  -1  -3 12601.5 894.760   1
 -11   1  -3 12971.1 850.717   1
  -1  11  -3 12976.6 823.323   4
  -1  11  -3 15196.4 1139.52   2
 -11   1  -3 13832.6 853.442   2
  -1  11  -3 14383.3 928.604   3
   1  10  -3 12242.1 1016.77   2
 -11   1   0 2417.87 474.208   4
 -10  -1   0 1963.89 428.746   4
   1  10   0 1895.79 491.439   1
 -10  -1   0 1871.07 490.329   1
  -1  11   0 2285.22 325.077   4
   1  10   0 1966.79 314.754   2
   1  10   0 2097.93 370.457   4
  -1  11   0 1954.67 484.773   1
  -1  11   0 1888.01 292.004   2
 -10  -1   0 1850.16 449.935   2
 -11   1   0 1949.89 444.563   2
  11 -10   0 1745.79 229.027   4
 -11   1   0 1643.39 476.082   1
   1  10   3 13871.7 1006.86   1
 -10  -1   3 14024.3 1064.34   2
   1  10   3 13866.4 878.163   3
 -11   1   3 14665.1 1019.88   1
 -10  -1   3 15888.0 1035.65   1
 -11   1   3 14960.3 547.019   3
  11 -10   3 14166.7 854.980   3
 -11   1   3 15968.3 1116.05   2
 -10  -1   3 14760.7 1048.66   4
 -11   1   3 16508.8 1091.20   4
  -1  11   3 15515.1 1056.48   1
  10 -11   3 14648.6 888.771   3
 -10  -1   6 5074.09 653.146   3
 -11   1   6 4801.12 938.175   2
 -11   1   6 4592.31 943.451   4
   1  10   6 4571.32 757.458   1
 -10  -1   6 5384.14 962.156   4
 -11   1   6 4819.55 660.793   3
  -1  11   6 5932.67 855.941   1
 -10  -1   6 5526.72 1032.24   2
 -11   1   9 4818.95 1186.19   2
  -1  11   9 5059.15 981.023   1
 -10  -1   9 4759.36 1221.57   2
   1  10   9 3763.39 876.503   1
 -11   1   9 4308.40 1131.55   4
 -10  -1   9 4753.72 1164.51   4
  -2  11 -10 6319.42 1307.71   3
   2   9 -10 3051.81 1132.21   3
 -11   2 -10 4998.97 1156.11   3
  11  -9 -10 7041.91 1123.21   3
  -9  -2 -10 3873.81 1072.61   3
   9 -11 -10 4312.41 1001.95   3
  -9  -2  -7 43793.6 2029.25   3
 -11   2  -7 43979.3 2134.18   3
   9 -11  -7 45457.5 1890.72   3
  11  -9  -7 44803.3 1802.58   3
 -11   2  -7 40451.9 1421.75   1
  -9  -2  -7 41562.7 1722.58   1
  -2  11  -7 47904.3 2263.82   3
   2   9  -7 42913.5 2083.83   3
   9 -11  -4 36493.8 1299.39   3
  -9  -2  -4 36380.3 1422.17   1
   2   9  -4 32741.7 1419.50   4
  -9  -2  -4 32312.7 1356.15   3
  -2  11  -4 36264.1 1115.50   1
   2   9  -4 33993.2 1262.99   1
 -11   2  -4 35683.9 1263.46   1
  11  -9  -4 34832.7 1162.32   3
  11  -9  -4 32979.8 1283.67   2
   9 -11  -4 33992.4 1103.16   2
   9 -11  -4 34226.8 1410.03   4
 -11   2  -4 32005.4 1401.65   3
  11  -9  -4 34953.5 1425.55   4
  -2  11  -4 34688.7 1427.29   4
  -2  11  -4 33878.1 1491.89   3
   2   9  -4 32446.4 1408.25   3
  -9  -2  -1 78952.8 1927.78   1
 -11   2  -1 80435.2 1766.37   4
  -2  11  -1 78221.7 1800.29   1
 -11   2  -1 76718.4 1200.32   3
  -9  -2  -1 83208.9 1853.23   4
  11  -9  -1 82539.8 1296.27   4
 -11   2  -1 81323.2 1866.87   1
  -2  11  -1 78540.3 1665.15   2
   9 -11  -1 71961.0 823.732   4
   2   9  -1 78284.7 1658.04   2
 -11   2  -1 80141.2 1764.18   2
   2   9  -1 81411.6 1893.32   1
  -2  11  -1 82377.2 1374.85   4
  -9  -2  -1 82964.3 1782.28   2
  -9  -2  -1 80332.9 1240.89   3
  11  -9  -1 80485.8 1515.59   2
   2   9  -1 82230.6 1678.14   4
   2   9   2 16779.2 1000.44   1
  -2  11   2 16475.7 1012.08   1
   2   9   2 17390.1 878.540   3
 -11   2   2 18284.9 1023.13   4
 -11   2   2 17396.9 1051.84   2
 -11   2   2 19314.3 1093.57   1
  -9  -2   2 16485.1 979.801   4
  -9  -2   2 17831.4 1006.99   1
  11  -9   2 17232.5 809.794   3
  -2  11   2 16307.5 861.368   3
  -9  -2   2 17499.3 1079.57   2
 -11   2   5 35622.6 1872.57   2
 -11   2   5 38101.7 1286.90   3
  -9  -2   5 34537.4 1840.67   2
  -2  11   5 37609.1 1683.96   1
 -11   2   5 37366.2 1889.78   4
   2   9   5 35178.7 1568.63   1
  -9  -2   5 38047.4 1296.89   3
  -9  -2   5 33419.5 1784.40   4
 -11   2   8 15955.1 1665.69   2
  -9  -2   8 16792.5 1733.71   2
   2   9   8 19844.7 1344.34   1
  -2  11   8 18652.0 1411.13   1
  -9  -2   8 15918.8 1638.35   4
 -11   2   8 16911.4 1622.70   4
  -9  -2  11 15057.3 1913.12   2
   2   9  11 14204.6 1370.64   1
  -2  11  11 15867.0 1481.88   1
 -11   2  11 16159.5 1892.42   2
  -9  -2  11 15656.9 1395.01   1
  -9  -2  11 14751.7 1889.58   4
 -11   2  11 15901.3 1503.05   1
  -3  11 -11 4286.19 1268.82   3
   8 -11 -11 4700.21 1110.59   3
  11  -8 -11 5561.02 1178.03   3
  -8  -3 -11 6031.09 1348.69   3
   3   8 -11 6533.85 1363.89   3
 -11   3 -11 5049.73 1243.92   3
  -3  11  -8 3436.61 1020.62   3
 -11   3  -8 3615.43 938.907   3
 -11   3  -8 1878.90 458.338   1
  -8  -3  -8 3893.91 904.469   3
  11  -8  -8 2915.76 765.165   3
   8 -11  -8 3631.07 817.042   3
   3   8  -8 3359.32 966.088   3
   8 -11  -5 26119.4 1249.99   3
 -11   3  -5 26568.7 1417.84   3
 -11   3  -5 27906.8 1075.05   1
  -8  -3  -5 28557.3 1398.79   3
  -8  -3  -5 28598.8 1352.18   1
   3   8  -5 26425.3 1373.97   3
  -3  11  -5 26606.4 1478.09   3
  11  -8  -5 25829.0 1127.31   3
   8 -11  -5 26738.6 1153.31   2
  11  -8  -5 25479.0 1356.27   2
   8 -11  -5 28375.8 1488.82   4
  -8  -3  -2 47564.2 1317.37   2
   3   8  -2 49851.6 1356.71   3
  11  -8  -2 46640.7 1274.88   2
 -11   3  -2 45539.2 1322.00   4
   8 -11  -2 46923.9 1675.52   1
  11  -8  -2 48733.2 1204.49   4
 -11   3  -2 48282.8 1264.85   3
   3   8  -2 48371.5 1459.14   1
  -8  -3  -2 48238.2 1410.29   4
   3   8  -2 45964.6 1580.01   2
 -11   3  -2 49987.6 1400.53   1
  -3  11  -2 48601.3 1340.76   1
   8 -11  -2 45018.4 811.303   2
  -3  11  -2 46501.2 1531.64   2
  -3  11  -2 46726.4 1438.83   3
  -8  -3  -2 48682.7 1548.92   1
  -8  -3  -2 48283.9 1211.08   3
 -11   3  -2 49653.4 1409.75   2
   3   8  -2 44659.2 1344.53   4
   8 -11  -2 47818.6 1095.00   4
  -3  11  -2 47971.4 1146.23   4
  -8  -3   1 6343.46 610.214   4
   3   8   1 5793.91 412.310   2
   3   8   1 6138.76 640.726   1
  -8  -3   1 5659.40 652.021   2
 -11   3   1 6705.08 654.259   2
 -11   3   1 6127.38 579.858   4
   3   8   1 6485.28 529.328   3
   8 -11   1 5072.31 539.622   1
  -3  11   1 5684.18 686.334   1
  -8  -3   1 5932.15 648.432   1
 -11   3   4 15913.1 1166.15   2
  -8  -3   4 15301.5 1270.86   2
 -11   3   4 16468.7 1164.75   4
   3   8   4 16160.7 1029.24   1
  -8  -3   4 13645.3 1128.10   4
  11  -8   4 15546.1 980.044   3
  -3  11   4 16682.2 1122.16   1
  -8  -3   4 14640.4 953.930   1
  -8  -3   4 14147.5 729.813   3
 -11   3   4 16393.7 766.212   3
  -3  11   7 8211.64 1036.02   1
 -11   3   7 7354.63 1148.74   2
   3   8   7 8063.73 898.119   1
  -8  -3   7 7615.07 1239.19   2
  -8  -3   7 5488.44 1148.62   4
 -11   3   7 8018.45 1195.53   4
 -11   3  10 14938.5 1809.11   4
  -8  -3  10 10771.7 1143.55   1
  -3  11  10 11649.8 1307.26   1
 -11   3  10 14291.1 1718.38   2
  -8  -3  10 12481.4 1635.90   2
 -11   3  10 13421.8 1393.88   1
   3   8  10 12146.1 1207.21   1
  -8  -3  10 14600.7 1873.46   4
 -11   4  -9 5434.88 1139.06   3
  -7  -4  -9 6851.75 1120.05   3
  11  -7  -9 6689.88 1022.88   3
   7 -11  -9 6328.25 1048.28   3
   4   7  -9 6068.06 1203.45   3
  -4  11  -9 6036.18 1273.15   3
 -11   4  -6 657.426 621.864   3
  -7  -4  -6 189.000 491.842   3
  -7  -4  -6 100.324 535.319   1
 -11   4  -6 919.764 366.007   1
   7 -11  -6 1481.51 529.196   3
  11  -7  -6 173.624 418.865   3
  -4  11  -6 77.9565 602.240   3
   7 -11  -6-61.6092 501.402   2
   4   7  -6 346.869 521.198   3
   7 -11  -3 20406.9 1225.19   1
  11  -7  -3 22315.0 1034.20   2
   4   7  -3 21405.4 1077.57   4
  -7  -4  -3 20907.9 963.830   3
 -11   4  -3 22031.7 1056.07   3
 -11   4  -3 22509.5 914.667   1
  -7  -4  -3 22837.2 1145.28   1
  11  -7  -3 21704.7 996.649   4
  -4  11  -3 21945.1 978.015   4
  11  -7  -3 22316.8 746.651   3
  -4  11  -3 21458.3 811.320   1
  -4  11  -3 22270.2 1296.39   2
  -7  -4  -3 21023.8 1022.59   4
   4   7  -3 22340.5 1240.10   2
   4   7  -3 21603.7 989.510   3
   4   7  -3 21996.7 1043.81   1
  -4  11  -3 21041.0 1132.54   3
   7 -11  -3 21885.9 1002.99   4
   7 -11  -3 21432.6 626.085   2
  -7  -4  -3 21384.1 910.305   2
  -4  11   0 3646.00 350.108   2
   7 -11   0 4313.42 568.619   1
 -11   4   0 3344.51 232.100   3
 -11   4   0 4476.91 519.485   2
  11  -7   0 4436.64 447.323   2
   4   7   0 3584.88 412.100   2
 -11   4   0 3245.94 430.022   4
  -4  11   0 3346.54 543.451   1
  -7  -4   0 3495.93 498.310   4
   4   7   0 4316.91 538.563   1
  -7  -4   0 4737.71 526.128   2
  11  -7   0 3678.15 385.868   4
   4   7   0 4760.02 500.945   4
  -7  -4   0 4175.88 570.597   1
  -7  -4   3 25267.2 1273.01   4
   4   7   3 22825.4 1068.16   3
  -4  11   3 23507.0 1084.84   3
 -11   4   3 24862.8 1246.87   4
  11  -7   3 23374.6 1018.01   3
  -7  -4   3 23347.8 1389.26   2
 -11   4   3 24023.3 784.433   3
 -11   4   3 24087.4 1264.75   2
  -7  -4   3 22539.6 1109.36   1
   7 -11   3 23774.7 784.310   1
   4   7   3 23243.8 1145.88   1
  -4  11   3 25034.9 1288.69   1
 -11   4   6 2324.12 544.954   3
  -4  11   6 1813.04 646.644   1
 -11   4   6 1164.57 668.380   2
  -7  -4   6 2249.59 751.065   2
  -7  -4   6 3194.02 851.405   4
 -11   4   6 2766.91 772.906   4
   4   7   6 1498.00 545.938   1
  -7  -4   6 2104.62 563.452   1
  -7  -4   9 20105.1 1883.71   4
 -11   4   9 23500.9 1932.02   2
   4   7   9 23246.5 1439.93   1
  -4  11   9 21733.9 1594.63   1
 -11   4   9 21900.5 1956.60   4
 -11   4   9 21681.2 1637.61   1
  -7  -4   9 18678.6 1838.68   2
   5   6 -10 12320.3 1457.02   3
  -6  -5 -10 10361.4 1443.28   3
  11  -6 -10 13719.6 1423.77   3
  -5  11 -10 10808.9 1566.88   3
 -11   5 -10 13961.2 1666.37   3
   6 -11 -10 11895.4 1367.71   3
 -11   5  -7 33079.3 1878.93   3
   5   6  -7 32000.1 1724.24   3
   6 -11  -7 31519.8 1637.40   3
  -6  -5  -7 29328.5 1707.15   3
  -5  11  -7 31133.8 1917.77   3
  11  -6  -7 32046.4 1542.91   3
   6 -11  -7 29965.9 1624.73   2
   6 -11  -4 20549.0 1046.87   3
  -5  11  -4 23047.7 1279.55   3
  11  -6  -4 22316.3 881.272   3
  -6  -5  -4 21208.3 1168.30   1
   6 -11  -4 20514.6 1147.48   4
  -5  11  -4 21446.3 692.413   1
  -5  11  -4 17972.3 1306.20   2
  -6  -5  -4 20873.1 1109.08   3
  -5  11  -4 22540.1 1183.29   4
 -11   5  -4 22358.4 846.994   1
 -11   5  -4 19639.2 1124.03   3
  11  -6  -4 21431.2 1174.35   2
   5   6  -4 19004.6 1023.03   3
  11  -6  -4 21788.8 1163.77   4
   6 -11  -4 21563.6 819.979   2
  -6  -5  -1 103743. 1977.04   4
   5   6  -1 99797.9 1898.17   2
 -11   5  -1 101096. 1503.81   3
  -5  11  -1 98341.4 1908.00   1
   6 -11  -1 99371.4 2220.13   1
 -11   5  -1 98717.3 1857.19   2
 -11   5  -1 101876. 1758.15   4
  -5  11  -1 100193. 1806.27   2
  11  -6  -1 101857. 1707.90   4
  -5  11  -1 100893. 1088.16   4
  11  -6  -1 101231. 1856.47   2
  -6  -5  -1 100246. 1742.59   2
   5   6  -1 98770.6 2061.46   1
 -11   5  -1 103940. 1970.14   1
  -6  -5  -1 104523. 2193.65   1
   5   6  -1 101871. 1967.81   4
 -11   5   2 42211.4 813.700   3
 -11   5   2 45538.2 1414.54   4
   6 -11   2 43732.1 1060.27   4
   5   6   2 41890.4 1413.81   1
  -6  -5   2 42460.3 1420.70   1
  -5  11   2 43679.9 1294.62   3
 -11   5   2 42636.9 1417.84   2
  -5  11   2 44884.8 1597.98   1
  11  -6   2 45660.7 1178.67   3
   6 -11   2 44053.3 1198.13   1
  -6  -5   2 45174.4 1484.76   4
  -6  -5   2 45811.4 1622.46   2
   5   6   2 46020.6 1297.55   3
 -11   5   5 24446.4 1502.23   2
  -6  -5   5 25495.6 1198.43   1
 -11   5   5 28955.2 1214.75   3
  -6  -5   5 26645.3 1162.58   3
  -5  11   5 26088.4 1441.19   1
   5   6   5 25426.1 1248.89   1
  -6  -5   5 25171.0 1615.78   2
  -6  -5   5 28387.6 1620.55   4
 -11   5   5 24922.7 1565.86   4
  -6  -5   8 40799.9 2383.19   2
 -11   5   8 39651.5 2026.54   1
   5   6   8 39278.3 1715.25   1
 -11   5   8 46133.4 2484.47   4
  -6  -5   8 41214.3 2351.79   4
 -11   5   8 40651.8 2285.86   2
  -5  11   8 41491.1 2001.92   1
 -11   5  11 26152.0 2233.63   2
  -6  -5  11 29335.4 2410.78   2
 -11   5  11 22934.3 1781.29   1
   5   6  11 19901.1 1376.46   1
  -6  -5  11 22949.9 2172.53   4
  -5  11  11 21039.2 1695.51   1
   5 -11 -11 27099.3 2089.67   3
  -6  11 -11 28000.2 2366.06   3
   6   5 -11 25685.6 2112.46   3
  -5  -6 -11 22107.6 1976.57   3
  11  -5 -11 26778.4 1947.23   3
 -11   6 -11 24186.7 2202.65   3
 -11   6  -8 42700.0 2289.92   3
  -6  11  -8 41475.1 2367.80   3
   6   5  -8 37782.2 1986.93   3
  11  -5  -8 44836.4 1941.65   3
  -5  -6  -8 42203.1 2119.43   3
   5 -11  -8 42330.8 2038.89   3
   6   5  -5 28610.7 1352.15   3
   5 -11  -5 32338.7 1248.75   2
  11  -5  -5 31163.9 1205.67   3
  -5  -6  -5 28958.3 1377.41   3
  -5  -6  -5 30224.1 1458.61   1
   5 -11  -5 28650.9 1343.84   3
 -11   6  -5 29689.1 856.258   1
 -11   6  -5 28674.6 1486.31   3
  -6  11  -5 31101.7 1554.34   4
   5 -11  -5 28701.7 1527.06   4
  11  -5  -2 43046.2 1257.86   4
  11  -5  -2 44268.4 1363.47   2
  -6  11  -2 45208.5 1179.55   1
  -5  -6  -2 46118.2 1305.37   4
   6   5  -2 44168.5 1465.31   2
 -11   6  -2 42291.3 1151.33   4
  -6  11  -2 45964.9 1503.20   2
   6   5  -2 46993.3 1495.18   1
   6   5  -2 45003.1 1119.82   3
 -11   6  -2 45829.3 1228.00   1
   5 -11  -2 45439.8 1632.21   1
  -6  11  -2 47358.3 1093.93   4
  -5  -6  -2 47554.2 1585.18   1
  -6  11  -2 45745.0 1424.04   3
 -11   6  -2 45523.4 1290.94   3
   6   5  -2 45561.2 1388.88   4
  -5  -6  -2 43508.5 1115.53   2
  -5  -6  -2 43520.7 1195.52   3
   6   5   1 104558. 1665.81   3
   6   5   1 103943. 2130.49   1
 -11   6   1 110925. 1845.85   4
 -11   6   1 106261. 1944.09   2
   5 -11   1 95777.4 1262.75   4
  -5  -6   1 105925. 2154.39   1
   6   5   1 104708. 1719.24   2
   6   5   1 110074. 1994.41   4
  11  -5   1 107567. 1411.83   3
   5 -11   1 104282. 1992.35   1
  -6  11   1 104942. 2252.08   1
  -5  -6   1 110156. 2172.47   2
 -11   6   1 102624. 1091.25   3
  -5  -6   1 106978. 1983.77   4
   6   5   4 22571.4 1123.44   1
   6   5   4 25491.5 1281.80   3
 -11   6   4 24427.4 988.231   3
  -6  11   4 23532.9 882.922   2
  -5  -6   4 20508.7 1030.53   1
   5 -11   4 23924.5 1173.34   4
 -11   6   4 21728.0 1241.57   2
  -5  -6   4 20341.5 1263.66   4
  11  -5   4 22845.2 1151.17   3
  -5  -6   4 21453.9 1404.82   2
  -6  11   4 23302.7 1356.59   1
   5 -11   4 22685.7 724.704   1
  -5  -6   4 21907.7 971.992   3
 -11   6   4 23428.2 1315.42   4
 -11   6   7 26273.2 1742.02   2
  -5  -6   7 24709.5 1815.77   2
   6   5   7 25020.3 1313.83   1
 -11   6   7 26577.2 1598.87   1
  -5  -6   7 21299.0 1167.33   1
  -6  11   7 25471.3 1619.67   1
  -5  -6   7 23595.3 1746.03   4
 -11   6   7 27874.4 1831.41   4
  -5  -6  10 9307.25 981.420   1
  -6  11  10 11839.1 1321.28   1
 -11   6  10 11626.8 1344.84   1
   6   5  10 9901.88 1013.89   1
 -11   6  10 10466.3 1467.15   2
  -5  -6  10 11796.7 1633.77   2
  -5  -6  10 11253.4 1638.83   4
 -11   6  10 13854.2 1610.39   4
  -4  -7  -9 22785.6 1705.23   3
 -11   7  -9 24234.3 1904.28   3
  11  -4  -9 24703.5 1615.08   3
   4 -11  -9 25326.8 1744.04   3
  -7  11  -9 21288.3 1898.10   3
   7   4  -9 23275.3 1727.38   3
  -7  11  -6 460.437 632.348   3
 -11   7  -6 2553.51 684.421   3
   4 -11  -6 2493.15 636.422   2
   7   4  -6 1920.56 622.549   3
  11  -4  -6 2813.89 578.575   3
  -4  -7  -6 1137.52 612.707   3
   4 -11  -6 1654.92 600.207   3
   7   4  -3 24759.8 927.322   3
 -11   7  -3 26667.4 854.381   1
  -4  -7  -3 26468.4 1299.54   1
  -7  11  -3 25738.3 795.217   1
  11  -4  -3 26407.8 1226.26   2
  -7  11  -3 27570.9 1103.31   4
 -11   7  -3 26534.3 1181.38   3
  11  -4  -3 27582.0 742.521   3
  -7  11  -3 27997.2 1411.14   2
   4 -11  -3 23529.8 1312.71   1
  -4  -7  -3 25305.8 1074.44   3
  11  -4  -3 25443.1 1134.93   4
   7   4  -3 25693.4 1355.06   2
   7   4  -3 23804.7 1157.21   4
   4 -11  -3 21368.8 515.635   2
  -7  11  -3 25802.5 1231.90   3
  -4  -7  -3 26812.4 875.699   2
  -4  -7   0 4102.74 568.318   1
 -11   7   0 3841.41 438.802   2
  -4  -7   0 3570.42 463.710   2
   7   4   0 3776.70 334.099   3
   4 -11   0 3800.40 257.062   4
   7   4   0 3810.44 457.478   2
  -7  11   0 4390.77 610.644   1
   7   4   0 2971.61 519.386   1
   4 -11   0 2851.24 552.000   1
 -11   7   0 4090.85 339.482   3
 -11   7   0 3158.23 359.580   4
  11  -4   0 4276.87 490.469   2
   7   4   0 4631.77 536.569   4
  11  -4   0 3375.38 430.201   4
  -4  -7   0 3508.43 477.032   4
  11  -4   3 24633.4 1052.90   3
  -4  -7   3 25169.3 1382.40   2
  -4  -7   3 24167.0 1066.24   1
  -7  11   3 24865.7 793.117   2
  -7  11   3 24963.7 1040.13   3
 -11   7   3 24051.1 851.033   3
   7   4   3 26313.5 1166.20   3
  -7  11   3 24996.6 1323.49   1
   7   4   3 24412.5 1113.80   1
  -4  -7   3 24361.1 1239.62   4
 -11   7   3 22709.1 1155.22   4
   4 -11   3 23376.2 1031.41   4
 -11   7   3 24367.9 1158.54   2
   4 -11   3 24574.8 884.358   1
   4 -11   6 311.704 157.788   1
 -11   7   6-203.769 656.034   4
 -11   7   6-70.0154 587.563   1
  11  -4   6-34.1901 286.276   1
   4 -11   6 1725.43 712.786   4
   7   4   6 560.053 450.594   1
  -4  -7   6 830.071 697.134   2
  -4  -7   6 303.126 428.136   1
 -11   7   6 104.669 614.883   2
  -7  11   6 287.618 566.661   1
  -4  -7   6 8.24782 605.221   4
  -7  11   6 412.203 482.028   2
   7   4   9 6022.71 825.619   1
 -11   7   9 4989.58 1100.82   2
  -7  11   9 6570.04 1058.35   1
 -11   7   9 3808.24 970.300   1
  -4  -7   9 5378.08 1245.83   4
  -4  -7   9 4155.94 1158.95   2
 -11   7   9 5632.91 1195.12   4
  11  -3 -10 13035.5 1366.13   3
  -8  11 -10 11389.1 1579.44   3
   8   3 -10 13614.2 1503.71   3
  -3  -8 -10 11792.7 1435.33   3
   3 -11 -10 14388.3 1512.80   3
 -11   8 -10 13153.9 1698.06   3
   8   3  -7 7075.35 953.495   3
  11  -3  -7 6936.08 825.167   3
  -3  -8  -7 8087.78 992.216   3
   3 -11  -7 6622.13 883.615   3
  -8  11  -7 5796.39 1092.60   3
   3 -11  -7 6878.87 964.281   2
 -11   8  -7 7963.38 1105.76   3
  -8  11  -4 18256.0 1102.60   4
  -8  11  -4 18800.8 1155.49   3
 -11   8  -4 20417.8 649.842   1
  -8  11  -4 17771.3 517.193   1
  11  -3  -4 21756.3 852.819   3
   3 -11  -4 20644.8 1077.65   3
 -11   8  -4 19225.0 1152.65   3
   3 -11  -4 20198.9 819.146   2
  -3  -8  -4 18419.3 1040.65   3
  -3  -8  -4 16951.9 1128.34   1
   8   3  -4 19904.8 946.416   3
   3 -11  -1 5250.15 358.110   4
   8   3  -1 5367.93 618.511   4
 -11   8  -1 5478.07 455.888   3
 -11   8  -1 5076.53 410.578   4
  -8  11  -1 4224.82 502.220   1
  -8  11  -1 3684.08 240.964   4
   8   3  -1 5206.50 541.316   2
  -3  -8  -1 4588.89 634.594   1
  11  -3  -1 5501.18 551.184   4
  11  -3  -1 5017.45 572.618   2
 -11   8  -1 5308.83 498.014   2
  -3  -8  -1 4771.71 418.725   2
   3 -11  -1 4848.72 661.828   1
   8   3  -1 6090.50 686.450   1
  -3  -8  -1 5152.61 520.930   4
   3 -11   2 43220.2 1283.91   1
 -11   8   2 42743.5 1320.46   2
   3 -11   2 45956.9 1505.86   2
  -3  -8   2 47249.9 1455.00   4
  -8  11   2 48635.7 1732.77   1
  -3  -8   2 46384.0 1642.02   2
   8   3   2 44076.9 1440.10   1
  11  -3   2 45748.7 1184.87   3
 -11   8   2 42217.5 988.689   3
   8   3   2 47484.5 1290.80   3
   3 -11   2 44471.4 1236.46   4
  -8  11   2 45150.7 930.762   2
 -11   8   2 45604.7 1340.08   4
  -8  11   2 45980.8 1276.10   3
  -3  -8   2 43928.2 1416.91   1
   3 -11   5 24927.4 831.564   1
  -3  -8   5 25286.9 1109.91   1
  11  -3   5 26032.5 976.710   1
 -11   8   5 24533.3 1169.80   3
  -3  -8   5 26418.5 1647.53   2
  -8  11   5 25749.9 1171.47   2
   3 -11   5 25438.6 1525.54   2
 -11   8   5 25444.4 1423.09   2
  -8  11   5 27296.8 1515.89   1
   3 -11   5 25684.1 1440.90   4
   8   3   5 24178.7 1135.22   1
  -3  -8   5 24173.6 1481.44   4
 -11   8   5 27944.4 1539.32   1
 -11   8   5 27503.7 1540.10   4
  -3  -8   8 2299.75 582.499   1
  -8  11   8 2019.10 772.797   1
 -11   8   8 2787.26 991.386   4
   8   3   8 2908.76 667.362   1
  -3  -8   8 2334.98 942.994   4
  11  -3   8 2298.73 415.889   1
 -11   8   8 2404.94 823.676   2
  -3  -8   8 3651.91 1048.02   2
 -11   8   8 1511.74 771.407   1
 -11   8  11 5336.94 1139.32   1
  -8  11  11 4450.73 1164.97   1
 -11   8  11 6986.75 1263.64   2
  -9  11 -11 14375.9 1874.82   3
 -11   9 -11 12617.7 1751.94   3
  11  -2 -11 20138.2 1746.42   3
   2 -11 -11 17486.8 1808.81   3
  -2  -9 -11 19410.1 1842.38   3
   9   2 -11 16121.7 1683.56   3
 -11   9  -8 19435.3 1655.98   3
   9   2  -8 18299.4 1413.51   3
  11  -2  -8 19111.7 1340.61   3
  -2  -9  -8 19582.0 1523.49   3
   2 -11  -8 20912.0 1523.96   3
  -9  11  -8 19913.9 1696.63   3
   2 -11  -5 37340.0 1309.44   2
  -9  11  -5 34688.9 1701.63   3
  11  -2  -5 36794.6 1296.39   3
 -11   9  -5 37284.8 1724.67   3
  -2  -9  -5 35647.3 1537.35   3
  -9  11  -5 35512.2 1668.50   4
   9   2  -5 35530.7 1369.88   3
   2 -11  -5 32988.6 1465.34   3
   9   2  -2 17200.3 1008.59   2
   2 -11  -2 19822.2 1152.61   1
  -9  11  -2 20300.1 791.114   4
  11  -2  -2 19862.3 966.134   4
  -9  11  -2 19373.8 981.143   3
  -9  11  -2 19671.0 838.357   1
 -11   9  -2 19360.9 931.474   3
  11  -2  -2 17957.3 993.167   2
   9   2  -2 18924.1 972.254   4
  -2  -9  -2 17528.1 1099.08   1
  -2  -9  -2 19325.2 860.107   4
  -2  -9  -2 19776.6 649.009   2
   9   2  -2 19109.6 614.752   3
   9   2   1 81171.6 1408.08   3
  11  -2   1 82827.6 1765.92   4
   9   2   1 77957.8 1792.01   4
   2 -11   1 80394.8 1728.84   2
  -9  11   1 76001.6 1256.11   2
  -2  -9   1 82476.1 1955.23   1
   2 -11   1 84224.8 1916.99   1
  11  -2   1 82147.7 1266.69   3
  -2  -9   1 83583.9 1675.51   4
 -11   9   1 79833.7 1563.30   2
 -11   9   1 85901.3 1468.29   4
   9   2   1 86902.1 1751.72   2
  -2  -9   1 87502.4 1997.33   2
  -9  11   1 83613.6 2101.31   1
  11  -2   1 84010.1 1806.35   2
   9   2   1 85342.7 1964.07   1
   2 -11   1 80776.7 1420.21   4
  11  -2   4 38317.5 1500.83   3
   9   2   4 37260.5 1501.31   3
  -9  11   4 34577.2 1322.78   3
  -2  -9   4 38898.8 1836.48   2
   2 -11   4 37883.4 1156.52   1
 -11   9   4 35032.0 1648.80   1
  -2  -9   4 34012.2 1573.45   4
   9   2   4 36171.6 1323.30   1
  -9  11   4 34995.6 1670.46   1
   2 -11   4 32722.1 1637.11   2
 -11   9   4 35543.9 1457.69   2
  -2  -9   4 32313.3 1212.09   1
 -11   9   4 35952.4 1542.26   4
  -9  11   4 35643.6 1249.17   2
  11  -2   4 36478.9 1224.41   1
   2 -11   4 35678.7 1525.32   4
 -11   9   4 33665.2 1197.67   3
  -2  -9   7 32073.6 1255.15   1
   9   2   7 35115.6 1411.68   1
 -11   9   7 34320.4 1843.76   2
   2 -11   7 34908.3 975.397   1
  -2  -9   7 37374.6 2203.47   2
 -11   9   7 41560.7 2042.99   1
  11  -2   7 38525.4 1248.55   1
  -9  11   7 37706.9 1752.72   2
  -2  -9   7 37108.1 2059.74   4
  -9  11   7 37333.6 1965.76   1
   2 -11   7 40094.6 2089.06   4
 -11   9   7 41206.6 2123.68   4
  -9  11  10 4760.77 1052.67   1
 -11   9  10 2413.84 920.978   2
   9   2  10 3093.98 662.838   1
  -2  -9  10 2105.60 1104.72   4
 -11   9  10 2594.67 923.093   1
   1 -11  -9 7135.89 1132.72   3
 -11  10  -9 4836.50 1160.30   3
  10   1  -9 5628.21 974.723   3
  -1 -10  -9 6383.19 1085.95   3
 -10  11  -9 5359.39 1189.30   3
  11  -1  -9 4853.48 949.846   3
  11  -1  -6 5497.86 679.530   3
 -10  11  -6 5781.61 939.542   3
   1 -11  -6 6208.13 830.703   3
  -1 -10  -6 5952.59 818.892   3
  10   1  -6 6375.53 754.561   3
   1 -11  -6 4792.77 730.091   2
  -1 -10  -6 4347.95 751.799   2
 -11  10  -6 4045.55 859.472   3
   1 -11  -3 15141.9 450.127   2
 -10  11  -3 17972.2 1064.25   3
  -1 -10  -3 15974.2 571.123   2
 -10  11  -3 17097.6 935.026   4
  11  -1  -3 17948.4 658.659   3
 -10  11  -3 15453.6 674.463   1
   1 -11  -3 12471.9 537.932   2
  -1 -10  -3 15391.3 901.563   3
  10   1  -3 17196.3 689.371   3
  -1 -10  -3 16003.1 1112.53   1
 -11  10  -3 14533.2 680.475   1
  11  -1  -3 15131.3 971.081   4
   1 -11  -3 16618.8 1178.96   1
 -11  10  -3 14924.0 949.457   3
  10   1   0 1518.01 392.487   2
 -11  10   0 1910.75 244.212   4
  11  -1   0 1725.96 169.400   3
 -11  10   0 1778.99 319.776   2
  -1 -10   0 2010.27 406.210   2
 -10  11   0 1750.85 305.657   2
   1 -11   0 1512.97 514.866   1
   1 -11   0 1922.26 374.191   2
   1 -11   0 2112.71 316.574   4
  10   1   0 2095.17 246.297   3
  10   1   0 1532.09 436.091   4
  -1 -10   0 1837.79 502.391   1
  11  -1   0 1676.61 417.034   2
  11  -1   0 1434.56 399.030   4
 -10  11   0 1413.69 161.808   4
 -10  11   0 2060.41 512.900   1
  10   1   0 2549.44 565.628   1
  -1 -10   0 2086.23 338.006   4
  -1 -10   3 12924.4 1025.20   2
  10   1   3 14543.0 902.523   1
  10   1   3 14432.0 880.149   3
  11  -1   3 12639.3 831.500   3
  11  -1   3 13019.8 819.711   1
   1 -11   3 14117.1 1042.14   2
   1 -11   3 12656.7 796.543   1
   1 -11   3 13168.0 896.654   4
 -11  10   3 11770.8 712.328   3
 -11  10   3 14122.9 1128.54   1
 -10  11   3 12177.6 746.737   3
  -1 -10   3 13973.3 845.924   1
 -11  10   3 12878.5 878.415   4
  -1 -10   3 12097.7 882.689   4
 -10  11   3 15181.2 1140.53   1
 -10  11   3 15307.4 901.398   4
 -11  10   3 13461.7 825.645   2
 -10  11   3 13409.8 749.164   2
  -1 -10   6 2471.66 792.174   4
   1 -11   6 3083.66 820.765   4
 -11  10   6 2412.52 765.036   4
   1 -11   6 1240.60 384.270   1
  -1 -10   6 1963.52 750.790   2
 -11  10   6 1707.29 621.790   2
  -1 -10   6 1096.66 414.836   1
   1 -11   6 3208.11 964.422   2
 -11  10   6 1949.33 733.375   1
 -10  11   6 1826.99 595.908   2
  10   1   6 1683.16 505.359   1
 -10  11   6 1653.78 731.360   1
  11  -1   6 1671.86 459.476   1
   1 -11   9 9138.34 558.581   1
  -1 -10   9 13488.5 1558.22   4
  10   1   9 13854.3 982.636   1
 -10  11   9 14676.1 1395.59   2
  -1 -10   9 14078.9 1645.99   2
 -11  10   9 14629.2 1426.38   2
  11  -1   9 11954.0 819.500   1
 -11  10   9 14973.6 1483.83   1
 -10  11   9 16064.3 1514.10   1
   1 -11   9 13128.3 1522.93   4
  11   0 -10 4549.82 1070.53   3
   0 -11 -10 3153.87 1044.37   3
 -11  11 -10 4365.02 1257.83   3
 -11  11  -7-285.470 794.139   3
  11   0  -7 630.103 570.427   3
   0 -11  -7 298.825 572.365   3
   0 -11  -7 164.823 694.584   2
 -11  11  -4 17380.8 1140.72   3
  11   0  -4 16974.5 791.538   3
 -11  11  -4 17640.4 1108.17   4
   0 -11  -4 17112.2 809.908   2
   0 -11  -4 16719.0 1023.69   3
 -11  11  -4 15964.7 589.110   1
   0 -11  -1-252.161 279.821   4
 -11  11  -1 211.183 344.681   1
   0 -11  -1 160.649 250.652   2
   0 -11  -1 187.950 543.777   1
  11   0  -1 1.44174 400.752   2
 -11  11  -1 27.8423 318.904   3
  11   0  -1-30.9360 352.866   4
 -11  11  -1 239.429 193.153   4
   0 -11   2 9097.20 839.656   2
  11   0   2 9312.90 648.582   3
   0 -11   2 9216.18 692.446   4
   0 -11   2 8950.41 751.092   1
 -11  11   2 8746.50 580.328   3
 -11  11   2 10432.4 964.810   1
 -11  11   2 9672.37 604.997   2
 -11  11   2 9184.54 633.787   4
  11   0   2 9143.49 735.406   1
   0 -11   5-220.413 362.501   1
   0 -11   5 493.795 705.159   2
  11   0   5 426.202 367.600   1
   0 -11   5 34.5489 592.761   4
 -11  11   5 318.292 438.502   2
 -11  11   5-208.622 611.058   1
 -11  11   5-1224.54 628.673   4
  11   0   8 8263.74 789.083   1
 -11  11   8 9542.80 1137.36   2
   0 -11   8 8027.98 1322.50   2
   0 -11   8 7263.74 641.547   1
 -11  11   8 8001.47 1149.08   1
   0 -11   8 7025.66 1156.23   4
 -11  11  11-214.994 913.763   1
 -12   0  -9 567.025 789.139   3
   0  12  -9-422.344 884.839   3
  12 -12  -9 465.210 699.988   3
  12 -12  -6 21785.3 1238.08   3
 -12   0  -6 21364.8 1261.87   1
   0  12  -6 21055.4 1505.84   3
 -12   0  -6 21670.1 1419.26   3
 -12   0  -3 347.199 361.529   2
 -12   0  -3 531.582 417.415   4
   0  12  -3 775.165 414.991   1
  12 -12  -3-247.820 294.819   2
   0  12  -3 438.188 560.219   2
 -12   0  -3 302.798 377.591   3
  12 -12  -3 0.86290 339.067   4
   0  12  -3-43.1990 469.213   3
   0  12  -3-58.9804 385.119   4
 -12   0  -3-368.766 431.015   1
 -12   0   0 8166.78 667.331   4
 -12   0   0 9235.02 763.096   2
   0  12   0 8853.08 789.297   1
   0  12   0 8562.22 503.706   2
   0  12   0 9613.17 586.632   4
 -12   0   0 8528.75 813.397   1
 -12   0   3 154.789 489.810   4
   0  12   3 202.770 500.538   1
 -12   0   3 326.417 552.692   2
 -12   0   6 18232.4 1013.71   3
 -12   0   6 18740.7 1595.73   2
 -12   0   6 18383.8 1527.99   4
   0  12   6 18348.2 1320.83   1
   0  12   9-695.557 695.547   1
 -12   0   9 282.160 966.892   2
 -12   0   9 460.079 943.224   4
  -1  12 -10 19552.7 2036.41   3
   1  11 -10 21740.9 2009.58   3
 -12   1 -10 22343.5 1925.04   3
 -11  -1 -10 21897.9 1936.11   3
  12 -11 -10 24080.2 1768.92   3
  11 -12 -10 27011.9 1861.34   3
  -1  12  -7 47839.1 2303.15   3
 -11  -1  -7 50095.7 2190.38   3
  11 -12  -7 52372.5 2062.15   3
 -12   1  -7 40606.2 1630.72   1
 -11  -1  -7 40330.4 1721.30   1
   1  11  -7 46618.2 2272.42   3
 -12   1  -7 48659.2 2205.36   3
  12 -11  -7 50496.5 1929.16   3
 -12   1  -4 42959.3 1550.07   2
 -11  -1  -4 44784.8 1614.99   4
  -1  12  -4 44639.9 1386.02   1
 -12   1  -4 46849.6 1629.15   3
  -1  12  -4 44609.3 1608.73   4
 -11  -1  -4 45989.7 1610.11   3
  12 -11  -4 46134.2 1438.59   2
   1  11  -4 46208.4 1487.65   1
 -12   1  -4 43290.5 1537.78   1
  -1  12  -4 42886.5 1712.66   3
  12 -11  -4 47053.0 1600.09   4
  11 -12  -4 44217.4 1295.67   2
 -11  -1  -4 45280.2 1643.55   1
 -11  -1  -4 41510.1 1502.48   2
  11 -12  -4 45473.3 1580.27   4
   1  11  -4 44257.7 1687.17   3
 -11  -1  -1 81702.1 1238.60   3
   1  11  -1 83079.9 1720.77   4
 -12   1  -1 86806.7 2090.00   1
 -11  -1  -1 80093.9 1894.90   2
 -12   1  -1 81999.7 1207.21   3
 -11  -1  -1 88321.9 2033.98   4
  12 -11  -1 84539.6 1270.30   4
  -1  12  -1 82560.5 1729.50   2
 -12   1  -1 84167.2 1943.82   2
  12 -11  -1 83111.6 1569.65   2
  -1  12  -1 85851.2 1599.74   4
   1  11  -1 79707.9 1722.78   2
  -1  12  -1 84024.1 1993.49   1
 -12   1  -1 82119.5 1926.04   4
 -11  -1  -1 86272.1 2131.91   1
   1  11  -1 84604.3 2025.44   1
  11 -12  -1 82132.2 1022.75   4
   1  11   2 55807.4 1594.53   3
 -11  -1   2 53185.4 1743.82   4
 -11  -1   2 50431.8 1793.88   2
  -1  12   2 49015.6 1759.41   1
 -11  -1   2 52052.2 1762.83   1
  -1  12   2 53200.3 1567.28   3
 -12   1   2 54423.4 1841.25   2
   1  11   2 54123.4 1813.09   1
 -12   1   2 56500.5 1767.84   4
 -12   1   2 54470.3 1849.20   1
 -11  -1   5 15413.1 1381.10   2
  -1  12   5 17024.0 1255.09   1
 -12   1   5 16249.2 1384.92   2
 -12   1   5 18515.0 1417.66   4
   1  11   5 15537.1 1178.67   1
 -12   1   5 17540.7 875.348   3
 -11  -1   5 17378.8 1382.73   4
 -11  -1   5 17581.4 868.414   3
  -1  12   8 5499.89 984.648   1
 -11  -1   8 3047.35 1136.29   2
 -12   1   8 4187.98 1133.09   2
   1  11   8 4619.71 889.847   1
 -11  -1   8 5127.80 1198.21   4
 -12   1   8 4361.01 1162.71   4
  10 -12 -11 8340.01 1323.06   3
  -2  12 -11 5582.87 1539.80   3
   2  10 -11 4591.50 1385.80   3
 -12   2 -11 6237.75 1332.75   3
  12 -10 -11 6372.69 1216.66   3
 -10  -2 -11 6583.53 1347.47   3
 -10  -2  -8 2702.73 911.096   3
  -2  12  -8 3179.24 1017.51   3
 -12   2  -8 1579.89 867.801   3
  12 -10  -8 4754.64 808.823   3
  10 -12  -8 3875.91 849.072   3
   2  10  -8 2246.58 936.920   3
 -12   2  -8 2014.84 612.911   1
 -10  -2  -5 9559.97 883.810   1
  -2  12  -5 9289.66 963.560   3
 -12   2  -5 9823.58 951.400   3
 -10  -2  -5 8932.29 877.630   3
 -12   2  -5 9810.64 815.426   1
  -2  12  -5 9016.60 642.465   1
  10 -12  -5 9629.97 808.495   3
  10 -12  -5 9134.31 966.616   4
  12 -10  -5 9883.35 759.580   3
  12 -10  -5 10239.3 908.212   2
  10 -12  -5 9521.49 753.337   2
   2  10  -5 10454.3 1009.76   3
  -2  12  -2 7119.26 755.471   2
 -12   2  -2 7727.12 658.650   4
  10 -12  -2 7312.03 433.743   2
 -10  -2  -2 8204.71 668.373   4
 -12   2  -2 7873.53 687.762   2
  -2  12  -2 7353.03 547.907   4
   2  10  -2 6741.47 691.024   1
 -12   2  -2 7158.60 694.048   1
 -10  -2  -2 7313.64 553.128   3
   2  10  -2 7410.70 716.443   2
  12 -10  -2 7259.23 524.029   4
   2  10  -2 6490.71 608.896   4
  10 -12  -2 7865.55 467.626   4
 -12   2  -2 7205.51 551.515   3
 -10  -2  -2 7819.83 668.770   2
  -2  12  -2 7703.06 673.737   1
 -10  -2  -2 7174.14 732.772   1
  -2  12  -2 6522.89 676.835   3
  12 -10  -2 7578.08 572.148   2
 -10  -2   1 12425.7 886.243   2
 -12   2   1 11120.7 777.700   4
 -10  -2   1 12627.3 924.752   1
 -12   2   1 10572.9 809.782   2
   2  10   1 11927.2 712.968   3
  -2  12   1 12802.9 944.203   1
 -10  -2   1 9859.53 751.367   4
 -12   2   1 11585.1 901.092   1
   2  10   1 12442.8 914.461   1
  -2  12   1 9977.81 303.776   2
   2  10   1 11573.7 515.568   2
 -12   2   4 4396.92 433.648   3
 -12   2   4 4039.68 819.774   2
  -2  12   4 3726.53 674.281   1
 -10  -2   4 4097.70 428.828   3
 -10  -2   4 3467.75 786.639   2
 -12   2   4 4064.94 752.031   4
 -10  -2   4 4387.82 784.986   4
   2  10   4 4448.24 692.605   1
  -2  12   7 6998.88 956.296   1
 -12   2   7 4847.22 1015.12   2
 -10  -2   7 3652.19 1051.35   2
   2  10   7 3665.57 765.973   1
 -12   2   7 6269.33 1157.78   4
 -10  -2   7 4783.55 1073.17   4
 -12   2  10 6051.88 1390.61   2
  -2  12  10 8150.40 1150.74   1
 -10  -2  10 5073.06 1433.54   4
 -10  -2  10 7404.54 1465.33   2
 -12   2  10 4770.73 1019.65   1
   2  10  10 5042.13 967.043   1
 -12   2  10 5620.40 1407.83   4
 -12   3  -9 316.807 781.374   3
   3   9  -9 806.023 914.943   3
  -9  -3  -9-278.232 795.635   3
  12  -9  -9 151.964 651.307   3
   9 -12  -9 1585.48 819.192   3
  -3  12  -9-659.657 822.895   3
  -3  12  -6 12375.7 1225.84   3
   3   9  -6 15115.2 1224.30   3
  -9  -3  -6 12785.6 1100.29   3
 -12   3  -6 16338.8 1278.56   3
  -9  -3  -6 14485.3 1082.98   1
   9 -12  -6 13148.6 1006.44   2
  12  -9  -6 16391.5 1026.58   3
 -12   3  -6 15324.9 909.664   1
   9 -12  -6 13993.9 1055.00   3
 -12   3  -3 4463.07 572.027   3
 -12   3  -3 4306.54 569.415   4
   3   9  -3 3901.79 606.826   4
  -9  -3  -3 3517.36 506.932   2
   9 -12  -3 4271.33 364.126   2
 -12   3  -3 4886.94 614.146   2
  -9  -3  -3 4442.87 511.390   3
  12  -9  -3 4619.02 543.845   4
  12  -9  -3 3925.49 518.695   2
   3   9  -3 3968.01 760.452   2
  -3  12  -3 4258.85 520.599   4
   3   9  -3 5254.01 616.789   3
  -9  -3  -3 3879.16 649.118   1
  -3  12  -3 5639.72 790.893   2
  -9  -3  -3 3615.67 582.783   4
 -12   3  -3 5245.81 590.199   1
  -3  12  -3 4307.81 492.110   1
   3   9  -3 4230.36 562.135   1
  -3  12  -3 4938.39 656.456   3
   9 -12  -3 4940.30 546.759   4
  -9  -3   0 30331.4 1162.92   4
   3   9   0 30093.7 1224.99   1
  -9  -3   0 33220.1 1225.01   2
  -9  -3   0 31107.4 1305.16   1
  -3  12   0 30658.7 1265.28   1
 -12   3   0 33021.9 1152.67   4
  -3  12   0 29501.3 757.062   4
 -12   3   0 32092.2 1306.90   1
  12  -9   0 33181.1 858.849   4
   3   9   0 32393.6 1082.85   4
 -12   3   0 32072.8 1205.92   2
   3   9   0 32479.0 973.276   2
  -3  12   0 31015.6 814.112   2
 -12   3   3 1742.48 257.678   3
  -9  -3   3 2366.55 612.595   4
  -9  -3   3 1959.66 693.739   2
   3   9   3 2377.64 526.072   3
  -3  12   3 3155.52 618.794   1
  -9  -3   3 2627.97 585.922   1
 -12   3   3 2078.77 631.284   2
   3   9   3 2092.68 526.552   1
 -12   3   3 1308.06 521.796   4
  12  -9   3 2411.96 471.376   3
 -12   3   6 18855.7 1062.54   3
  -3  12   6 21785.7 1443.03   1
  -9  -3   6 19479.5 1594.95   2
  -9  -3   6 19907.3 1603.76   4
   3   9   6 18073.0 1207.81   1
 -12   3   6 18210.2 1477.24   2
 -12   3   6 19770.8 1551.06   4
   3   9   9 1756.04 725.714   1
 -12   3   9 1520.48 962.688   2
  -3  12   9 1493.29 842.779   1
  -9  -3   9-88.0569 916.388   2
 -12   3   9 1478.70 811.852   1
 -12   3   9-565.238 867.432   4
  -9  -3   9 2373.13 1102.27   4
  -4  12 -10 2593.22 1231.09   3
   4   8 -10 3087.89 1098.03   3
 -12   4 -10 1697.52 1002.24   3
  12  -8 -10 2478.55 877.570   3
   8 -12 -10 1157.48 869.280   3
  -8  -4 -10 3241.28 1007.64   3
  -4  12  -7 31421.9 1935.96   3
   4   8  -7 35300.9 1878.10   3
   8 -12  -7 33892.3 1708.47   3
 -12   4  -7 33506.2 1900.73   3
  -8  -4  -7 33666.9 1805.80   3
  12  -8  -7 35522.7 1598.32   3
 -12   4  -7 28492.1 1073.34   1
   8 -12  -7 32809.3 1668.95   2
  12  -8  -4 37756.5 1148.24   3
   4   8  -4 38323.5 1463.75   3
 -12   4  -4 37851.6 1526.62   3
  -8  -4  -4 43208.0 1640.93   1
  -4  12  -4 37840.1 1081.52   1
  -8  -4  -4 38221.9 1443.39   3
 -12   4  -4 38929.6 1249.06   1
   4   8  -4 38190.2 1418.01   1
  12  -8  -4 33019.4 1418.76   4
   8 -12  -4 35248.1 1352.49   3
  12  -8  -4 35616.4 1408.85   2
  -4  12  -4 39796.0 1507.33   4
   8 -12  -4 38519.4 1049.89   2
   8 -12  -4 40827.4 1549.63   4
  -4  12  -4 36872.8 1601.10   3
  -8  -4  -4 36549.9 1287.62   2
 -12   4  -1 125878. 1631.61   3
  12  -8  -1 118339. 2009.01   2
   4   8  -1 128193. 2233.86   4
  -4  12  -1 129712. 2317.99   1
  12  -8  -1 130287. 1888.07   4
 -12   4  -1 129049. 2350.09   1
  -8  -4  -1 132954. 2386.45   4
   4   8  -1 128552. 2456.79   1
   8 -12  -1 126844. 2639.96   1
 -12   4  -1 124794. 2255.84   2
  -8  -4  -1 128019. 2529.65   1
   4   8  -1 122080. 2135.71   2
  -8  -4  -1 128257. 2168.25   2
  -4  12  -1 127073. 2097.41   2
 -12   4  -1 126968. 2174.27   4
  -4  12  -1 131225. 1491.60   4
  -8  -4   2 3430.30 570.632   4
  -4  12   2 3076.45 617.539   1
 -12   4   2 2065.56 180.696   3
 -12   4   2 3055.85 543.804   4
  -8  -4   2 3298.68 576.591   1
   8 -12   2 3521.64 470.256   1
   4   8   2 3803.46 615.278   1
  -4  12   2 3165.30 509.261   3
  -8  -4   2 3253.00 652.158   2
  12  -8   2 2838.93 424.191   3
 -12   4   2 2362.36 535.706   2
   4   8   2 3406.90 477.653   3
 -12   4   5 67628.1 2446.56   2
  -8  -4   5 70447.7 2654.76   2
 -12   4   5 72512.5 2522.28   4
 -12   4   5 74259.6 1813.49   3
   4   8   5 65464.0 2055.29   1
  -8  -4   5 68045.8 1730.90   3
  -8  -4   5 65165.3 2454.66   4
  -4  12   5 65918.4 2238.80   1
 -12   4   8 1102.73 818.286   4
  -8  -4   8 1096.95 875.527   4
  -4  12   8 1082.13 691.322   1
 -12   4   8 1451.67 947.353   2
  -8  -4   8 854.674 837.426   2
   4   8   8 733.262 604.569   1
  -8  -4  11 18138.7 2108.03   4
  -4  12  11 14921.5 1480.70   1
   4   8  11 16301.7 1402.55   1
 -12   4  11 15317.2 1621.14   1
  -8  -4  11 13707.1 1322.09   1
 -12   4  11 15891.8 1927.74   2
  -8  -4  11 19046.0 2187.21   2
 -12   4  11 18174.4 2050.75   4
  12  -7 -11 23839.1 1861.50   3
 -12   5 -11 18956.8 1973.59   3
   7 -12 -11 23496.1 1931.21   3
  -7  -5 -11 19595.0 1987.71   3
  -5  12 -11 18953.4 2058.97   3
   5   7 -11 18925.8 1934.79   3
  12  -7  -8 8193.94 973.548   3
   7 -12  -8 8202.83 1033.82   3
 -12   5  -8 7050.05 1121.31   3
   5   7  -8 6928.14 1088.63   3
  -5  12  -8 7894.96 1248.55   3
  -7  -5  -8 6393.73 1013.34   3
 -12   5  -8 4581.72 391.687   1
  12  -7  -5 112695. 2183.40   3
  -7  -5  -5 102268. 2611.00   1
   5   7  -5 105306. 2515.05   3
  -7  -5  -5 105335. 2570.77   3
   7 -12  -5 109489. 2509.05   3
   7 -12  -5 113121. 2139.20   2
  -5  12  -5 106025. 2730.24   4
   7 -12  -5 110115. 2784.20   4
 -12   5  -5 106043. 1885.20   1
  -5  12  -5 97938.0 1414.71   1
 -12   5  -5 107597. 2747.36   3
  -5  12  -5 106849. 2851.31   3
 -12   5  -2 15223.7 818.834   1
   7 -12  -2 15908.9 1085.35   1
  12  -7  -2 15100.0 828.991   2
  -5  12  -2 14386.0 927.894   2
  12  -7  -2 15024.3 760.517   4
 -12   5  -2 14065.2 831.802   2
  -7  -5  -2 13793.1 835.770   4
  -7  -5  -2 15008.4 773.714   2
   7 -12  -2 14279.4 647.620   4
  -7  -5  -2 15416.5 757.539   3
  -7  -5  -2 15988.4 1007.36   1
   5   7  -2 15547.8 762.283   3
 -12   5  -2 14618.5 769.220   4
  -5  12  -2 14989.4 644.068   4
  -5  12  -2 16034.2 817.789   1
   5   7  -2 14444.6 842.964   4
 -12   5  -2 17264.1 840.223   3
   5   7  -2 15965.0 933.719   1
  -5  12  -2 13475.1 869.210   3
   5   7  -2 16820.8 984.945   2
   5   7   1 37415.2 1223.72   4
  -5  12   1 36620.1 1407.52   1
   7 -12   1 35603.5 1247.45   1
 -12   5   1 39064.7 1217.10   4
   5   7   1 36163.1 1082.78   3
  -7  -5   1 39788.2 1427.14   1
   5   7   1 39225.0 1042.86   2
 -12   5   1 39083.4 1300.94   2
   5   7   1 38601.5 1414.35   1
  -7  -5   1 38066.3 1299.27   4
  -7  -5   1 37415.5 1364.12   2
  -7  -5   4 17391.3 1222.59   4
 -12   5   4 15724.7 795.230   3
  -5  12   4 17411.3 1211.48   1
  -7  -5   4 16439.7 1297.38   2
   5   7   4 16837.4 1056.86   1
 -12   5   4 16365.8 1182.12   4
  -7  -5   4 15542.0 996.594   1
  12  -7   4 16709.1 1010.89   3
   7 -12   4 14986.8 593.770   1
 -12   5   4 16247.5 1156.51   2
  -7  -5   7 26845.0 1908.24   4
 -12   5   7 22967.1 1727.78   2
  -7  -5   7 28464.4 2041.34   2
   5   7   7 24710.0 1390.57   1
 -12   5   7 25654.4 1845.09   4
  -5  12   7 24334.1 1582.80   1
  -7  -5  10 3494.04 1225.22   2
   5   7  10 3780.95 831.819   1
  -5  12  10 5186.73 1074.48   1
  -7  -5  10 2200.96 1187.32   4
 -12   5  10 2936.40 873.080   1
 -12   5  10 5066.56 1334.31   2
 -12   5  10 4833.25 1235.26   4
  -6  12  -9 2241.44 1062.57   3
   6   6  -9 520.144 770.363   3
  -6  -6  -9 1603.13 878.258   3
   6 -12  -9 8.56638 767.781   3
  12  -6  -9 1341.89 756.722   3
 -12   6  -9 1704.70 985.409   3
  -6  12  -6 13021.0 1256.91   3
 -12   6  -6 13334.3 1176.95   3
  12  -6  -6 13876.8 953.396   3
  -6  -6  -6 12593.1 1115.30   3
   6 -12  -6 13869.8 1011.11   2
   6 -12  -6 14959.5 1121.43   3
 -12   6  -6 12337.7 620.047   1
   6   6  -6 15832.3 1175.72   3
  -6  12  -3 5693.92 773.925   2
  12  -6  -3 5481.99 652.172   2
  -6  -6  -3 7285.65 804.073   1
  -6  -6  -3 7136.07 654.724   4
 -12   6  -3 6286.68 535.991   1
  -6  -6  -3 6132.76 616.891   3
  -6  12  -3 6389.50 514.421   1
  12  -6  -3 6048.50 398.740   3
   6   6  -3 7178.52 708.541   4
   6   6  -3 6948.84 704.266   1
 -12   6  -3 6656.27 692.222   3
   6 -12  -3 6029.98 616.408   4
   6   6  -3 5573.55 767.224   2
   6   6  -3 7340.32 605.654   3
  -6  12  -3 6964.81 733.447   3
  -6  12  -3 6813.80 622.493   4
   6 -12  -3 5314.80 253.146   2
  -6  -6  -3 6765.63 543.123   2
  12  -6  -3 5900.09 639.504   4
   6 -12  -3 5572.75 798.156   1
  -6  -6   0 90499.8 1856.76   4
  12  -6   0 91069.3 1661.59   4
  -6  12   0 86147.4 1392.86   2
   6   6   0 88635.7 1458.39   3
   6 -12   0 92388.8 2100.22   1
  -6  -6   0 90336.6 1851.95   2
  -6  -6   0 91008.3 2144.30   1
   6   6   0 93276.6 1762.13   2
 -12   6   0 89854.4 1642.02   4
  -6  12   0 88668.8 2005.26   1
   6   6   0 91057.5 1887.78   4
 -12   6   0 90705.0 1192.57   3
 -12   6   0 91544.2 1862.27   2
  12  -6   0 90386.0 1820.83   2
   6   6   0 91202.1 2094.06   1
   6   6   3 5706.34 674.316   1
  12  -6   3 5398.13 583.251   3
 -12   6   3 4934.09 434.051   3
   6   6   3 5220.15 602.949   3
  -6  -6   3 6322.95 684.718   1
  -6  12   3 5763.15 780.128   1
  -6  12   3 6087.20 636.957   3
   6 -12   3 5584.27 584.848   4
   6 -12   3 5462.83 505.103   1
 -12   6   3 5685.27 749.542   4
  -6  -6   3 4304.73 817.691   2
 -12   6   3 5899.62 734.465   2
  -6  -6   3 4939.11 701.759   4
 -12   6   6 11891.8 1258.81   2
  -6  -6   6 10168.6 887.498   1
   6   6   6 11777.4 957.134   1
 -12   6   6 12829.4 1248.52   4
  -6  -6   6 9462.12 1242.52   2
  -6  12   6 14201.0 1248.00   1
 -12   6   6 10905.0 921.341   3
  -6  -6   6 11148.9 1258.98   4
  -6  12   9 1406.19 804.256   1
  -6  -6   9-486.189 907.520   4
 -12   6   9 638.854 900.172   2
  -6  -6   9 859.029 1004.88   2
 -12   6   9 2307.06 1028.24   4
 -12   6   9 1081.71 752.260   1
   6   6   9 1560.57 704.712   1
   7   5 -10 4050.98 1085.30   3
 -12   7 -10 6107.13 1276.44   3
  -5  -7 -10 5753.46 1190.79   3
  12  -5 -10 5344.10 1004.01   3
   5 -12 -10 3813.61 1017.33   3
  -7  12 -10 6325.70 1366.08   3
  -7  12  -7 27212.5 1821.30   3
   7   5  -7 25836.4 1575.11   3
 -12   7  -7 25553.8 1698.52   3
  12  -5  -7 27522.7 1390.47   3
  -5  -7  -7 25081.3 1564.00   3
   5 -12  -7 25746.7 1481.33   2
   5 -12  -7 26666.9 1555.32   3
  -7  12  -4 19075.0 1192.08   3
   7   5  -4 17967.8 951.195   3
 -12   7  -4 18838.1 1136.77   3
 -12   7  -4 17208.8 726.627   1
  -7  12  -4 16211.4 595.490   1
  12  -5  -4 16463.1 742.404   3
  -5  -7  -4 16606.4 994.971   3
   5 -12  -4 17137.3 997.679   3
  -5  -7  -4 17676.3 844.576   2
  -7  12  -4 16218.4 1018.42   4
   5 -12  -4 17616.0 677.450   2
   5 -12  -4 17121.5 1072.54   4
  -5  -7  -4 16518.0 1150.22   1
   7   5  -1 33360.9 1190.28   2
 -12   7  -1 34694.6 970.202   3
 -12   7  -1 34178.8 1138.83   2
 -12   7  -1 34087.5 1040.41   4
   5 -12  -1 34785.8 670.557   4
  -7  12  -1 31439.2 1088.57   2
  -5  -7  -1 37533.6 1433.25   1
  -7  12  -1 29402.7 481.778   4
   7   5  -1 34779.5 1266.11   4
  -5  -7  -1 33153.7 1033.80   2
  -5  -7  -1 31728.8 1149.66   4
  -7  12  -1 33964.8 1191.61   1
   5 -12  -1 34995.7 1427.27   1
   7   5  -1 33810.7 1308.78   1
  12  -5  -1 35877.1 1161.64   4
  12  -5  -1 36358.4 1214.56   2
  12  -5   2 15188.6 720.973   3
  -7  12   2 14595.1 808.573   3
   7   5   2 13355.8 896.325   1
  -7  12   2 11549.0 390.118   2
  -5  -7   2 14574.7 907.264   4
   7   5   2 14932.6 795.367   3
 -12   7   2 13644.3 534.130   3
 -12   7   2 17071.6 925.875   4
   5 -12   2 14625.8 699.247   4
  -5  -7   2 14734.9 1012.80   2
   5 -12   2 14999.8 827.440   1
 -12   7   2 15754.1 907.589   2
  -7  12   2 14549.8 1043.99   1
  -5  -7   2 14030.1 905.437   1
   5 -12   5 91268.8 1365.37   1
  -5  -7   5 104387. 3179.81   2
   7   5   5 100161. 2369.18   1
 -12   7   5 101928. 2181.73   3
 -12   7   5 95845.1 2750.73   2
  -7  12   5 99687.8 2014.40   2
  -5  -7   5 93512.6 2229.04   1
  -5  -7   5 98244.4 2899.63   4
   5 -12   5 98943.1 2580.99   4
 -12   7   5 104920. 2931.15   4
  -7  12   5 102904. 2859.31   1
 -12   7   8 7412.30 1100.88   1
 -12   7   8 7241.99 1141.58   2
  -5  -7   8 8000.87 1263.62   4
  -7  12   8 7331.98 1081.76   1
   7   5   8 7819.30 867.749   1
  -5  -7   8 5802.75 1222.18   2
 -12   7   8 7634.25 1261.24   4
  -7  12  11 17975.4 1632.02   1
   7   5  11 16718.1 1261.43   1
 -12   7  11 19753.5 1762.00   1
 -12   7  11 20048.8 1940.52   2
  -5  -7  11 22057.0 2213.49   2
  -5  -7  11 21706.0 2159.05   4
  -8  12 -11 23219.1 2201.23   3
 -12   8 -11 20324.6 2044.46   3
   8   4 -11 19653.8 1847.50   3
  12  -4 -11 20734.5 1755.93   3
  -4  -8 -11 18649.3 1825.39   3
   4 -12 -11 20422.1 1874.66   3
   8   4  -8 1431.72 700.689   3
  -8  12  -8 41.3698 754.784   3
 -12   8  -8-322.634 860.461   3
  12  -4  -8 74.0256 566.982   3
   4 -12  -8 583.724 656.260   3
  -4  -8  -8 111.394 622.848   3
  -8  12  -5 69477.0 2342.26   3
 -12   8  -5 79053.6 2428.35   3
  12  -4  -5 75947.1 1784.85   3
   4 -12  -5 78718.7 1809.48   2
  -4  -8  -5 75043.3 2193.25   3
   4 -12  -5 68280.6 2084.67   3
   4 -12  -5 67666.9 2293.02   4
   8   4  -5 73194.4 1989.22   3
 -12   8  -5 65862.8 1165.66   1
  -8  12  -5 71931.4 2321.87   4
 -12   8  -2 2244.88 441.432   3
 -12   8  -2 2671.20 384.557   4
  -4  -8  -2 3341.60 658.565   1
  -4  -8  -2 2149.22 444.546   4
  12  -4  -2 2277.12 455.914   4
  -4  -8  -2 2386.34 362.995   2
  -8  12  -2 2955.07 375.072   4
  -8  12  -2 2574.66 398.108   1
   8   4  -2 2920.34 508.507   4
   8   4  -2 1890.70 507.236   2
   4 -12  -2 2145.68 566.340   1
  12  -4  -2 2438.16 485.161   2
   8   4  -2 3639.73 595.878   1
  -8  12  -2 2873.89 524.336   3
   8   4  -2 3754.89 402.553   3
  12  -4   1 131592. 2172.27   4
   8   4   1 133226. 2152.53   2
   8   4   1 124135. 2292.13   4
  -4  -8   1 135173. 2499.56   2
   8   4   1 134358. 1896.18   3
 -12   8   1 133045. 2182.21   2
   8   4   1 134784. 2528.54   1
  -8  12   1 125874. 1340.43   2
   4 -12   1 129289. 1656.05   4
   4 -12   1 130538. 2390.19   1
  -8  12   1 135166. 2695.17   1
 -12   8   1 136334. 2027.33   4
  -4  -8   1 136688. 2566.71   1
  -4  -8   1 132623. 2257.32   4
  12  -4   1 132501. 1543.67   3
  12  -4   4 34906.0 1388.54   3
 -12   8   4 30275.4 1426.17   2
  -4  -8   4 31815.6 1278.27   1
  -4  -8   4 33288.3 1725.35   2
 -12   8   4 31872.9 1149.49   3
   4 -12   4 32831.7 1025.07   1
   4 -12   4 33283.5 1414.66   4
  -4  -8   4 31110.4 1540.55   4
  -8  12   4 31225.2 1058.75   2
  -8  12   4 34225.3 1637.16   1
 -12   8   4 35295.6 1564.51   4
   8   4   4 33899.0 1357.53   1
   8   4   4 31103.2 1428.99   3
   4 -12   7 34010.8 1894.44   4
  -8  12   7 33725.0 1565.27   2
  -4  -8   7 33844.6 2108.19   2
 -12   8   7 35387.2 1936.69   2
  12  -4   7 30962.5 1010.04   1
  -4  -8   7 27321.9 1295.78   1
   8   4   7 31128.8 1425.64   1
  -8  12   7 32761.5 1843.54   1
  -4  -8   7 31606.3 1998.84   4
 -12   8   7 30199.9 1835.99   1
 -12   8   7 35563.6 2021.63   4
  -4  -8  10 1750.67 1110.45   2
  -8  12  10 2533.88 868.038   1
   8   4  10 2355.73 680.295   1
 -12   8  10 3317.42 1064.18   2
  -4  -8  10 1918.83 1047.53   4
 -12   8  10 1588.97 908.118   1
  -9  12  -9 2277.35 984.269   3
   9   3  -9 2675.55 910.673   3
  12  -3  -9 1648.46 775.805   3
  -3  -9  -9 1134.19 831.402   3
   3 -12  -9 768.921 834.294   3
 -12   9  -9 1520.41 940.404   3
  -9  12  -6 19239.5 1452.50   3
  -3  -9  -6 17856.3 1247.80   2
   9   3  -6 21595.9 1239.29   3
  12  -3  -6 19722.8 1082.94   3
   3 -12  -6 19281.7 1123.37   2
  -3  -9  -6 21632.9 1340.07   3
   3 -12  -6 20880.6 1301.85   3
 -12   9  -6 17658.5 1376.50   3
  -9  12  -3 1089.12 471.796   3
 -12   9  -3 2177.83 513.296   3
  12  -3  -3 1747.14 528.067   2
  -9  12  -3 1283.49 319.595   1
  -3  -9  -3 1881.36 437.961   4
  12  -3  -3 1482.02 242.514   3
  -3  -9  -3 2659.21 604.050   1
  -3  -9  -3 1264.20 404.727   3
   9   3  -3 1970.53 363.395   3
  12  -3  -3 1333.36 499.234   4
  -9  12  -3 1931.08 470.811   4
  -3  -9  -3 1645.62 302.418   2
 -12   9  -3 2590.72 401.991   1
  -3  -9   0 29818.0 1027.98   4
   9   3   0 31596.1 1136.09   2
   9   3   0 28952.2 1249.44   1
  -3  -9   0 29596.6 1306.07   1
  12  -3   0 29354.5 1136.81   2
  -9  12   0 29502.0 789.831   2
   9   3   0 27412.8 741.382   3
   3 -12   0 29076.1 730.306   4
   9   3   0 29457.2 1176.95   4
  -9  12   0 28251.3 1215.40   1
 -12   9   0 30538.1 837.686   4
  12  -3   0 30978.7 1117.06   4
  -3  -9   0 28621.7 1058.77   2
   3 -12   0 29334.2 1280.00   1
 -12   9   0 29244.3 1014.66   2
 -12   9   0 27967.4 843.587   3
   9   3   3 3959.78 599.695   3
  12  -3   3 3228.93 509.364   3
  -3  -9   3 3184.35 734.008   2
 -12   9   3 3337.53 594.523   4
  12  -3   3 4491.47 558.367   1
 -12   9   3 3461.21 433.853   3
   9   3   3 4834.64 618.224   1
   3 -12   3 4117.30 707.233   2
  -9  12   3 4052.53 531.188   3
  -9  12   3 3001.11 692.288   1
   3 -12   3 4154.81 528.540   1
  -9  12   3 3508.69 438.684   2
  -3  -9   3 3734.34 561.934   1
   3 -12   3 4374.47 610.362   4
  -3  -9   3 4116.98 649.665   4
 -12   9   3 4272.86 626.157   2
 -12   9   6 16976.4 1377.39   1
   3 -12   6 13354.5 660.145   1
 -12   9   6 20525.6 1448.55   4
  -3  -9   6 16331.8 1572.89   2
  12  -3   6 15455.0 851.544   1
  -9  12   6 16673.8 1327.17   1
  -3  -9   6 12903.9 886.650   1
   9   3   6 15986.7 1025.86   1
   3 -12   6 17572.8 1414.64   4
 -12   9   6 15608.7 1248.60   2
  -3  -9   6 16399.3 1415.80   4
  -9  12   6 14209.6 1040.36   2
  -3  -9   9 1131.05 982.182   4
  12  -3   9 248.879 347.023   1
 -12   9   9 187.987 761.071   2
 -12   9   9 312.222 744.997   1
  -3  -9   9 375.746 873.015   2
   9   3   9-328.226 525.222   1
  -9  12   9-291.545 752.907   1
 -12   9   9 1500.95 899.675   4
 -12  10 -10 7948.64 1447.76   3
 -10  12 -10 5855.72 1316.74   3
  10   2 -10 7587.29 1222.71   3
  12  -2 -10 7092.89 1127.20   3
  -2 -10 -10 8319.13 1287.19   3
   2 -12 -10 7551.46 1280.46   3
  12  -2  -7 6627.58 807.103   3
  -2 -10  -7 6527.98 953.701   3
   2 -12  -7 6011.08 889.791   2
   2 -12  -7 7933.24 989.469   3
 -12  10  -7 5344.33 992.202   3
  10   2  -7 7296.54 860.042   3
 -10  12  -7 7059.29 1123.49   3
 -12  10  -4 3915.63 727.129   3
   2 -12  -4 4100.35 441.274   2
 -12  10  -4 4525.16 394.523   1
  12  -2  -4 4671.86 461.865   3
  -2 -10  -4 4147.48 403.761   2
  -2 -10  -4 4157.19 611.376   3
   2 -12  -4 3680.36 599.754   3
 -12  10  -4 4159.63 367.913   1
 -10  12  -4 4925.79 744.393   3
 -10  12  -4 4687.44 672.796   4
 -10  12  -4 4646.41 352.518   1
  10   2  -4 4367.96 543.565   3
  10   2  -1 13797.0 957.821   1
 -10  12  -1 16693.0 906.939   1
 -12  10  -1 16117.4 791.136   2
  -2 -10  -1 15902.9 683.831   2
   2 -12  -1 16411.3 690.591   4
   2 -12  -1 17838.2 1092.56   1
  -2 -10  -1 16203.6 1069.56   1
  -2 -10  -1 17099.3 814.376   4
  10   2  -1 15006.9 444.916   3
  10   2  -1 16203.8 922.544   2
 -10  12  -1 15567.9 386.669   4
  12  -2  -1 17564.1 935.484   4
  12  -2  -1 18331.6 972.690   2
 -12  10  -1 17018.1 647.716   4
 -10  12  -1 16420.3 849.582   3
 -10  12  -1 11301.9 423.069   4
  10   2  -1 17437.4 975.757   4
 -12  10  -1 15843.0 764.813   3
 -10  12   2 7217.27 518.942   4
  -2 -10   2 7498.72 817.712   2
  12  -2   2 6993.42 686.290   1
  10   2   2 8432.09 658.083   3
   2 -12   2 8060.79 807.712   2
 -12  10   2 8112.44 660.746   4
 -10  12   2 7543.95 834.693   1
 -12  10   2 7218.09 511.484   3
 -10  12   2 6991.02 572.308   3
  -2 -10   2 8264.49 746.828   1
  10   2   2 8559.56 757.316   1
  12  -2   2 6726.81 553.057   3
 -12  10   2 6870.29 607.085   2
  -2 -10   2 7162.20 678.550   4
   2 -12   2 7608.36 624.240   4
 -10  12   2 7117.69 485.861   2
   2 -12   2 6985.61 702.224   1
 -12  10   5 8060.74 765.884   3
  -2 -10   5 9911.75 1172.28   2
  10   2   5 10136.4 818.653   1
   2 -12   5 10045.0 1107.85   2
  -2 -10   5 9408.21 762.372   1
   2 -12   5 8790.79 651.276   1
 -10  12   5 8079.25 985.589   1
 -12  10   5 8166.90 880.879   2
 -12  10   5 9223.27 1060.44   1
  -2 -10   5 8416.55 1003.36   4
   2 -12   5 8162.57 953.407   4
 -12  10   5 8363.15 914.082   4
  12  -2   5 9050.24 713.272   1
 -10  12   5 8362.00 787.730   2
  12  -2   8 1782.45 457.794   1
  10   2   8 2368.86 601.586   1
 -12  10   8 1540.51 771.054   1
   2 -12   8 1238.76 757.729   4
  -2 -10   8 1020.65 511.698   1
 -12  10   8 3072.41 882.192   2
  -2 -10   8 1662.84 940.302   2
 -10  12   8 3348.17 799.680   2
   2 -12   8 1139.09 309.671   1
  -2 -10   8 2241.19 980.523   4
 -12  10   8 1719.65 871.981   4
 -10  12   8 3978.99 960.436   1
 -12  10  11 5712.69 1261.99   1
 -12  10  11 7458.97 1360.30   2
 -10  12  11 5956.94 1268.80   1
 -11  12  -8 6986.85 1222.22   3
 -12  11  -8 7250.86 1257.04   3
  11   1  -8 6876.23 995.300   3
  -1 -11  -8 6616.50 1039.23   3
   1 -12  -8 6733.42 999.562   3
  12  -1  -8 5874.63 914.619   3
   1 -12  -5 20834.7 1229.98   3
 -12  11  -5 20566.2 1355.81   3
   1 -12  -5 19870.3 982.457   2
  12  -1  -5 20233.4 998.127   3
  -1 -11  -5 17151.8 1002.96   2
  -1 -11  -5 21082.9 1218.99   3
 -11  12  -5 17638.7 1245.91   4
 -11  12  -5 19767.0 1349.98   3
  11   1  -5 19893.9 1005.57   3
  -1 -11  -2 52077.9 1360.25   4
 -11  12  -2 52067.3 1420.21   1
  11   1  -2 44986.5 810.982   3
  -1 -11  -2 54390.0 1920.71   1
  -1 -11  -2 51298.1 990.191   2
  11   1  -2 47599.8 1625.20   2
  12  -1  -2 53365.9 1598.15   4
  12  -1  -2 47984.6 1633.88   2
 -11  12  -2 48797.9 1518.90   3
   1 -12  -2 38251.9 1645.97   1
 -12  11  -2 49355.3 1073.77   4
  11   1  -2 49287.2 1567.10   4
 -12  11  -2 51099.2 1425.76   1
   1 -12  -2 52967.2 1284.76   4
 -12  11  -2 53970.4 1552.96   3
 -11  12   1 75916.5 1429.10   2
  11   1   1 83543.7 1453.85   3
  11   1   1 76806.0 1893.36   4
  12  -1   1 81091.5 1345.77   3
 -12  11   1 80360.6 2211.95   1
  12  -1   1 81028.1 1921.83   4
  12  -1   1 82289.0 2051.62   1
  12  -1   1 79010.0 1881.02   2
  -1 -11   1 81676.9 2104.08   1
   1 -12   1 82879.3 1892.73   2
  11   1   1 81316.8 2042.83   1
 -12  11   1 79952.1 1410.84   4
  -1 -11   1 81130.8 1692.33   4
   1 -12   1 79742.6 1575.75   4
 -12  11   1 76670.7 1581.86   2
   1 -12   1 82509.5 2100.10   1
  11   1   1 78868.0 1834.16   2
 -11  12   1 82944.1 2211.52   1
  -1 -11   1 84038.2 1997.96   2
 -11  12   1 72782.2 1176.34   4
  11   1   4 40627.9 1467.38   1
 -11  12   4 40004.7 1422.08   2
  -1 -11   4 41718.6 1935.40   2
  11   1   4 41327.5 1622.45   3
 -11  12   4 40700.7 1895.86   1
   1 -12   4 43358.4 1402.93   1
 -12  11   4 38846.4 1346.98   3
   1 -12   4 41917.7 1866.39   2
 -11  12   4 40465.0 1442.73   3
  12  -1   4 45823.5 1678.73   3
  12  -1   4 41711.7 1427.16   1
  -1 -11   4 45480.6 1489.00   1
  -1 -11   4 42718.3 1730.27   4
   1 -12   4 39909.9 1658.31   4
 -11  12   4 43140.7 1607.37   4
 -12  11   4 41242.1 1620.36   4
 -12  11   4 41569.8 1926.78   1
 -12  11   4 41816.7 1533.78   2
 -11  12   7 44534.6 1943.51   2
 -11  12   7 45427.7 2213.69   1
 -12  11   7 43761.4 2194.19   1
 -12  11   7 39531.8 1940.40   2
  -1 -11   7 36780.6 1361.86   1
   1 -12   7 37800.4 1212.56   1
  -1 -11   7 47608.3 2507.45   2
  -1 -11   7 39853.1 2180.67   4
  11   1   7 44541.4 1599.02   1
   1 -12   7 44062.4 2378.94   2
   1 -12   7 41896.2 2171.23   4
  12  -1   7 42870.5 1473.53   1
 -12  11   7 48132.3 2237.91   4
  11   1  10 18066.1 1151.15   1
 -12  11  10 22208.7 1823.72   1
 -12  11  10 21742.3 1785.00   2
  -1 -11  10 21909.1 1991.41   4
 -12  12  -9 2321.02 997.547   3
   0 -12  -9 340.648 758.567   3
  12   0  -9 123.110 684.999   3
  12   0  -6 18757.1 1119.97   3
   0 -12  -6 19668.8 1304.32   3
 -12  12  -6 18983.7 1491.01   3
 -12  12  -3 287.831 305.581   1
  12   0  -3-109.387 218.955   3
 -12  12  -3 497.196 430.894   3
   0 -12  -3-1.30083 335.270   4
   0 -12  -3 11.5614 174.904   2
   0 -12   0 10203.9 902.914   1
   0 -12   0 10238.4 680.188   2
  12   0   0 7949.54 363.477   3
 -12  12   0 10357.7 605.728   2
  12   0   0 9620.30 741.883   4
 -12  12   0 8769.48 811.062   1
 -12  12   0 8751.18 384.877   4
   0 -12   0 9220.60 574.602   4
  12   0   0 10661.0 780.215   2
 -12  12   3 114.814 370.398   2
   0 -12   3-324.590 446.441   1
   0 -12   3-3.38985 521.961   2
  12   0   3-206.356 373.082   1
  12   0   3-7.64395 414.700   3
 -12  12   3 186.257 397.134   4
 -12  12   3 73.7119 327.102   3
 -12  12   3 597.789 599.544   1
   0 -12   3 320.065 424.045   4
  12   0   6 21834.7 1141.26   1
 -12  12   6 23314.7 1387.06   2
   0 -12   6 23365.7 1732.91   2
   0 -12   6 21903.6 1536.06   4
   0 -12   6 19566.5 1017.97   1
 -12  12   6 19411.7 1497.94   1
 -12  12   6 21965.1 1463.75   4
 -12  12   9 1156.25 883.089   1
 -12  12   9 190.805 756.856   2
  12   0   9-29.2460 481.241   1
   0 -12   9 440.198 920.554   4
   0  13 -10 50808.5 2986.63   3
 -13   0 -10 47130.7 2685.36   3
  13 -13 -10 51143.8 2493.39   3
   0  13  -7 576.237 721.085   3
  13 -13  -7 455.074 519.808   3
 -13   0  -7 270.395 675.576   3
 -13   0  -4 167068. 3217.69   4
 -13   0  -4 160535. 3144.67   1
   0  13  -4 166670. 2892.08   1
 -13   0  -4 168062. 2981.99   3
  13 -13  -4 161007. 2820.73   4
 -13   0  -4 158519. 3034.87   2
  13 -13  -4 162160. 2541.10   2
   0  13  -4 162796. 3321.83   3
   0  13  -1 749.891 366.870   2
 -13   0  -1 620.689 452.492   2
   0  13  -1 941.588 508.452   1
 -13   0  -1 942.277 228.693   3
 -13   0  -1 728.245 425.030   4
  13 -13  -1 722.486 217.938   4
   0  13  -1 243.930 343.427   4
 -13   0  -1 1252.56 556.474   1
 -13   0   2 102029. 2504.72   4
   0  13   2 106373. 2644.70   1
 -13   0   5-27.5206 314.210   3
 -13   0   5-488.786 803.786   2
 -13   0   5 447.434 704.618   4
   0  13   5 688.680 579.319   1
   0  13   8 46947.4 2243.44   1
 -13   0   8 49835.8 2783.58   2
 -13   0   8 51342.8 2856.72   4
  -1  13  -8 3275.96 1015.09   3
   1  12  -8 2811.09 943.313   3
 -13   1  -8 3445.42 945.222   3
 -12  -1  -8 1739.49 801.899   3
  13 -12  -8 2838.49 723.750   3
  12 -13  -8 4249.21 862.685   3
  12 -13  -5 1450.29 643.445   4
   1  12  -5 1184.76 494.429   1
  -1  13  -5 1940.85 478.637   1
 -13   1  -5 845.944 529.372   3
 -12  -1  -5 794.653 468.162   3
 -13   1  -5 602.139 483.623   1
  13 -12  -5 931.018 426.775   3
  -1  13  -5 667.029 583.434   3
 -12  -1  -5 2243.81 639.054   1
  12 -13  -5 622.583 406.947   2
  13 -12  -5 1023.25 491.633   2
   1  12  -5 1441.15 624.269   3
 -13   1  -2 12485.6 849.294   4
   1  12  -2 14524.9 793.153   4
 -13   1  -2 12058.2 909.722   1
 -13   1  -2 12071.5 659.377   3
 -12  -1  -2 13813.4 919.231   4
 -12  -1  -2 11813.6 652.287   3
  -1  13  -2 13351.3 923.102   2
   1  12  -2 13244.1 918.499   1
 -12  -1  -2 14294.7 888.269   2
  -1  13  -2 13609.5 742.076   4
  13 -12  -2 13209.3 613.287   4
 -13   1  -2 13327.9 886.990   2
  13 -12  -2 13286.3 696.709   2
  12 -13  -2 13522.5 641.887   2
 -12  -1  -2 12103.5 923.897   1
  -1  13  -2 13828.5 893.312   1
   1  12  -2 12708.5 908.271   2
  12 -13  -2 13101.6 564.088   4
  -1  13   1 23300.4 572.531   2
  -1  13   1 28275.0 1345.17   1
   1  12   1 25556.2 1295.86   1
   1  12   1 25754.8 1083.67   3
   1  12   1 25277.5 718.999   2
 -13   1   1 26177.5 1204.32   4
 -12  -1   1 25645.5 1178.75   4
 -13   1   1 23489.0 1196.49   2
 -12  -1   1 24852.5 1245.75   2
 -12  -1   4 1949.18 729.043   2
  -1  13   4 1891.70 628.674   1
 -13   1   4 1842.86 661.699   4
 -12  -1   4 1296.13 636.694   4
 -13   1   4 1083.89 288.224   3
 -13   1   4 2029.55 734.335   2
   1  12   4 2240.47 613.372   1
  -1  13   7 18810.5 1438.98   1
 -13   1   7 18255.6 1676.96   2
 -12  -1   7 17147.7 1682.52   2
   1  12   7 16768.6 1386.31   1
 -12  -1   7 16497.4 1655.67   4
 -13   1   7 20616.2 1718.40   4
  -1  13  10 6452.58 1136.05   1
 -13   1  10 5789.06 1385.99   2
 -12  -1  10 4564.18 1303.43   2
 -12  -1  10 7759.57 1558.43   4
   1  12  10 4766.64 1000.35   1
 -13   1  10 6559.18 1418.48   4
  -2  13  -9 10459.9 1499.53   3
   2  11  -9 12294.2 1498.27   3
  11 -13  -9 11610.4 1271.48   3
 -13   2  -9 9989.00 1364.74   3
 -11  -2  -9 11293.9 1332.59   3
  13 -11  -9 11989.5 1226.18   3
  -2  13  -6 6663.53 994.112   3
  11 -13  -6 5371.48 739.735   3
  13 -11  -6 5879.64 726.034   3
 -13   2  -6 4710.30 708.481   1
  11 -13  -6 5218.26 720.008   2
 -13   2  -6 4960.50 877.176   3
 -11  -2  -6 6168.44 854.275   3
   2  11  -6 5160.89 876.983   3
  -2  13  -3 6963.06 852.108   2
  13 -11  -3 5553.02 551.687   4
 -11  -2  -3 6729.70 753.607   1
  -2  13  -3 7441.17 674.489   1
 -13   2  -3 6860.17 656.295   3
 -11  -2  -3 7078.98 631.605   3
 -11  -2  -3 4910.55 619.729   2
 -13   2  -3 6742.78 715.926   1
  11 -13  -3 5694.26 440.086   2
  -2  13  -3 6608.83 621.135   4
 -13   2  -3 5814.17 639.870   2
 -13   2  -3 5806.20 670.542   4
   2  11  -3 7068.89 711.547   1
  11 -13  -3 7456.31 602.364   4
  -2  13  -3 6396.03 746.162   3
   2  11  -3 5319.16 800.516   2
  13 -11  -3 6171.44 578.871   2
   2  11  -3 5423.84 654.906   4
   2  11  -3 6541.27 707.916   3
 -11  -2  -3 5643.10 677.074   4
 -13   2   0 2219.64 464.732   4
 -13   2   0 2560.82 500.592   2
 -11  -2   0 2398.29 551.031   1
   2  11   0 2670.85 550.953   1
  -2  13   0 2133.63 325.888   4
  -2  13   0 2605.52 331.462   2
   2  11   0 2597.48 388.797   2
 -13   2   0 3439.85 592.764   1
  13 -11   0 2341.84 282.548   4
  -2  13   0 1509.26 483.555   1
   2  11   0 3009.61 442.330   4
 -11  -2   0 3045.96 553.766   2
 -11  -2   0 2354.18 488.257   4
  -2  13   3 23739.3 1351.49   1
 -13   2   3 22643.2 1378.33   2
   2  11   3 22740.1 1261.93   1
 -11  -2   3 23636.7 1352.82   4
 -11  -2   3 21426.8 1359.55   2
 -13   2   3 24569.5 1359.46   4
  13 -11   3 23801.9 1080.52   3
 -13   2   3 21133.8 533.383   3
 -13   2   6 6673.79 703.800   3
 -11  -2   6 6070.23 1088.23   2
   2  11   6 6215.07 854.979   1
  -2  13   6 7006.08 931.376   1
 -11  -2   6 6241.66 1084.49   4
 -13   2   6 6674.24 1102.01   4
 -13   2   6 4816.69 981.583   2
 -11  -2   6 5655.54 674.514   3
  -2  13   9 5367.39 999.967   1
 -13   2   9 6607.09 1356.25   4
 -13   2   9 8806.88 1417.03   2
 -11  -2   9 8559.17 1528.24   2
 -11  -2   9 8158.01 1458.60   4
   2  11   9 8120.55 1105.29   1
  -3  13 -10 42405.0 2746.53   3
   3  10 -10 35554.6 2417.72   3
 -13   3 -10 39935.5 2487.57   3
 -10  -3 -10 42090.7 2481.39   3
  13 -10 -10 41254.0 2193.82   3
  10 -13 -10 42221.7 2321.14   3
  -3  13  -7-264.425 700.619   3
   3  10  -7 1532.07 737.719   3
 -13   3  -7 851.431 514.157   1
 -13   3  -7 1579.58 726.145   3
 -10  -3  -7 764.202 668.407   3
  13 -10  -7 619.167 550.442   3
  10 -13  -7 1398.92 597.636   3
 -10  -3  -4 79649.1 1993.85   2
  10 -13  -4 77639.8 2024.96   4
 -13   3  -4 84651.2 2253.77   3
   3  10  -4 80289.3 2196.31   3
 -10  -3  -4 82443.8 2097.18   3
 -10  -3  -4 80492.0 2258.27   1
  13 -10  -4 76478.6 1960.36   2
  -3  13  -4 79198.0 1756.03   1
  10 -13  -4 76019.6 1485.24   2
  13 -10  -4 77685.0 2056.15   4
   3  10  -4 83343.5 2112.85   1
  -3  13  -4 76956.7 2044.56   4
 -13   3  -4 83268.2 2005.65   1
  -3  13  -4 80806.4 2343.55   3
 -10  -3  -1 8216.00 814.229   1
  -3  13  -1 6033.55 451.987   4
 -10  -3  -1 5541.36 655.414   4
  -3  13  -1 6417.59 586.504   2
  -3  13  -1 5238.23 625.700   1
 -13   3  -1 6731.89 409.473   3
   3  10  -1 6569.91 632.420   4
 -13   3  -1 7188.39 679.987   4
  13 -10  -1 6056.35 537.559   2
  13 -10  -1 5736.05 450.791   4
   3  10  -1 6364.92 591.540   2
 -10  -3  -1 5087.71 596.067   2
   3  10  -1 7022.15 724.832   1
 -13   3  -1 5469.35 603.898   2
 -13   3  -1 6273.40 697.493   1
   3  10   2 147511. 2540.49   3
   3  10   2 145429. 2895.67   1
 -10  -3   2 137088. 2748.91   4
 -13   3   2 155558. 2868.31   4
 -10  -3   2 149158. 2917.17   1
  -3  13   2 157671. 3113.10   1
 -13   3   2 154101. 2987.22   2
 -10  -3   2 161266. 3187.91   2
 -13   3   5 6806.80 949.222   4
 -10  -3   5 6653.07 1060.49   2
  -3  13   5 6174.15 859.707   1
 -13   3   5 5630.29 577.770   3
 -13   3   5 6382.45 981.693   2
 -10  -3   5 5176.32 895.469   4
   3  10   5 6894.28 832.367   1
 -10  -3   5 5501.11 562.175   3
 -13   3   8 29721.2 2119.57   2
  -3  13   8 35361.0 1960.52   1
 -10  -3   8 38641.0 2446.39   2
 -10  -3   8 28246.7 2149.26   4
   3  10   8 32773.5 1768.48   1
 -13   3   8 37946.0 2406.23   4
  -4  13  -8 4877.97 1168.40   3
 -13   4  -8 5113.10 1068.13   3
  13  -9  -8 7325.08 916.395   3
  -9  -4  -8 4212.55 935.525   3
   9 -13  -8 5402.20 947.358   3
   4   9  -8 4496.45 1002.61   3
  -4  13  -5 4721.44 838.398   3
   4   9  -5 5077.41 765.371   3
  -4  13  -5 5218.79 481.766   1
 -13   4  -5 5854.48 820.321   3
   9 -13  -5 5855.91 575.790   2
  13  -9  -5 4519.96 552.495   3
   9 -13  -5 5841.64 713.584   3
 -13   4  -5 4676.82 583.280   1
   9 -13  -5 5798.93 799.422   4
  -9  -4  -5 6377.31 774.588   3
  -9  -4  -2 35873.9 1468.04   1
   4   9  -2 32179.7 1214.99   4
  -4  13  -2 32399.5 1348.25   2
 -13   4  -2 33621.1 1095.58   3
  13  -9  -2 31803.7 1138.48   2
 -13   4  -2 33603.3 1255.87   1
  -4  13  -2 32242.8 1205.37   1
  -4  13  -2 34213.7 977.175   4
  -9  -4  -2 33270.5 1269.12   4
  -9  -4  -2 30708.0 1015.67   3
 -13   4  -2 30650.5 1158.71   4
   4   9  -2 33081.2 1179.14   3
  -9  -4  -2 33065.6 1211.39   2
   9 -13  -2 31875.8 1514.96   1
  13  -9  -2 30956.0 1020.71   4
  -4  13  -2 29804.8 1249.79   3
   4   9  -2 33841.6 1360.72   1
   4   9  -2 33769.7 1385.27   2
 -13   4  -2 27858.7 1160.15   2
   9 -13  -2 32585.0 864.057   4
 -13   4   1 23203.0 1128.07   2
  -4  13   1 21349.6 1166.78   1
  -9  -4   1 22277.5 1196.75   1
   4   9   1 22189.3 931.324   3
   4   9   1 22732.3 997.210   4
   4   9   1 22660.2 808.004   2
 -13   4   1 22218.4 1025.60   4
   9 -13   1 22879.1 1073.02   1
  -9  -4   1 21326.8 1133.12   2
  -9  -4   1 22214.8 1072.59   4
   4   9   1 20140.6 1101.44   1
  -4  13   4 29132.1 1524.70   1
 -13   4   4 30879.5 1603.14   2
   4   9   4 26408.3 1378.76   1
  -9  -4   4 28118.2 1672.41   2
 -13   4   4 27781.6 1541.01   4
  -9  -4   4 27399.3 1539.19   4
 -13   4   4 30420.5 975.318   3
  -9  -4   7 2063.53 901.814   4
  -4  13   7 640.806 639.569   1
 -13   4   7 3399.27 951.116   2
  -9  -4   7 775.689 783.511   2
 -13   4   7 1660.78 823.059   4
   4   9   7 2145.66 679.701   1
  -9  -4  10 5117.17 1358.34   4
 -13   4  10 8428.67 1546.96   4
 -13   4  10 6450.49 1407.54   2
  -9  -4  10 6475.78 1365.21   2
 -13   4  10 7015.52 1221.87   1
   4   9  10 8096.10 1098.36   1
  -4  13  10 6108.07 1189.52   1
  -5  13  -9 6938.60 1319.74   3
   5   8  -9 5103.28 1153.81   3
  -8  -5  -9 4022.08 1002.05   3
  13  -8  -9 4891.18 917.435   3
   8 -13  -9 4453.91 965.097   3
 -13   5  -9 7047.84 1249.30   3
   5   8  -6 17580.2 1252.69   3
   8 -13  -6 19504.2 1094.24   2
 -13   5  -6 17831.4 1332.59   3
  -8  -5  -6 15379.5 1188.81   3
  13  -8  -6 17962.4 1048.80   3
   8 -13  -6 17330.5 1202.87   3
 -13   5  -6 17212.9 871.205   1
  -5  13  -6 15407.4 1308.07   3
  -5  13  -3 50581.6 1354.85   1
   5   8  -3 47745.1 1860.56   2
 -13   5  -3 51669.4 1568.08   3
   5   8  -3 53839.5 1710.09   1
  -8  -5  -3 56510.7 1882.81   1
 -13   5  -3 53744.3 1496.00   1
 -13   5  -3 49640.5 1492.40   4
   8 -13  -3 47520.4 786.219   2
  -8  -5  -3 49809.7 1601.67   4
  -5  13  -3 52640.0 1750.63   3
   8 -13  -3 55031.9 1510.19   4
   5   8  -3 47920.0 1618.09   4
  13  -8  -3 49245.9 1556.93   2
  -8  -5  -3 51758.9 1495.72   3
  -5  13  -3 51000.4 1398.89   4
  -5  13  -3 49135.2 1865.52   2
  13  -8  -3 49429.1 1482.08   4
 -13   5  -3 49333.0 1568.54   2
  -8  -5  -3 51421.8 1455.83   2
   5   8  -3 52158.7 1529.18   3
   5   8   0 34687.7 1218.09   4
 -13   5   0 32818.8 1121.78   4
  13  -8   0 37697.7 1056.38   4
  -5  13   0 34492.5 893.724   2
  -5  13   0 36222.7 1390.45   1
 -13   5   0 29515.3 628.443   3
  13  -8   0 36354.0 1198.57   2
  -8  -5   0 32749.3 1224.55   4
  -8  -5   0 34554.7 1267.19   2
   8 -13   0 33685.8 1363.74   1
   5   8   0 32278.3 1334.30   1
 -13   5   0 33482.4 1351.05   1
   5   8   0 37412.1 1143.02   2
  -8  -5   0 30265.7 1315.19   1
 -13   5   0 34255.7 1263.22   2
  -5  13   3 14686.5 1089.67   1
 -13   5   3 17531.8 1130.42   4
  13  -8   3 14851.6 849.194   3
 -13   5   3 13906.0 591.263   3
   5   8   3 14339.4 925.282   3
  -8  -5   3 12738.8 939.597   1
   5   8   3 14874.0 1015.65   1
   8 -13   3 15517.4 762.287   1
  -8  -5   3 16955.7 1115.46   4
 -13   5   3 15440.3 1084.44   2
  -8  -5   3 15264.1 1172.24   2
  -5  13   6 9693.16 1089.36   1
 -13   5   6 8744.15 1108.36   2
   5   8   6 8858.49 938.421   1
  -8  -5   6 7226.33 1145.75   2
  -8  -5   6 7459.07 1097.08   4
 -13   5   6 7168.54 1184.70   4
 -13   5   6 7533.70 776.478   3
  -5  13   9 8879.61 1149.38   1
  -8  -5   9 7317.90 1327.79   4
 -13   5   9 7049.09 1321.07   2
 -13   5   9 8988.88 1449.48   4
  -8  -5   9 6589.49 1406.14   2
 -13   5   9 10452.6 1299.73   1
   5   8   9 7425.02 960.131   1
  -6  13 -10 11045.3 1665.16   3
  -7  -6 -10 9940.56 1358.63   3
   6   7 -10 10210.2 1488.48   3
 -13   6 -10 7781.30 1402.16   3
  13  -7 -10 13059.9 1354.93   3
   7 -13 -10 9946.38 1338.65   3
   7 -13  -7 1204.71 708.968   2
   6   7  -7 887.983 709.582   3
 -13   6  -7 1010.33 769.988   3
  -7  -6  -7 1025.29 692.265   3
  13  -7  -7 443.127 516.034   3
   7 -13  -7 1316.73 694.361   3
 -13   6  -7 737.329 306.823   1
  -6  13  -7 1725.77 922.030   3
 -13   6  -4 47402.7 1320.93   1
 -13   6  -4 44116.0 1661.41   3
   6   7  -4 47188.9 1562.48   3
  -7  -6  -4 46017.9 1403.92   2
  -7  -6  -4 46693.6 1593.62   3
  13  -7  -4 45417.2 1174.98   3
   7 -13  -4 46178.6 1623.73   4
  -6  13  -4 47235.1 1624.12   4
   7 -13  -4 43391.3 950.941   2
  -6  13  -4 46141.2 1135.54   1
  -6  13  -1 24739.9 556.085   4
 -13   6  -1 24386.2 816.906   3
  -6  13  -1 23990.3 1076.70   1
  13  -7  -1 25166.2 960.740   4
 -13   6  -1 25800.6 996.290   4
  -6  13  -1 23869.7 982.531   2
  -7  -6  -1 24619.7 1247.05   1
   6   7  -1 27505.9 1236.53   1
  -7  -6  -1 25835.7 1007.52   2
   6   7  -1 22552.3 1013.49   2
 -13   6  -1 23574.0 1037.04   2
  -7  -6  -1 26121.6 1117.35   4
   7 -13  -1 23323.8 446.265   4
   6   7  -1 24861.3 1108.80   4
  13  -7  -1 26129.5 1046.54   2
   7 -13  -1 25842.0 1306.33   1
 -13   6  -1 25283.6 1119.83   1
  -7  -6   2 30157.7 1329.35   1
  -6  13   2 31332.1 1459.75   1
   6   7   2 31151.6 1342.93   1
   6   7   2 30769.7 1131.98   3
 -13   6   2 25635.8 634.392   3
  -6  13   2 27254.2 1112.81   3
 -13   6   2 29227.7 1238.18   4
   7 -13   2 31196.6 1145.46   1
 -13   6   2 27964.7 1248.04   2
  -7  -6   2 30875.3 1308.94   4
  13  -7   2 29195.1 975.860   3
  -7  -6   2 29314.5 1419.77   2
 -13   6   5 14966.1 896.344   3
  -7  -6   5 15232.5 1384.74   2
 -13   6   5 15352.9 1288.43   2
 -13   6   5 12883.2 1186.77   4
   6   7   5 14692.9 1082.38   1
  -7  -6   5 16357.8 1331.02   4
  -6  13   5 15984.7 1229.56   1
  -7  -6   5 15013.7 900.572   3
 -13   6   8 16140.5 1610.49   2
  -7  -6   8 16632.0 1731.07   2
  -6  13   8 16008.6 1395.64   1
   6   7   8 18646.7 1273.64   1
 -13   6   8 17010.5 1639.73   4
 -13   6   8 16458.5 1463.94   1
  -7  -6   8 19317.9 1838.49   4
   6   7  11 1333.64 741.479   1
  -6  13  11 822.212 914.391   1
  -7  -6  11 2430.57 1344.02   2
 -13   6  11 254.958 1012.20   2
  -7  -6  11 678.703 1142.44   4
 -13   6  11 2606.24 1074.07   1
 -13   6  11 2568.16 1136.96   4
  -7  13 -11 2395.49 1414.73   3
   7   6 -11 1926.83 1108.36   3
  -6  -7 -11 274.459 925.061   3
   6 -13 -11 1414.10 1005.80   3
  13  -6 -11 1853.90 907.044   3
 -13   7 -11 624.374 1109.02   3
 -13   7  -8 17639.7 1568.11   3
  -7  13  -8 20786.1 1825.34   3
   7   6  -8 18117.5 1454.46   3
  13  -6  -8 19548.7 1361.93   3
  -6  -7  -8 19785.8 1514.94   3
   6 -13  -8 17697.9 1432.26   3
  -7  13  -5 17945.4 1275.27   3
   6 -13  -5 18154.1 855.648   2
  13  -6  -5 18960.1 919.606   3
  -6  -7  -5 17850.7 1158.02   3
   6 -13  -5 17009.4 1110.03   3
 -13   7  -5 17929.0 775.556   1
 -13   7  -5 18724.1 1260.04   3
   7   6  -5 18497.6 1115.10   3
   6 -13  -5 17477.2 1234.95   4
  -7  13  -5 16601.7 1199.85   4
  -7  13  -5 14382.3 509.957   1
  -7  13  -2 33932.4 1359.52   2
 -13   7  -2 34004.6 1165.86   3
 -13   7  -2 31926.0 1235.00   2
   7   6  -2 32222.6 1357.74   1
  -6  -7  -2 33400.3 1458.79   1
  13  -6  -2 34523.5 1296.92   2
   6 -13  -2 32565.1 1509.22   1
  -6  -7  -2 32253.6 1067.71   2
  -7  13  -2 33614.1 879.850   4
  13  -6  -2 33543.9 1175.15   4
  -7  13  -2 35160.6 1186.71   1
   7   6  -2 31610.6 1248.61   4
   7   6  -2 31053.2 1341.77   2
 -13   7  -2 34956.1 1211.24   1
 -13   7  -2 34576.7 1118.17   4
  -6  -7  -2 33223.1 1249.21   4
   6 -13  -2 32415.1 972.309   4
  -7  13  -2 33382.8 1303.09   3
   7   6  -2 33503.8 1039.02   3
 -13   7   1 24656.1 977.439   4
  -7  13   1 19925.9 440.900   2
   7   6   1 23646.8 1169.32   1
  -6  -7   1 24475.4 1085.92   4
   7   6   1 23472.6 925.554   2
 -13   7   1 21833.7 553.273   3
   7   6   1 20857.5 1019.09   4
  -7  13   1 26358.2 1278.75   1
  -6  -7   1 22360.1 1152.91   1
   7   6   1 24506.5 895.764   3
   6 -13   1 23577.6 1105.33   1
 -13   7   1 24339.0 1068.27   2
  13  -6   1 24260.8 724.477   3
   6 -13   1 19166.1 586.366   4
  -6  -7   1 25818.2 1217.71   2
  -6  -7   4 44776.7 2008.84   2
  -6  -7   4 43768.8 1850.16   4
 -13   7   4 42189.1 1258.26   3
  -6  -7   4 39209.9 1512.52   1
  13  -6   4 45120.0 1587.04   3
 -13   7   4 42928.0 1748.01   2
  -7  13   4 43814.0 1879.29   1
 -13   7   4 46817.4 1886.25   4
   7   6   4 42297.6 1594.11   1
   6 -13   4 46053.9 1584.82   4
   6 -13   4 40418.0 1091.20   1
 -13   7   7 1545.58 861.182   4
  -7  13   7 540.228 672.912   1
 -13   7   7 196.524 653.571   2
   7   6   7 1610.23 613.336   1
  -6  -7   7 1337.25 969.755   2
 -13   7   7 1478.06 736.426   1
  -6  -7   7 500.534 772.882   4
 -13   7  10 10137.8 1356.39   1
  -6  -7  10 11256.3 1730.76   2
   7   6  10 7561.23 990.467   1
  -6  -7  10 10459.1 1722.96   4
 -13   7  10 8485.07 1491.46   4
  -7  13  10 10060.3 1325.82   1
 -13   7  10 12684.9 1604.25   2
  -8  13  -9 8479.49 1412.44   3
   5 -13  -9 8457.16 1168.99   3
 -13   8  -9 8790.47 1363.29   3
  13  -5  -9 7826.86 1046.33   3
  -5  -8  -9 8532.10 1236.46   3
   8   5  -9 6918.33 1161.87   3
  -8  13  -6 7694.81 1054.97   3
 -13   8  -6 6725.28 398.741   1
   8   5  -6 9701.76 962.172   3
 -13   8  -6 8954.51 1074.04   3
  13  -5  -6 9637.15 835.034   3
  -5  -8  -6 8742.68 951.219   3
   5 -13  -6 9573.60 964.340   3
   5 -13  -6 8151.39 804.526   2
   8   5  -3 14402.9 767.559   3
  13  -5  -3 14614.7 917.905   4
  -8  13  -3 13403.2 687.652   1
 -13   8  -3 14901.7 761.667   1
  -8  13  -3 13689.5 1085.87   2
  13  -5  -3 13811.5 493.922   3
  -5  -8  -3 15158.7 884.984   3
  -5  -8  -3 14071.5 725.311   2
  -5  -8  -3 13703.3 860.623   4
  -8  13  -3 14319.8 819.710   4
  13  -5  -3 12897.2 934.935   2
 -13   8  -3 15001.8 974.545   3
  -8  13  -3 13857.0 1007.74   3
   5 -13   0 33773.4 1382.02   1
   8   5   0 34914.5 924.372   3
  -8  13   0 38468.7 1441.33   1
  13  -5   0 35052.7 1162.80   4
 -13   8   0 34998.2 868.398   3
  -5  -8   0 36387.5 1482.26   1
  -5  -8   0 35034.8 1205.16   4
 -13   8   0 36974.7 1050.69   4
   5 -13   0 33692.2 663.912   4
 -13   8   0 37836.3 1244.61   2
  -5  -8   0 37380.8 1265.04   2
  13  -5   0 35892.6 1249.19   2
   8   5   0 33884.9 1385.82   1
   8   5   0 36843.0 1308.43   4
   8   5   0 35093.6 1193.50   2
  -5  -8   3 54768.4 2042.39   2
  13  -5   3 51265.9 1475.65   3
  -8  13   3 45406.5 968.700   2
  -5  -8   3 51338.1 1661.17   1
   8   5   3 53095.9 1624.22   3
 -13   8   3 49197.7 1184.42   3
  -8  13   3 50087.2 1554.39   3
   8   5   3 47213.5 1636.28   1
 -13   8   3 51957.1 1724.62   4
  -5  -8   3 53455.6 1840.07   4
  -8  13   3 42341.9 1783.25   1
   5 -13   3 52582.3 1418.13   1
   5 -13   3 49677.0 1488.55   4
 -13   8   3 54399.2 1751.03   2
  -5  -8   6 16198.3 1544.27   2
  -5  -8   6 13203.3 991.300   1
  -8  13   6 15928.0 985.553   2
   5 -13   6 12462.1 512.286   1
 -13   8   6 15453.9 1335.99   2
 -13   8   6 17401.9 1446.48   4
  -5  -8   6 17848.9 1501.13   4
  -8  13   6 18146.0 1394.40   1
   8   5   6 18034.4 1119.39   1
   5 -13   6 18834.3 1341.58   4
   8   5   9 5221.18 796.094   1
  -8  13   9 4932.96 1034.80   1
 -13   8   9 7282.96 1298.38   2
 -13   8   9 6201.38 1277.34   4
 -13   8   9 7271.59 1166.15   1
  -5  -8   9 5780.56 1323.82   4
  -5  -8   9 4216.11 1206.82   2
  -9  13 -10 8282.38 1537.23   3
 -13   9 -10 9119.49 1501.26   3
  13  -4 -10 9290.96 1181.33   3
  -4  -9 -10 9390.60 1321.09   3
   4 -13 -10 7901.00 1276.03   3
   9   4 -10 8745.21 1320.61   3
   4 -13  -7 2254.19 783.127   3
  -9  13  -7 1808.82 770.452   3
   9   4  -7 2767.16 724.645   3
  13  -4  -7 2498.84 635.649   3
  -4  -9  -7 2122.15 744.440   3
   4 -13  -7 2749.45 775.759   2
 -13   9  -7 3884.73 930.401   3
   9   4  -4 29019.3 1139.31   3
 -13   9  -4 28324.6 1434.03   3
  13  -4  -4 30467.3 926.192   3
  -9  13  -4 28285.7 798.185   1
  -4  -9  -4 29023.6 1289.04   3
 -13   9  -4 27155.8 885.019   1
  -4  -9  -4 28359.5 995.132   2
  -9  13  -4 27659.2 1435.65   3
  -9  13  -4 28594.7 1351.84   4
   4 -13  -4 25950.0 728.364   2
 -13   9  -1 24748.5 857.116   4
  13  -4  -1 24801.0 1072.86   4
  -4  -9  -1 22480.1 1247.18   1
   9   4  -1 26500.9 1273.17   1
   4 -13  -1 27061.1 737.178   4
  -4  -9  -1 25532.6 927.722   2
  13  -4  -1 26274.0 1127.21   2
 -13   9  -1 23024.3 972.529   2
 -13   9  -1 25642.9 916.697   3
  -9  13  -1 25065.6 1110.55   1
   9   4  -1 23383.8 1077.46   2
  -4  -9  -1 25553.8 1059.90   4
   4 -13  -1 25611.6 1301.45   1
   9   4  -1 25298.0 1171.89   4
  13  -4   2 28260.7 950.807   3
   9   4   2 27156.9 1062.35   3
  -9  13   2 26887.9 1083.28   3
 -13   9   2 26802.3 811.984   3
   9   4   2 28362.3 1278.22   1
   4 -13   2 27609.4 1155.38   1
 -13   9   2 26714.1 1136.31   2
  -9  13   2 30455.7 1467.91   1
  -4  -9   2 28262.8 1267.61   1
 -13   9   2 28012.9 1144.05   4
   4 -13   2 26739.7 986.447   4
  -9  13   2 27780.3 735.352   2
  -4  -9   2 26959.5 1215.95   4
  -4  -9   2 27763.5 1432.68   2
  -4  -9   5 4353.82 661.575   1
   9   4   5 5636.19 708.969   1
  -4  -9   5 5363.08 1029.00   2
 -13   9   5 4813.64 835.403   2
 -13   9   5 5485.39 667.113   3
 -13   9   5 6682.81 928.094   4
   4 -13   5 7734.19 928.835   4
  -9  13   5 5430.64 612.063   2
  -4  -9   5 5870.64 916.292   4
   4 -13   5 5653.30 498.556   1
  -9  13   5 7075.63 980.971   1
   9   4   8 3917.53 751.480   1
 -13   9   8 6395.56 1089.35   1
 -13   9   8 4216.19 993.031   2
  -4  -9   8 3913.50 1056.13   4
  -9  13   8 6968.49 1125.98   1
 -13   9   8 6687.49 1117.99   4
  -4  -9   8 5452.28 1188.52   2
 -10  13  -8 37875.6 2314.07   3
 -13  10  -8 39008.4 2281.04   3
  13  -3  -8 36771.0 1770.06   3
   3 -13  -8 38201.1 2025.26   3
  -3 -10  -8 39085.1 2094.80   3
  10   3  -8 37155.3 1892.42   3
 -10  13  -5 6075.38 845.034   3
  10   3  -5 8734.54 782.047   3
 -13  10  -5 6715.73 390.635   1
 -13  10  -5 9355.86 1026.66   3
  13  -3  -5 7817.62 642.507   3
  -3 -10  -5 5521.03 728.921   3
   3 -13  -5 6281.87 771.785   3
 -13  10  -5 5824.56 375.987   1
   3 -13  -5 7267.60 635.618   2
 -10  13  -5 6891.51 894.727   4
 -13  10  -2 157828. 2575.25   3
 -10  13  -2 153180. 1944.88   4
  -3 -10  -2 150365. 1949.81   2
 -13  10  -2 153150. 2055.15   4
  13  -3  -2 150904. 2622.25   4
 -10  13  -2 152280. 2414.81   1
 -10  13  -2 153316. 2691.41   3
  -3 -10  -2 154142. 2447.96   4
  10   3  -2 151229. 1750.74   3
   3 -13  -2 156588. 2039.19   4
  10   3  -2 146270. 2827.77   2
  -3 -10   1 6893.94 614.281   4
  10   3   1 6723.42 676.022   4
  -3 -10   1 6716.49 729.844   2
  13  -3   1 6853.54 407.275   3
  13  -3   1 7903.35 680.046   4
  13  -3   1 6453.79 635.613   2
  10   3   1 6116.11 494.172   3
   3 -13   1 6588.49 628.371   2
  -3 -10   1 6214.58 723.970   1
   3 -13   1 6239.70 474.290   4
 -13  10   1 7397.13 554.532   4
  10   3   1 7198.88 747.440   1
 -10  13   1 6366.33 431.381   2
 -10  13   1 5520.44 756.628   1
 -13  10   1 6615.58 563.375   2
  10   3   1 6265.50 590.039   2
   3 -13   1 6200.66 689.027   1
 -10  13   4 77562.9 2529.21   1
  13  -3   4 79219.1 2105.54   3
   3 -13   4 70698.9 1701.57   1
  -3 -10   4 71349.1 2284.90   4
 -13  10   4 80767.6 2599.73   1
  -3 -10   4 69247.7 2510.28   2
 -13  10   4 70918.4 1713.42   3
  10   3   4 75497.2 2067.90   1
   3 -13   4 79911.1 2513.74   2
 -10  13   4 71738.6 1678.04   2
  -3 -10   4 70911.4 1944.76   1
 -13  10   4 69629.0 2160.35   4
   3 -13   4 76058.6 2162.22   4
  13  -3   4 72670.7 1812.07   1
 -13  10   4 70629.2 2085.80   2
  -3 -10   7 45.4964 790.388   4
 -13  10   7 1709.38 858.908   4
   3 -13   7 785.242 316.813   1
 -13  10   7 368.263 636.292   2
  13  -3   7 952.370 429.066   1
  -3 -10   7 948.184 791.100   2
 -10  13   7 302.492 531.616   2
  -3 -10   7 843.392 523.364   1
 -10  13   7 2688.51 834.845   1
 -13  10   7 1715.80 844.861   1
   3 -13   7 362.889 651.381   4
  10   3   7 776.743 546.401   1
 -13  10  10 40588.1 2421.69   1
  10   3  10 34950.6 1642.00   1
 -13  10  10 38173.5 2363.28   2
  -3 -10  10 43057.8 2822.43   2
  -3 -10  10 38850.6 2615.28   4
 -10  13  10 35181.8 2237.98   1
 -11  13  -9 7717.52 1442.49   3
 -13  11  -9 6059.19 1198.90   3
  11   2  -9 9358.19 1193.28   3
  13  -2  -9 7505.72 1035.75   3
  -2 -11  -9 8536.04 1210.88   3
   2 -13  -9 9527.33 1233.05   3
 -11  13  -6 5217.24 920.704   3
 -13  11  -6 5910.06 978.822   3
   2 -13  -6 5322.81 695.287   2
  11   2  -6 6896.41 798.315   3
  13  -2  -6 6950.96 734.314   3
  -2 -11  -6 6076.71 804.252   2
  -2 -11  -6 5632.18 835.773   3
   2 -13  -6 6208.26 906.915   3
 -11  13  -3 19397.5 1122.94   3
  -2 -11  -3 19229.0 1010.62   4
 -13  11  -3 22431.2 1151.45   3
  11   2  -3 21938.0 782.898   3
  13  -2  -3 18096.6 550.486   3
  -2 -11  -3 21772.6 738.730   2
 -11  13  -3 21200.4 878.491   1
 -11  13  -3 19030.2 953.384   4
   2 -13   0 3916.61 649.372   1
  -2 -11   0 2526.84 414.580   4
 -13  11   0 2896.90 398.465   2
  11   2   0 3386.72 313.589   3
  13  -2   0 3301.29 530.555   4
  11   2   0 2954.74 612.609   1
  11   2   0 3188.37 517.820   2
   2 -13   0 1890.42 354.498   2
   2 -13   0 3174.42 354.940   4
  11   2   0 2547.52 510.932   4
 -11  13   0 3540.50 619.685   1
 -13  11   0 2371.04 295.921   4
  13  -2   0 2569.24 489.570   2
 -11  13   0 3058.59 369.717   2
  -2 -11   0 3251.84 494.026   2
  -2 -11   0 2973.82 613.274   1
  -2 -11   3 5694.20 735.766   4
  -2 -11   3 4328.91 635.531   1
  13  -2   3 6684.26 676.487   3
 -13  11   3 5103.84 833.666   1
   2 -13   3 4925.96 611.453   1
  11   2   3 5154.35 644.622   3
   2 -13   3 6503.64 839.319   2
 -13  11   3 5049.93 512.172   3
 -11  13   3 4737.70 568.165   3
  -2 -11   3 7188.61 922.534   2
 -13  11   3 5638.02 650.865   2
  11   2   3 5900.86 678.682   1
 -11  13   3 4527.59 783.207   1
 -13  11   3 5711.16 671.873   4
  13  -2   3 6454.65 659.149   1
 -11  13   3 5548.32 577.630   4
 -11  13   3 5674.56 548.595   2
   2 -13   3 6622.53 718.899   4
 -13  11   6 4667.53 820.795   2
   2 -13   6 5538.64 578.892   1
 -11  13   6 4500.10 711.940   2
  -2 -11   6 6715.65 1100.13   2
  11   2   6 4722.19 694.953   1
   2 -13   6 7403.58 1078.26   2
  -2 -11   6 6855.69 1078.98   4
  13  -2   6 6771.82 701.963   1
 -13  11   6 4340.83 923.516   1
 -11  13   6 4861.28 947.501   1
 -13  11   6 5924.13 1054.52   4
   2 -13   6 6449.35 994.418   4
  -2 -11   6 4901.25 672.573   1
 -13  11   9 11610.1 1354.82   1
  -2 -11   9 13548.4 1709.33   4
 -11  13   9 9913.00 1290.84   1
  13  -2   9 7719.18 731.007   1
  11   2   9 10086.0 950.603   1
 -13  11   9 10023.9 1295.87   2
  -2 -11   9 9375.15 1584.70   2
 -11  13   9 11235.2 1233.76   2
   2 -13   9 13439.7 1512.88   4
  12   1 -10 6287.61 1136.71   3
 -13  12 -10 6260.94 1444.46   3
  13  -1 -10 4956.74 1075.41   3
   1 -13 -10 7274.88 1255.36   3
  -1 -12 -10 6308.61 1233.30   3
 -12  13 -10 7255.06 1385.72   3
 -12  13  -7 21070.0 1695.59   3
 -13  12  -7 22971.3 1710.53   3
  12   1  -7 22051.0 1351.59   3
  -1 -12  -7 17312.2 1307.86   2
  13  -1  -7 23365.2 1307.52   3
  -1 -12  -7 22683.7 1520.06   3
   1 -13  -7 20365.4 1434.60   3
   1 -13  -7 18737.9 1288.38   2
   1 -13  -4 1664.87 242.152   2
  -1 -12  -4 1880.13 317.736   2
  12   1  -4 1508.79 381.282   3
 -12  13  -4 2385.85 582.265   3
  13  -1  -4 1966.76 358.785   3
 -13  12  -4 1436.25 342.559   1
  -1 -12  -4 1537.55 515.817   3
 -12  13  -4 1603.67 323.859   1
 -13  12  -4 1669.88 580.837   3
 -12  13  -4 1728.18 585.655   4
   1 -13  -4 1301.44 330.596   2
   1 -13  -1 24767.5 761.140   2
 -13  12  -1 29117.8 767.209   4
 -13  12  -1 28064.5 1034.16   2
 -12  13  -1 28483.9 614.822   4
  -1 -12  -1 27308.4 1025.29   4
 -13  12  -1 27391.3 1229.16   1
  13  -1  -1 28694.1 1284.23   4
 -12  13  -1 29018.8 1130.70   3
   1 -13  -1 28214.0 974.987   4
 -12  13  -1 25919.6 1172.93   1
  -1 -12  -1 28491.9 926.701   2
 -13  12  -1 26236.6 1040.32   3
 -13  12   2 11741.5 722.366   4
  12   1   2 12008.9 745.682   3
 -12  13   2 13056.8 706.257   2
  12   1   2 12400.2 923.705   1
   1 -13   2 11286.5 929.739   2
  13  -1   2 13239.4 752.765   3
  -1 -12   2 12007.1 930.018   1
 -13  12   2 13615.0 1088.95   1
 -13  12   2 12058.2 687.931   3
  -1 -12   2 12666.9 1013.43   2
  13  -1   2 13566.7 926.570   1
   1 -13   2 11844.6 889.663   1
  -1 -12   2 13244.5 860.802   4
   1 -13   2 12573.3 823.619   4
 -13  12   2 11505.2 723.333   2
 -12  13   2 14131.2 1129.37   1
 -12  13   2 12940.7 682.815   4
 -12  13   2 11654.2 705.537   3
  -1 -12   5 1319.68 491.077   1
   1 -13   5 1664.40 501.267   1
 -13  12   5 2051.65 793.787   1
   1 -13   5 1159.33 603.580   4
  12   1   5 1201.56 501.622   1
 -13  12   5 1160.47 528.461   2
  -1 -12   5 1645.08 883.212   2
   1 -13   5 1852.96 804.041   2
 -12  13   5-85.4426 643.247   1
  -1 -12   5 2101.25 694.328   4
 -12  13   5 1324.12 478.696   2
  13  -1   5 1200.70 468.001   1
 -13  12   5 807.185 608.464   4
 -12  13   5 1489.78 580.213   4
  13  -1   8 2282.79 555.864   1
 -12  13   8 1390.55 890.040   1
 -13  12   8 1835.64 743.168   2
 -12  13   8 2962.78 835.164   2
  -1 -12   8 3127.19 1079.09   2
  12   1   8 3594.86 699.558   1
   1 -13   8 3933.15 1187.44   4
 -13  12   8 2610.24 954.696   1
  -1 -12   8 2569.90 1062.75   4
 -13  13  -8 50521.4 2648.50   3
  13   0  -8 50297.8 2051.91   3
   0 -13  -8 49950.4 2313.36   3
   0 -13  -5 404.225 278.463   2
  13   0  -5 325.944 378.179   3
 -13  13  -5-108.466 545.315   3
 -13  13  -5 111.702 157.038   1
 -13  13  -5 378.585 178.734   1
   0 -13  -5 164.562 437.955   2
   0 -13  -5 1025.35 555.748   3
 -13  13  -2 105155. 2170.16   1
 -13  13  -2 104303. 1488.06   4
   0 -13  -2 106749. 1971.00   4
 -13  13  -2 105281. 2275.45   3
 -13  13   1 514.254 311.628   2
  13   0   1 487.010 281.559   3
   0 -13   1 526.753 514.673   1
 -13  13   1 841.968 302.439   4
   0 -13   1 500.365 333.767   4
 -13  13   1 179.478 572.776   1
   0 -13   1 704.832 454.063   2
  13   0   1 237.172 444.579   1
  13   0   4 168381. 3189.17   3
   0 -13   4 174966. 3867.80   2
   0 -13   4 157973. 2879.06   1
 -13  13   4 166342. 3810.56   1
   0 -13   4 161276. 3320.05   4
 -13  13   4 159601. 2889.27   2
  13   0   4 167074. 3030.64   1
 -13  13   4 175615. 3202.32   4
  13   0   7 546.917 471.500   1
 -13  13   7 1035.95 693.049   2
   0 -13   7-80.3152 898.514   2
 -13  13   7 10.6609 764.370   1
   0 -13   7 207.204 459.077   1
   0 -13   7 134.410 728.285   4
 -13  13  10 44987.3 2426.60   2
 -13  13  10 40538.6 2494.67   1
   0 -13  10 45937.4 2804.16   4
   0  14  -8 1771.02 935.346   3
 -14   0  -8 3508.23 988.631   3
  14 -14  -8 2452.40 759.792   3
   0  14  -5 253.365 557.984   3
   0  14  -5-203.182 451.467   1
 -14   0  -5-691.162 537.057   3
 -14   0  -5 695.682 572.318   2
 -14   0  -5 984.260 540.116   4
  14 -14  -5 169.833 429.467   2
   0  14  -2 12018.0 775.100   4
 -14   0  -2 12690.2 927.404   2
 -14   0  -2 11039.1 619.737   3
 -14   0  -2 11454.3 921.061   4
   0  14  -2 12215.8 921.057   2
  14 -14  -2 11626.3 669.451   2
  14 -14  -2 12176.0 563.301   4
   0  14  -2 13671.7 957.190   1
   0  14   1 296.733 459.572   1
 -14   0   1 193.965 472.065   2
 -14   0   1 287.710 408.556   4
   0  14   1 72.8222 202.635   2
 -14   0   4 4856.28 840.212   4
   0  14   4 7044.02 933.239   1
 -14   0   4 5436.52 949.545   2
 -14   0   7-1144.73 1031.91   2
   0  14   7 1332.72 759.648   1
 -14   0   7-299.913 784.115   4
 -14   0  10 7311.81 1494.33   4
 -14   0  10 7715.93 1656.37   2
   0  14  10 5729.46 1145.83   1
  14 -13  -9 10407.6 1204.26   3
  -1  14  -9 14252.7 1710.23   3
   1  13  -9 10977.1 1563.75   3
 -14   1  -9 13776.9 1543.51   3
 -13  -1  -9 11500.5 1384.95   3
  13 -14  -9 13149.8 1334.87   3
  -1  14  -6 908.713 764.418   3
   1  13  -6 896.841 696.145   3
 -14   1  -6 912.932 654.378   3
 -13  -1  -6 1384.73 626.158   3
  14 -13  -6 993.735 521.354   3
  13 -14  -6 1606.10 560.985   3
  13 -14  -6 1316.27 537.446   2
 -14   1  -3 24892.8 1234.34   4
  13 -14  -3 23236.8 928.578   4
  -1  14  -3 23949.7 1186.96   1
  14 -13  -3 24161.7 963.055   4
 -14   1  -3 25046.8 1080.90   3
 -13  -1  -3 23790.0 1063.49   3
 -13  -1  -3 24133.5 1219.06   4
   1  13  -3 21782.1 1156.77   1
 -14   1  -3 23630.4 1203.10   2
  13 -14  -3 24256.7 896.866   2
 -13  -1  -3 25178.4 1222.47   2
  -1  14  -3 24075.8 1082.50   4
  14 -13  -3 23504.8 980.514   2
   1  13  -3 24227.7 1146.98   4
 -14   1  -3 23068.1 1264.64   1
  -1  14  -3 22616.8 1393.44   2
  -1  14  -3 22771.9 1261.47   3
   1  13  -3 23051.8 1246.56   3
   1  13   0 2190.13 393.527   4
 -14   1   0 2702.12 516.850   4
  -1  14   0 2380.80 565.840   1
  -1  14   0 2596.16 354.886   2
 -13  -1   0 1586.97 474.930   4
 -14   1   0 2269.37 535.677   2
   1  13   0 2358.12 587.140   1
   1  13   0 2291.76 362.406   2
 -13  -1   0 2366.51 549.521   2
  -1  14   0 2904.68 405.132   4
 -13  -1   3 8269.13 929.048   4
  -1  14   3 8502.10 957.902   1
   1  13   3 8811.63 943.445   1
 -14   1   3 8761.71 957.164   4
 -14   1   3 7134.54 933.031   2
 -13  -1   3 8076.63 954.990   2
 -14   1   6 2125.56 511.442   3
 -13  -1   6 1782.18 838.917   2
 -14   1   6 2529.62 939.105   4
  -1  14   6 3216.15 783.506   1
 -13  -1   6 4092.16 923.633   4
 -14   1   6 2893.45 1024.59   2
   1  13   6 2963.84 767.634   1
 -13  -1   6 2897.16 539.806   3
  -1  14   9 6668.87 1150.32   1
 -14   1   9 3561.49 1204.68   2
 -13  -1   9 6561.24 1390.61   2
   1  13   9 4657.15 1023.04   1
 -14   1   9 7221.00 1451.27   4
 -13  -1   9 2374.71 1077.03   4
  -2  14 -10 13087.7 1847.39   3
   2  12 -10 12057.1 1733.35   3
 -14   2 -10 12143.7 1601.64   3
 -12  -2 -10 11487.4 1498.16   3
  14 -12 -10 13285.8 1404.88   3
  12 -14 -10 12427.7 1390.55   3
 -14   2  -7 18787.1 1228.76   1
  -2  14  -7 15368.2 1480.11   3
   2  12  -7 19642.5 1557.68   3
 -12  -2  -7 22104.6 1543.37   3
  14 -12  -7 21406.5 1319.23   3
  12 -14  -7 20099.5 1336.11   3
 -14   2  -7 18686.2 1514.80   3
   2  12  -4 11811.1 910.209   1
 -14   2  -4 10943.6 928.140   2
 -14   2  -4 11972.9 944.002   1
 -14   2  -4 10893.2 895.333   3
  14 -12  -4 10489.7 828.569   4
 -12  -2  -4 11974.2 908.981   3
  -2  14  -4 13077.0 861.203   1
  -2  14  -4 10484.3 877.637   4
 -12  -2  -4 10868.0 912.813   4
  14 -12  -4 10782.1 800.365   2
 -12  -2  -4 11577.2 900.143   2
  12 -14  -4 11122.6 851.502   4
 -14   2  -4 11734.9 955.055   4
  12 -14  -4 12195.8 701.893   2
  -2  14  -4 10482.9 994.019   3
   2  12  -4 9364.73 935.012   3
  14 -12  -1 32747.7 921.190   4
   2  12  -1 35638.2 1469.97   1
 -12  -2  -1 34552.9 1355.04   2
 -14   2  -1 34314.3 1463.17   1
  -2  14  -1 33944.2 1178.50   2
 -14   2  -1 34054.6 790.770   3
  -2  14  -1 35720.7 1429.21   1
  -2  14  -1 35467.1 1082.35   4
 -14   2  -1 35947.7 1406.58   2
   2  12  -1 35490.1 1220.89   2
 -12  -2  -1 32999.1 1362.63   4
   2  12  -1 34305.2 1250.21   4
 -14   2  -1 36447.0 1384.09   4
 -12  -2   2 21657.5 1218.12   4
 -14   2   2 22439.9 1224.69   4
  -2  14   2 23017.8 1344.20   1
   2  12   2 21273.8 1272.92   1
 -14   2   2 23176.8 1320.74   2
 -12  -2   2 20714.5 1296.23   2
 -12  -2   5 51388.5 2425.06   2
   2  12   5 52662.9 2074.95   1
  -2  14   5 51268.0 2142.60   1
 -14   2   5 51104.5 2257.83   4
 -12  -2   5 51340.8 1380.41   3
 -12  -2   5 53217.2 2359.48   4
 -14   2   5 52345.1 1363.65   3
 -14   2   5 52604.0 2390.93   2
 -12  -2   8 27619.2 2210.06   4
 -14   2   8 27416.8 2128.67   2
 -12  -2   8 34271.3 2369.43   2
  -2  14   8 32521.9 1939.52   1
 -14   2   8 30558.9 2253.99   4
   2  12   8 33448.2 1867.17   1
   3  11  -8 4539.90 1057.47   3
 -14   3  -8 2906.62 894.590   3
 -11  -3  -8 3763.49 918.343   3
  14 -11  -8 3723.64 767.957   3
  11 -14  -8 3386.42 832.032   3
  -3  14  -8 4781.73 1192.91   3
  -3  14  -5 7151.80 642.101   1
   3  11  -5 7479.33 885.489   3
 -11  -3  -5 7747.67 873.151   3
   3  11  -5 9185.52 818.872   1
 -14   3  -5 7621.76 941.431   3
 -14   3  -5 8537.16 803.459   1
 -11  -3  -5 8371.23 816.438   2
  14 -11  -5 6715.61 659.524   3
  11 -14  -5 7252.39 864.219   4
  11 -14  -5 6134.94 592.311   2
  -3  14  -5 7384.91 959.604   3
  -3  14  -2 24759.6 1239.97   2
  14 -11  -2 26774.3 1052.85   2
   3  11  -2 25395.7 1244.23   1
 -14   3  -2 25913.0 950.685   3
 -14   3  -2 24141.0 1158.13   2
 -11  -3  -2 24001.4 896.439   3
  -3  14  -2 24967.2 1140.88   1
 -14   3  -2 23715.3 1183.22   1
 -14   3  -2 26627.7 1182.21   4
  14 -11  -2 24059.3 879.968   4
  -3  14  -2 25710.4 906.746   4
 -11  -3  -2 25034.4 1192.87   4
   3  11  -2 26169.7 1126.15   4
  11 -14  -2 24563.6 698.600   4
 -11  -3  -2 24425.5 1124.68   2
   3  11  -2 23854.5 1198.50   2
 -14   3   1 7704.19 789.590   2
  -3  14   1 9607.08 886.803   1
   3  11   1 9992.26 701.027   3
 -11  -3   1 8567.85 816.703   2
 -14   3   1 9442.71 787.799   4
 -11  -3   1 7518.99 702.834   4
   3  11   1 10702.9 903.661   1
   3  11   1 8770.22 526.591   2
  -3  14   4 25454.4 1512.00   1
   3  11   4 26013.9 1421.51   1
 -11  -3   4 24711.5 1594.06   2
 -14   3   4 24457.1 793.059   3
 -11  -3   4 23762.9 1492.11   4
 -14   3   4 24059.0 1468.27   4
 -14   3   4 24829.4 1515.36   2
 -11  -3   7 5332.22 1111.94   2
 -14   3   7 3522.36 1048.12   2
   3  11   7 5180.16 852.779   1
  -3  14   7 4721.78 905.474   1
 -11  -3   7 4810.73 1099.53   4
 -14   3   7 4154.07 991.548   4
 -14   3  10 6255.68 1463.19   4
  -3  14  10 10105.4 1290.94   1
 -11  -3  10 8817.01 1567.24   2
 -14   3  10 8147.18 1512.48   2
 -14   3  10 6510.93 1230.79   1
 -11  -3  10 8292.66 1541.19   4
   3  11  10 7633.59 1123.55   1
 -14   4  -9 5471.60 1123.53   3
   4  10  -9 6042.61 1182.14   3
 -10  -4  -9 7484.24 1242.52   3
  14 -10  -9 6177.83 989.104   3
  10 -14  -9 7163.09 1105.82   3
  -4  14  -9 6064.00 1288.19   3
   4  10  -6-576.118 655.524   3
 -14   4  -6 1760.58 675.122   3
 -14   4  -6 1373.03 547.506   1
 -10  -4  -6 622.769 570.017   3
  -4  14  -6 1631.74 721.407   3
  14 -10  -6 1097.03 507.840   3
  10 -14  -6 1978.03 616.823   3
  10 -14  -6 1235.10 492.020   2
  -4  14  -3 9861.06 989.544   2
 -14   4  -3 13704.3 891.604   3
  14 -10  -3 13035.4 865.664   2
 -14   4  -3 11502.0 843.311   1
 -10  -4  -3 12977.1 806.275   3
  10 -14  -3 10659.8 470.180   2
 -14   4  -3 11924.5 864.168   4
 -14   4  -3 10337.5 843.270   2
  -4  14  -3 11200.1 732.747   4
   4  10  -3 11914.0 843.942   3
  14 -10  -3 10026.3 733.895   4
  10 -14  -3 11230.6 713.767   4
  -4  14  -3 10348.6 740.915   1
 -10  -4  -3 10623.3 779.632   2
 -10  -4  -3 12121.0 920.886   4
  -4  14  -3 11004.3 942.652   3
   4  10  -3 12072.6 928.262   1
  -4  14   0 1455.41 523.989   1
   4  10   0 1335.76 386.913   4
 -14   4   0 1072.10 418.448   4
  -4  14   0 1625.22 315.998   2
  14 -10   0 1382.90 321.707   4
 -10  -4   0 739.919 380.375   4
  10 -14   0 1550.05 516.766   1
   4  10   0 1361.65 342.199   2
 -14   4   0 1464.39 568.625   1
 -14   4   0 1792.44 517.855   2
   4  10   0 1391.71 532.834   1
 -10  -4   0 1112.31 512.534   1
 -10  -4   0 1361.37 453.197   2
 -14   4   3 10309.3 405.941   3
 -10  -4   3 11474.0 1007.02   4
   4  10   3 11293.4 969.984   1
  -4  14   3 13301.8 1093.50   1
 -10  -4   3 12106.9 1155.37   2
 -14   4   3 13677.9 1036.34   4
 -14   4   3 13365.9 1076.63   2
  14 -10   3 12282.3 803.375   3
  -4  14   6 5101.01 923.934   1
 -14   4   6 2901.80 584.773   3
 -14   4   6 4217.37 961.602   2
 -10  -4   6 2936.30 912.644   2
 -14   4   6 3161.81 872.238   4
   4  10   6 3668.23 726.254   1
 -10  -4   6 3871.73 906.075   4
   4  10   9 13268.6 1279.23   1
 -14   4   9 12593.6 1610.37   2
 -10  -4   9 15448.9 1778.25   2
  -4  14   9 10773.1 1288.32   1
 -10  -4   9 10870.2 1583.74   4
 -14   4   9 11687.3 1522.38   4
  -5  14 -10 3681.68 1287.54   3
   5   9 -10 3351.25 1168.33   3
 -14   5 -10 4973.42 1303.46   3
  -9  -5 -10 3933.08 1158.46   3
   9 -14 -10 2298.55 959.997   3
  14  -9 -10 3302.93 962.045   3
   5   9  -7 31181.9 1828.74   3
 -14   5  -7 34574.4 1973.82   3
  -9  -5  -7 31478.0 1784.36   3
  14  -9  -7 34837.1 1557.40   3
   9 -14  -7 31239.5 1693.63   3
   9 -14  -7 32090.9 1528.12   2
  -5  14  -7 29620.8 1954.80   3
 -14   5  -7 30413.1 1177.71   1
  -5  14  -4 9158.13 930.056   3
  -5  14  -4 7535.73 607.546   1
 -14   5  -4 7491.79 812.395   3
  14  -9  -4 6824.12 744.685   4
  -9  -5  -4 7461.88 752.649   3
  -9  -5  -4 7764.55 680.806   2
  -5  14  -4 8307.95 766.830   4
  -9  -5  -4 8731.16 839.870   4
   9 -14  -4 7688.38 454.346   2
   5   9  -4 7893.55 791.727   3
   5   9  -4 7564.38 792.564   1
   9 -14  -4 8186.25 794.093   4
 -14   5  -4 6876.94 662.789   1
  -5  14  -1 34348.9 1182.90   2
 -14   5  -1 36510.2 935.566   3
 -14   5  -1 37432.4 1349.47   2
   9 -14  -1 36670.9 1603.06   1
  -9  -5  -1 37439.6 1327.91   2
   5   9  -1 37120.2 1486.29   1
 -14   5  -1 38882.1 1457.61   1
  14  -9  -1 37798.7 1151.30   4
  -9  -5  -1 35034.0 1357.35   4
  14  -9  -1 39246.3 1287.48   2
 -14   5  -1 36842.2 1295.95   4
   5   9  -1 37729.0 1374.94   4
   5   9  -1 36654.1 1272.62   2
  -5  14  -1 39286.4 1426.33   1
  -9  -5  -1 36801.2 1543.97   1
  -5  14  -1 37921.3 849.952   4
  -5  14   2 29749.9 1472.87   1
 -14   5   2 33622.7 1374.19   4
   5   9   2 29131.1 1172.78   3
   9 -14   2 30688.9 1185.92   1
  -9  -5   2 31330.9 1386.27   4
 -14   5   2 30938.1 1385.18   2
   5   9   2 27601.4 1342.07   1
  14  -9   2 30573.0 1045.23   3
  -9  -5   2 30927.0 1496.55   2
 -14   5   5 42275.3 2048.58   2
  -5  14   5 39859.0 1891.35   1
 -14   5   5 45170.6 1397.83   3
 -14   5   5 43003.4 2031.81   4
  -9  -5   5 41265.4 2169.18   2
  -9  -5   5 45054.4 2101.81   4
   5   9   5 40982.2 1729.44   1
  -5  14   8 14861.5 1397.82   1
 -14   5   8 12887.5 1579.57   2
  -9  -5   8 14930.9 1760.75   2
 -14   5   8 15801.7 1707.77   4
   5   9   8 15224.0 1247.20   1
  -9  -5   8 12975.6 1596.38   4
   6   8  -8 8272.07 1171.56   3
 -14   6  -8 6782.40 1151.53   3
  -8  -6  -8 7987.64 1085.75   3
   8 -14  -8 7022.31 998.949   3
  -6  14  -8 7998.65 1259.48   3
  14  -8  -8 7032.79 918.541   3
 -14   6  -5 31310.4 1156.69   1
  -6  14  -5 29739.9 1625.47   3
 -14   6  -5 28751.5 1533.54   3
  -8  -6  -5 29136.7 1445.54   3
  14  -8  -5 33330.3 1189.87   3
   8 -14  -5 28258.0 1381.08   3
  -6  14  -5 27820.0 1484.21   4
  -8  -6  -5 29945.3 1288.05   2
   8 -14  -5 30249.4 1004.78   2
   8 -14  -5 28942.3 1538.66   4
   6   8  -5 28991.4 1424.17   3
  -6  14  -5 29149.3 903.899   1
 -14   6  -2 601.845 402.492   1
  -6  14  -2-44.7523 415.002   3
  -6  14  -2 493.881 248.157   4
   8 -14  -2 215.137 280.326   4
 -14   6  -2 945.500 394.859   3
  -6  14  -2 163.717 445.557   2
 -14   6  -2 665.532 393.386   2
  -8  -6  -2 217.547 347.690   2
 -14   6  -2 529.145 392.768   4
  -8  -6  -2 91.0453 293.331   3
   6   8  -2 246.949 454.411   1
   6   8  -2 873.414 437.490   4
  14  -8  -2 57.0248 368.065   2
  -8  -6  -2 764.328 418.662   4
  -6  14  -2 456.759 392.492   1
   6   8  -2 658.765 368.440   3
  14  -8  -2 416.934 334.642   4
   6   8  -2 571.930 437.074   2
   6   8   1 96587.9 2077.43   4
   6   8   1 95847.4 1767.74   2
   6   8   1 101556. 2380.02   1
   8 -14   1 98883.6 2224.42   1
   6   8   1 96235.4 1838.56   3
  -8  -6   1 94574.7 2323.17   1
 -14   6   1 97118.3 2199.13   2
 -14   6   1 100745. 2058.16   4
  -6  14   1 100118. 2433.49   1
  -8  -6   1 96141.9 2188.59   4
  -8  -6   1 104179. 2399.27   2
  -8  -6   4 11988.3 1177.48   2
 -14   6   4 12714.0 709.851   3
 -14   6   4 12160.6 1073.28   2
   6   8   4 12313.3 1002.32   1
 -14   6   4 11005.2 1001.18   4
   8 -14   4 11828.1 638.577   1
  -8  -6   4 11199.3 1066.01   4
  -6  14   4 11635.0 1074.88   1
 -14   6   7 7570.94 1102.99   2
  -8  -6   7 11080.5 1445.02   2
   6   8   7 9193.12 990.664   1
  -8  -6   7 7687.37 1211.37   4
 -14   6   7 7224.37 1155.32   4
  -6  14   7 10139.5 1137.94   1
  -8  -6  10 4481.90 1383.50   4
   6   8  10 1676.31 797.609   1
  -6  14  10 2454.14 936.997   1
 -14   6  10 179.740 973.758   2
  -8  -6  10 4329.71 1316.74   2
 -14   6  10 1841.72 937.942   1
 -14   6  10 2159.49 1066.74   4
   7   7  -9 5452.57 1121.47   3
 -14   7  -9 3197.40 1061.48   3
  -7  14  -9 5234.33 1293.92   3
  14  -7  -9 4171.95 888.997   3
  -7  -7  -9 4920.53 1072.63   3
   7 -14  -9 3056.86 861.175   3
   7   7  -6 5070.07 827.420   3
  -7  14  -6 3088.33 771.363   3
 -14   7  -6 5663.51 936.330   3
 -14   7  -6 3452.58 457.301   1
   7 -14  -6 4140.70 621.538   2
  14  -7  -6 4540.33 625.570   3
   7 -14  -6 4004.17 714.540   3
  -7  -7  -6 4141.23 733.336   3
  14  -7  -3 39470.0 1406.03   4
 -14   7  -3 39677.4 1456.61   3
  -7  -7  -3 39237.8 1256.90   2
  -7  14  -3 38138.8 1677.31   2
  -7  14  -3 39978.3 1227.35   1
  -7  -7  -3 40456.0 1369.60   3
   7   7  -3 39777.4 1587.66   1
   7 -14  -3 38086.8 1288.02   4
 -14   7  -3 37750.3 1322.02   4
  -7  14  -3 41350.2 1265.51   4
  -7  -7  -3 38366.4 1455.98   4
  -7  14  -3 39457.2 1580.14   3
 -14   7  -3 41591.0 1314.15   1
   7   7  -3 39569.8 1299.48   3
  14  -7   0 636.255 337.510   4
 -14   7   0 1050.44 249.181   3
  -7  14   0 972.156 482.073   1
  -7  14   0 733.722 293.855   2
   7   7   0 1451.09 323.593   3
  14  -7   0 1144.88 402.579   2
  -7  -7   0 1876.13 430.194   4
   7   7   0 809.256 373.358   2
  -7  -7   0 1590.67 529.308   1
 -14   7   0 1316.98 367.261   4
   7   7   0 1147.11 411.902   4
   7 -14   0 836.499 495.993   1
   7   7   0 1385.27 487.467   1
 -14   7   0 1161.93 461.727   2
  -7  -7   0 855.680 403.952   2
  -7  -7   3 41892.6 1871.73   2
  -7  -7   3 36152.9 1499.24   1
 -14   7   3 37218.6 968.900   3
   7   7   3 36980.3 1407.24   3
  14  -7   3 39273.8 1305.53   3
 -14   7   3 41372.0 1618.53   4
   7   7   3 40120.0 1610.00   1
  -7  -7   3 40519.4 1687.96   4
 -14   7   3 39528.7 1616.31   2
   7 -14   3 35411.0 1195.53   1
  -7  14   3 38010.4 1729.24   1
   7 -14   3 36550.8 1207.00   4
 -14   7   6 3064.88 621.643   3
  -7  14   6 3093.93 802.426   1
 -14   7   6 4110.47 900.883   2
  -7  -7   6 3991.92 978.939   4
   7   7   6 3270.64 695.477   1
  -7  -7   6 3718.22 980.560   2
 -14   7   6 2884.92 883.518   4
 -14   7   9 5817.32 1242.69   2
  -7  14   9 4954.05 1005.32   1
  -7  -7   9 6009.32 1372.12   2
 -14   7   9 4445.70 1081.56   1
   7   7   9 5289.69 883.178   1
  -7  -7   9 5530.18 1258.13   4
 -14   7   9 5787.19 1256.29   4
  -8  14 -10 2497.41 1256.92   3
   8   6 -10 3042.00 1073.34   3
 -14   8 -10 1722.55 1099.51   3
  14  -6 -10 3224.22 934.907   3
  -6  -8 -10 3623.99 1058.35   3
   6 -14 -10 3751.86 1074.25   3
  -8  14  -7 8212.88 1172.22   3
   8   6  -7 11814.9 1148.62   3
  14  -6  -7 12062.3 980.950   3
  -6  -8  -7 10092.4 1112.78   3
   6 -14  -7 10921.1 1092.00   3
 -14   8  -7 10014.0 1187.27   3
   6 -14  -7 9740.01 967.672   2
  -8  14  -4 12886.8 1038.20   3
   8   6  -4 15096.2 898.129   3
  -8  14  -4 13017.6 646.084   1
 -14   8  -4 13571.2 1050.43   3
 -14   8  -4 12747.0 725.619   1
  14  -6  -4 15154.3 665.079   3
  -6  -8  -4 13378.8 936.753   3
  -8  14  -4 13832.9 942.372   4
  -6  -8  -4 12412.7 757.519   2
  -6  -8  -4 14113.6 1003.31   4
   6 -14  -4 14561.2 997.905   4
  -8  14  -1 98606.6 2168.35   1
 -14   8  -1 101245. 1718.44   3
  -6  -8  -1 100295. 2143.59   4
 -14   8  -1 101738. 2097.62   2
 -14   8  -1 98704.6 1848.88   4
  -8  14  -1 94616.1 1965.83   2
  -6  -8  -1 101183. 2520.60   1
   8   6  -1 99304.6 2266.87   4
   8   6  -1 104723. 2413.39   1
   8   6  -1 103812. 2177.25   2
  14  -6  -1 100676. 2156.09   2
   6 -14  -1 102778. 2566.64   1
  14  -6  -1 103126. 2076.23   4
   6 -14  -1 99106.6 1174.49   4
  -6  -8  -1 97823.8 1916.57   2
  14  -6   2 137.366 265.328   3
   6 -14   2 365.004 397.239   1
  -8  14   2 549.761 526.826   1
  -6  -8   2-6.23790 548.400   2
   8   6   2 308.354 357.855   3
 -14   8   2 647.034 223.731   3
  -6  -8   2 1122.42 494.772   1
  -8  14   2 483.908 385.611   3
 -14   8   2 394.241 465.699   2
  -6  -8   2 45.6832 403.951   4
 -14   8   2 295.338 396.958   4
   8   6   2 67.9763 451.204   1
   6 -14   2 231.446 291.189   4
  -8  14   5 27095.5 1636.93   1
 -14   8   5 26714.6 1155.11   3
 -14   8   5 27840.1 1628.20   4
   6 -14   5 25059.1 851.389   1
 -14   8   5 27092.0 1587.44   2
  -6  -8   5 29826.2 1841.59   2
  -6  -8   5 26349.9 1655.17   4
   6 -14   5 26120.2 1388.97   4
   8   6   5 26109.2 1337.38   1
  -6  -8   8 6353.69 1258.49   2
   8   6   8 7511.91 902.450   1
 -14   8   8 6836.08 1188.37   2
 -14   8   8 7249.06 1178.23   1
  -6  -8   8 6007.83 1219.75   4
  -8  14   8 8537.73 1197.39   1
 -14   8   8 5597.91 1111.82   4
   9   5  -8 16651.0 1392.15   3
 -14   9  -8 17660.7 1664.57   3
  -9  14  -8 17898.0 1708.83   3
  14  -5  -8 17670.1 1255.14   3
  -5  -9  -8 17025.0 1477.30   3
   5 -14  -8 18422.7 1465.17   3
   9   5  -5 44928.8 1621.98   3
 -14   9  -5 52269.2 2081.08   3
   5 -14  -5 48188.0 1805.77   3
  14  -5  -5 52689.4 1416.15   3
  -5  -9  -5 45949.8 1790.87   3
  -9  14  -5 46467.1 1853.96   4
  -5  -9  -5 48516.5 1447.48   2
  -9  14  -5 47736.9 2031.66   3
 -14   9  -5 47464.8 1148.68   1
   5 -14  -5 48309.4 1215.86   2
  -9  14  -2 32204.9 1181.99   1
 -14   9  -2 32578.7 1184.23   3
  -9  14  -2 35241.5 1376.32   3
  14  -5  -2 34849.8 1276.69   4
  -9  14  -2 33672.9 1396.34   2
 -14   9  -2 35611.0 1105.35   4
  -5  -9  -2 36523.7 1108.36   2
 -14   9  -2 31950.8 1258.91   2
  -9  14  -2 31651.1 836.850   4
   5 -14  -2 35514.1 910.257   4
  -5  -9  -2 35182.5 1297.55   4
   9   5  -2 33973.1 1487.09   1
   9   5  -2 34500.1 993.063   3
  -5  -9   1 38003.3 1350.23   4
   9   5   1 34423.4 1359.43   4
  -5  -9   1 43274.8 1655.90   1
  -5  -9   1 42510.6 1545.31   2
   9   5   1 38839.2 1124.52   3
   9   5   1 36447.7 1480.80   1
 -14   9   1 41011.8 1237.80   4
 -14   9   1 39715.5 1345.53   2
   9   5   1 39183.7 1268.74   2
  -9  14   1 40198.7 1623.27   1
   5 -14   1 37934.3 1452.06   1
  14  -5   1 40606.3 888.152   3
  -9  14   1 34464.0 747.932   2
   5 -14   1 37775.8 937.215   4
  14  -5   1 38965.0 1305.15   4
  14  -5   4 6561.44 711.323   3
  -5  -9   4 7157.37 930.921   4
   9   5   4 5966.98 725.017   1
  -5  -9   4 6897.49 1016.48   2
 -14   9   4 6877.16 624.936   3
   5 -14   4 7531.07 610.398   1
  -9  14   4 6818.89 520.260   2
  -5  -9   4 6904.98 772.997   1
 -14   9   4 6735.98 821.928   4
  -9  14   4 7708.46 979.111   1
   5 -14   4 7714.94 779.929   4
 -14   9   4 7616.09 853.612   2
   9   5   7 31945.9 1555.47   1
  -5  -9   7 29108.5 2067.38   2
  -9  14   7 32427.1 1935.77   1
 -14   9   7 28935.9 1839.83   2
 -14   9   7 31861.0 1943.44   1
  -5  -9   7 30309.8 2004.85   4
 -14   9   7 34362.9 2063.22   4
  -9  14  10 2957.34 981.525   1
 -14   9  10 4324.39 1220.16   4
   9   5  10 2747.71 788.452   1
  -5  -9  10 3819.97 1406.66   2
 -14   9  10 2982.75 1035.07   1
 -14   9  10 4014.42 1133.59   2
  -5  -9  10 1823.53 1184.20   4
  10   4  -9 12218.5 1311.28   3
 -14  10  -9 13408.9 1584.55   3
  14  -4  -9 15395.9 1299.56   3
  -4 -10  -9 15079.7 1513.12   3
   4 -14  -9 13994.6 1412.09   3
 -10  14  -9 13290.9 1633.66   3
 -10  14  -6 4062.32 940.871   3
 -14  10  -6 2269.90 201.143   1
 -14  10  -6 5033.87 942.803   3
  10   4  -6 4989.11 746.431   3
   4 -14  -6 4406.91 643.651   2
  14  -4  -6 5106.79 649.092   3
  -4 -10  -6 4750.60 751.322   3
   4 -14  -6 4444.55 811.836   3
 -14  10  -3 11482.0 717.061   1
 -10  14  -3 10069.2 649.983   1
 -10  14  -3 8877.61 938.663   2
  14  -4  -3 9188.97 346.683   3
 -14  10  -3 9106.44 797.759   3
  -4 -10  -3 11103.4 633.342   2
  10   4  -3 9468.74 593.696   3
 -10  14  -3 12082.2 775.825   4
  -4 -10  -3 9197.89 754.468   4
 -10  14  -3 10589.6 895.434   3
 -10  14   0 1816.52 295.304   2
   4 -14   0 1863.69 518.248   1
  10   4   0 1283.65 399.770   2
  -4 -10   0 1332.94 525.072   1
  14  -4   0 1790.40 451.173   4
  10   4   0 1630.62 481.534   4
 -10  14   0 1814.99 537.250   1
 -14  10   0 2950.69 385.099   4
 -14  10   0 1770.29 411.317   2
   4 -14   0 1771.41 274.233   4
  -4 -10   0 1178.78 361.168   4
  10   4   0 1853.55 313.988   3
  -4 -10   0 2006.61 469.092   2
  10   4   0 1698.56 566.292   1
 -14  10   0 1839.33 337.149   3
  14  -4   0 1741.69 472.803   2
 -10  14   3 11741.0 624.342   2
  14  -4   3 11171.8 779.890   3
  -4 -10   3 13192.2 1171.79   2
  10   4   3 12422.7 910.005   3
 -14  10   3 10269.0 628.108   3
 -14  10   3 10960.5 853.481   2
  10   4   3 10520.0 893.908   1
 -10  14   3 9948.23 1037.76   1
  -4 -10   3 10155.7 863.569   1
 -14  10   3 11127.5 882.548   4
  -4 -10   3 10047.9 908.819   4
   4 -14   3 11221.4 845.965   4
   4 -14   3 10721.0 773.767   1
 -10  14   6-92.2288 636.962   1
  10   4   6 597.886 524.275   1
 -14  10   6 11.0828 697.026   4
 -14  10   6-703.433 701.948   1
   4 -14   6 390.981 347.779   1
 -14  10   6 1386.63 654.681   2
  -4 -10   6 949.423 840.285   2
 -10  14   6 764.291 498.936   2
   4 -14   6 658.505 652.755   4
  -4 -10   6 1105.61 546.564   1
  -4 -10   6-124.514 721.247   4
 -14  10   9 6025.16 1190.54   1
  -4 -10   9 4661.12 1158.01   4
 -10  14   9 4617.31 1038.44   1
 -14  10   9 3247.29 947.920   2
  -4 -10   9 4872.05 1257.17   2
 -14  10   9 6061.62 1284.04   4
  10   4   9 3753.37 780.385   1
 -14  11 -10 8415.84 1493.72   3
  11   3 -10 14407.0 1548.95   3
  14  -3 -10 10961.3 1317.51   3
  -3 -11 -10 13314.7 1487.61   3
   3 -14 -10 12772.6 1571.09   3
 -11  14 -10 10524.0 1681.17   3
   3 -14  -7 4392.61 815.197   2
 -14  11  -7 6118.27 1104.74   3
 -11  14  -7 4763.89 1005.93   3
  11   3  -7 5606.52 866.031   3
  14  -3  -7 6518.80 779.305   3
  -3 -11  -7 5344.50 881.935   3
   3 -14  -7 7547.61 975.611   3
   3 -14  -4 18045.8 573.145   2
 -11  14  -4 23412.0 1365.21   3
 -14  11  -4 23977.5 1339.51   3
 -11  14  -4 23975.5 820.633   1
 -14  11  -4 24626.0 887.172   1
  14  -3  -4 25982.1 821.005   3
  -3 -11  -4 26474.5 918.439   2
   3 -14  -4 20208.2 466.713   2
  11   3  -4 25697.4 1035.32   3
 -11  14  -4 23968.1 1220.84   4
  -3 -11  -4 23675.4 1219.29   3
 -14  11  -1 9128.67 657.552   2
  14  -3  -1 8276.68 745.598   4
   3 -14  -1 9628.48 559.233   4
  11   3  -1 9001.30 406.409   3
  -3 -11  -1 9614.71 695.978   4
 -14  11  -1 9825.32 549.116   4
 -14  11  -1 9713.96 650.591   3
 -11  14  -1 9394.20 779.530   1
  -3 -11  -1 9303.15 636.935   2
  11   3  -1 9746.73 886.959   1
  14  -3   2 24155.0 914.132   3
  -3 -11   2 27747.3 1430.75   2
  -3 -11   2 22299.7 1120.97   4
   3 -14   2 25185.9 1035.91   4
  11   3   2 27637.7 1117.62   3
   3 -14   2 24726.1 1204.89   2
 -14  11   2 25267.6 868.017   3
 -14  11   2 22850.3 1058.65   2
 -11  14   2 24093.3 1041.68   3
  -3 -11   2 27062.3 1311.38   1
 -11  14   2 24936.1 1406.52   1
 -14  11   2 26886.2 1118.44   4
 -11  14   2 26577.2 847.499   2
   3 -14   2 26198.9 1229.45   1
  11   3   2 24458.5 1247.78   1
 -14  11   5 8755.74 969.620   2
 -11  14   5 8298.41 729.553   2
  -3 -11   5 9682.62 1211.15   2
 -14  11   5 6740.63 723.135   3
  -3 -11   5 7175.82 765.925   1
 -11  14   5 7565.82 1028.64   1
  11   3   5 8375.12 868.194   1
   3 -14   5 9273.11 1144.24   2
   3 -14   5 6897.85 660.234   1
 -14  11   5 7133.52 999.188   1
  -3 -11   5 8471.56 1029.46   4
  14  -3   5 8322.80 735.062   1
 -14  11   5 8299.13 963.066   4
   3 -14   5 6962.56 904.560   4
  -3 -11   8 2113.61 1122.67   2
  14  -3   8 2771.20 539.457   1
 -14  11   8 2841.81 889.275   2
 -11  14   8 4246.06 816.636   2
 -14  11   8 2911.31 974.856   1
 -11  14   8 2794.46 956.949   1
  11   3   8 3174.70 678.245   1
 -14  11   8 2165.86 888.175   4
   3 -14   8 4611.81 1029.78   4
  -3 -11   8 3690.36 993.182   4
 -12  14  -8 33026.1 2228.04   3
 -14  12  -8 35773.9 2305.97   3
  12   2  -8 35864.2 1818.45   3
  14  -2  -8 38543.2 1767.76   3
  -2 -12  -8 37819.3 2059.55   3
   2 -14  -8 36383.5 2060.99   3
 -14  12  -5 55507.6 2208.76   3
   2 -14  -5 48855.8 1346.61   2
  14  -2  -5 55604.7 1459.47   3
 -14  12  -5 46707.8 985.633   1
 -12  14  -5 44334.7 793.307   1
  -2 -12  -5 53537.7 1954.88   3
   2 -14  -5 52382.0 1943.20   3
  -2 -12  -5 56269.2 1370.50   2
 -14  12  -5 43583.1 956.426   1
 -12  14  -5 52854.0 2152.31   3
  12   2  -5 54093.0 1600.18   3
 -12  14  -5 50608.9 1997.29   4
 -14  12  -2 21598.8 1073.29   3
 -14  12  -2 21971.7 792.752   4
   2 -14  -2 22738.2 889.379   4
  -2 -12  -2 24209.7 1047.40   4
  -2 -12  -2 21811.7 782.656   2
 -12  14  -2 21498.8 802.268   4
 -12  14  -2 23729.6 1078.86   1
 -12  14  -2 21930.7 1135.35   3
 -12  14   1 29395.5 936.786   2
  14  -2   1 33993.7 845.151   3
  -2 -12   1 33541.5 1410.80   2
   2 -14   1 29754.4 1202.38   2
  12   2   1 33247.7 1023.80   3
  -2 -12   1 33219.1 1505.30   1
  12   2   1 31768.6 1443.36   1
  -2 -12   1 31457.0 1170.64   4
 -14  12   1 32656.9 1009.40   4
 -14  12   1 28624.2 1090.42   2
   2 -14   1 30837.8 1034.50   4
   2 -14   1 32012.8 1447.47   1
 -12  14   1 32004.8 1531.11   1
  -2 -12   4 11937.3 1057.68   4
  14  -2   4 12054.6 947.836   3
   2 -14   4 13761.0 928.870   1
  -2 -12   4 14406.1 1305.15   2
  -2 -12   4 12497.8 956.869   1
 -14  12   4 11926.5 801.135   3
  12   2   4 15316.4 1027.48   1
   2 -14   4 12489.3 1218.31   2
 -14  12   4 13925.1 1269.92   1
  14  -2   4 13832.7 950.767   1
 -12  14   4 12463.5 832.710   2
 -12  14   4 14208.1 1264.93   1
   2 -14   4 12738.9 1058.43   4
 -14  12   4 14442.0 1064.18   4
 -14  12   4 11793.6 944.530   2
 -14  12   7 18244.7 1431.02   2
 -14  12   7 18887.7 1609.50   1
  -2 -12   7 21134.1 1879.45   2
 -12  14   7 17258.2 1247.57   2
  14  -2   7 16871.7 1042.71   1
  12   2   7 18809.9 1195.30   1
 -12  14   7 18292.7 1561.24   1
   2 -14   7 15575.0 879.884   1
  -2 -12   7 17564.3 1626.35   4
   2 -14   7 19350.3 1567.76   4
 -14  12   7 18023.9 1536.93   4
  -2 -12   7 12746.1 1011.44   1
 -14  12  10 8271.36 1455.09   1
  12   2  10 7217.33 919.091   1
 -14  12  10 8447.94 1378.71   2
  -2 -12  10 11757.2 1734.38   2
 -12  14  10 10235.6 1440.39   1
  -2 -12  10 8830.41 1628.63   4
 -13  14  -9 3730.47 1167.60   3
 -14  13  -9 3372.52 1155.92   3
  13   1  -9 4614.97 955.745   3
  14  -1  -9 3658.85 866.036   3
  -1 -13  -9 3117.04 923.492   3
   1 -14  -9 3762.93 995.522   3
 -13  14  -6 2655.64 775.773   3
  14  -1  -6 3046.05 572.997   3
  13   1  -6 1683.63 537.694   3
   1 -14  -6 1630.99 576.704   2
  -1 -13  -6 1770.00 619.331   2
  -1 -13  -6 1234.94 648.494   3
   1 -14  -6 1423.31 627.621   3
 -14  13  -6 2733.47 806.662   3
 -13  14  -3 6639.88 741.412   3
 -14  13  -3 8025.74 801.420   3
 -13  14  -3 7977.65 681.597   4
  13   1  -3 6272.91 427.151   3
  -1 -13  -3 8890.07 700.877   4
  14  -1  -3 5302.57 294.556   3
   1 -14  -3 7962.88 652.160   4
 -13  14  -3 8220.44 654.234   1
  -1 -13  -3 7563.13 454.035   2
   1 -14  -3 5653.38 290.126   2
 -14  13  -3 7662.78 647.026   1
  14  -1   0 1276.22 145.073   3
  13   1   0 1811.76 265.409   3
  -1 -13   0 2240.16 464.778   2
 -14  13   0 2382.45 293.897   4
   1 -14   0 1923.58 423.361   2
 -14  13   0 3155.06 632.102   1
 -14  13   0 2249.15 419.299   2
 -13  14   0 2077.78 543.569   1
  -1 -13   0 2404.62 421.507   4
 -13  14   0 1849.55 360.844   2
 -13  14   0 2132.87 198.757   4
  13   1   0 1499.39 536.349   1
   1 -14   0 1721.17 335.576   4
  14  -1   3 24598.5 1146.96   3
  13   1   3 24310.4 1258.29   1
  13   1   3 24367.7 1170.67   3
   1 -14   3 21598.6 1155.59   4
   1 -14   3 20962.2 1165.82   1
   1 -14   3 23516.6 1425.45   2
  -1 -13   3 21279.6 1200.73   1
 -14  13   3 19849.5 949.977   3
 -13  14   3 19690.4 981.374   3
  -1 -13   3 23594.2 1473.03   2
 -14  13   3 24706.7 1559.78   1
 -13  14   3 21675.0 1437.97   1
  14  -1   3 22178.3 1188.17   1
  -1 -13   3 23563.3 1269.54   4
 -14  13   3 21117.8 1080.16   4
 -13  14   3 21339.6 1021.35   4
 -14  13   3 22194.9 1074.56   2
 -13  14   3 21397.5 992.179   2
  14  -1   6 976.038 513.574   1
  13   1   6 884.269 524.142   1
 -14  13   6 982.158 566.715   2
 -13  14   6 1112.68 588.401   2
   1 -14   6 910.967 522.986   1
  -1 -13   6 572.336 705.077   2
   1 -14   6 1931.09 912.174   2
 -14  13   6 1084.97 771.302   1
   1 -14   6 1860.20 824.228   4
  -1 -13   6 423.402 779.458   4
 -13  14   6 1597.50 748.371   1
  -1 -13   6 1141.07 551.916   1
 -14  13   6 1753.54 757.457   4
  14  -1   9 8444.58 837.265   1
 -14  13   9 10915.2 1350.74   2
 -13  14   9 10927.1 1286.97   2
  -1 -13   9 8646.73 1551.89   2
 -13  14   9 12060.6 1514.86   1
  -1 -13   9 13021.0 1623.53   4
 -14  13   9 9854.24 1384.60   1
  13   1   9 8543.32 913.748   1
   1 -14   9 8606.20 1438.83   4
 -14  14 -10 5285.13 1347.26   3
  14   0 -10 4306.89 997.546   3
 -14  14  -7 363.853 775.655   3
  14   0  -7-1197.11 616.933   3
   0 -14  -7 268.990 648.038   2
   0 -14  -7 849.430 596.430   3
  14   0  -4 6839.15 523.677   3
   0 -14  -4 6396.47 501.565   2
   0 -14  -4 7912.50 439.185   2
 -14  14  -4 6330.91 538.296   1
 -14  14  -4 8121.42 911.767   3
 -14  14  -4 8134.31 831.366   4
 -14  14  -1-78.1359 338.032   3
   0 -14  -1-108.148 308.453   2
   0 -14  -1-113.482 322.471   4
 -14  14  -1-96.5889 293.449   2
 -14  14  -1 149.931 173.347   4
 -14  14  -1 103.066 422.045   1
 -14  14   2 11952.7 1090.27   1
  14   0   2 12743.7 779.860   3
   0 -14   2 10170.1 971.962   2
   0 -14   2 10396.0 946.389   1
 -14  14   2 9704.41 681.496   3
 -14  14   2 9885.76 685.345   2
  14   0   2 11318.7 951.176   1
   0 -14   2 12145.7 843.387   4
 -14  14   2 11313.9 705.316   4
   0 -14   5 379.878 523.901   1
  14   0   5-159.234 461.298   1
 -14  14   5-348.457 530.725   2
 -14  14   5 336.461 619.052   4
 -14  14   5 451.479 689.175   1
   0 -14   5 403.476 727.387   2
   0 -14   5-91.6113 672.876   4
  14   0   8 2111.62 614.296   1
 -14  14   8 2165.82 759.610   2
   0 -14   8 1862.62 979.306   2
 -14  14   8 2677.82 964.402   1
   0 -14   8 993.154 991.224   4
   0  15  -9 1089.94 1037.03   3
 -15   0  -9-616.024 818.280   3
  15 -15  -9 1825.26 826.628   3
 -15   0  -6 10984.1 1088.35   3
 -15   0  -6 10736.8 1072.70   2
   0  15  -6 11904.3 1264.13   3
 -15   0  -6 13099.4 1201.60   4
   0  15  -6 11679.2 932.115   1
   0  15  -3 713.995 565.119   3
 -15   0  -3 468.354 495.928   4
   0  15  -3 731.927 474.430   1
  15 -15  -3 551.125 346.853   2
  15 -15  -3 359.257 339.002   4
 -15   0  -3 1015.72 515.773   2
   0  15  -3-422.947 411.696   4
   0  15   0 33752.6 1007.43   2
   0  15   0 33307.2 1162.76   4
 -15   0   0 33552.9 1508.85   2
 -15   0   0 33569.2 1408.19   4
   0  15   0 33745.6 1544.89   1
 -15   0   3-101.735 606.027   2
 -15   0   3-339.487 560.478   4
   0  15   3 1.27483 551.719   1
 -15   0   6 17823.0 1725.14   2
   0  15   6 16000.5 1387.44   1
 -15   0   6 17335.6 1621.99   4
 -15   0   6 16015.2 892.145   3
 -15   0   9 610.151 1049.02   2
 -15   0   9 662.828 1095.26   4
   0  15   9-410.022 772.706   1
   1  14 -10 3100.73 1242.64   3
  -1  15 -10 4323.33 1336.55   3
 -15   1 -10 3651.22 1200.85   3
 -14  -1 -10 4459.07 1151.81   3
  15 -14 -10 6456.09 1143.36   3
  14 -15 -10 4758.79 1047.86   3
   1  14  -7 21791.9 1717.34   3
 -15   1  -7 22842.5 1638.39   3
 -14  -1  -7 19762.7 1516.90   3
  15 -14  -7 19555.6 1301.57   3
  14 -15  -7 22226.8 1411.89   3
  -1  15  -7 23098.1 1777.15   3
 -15   1  -4 26298.0 1380.21   2
  15 -14  -4 25538.5 1125.38   2
  14 -15  -4 26249.9 1171.74   4
 -15   1  -4 25687.8 1258.03   3
 -14  -1  -4 29066.7 1321.08   3
  -1  15  -4 25246.8 1259.76   1
 -14  -1  -4 27636.1 1461.09   4
   1  14  -4 29078.4 1507.43   3
  -1  15  -4 26892.0 1515.41   3
  14 -15  -4 25449.9 1029.92   2
  15 -14  -4 26456.2 1190.77   4
 -15   1  -4 27343.8 1393.89   4
 -14  -1  -4 23659.9 1289.88   2
   1  14  -4 28461.1 1364.72   1
  -1  15  -1 45078.1 1708.91   1
 -14  -1  -1 43859.2 1633.81   4
  15 -14  -1 42895.6 939.318   4
 -15   1  -1 46223.2 1682.68   2
 -15   1  -1 43057.7 874.687   3
 -14  -1  -1 41396.7 1604.29   2
   1  14  -1 43338.6 1402.72   2
  -1  15  -1 45329.5 1332.38   4
   1  14  -1 42242.4 1644.26   1
   1  14  -1 44128.3 1428.38   4
 -15   1  -1 41471.8 1574.95   4
  -1  15  -1 43103.9 1354.95   2
  -1  15   2 19000.7 1291.94   1
 -14  -1   2 18006.7 1190.32   4
 -15   1   2 17962.9 1192.53   4
   1  14   2 18989.6 1275.90   1
 -15   1   2 19933.2 1311.20   2
 -14  -1   2 20259.1 1335.34   2
 -14  -1   5 42454.4 2260.65   2
  -1  15   5 42589.6 2051.18   1
   1  14   5 39689.4 1929.91   1
 -15   1   5 38783.4 1106.96   3
 -14  -1   5 41465.1 2156.95   4
 -15   1   5 39753.7 2103.70   4
 -15   1   5 38201.8 2113.92   2
 -15   1   8 5675.22 1388.66   2
  -1  15   8 7629.31 1177.13   1
 -14  -1   8 6973.09 1330.46   2
   1  14   8 7595.37 1112.27   1
 -14  -1   8 6188.73 1437.60   4
 -15   1   8 4513.90 1171.57   4
  -2  15  -8 4390.17 1111.77   3
   2  13  -8 3618.81 1067.67   3
 -15   2  -8 1238.39 818.589   3
 -13  -2  -8 2891.87 886.149   3
  15 -13  -8 2630.80 771.162   3
  13 -15  -8 3464.84 805.048   3
  -2  15  -5 3963.68 610.136   1
  -2  15  -5 3988.67 834.729   3
   2  13  -5 3447.95 778.591   3
 -15   2  -5 3352.00 698.802   4
 -15   2  -5 2624.45 655.767   2
   2  13  -5 2833.03 614.487   1
 -13  -2  -5 4410.12 724.947   3
 -15   2  -5 2488.56 674.316   3
 -13  -2  -5 2321.30 629.247   2
  13 -15  -5 3534.56 723.830   4
  13 -15  -5 2706.73 502.701   2
 -13  -2  -5 2821.48 688.440   4
 -15   2  -2 7962.81 765.838   4
   2  13  -2 7127.63 791.677   1
 -15   2  -2 8856.72 586.730   3
 -13  -2  -2 7469.19 554.501   3
  15 -13  -2 7489.90 535.915   4
  -2  15  -2 8227.03 631.158   4
 -13  -2  -2 8493.43 804.636   4
   2  13  -2 8317.15 743.239   4
  13 -15  -2 7864.01 418.563   4
  -2  15  -2 7008.17 747.174   2
  -2  15  -2 8860.68 807.185   1
   2  13  -2 8106.02 802.930   2
 -15   2  -2 8781.34 800.280   2
 -13  -2  -2 7159.09 740.860   2
  15 -13  -2 7083.95 594.458   2
 -13  -2   1 15516.7 1020.30   4
   2  13   1 15181.1 651.873   2
 -13  -2   1 15405.4 1103.43   2
 -15   2   1 16784.9 1045.04   4
  -2  15   1 16045.5 1135.91   1
   2  13   1 14574.6 1072.36   1
  -2  15   1 13868.9 430.948   2
 -15   2   1 15014.4 1061.65   2
 -13  -2   4 6787.97 1045.04   2
  -2  15   4 6200.43 907.087   1
   2  13   4 6925.83 898.964   1
 -15   2   4 5883.02 382.519   3
 -15   2   4 4388.96 845.559   4
 -15   2   4 6058.71 945.769   2
 -13  -2   4 5206.35 903.295   4
 -13  -2   7 9896.22 1411.51   2
  -2  15   7 16463.8 1466.92   1
   2  13   7 14474.3 1311.67   1
 -15   2   7 11284.3 1452.77   4
 -13  -2   7 14862.0 1634.67   4
 -15   2   7 11432.2 1471.37   2
  -2  15  10 2003.49 1025.68   1
   2  13  10 1974.52 897.484   1
 -15   2  10 311.171 1089.91   2
 -13  -2  10-113.258 1120.50   2
 -13  -2  10 1590.64 1186.52   4
 -15   2  10 1598.18 1117.63   4
  -3  15  -9 751.502 1033.76   3
 -15   3  -9 486.524 809.590   3
 -12  -3  -9 863.977 831.809   3
  15 -12  -9 1279.79 737.712   3
  12 -15  -9-185.348 749.854   3
   3  12  -9 135.484 970.461   3
 -15   3  -6 9241.94 1057.00   3
 -15   3  -6 7169.96 863.667   1
 -12  -3  -6 10402.6 1046.82   3
  15 -12  -6 8812.22 820.718   3
 -12  -3  -6 7394.01 890.257   2
  -3  15  -6 9869.38 1177.13   3
  12 -15  -6 8533.46 769.547   2
   3  12  -6 8642.71 1061.74   3
  -3  15  -3 2251.46 634.882   3
   3  12  -3 1857.90 542.353   3
  12 -15  -3 2401.12 415.769   4
   3  12  -3 1905.59 559.208   1
  15 -12  -3 1607.94 426.844   4
  -3  15  -3 1533.29 620.753   2
 -12  -3  -3 988.036 513.961   4
 -15   3  -3 1642.87 453.924   3
  -3  15  -3 1687.64 401.570   4
 -12  -3  -3 2015.02 435.164   3
  12 -15  -3 2450.35 321.667   2
  -3  15  -3 1268.82 465.699   1
 -15   3  -3 2295.60 569.389   2
 -15   3  -3 2413.89 538.272   4
  15 -12  -3 2534.50 484.148   2
 -15   3  -3 1854.90 563.270   1
 -12  -3  -3 2354.97 508.950   2
 -15   3   0 18507.7 1093.45   2
  -3  15   0 18169.0 1128.89   1
   3  12   0 18316.3 948.338   4
   3  12   0 18517.4 819.685   2
 -12  -3   0 19194.9 1111.69   2
 -15   3   0 16457.6 949.393   4
  15 -12   0 15753.1 650.426   4
  -3  15   0 18485.2 685.672   2
 -12  -3   0 16602.2 1014.64   4
   3  12   0 16297.0 1053.92   1
 -15   3   3 13623.6 1070.23   4
  -3  15   3 13763.2 1156.96   1
 -12  -3   3 14401.1 1130.91   4
 -15   3   3 13132.7 1104.40   2
   3  12   3 12581.1 1062.46   1
 -12  -3   3 14385.0 1204.40   2
 -15   3   6 6653.79 1118.47   2
 -12  -3   6 6333.77 1122.85   2
  -3  15   6 5114.91 902.264   1
 -15   3   6 4860.34 970.863   4
 -15   3   6 4583.61 628.387   3
   3  12   6 6113.09 921.159   1
 -12  -3   6 3870.10 944.761   4
 -12  -3   6 4165.77 600.066   3
   3  12   9-419.097 752.066   1
 -15   3   9 95.9967 904.092   2
 -12  -3   9 1207.68 1147.11   2
  -3  15   9-325.012 793.638   1
 -15   3   9 639.729 983.751   4
 -12  -3   9 2290.01 1185.79   4
  -4  15 -10 16995.8 1889.13   3
   4  11 -10 17621.2 1848.16   3
 -15   4 -10 17537.6 1811.36   3
 -11  -4 -10 19160.1 1813.85   3
  15 -11 -10 19907.8 1586.87   3
  11 -15 -10 15772.6 1593.96   3
 -15   4  -7 18923.7 1153.08   1
   4  11  -7 20241.8 1545.94   3
 -15   4  -7 24521.5 1695.66   3
 -11  -4  -7 20170.2 1484.96   3
  15 -11  -7 22882.8 1298.37   3
  11 -15  -7 24671.1 1500.14   3
  11 -15  -7 17460.0 1179.05   2
  -4  15  -7 19739.7 1612.15   3
   4  11  -4 34543.2 1530.65   3
 -11  -4  -4 36404.1 1586.10   4
 -15   4  -4 36624.5 1465.11   1
  -4  15  -4 38285.8 1336.60   1
 -15   4  -4 37408.4 1559.52   3
  11 -15  -4 33470.0 1351.33   4
 -11  -4  -4 38412.9 1472.96   3
   4  11  -4 35934.6 1528.75   1
 -11  -4  -4 36566.1 1467.83   2
 -15   4  -4 35215.2 1498.59   4
  15 -11  -4 32999.6 1376.98   4
  11 -15  -4 34524.0 940.761   2
  -4  15  -4 35292.2 1405.31   4
 -15   4  -4 34198.8 1552.61   2
  -4  15  -4 35110.9 1682.28   3
 -15   4  -1 12723.3 894.578   2
 -15   4  -1 12972.2 983.945   1
 -15   4  -1 14612.9 913.458   4
   4  11  -1 13985.7 983.048   1
 -15   4  -1 12232.7 542.992   3
  -4  15  -1 10440.3 877.551   1
   4  11  -1 13277.1 892.113   4
  -4  15  -1 13536.9 625.764   4
 -11  -4  -1 12833.0 936.887   4
  -4  15  -1 13072.3 830.684   2
  15 -11  -1 11919.0 778.645   2
  15 -11  -1 13297.6 708.778   4
   4  11  -1 12919.5 827.509   2
 -11  -4  -1 13215.5 904.320   2
  -4  15   2 23330.8 1365.93   1
 -11  -4   2 20859.3 1350.69   2
   4  11   2 23154.4 1308.41   1
 -15   4   2 21854.0 1196.87   4
 -11  -4   2 21076.6 1245.02   4
 -15   4   2 20477.6 1248.30   2
 -15   4   5 61589.6 1494.33   3
 -15   4   5 63079.2 2515.62   4
 -11  -4   5 66154.1 2738.61   2
  -4  15   5 63518.6 2413.77   1
 -11  -4   5 64426.8 2557.49   4
   4  11   5 61268.6 2218.94   1
 -15   4   5 61298.7 2528.36   2
  -4  15   8 13994.7 1432.72   1
 -15   4   8 9228.46 1449.48   2
 -11  -4   8 12221.0 1602.18   2
   4  11   8 16191.6 1349.93   1
 -11  -4   8 13955.9 1783.33   4
 -15   4   8 15610.8 1659.85   4
  10 -15  -8 5367.33 941.118   3
  -5  15  -8 2545.09 1059.48   3
   5  10  -8 2782.26 911.295   3
 -15   5  -8 4925.30 1112.04   3
  15 -10  -8 4430.70 801.179   3
 -10  -5  -8 4745.35 904.049   3
   5  10  -5 22682.9 1351.75   3
 -15   5  -5 23408.8 1404.64   3
 -10  -5  -5 24039.0 1233.68   2
 -15   5  -5 21443.3 1106.47   1
 -10  -5  -5 24638.6 1342.31   3
  15 -10  -5 22438.2 1017.23   3
  -5  15  -5 21607.6 1463.91   3
  10 -15  -5 21306.9 850.788   2
  10 -15  -5 20496.9 1313.01   4
 -10  -5  -5 21617.4 1330.68   4
  -5  15  -5 23387.1 967.840   1
  -5  15  -2 25287.9 1237.85   2
  15 -10  -2 24380.2 1099.17   2
 -15   5  -2 25119.7 973.121   3
 -15   5  -2 23350.6 1169.17   1
  -5  15  -2 21493.0 1099.43   1
 -10  -5  -2 25427.7 960.546   3
  -5  15  -2 25187.4 815.042   4
 -10  -5  -2 23788.5 1115.24   2
 -10  -5  -2 22533.4 1174.28   4
   5  10  -2 23229.0 1219.35   1
  10 -15  -2 21690.0 670.922   4
 -15   5  -2 23819.3 1103.76   4
 -15   5  -2 23888.4 1163.22   2
  15 -10  -2 25270.9 991.041   4
   5  10  -2 22644.2 1201.76   2
  -5  15   1 75894.3 2230.63   1
 -15   5   1 72622.6 1905.80   4
   5  10   1 69120.6 1681.59   3
   5  10   1 70036.8 2097.44   1
 -10  -5   1 69749.2 1963.72   4
   5  10   1 67272.6 1804.04   4
 -15   5   1 71060.6 2016.35   2
  10 -15   1 70728.4 1974.74   1
   5  10   1 68326.8 1488.24   2
 -10  -5   1 70658.5 2080.46   2
  -5  15   4 26542.2 1556.15   1
 -15   5   4 26081.8 1546.24   4
   5  10   4 22419.9 1344.38   1
 -15   5   4 26620.2 871.024   3
 -10  -5   4 30463.3 1713.76   4
 -15   5   4 22305.6 1452.55   2
 -10  -5   4 25376.0 1669.47   2
 -15   5   7 2272.40 942.521   4
   5  10   7 3064.99 757.469   1
 -15   5   7 1764.73 894.867   2
 -10  -5   7 1274.87 942.956   2
  -5  15   7 3807.49 891.354   1
 -10  -5   7 1232.68 950.385   4
 -15   5  10 3371.98 1042.34   1
   5  10  10 2443.72 880.743   1
 -15   5  10 4125.81 1235.63   2
 -10  -5  10 3788.04 1321.57   2
  -5  15  10 3695.09 1073.91   1
 -10  -5  10 5455.35 1447.11   4
 -15   5  10 1743.36 1170.49   4
   6   9  -9 374.994 880.141   3
  -6  15  -9-805.058 1077.30   3
 -15   6  -9-297.560 832.876   3
  -9  -6  -9 90.1905 834.094   3
  15  -9  -9 866.315 684.802   3
   9 -15  -9 105.852 776.857   3
  -6  15  -6 13808.2 1311.07   3
 -15   6  -6 16051.4 1312.19   3
   6   9  -6 12958.5 1136.22   3
 -15   6  -6 14007.3 875.791   1
  -9  -6  -6 15234.4 1216.50   3
   9 -15  -6 15214.4 1134.37   3
  15  -9  -6 15394.3 968.819   3
   9 -15  -6 14733.4 875.747   2
  -9  -6  -3 5831.18 603.214   2
 -15   6  -3 5303.61 650.283   3
 -15   6  -3 3799.13 543.670   4
   6   9  -3 4548.65 698.008   1
  -6  15  -3 3636.84 752.953   2
  15  -9  -3 4429.06 577.329   4
  -9  -6  -3 4919.40 544.360   3
  -6  15  -3 5248.97 587.264   1
 -15   6  -3 4433.73 606.234   1
 -15   6  -3 5701.80 667.287   2
  -6  15  -3 3804.30 490.919   4
  -9  -6  -3 3888.14 571.493   4
   9 -15  -3 4459.57 536.941   4
  -6  15  -3 5071.18 718.252   3
   6   9  -3 5104.50 599.714   3
   6   9   0 27341.0 1070.24   2
  -6  15   0 26849.7 1296.40   1
 -15   6   0 21455.3 580.373   3
  -6  15   0 26261.5 842.099   2
   6   9   0 25586.6 1295.54   1
  15  -9   0 26160.2 972.407   4
   6   9   0 25837.9 972.197   3
 -15   6   0 26589.3 1091.89   4
 -15   6   0 25679.6 1298.28   1
  -9  -6   0 24421.6 1168.05   2
   6   9   0 26444.2 1164.53   4
   9 -15   0 25052.9 1312.52   1
 -15   6   0 26810.3 1218.15   2
  -9  -6   0 24742.8 1163.71   4
  -6  15   3 15534.4 1195.78   1
 -15   6   3 13478.3 540.913   3
  -9  -6   3 13700.8 1063.54   4
 -15   6   3 14649.2 1072.09   4
   9 -15   3 14504.9 835.602   1
   6   9   3 14916.6 1062.09   1
 -15   6   3 14806.4 1125.39   2
  15  -9   3 13270.2 822.001   3
  -9  -6   3 12996.8 1186.41   2
 -15   6   6 7335.96 1111.12   2
 -15   6   6 6153.44 749.082   3
  -9  -6   6 7642.89 1198.77   2
  -6  15   6 6125.76 972.807   1
   6   9   6 6870.77 859.898   1
 -15   6   6 8536.94 1201.02   4
  -9  -6   6 6732.78 1148.53   4
 -15   6   9 4163.94 1042.47   1
   6   9   9 4329.73 890.495   1
  -6  15   9 5714.61 1108.35   1
 -15   6   9 2976.91 1117.01   2
  -9  -6   9 2305.20 1174.80   2
 -15   6   9 5515.59 1308.07   4
  -9  -6   9 6840.58 1472.93   4
  -7  15 -10 13932.6 1889.46   3
   7   8 -10 14648.1 1639.58   3
 -15   7 -10 12770.4 1707.66   3
  -8  -7 -10 11511.5 1481.13   3
  15  -8 -10 18545.0 1537.33   3
   8 -15 -10 13004.4 1502.64   3
  -7  15  -7 19688.9 1678.91   3
   7   8  -7 20499.7 1465.80   3
 -15   7  -7 21294.2 1617.57   3
  -8  -7  -7 18789.9 1432.21   3
  15  -8  -7 23603.8 1299.23   3
   8 -15  -7 20828.0 1427.22   3
   8 -15  -7 18328.1 1159.25   2
 -15   7  -7 14737.9 742.745   1
   7   8  -4 22500.5 1148.61   3
  -8  -7  -4 21984.3 1282.03   4
 -15   7  -4 22200.6 1131.43   4
 -15   7  -4 24777.1 1304.60   3
 -15   7  -4 22705.4 1038.66   1
  -8  -7  -4 22474.1 1066.82   2
  -7  15  -4 23459.4 1184.97   4
  -8  -7  -4 21927.1 1147.88   3
  -7  15  -4 23636.6 946.856   1
   8 -15  -4 21362.0 1160.27   4
   8 -15  -4 19183.5 505.841   2
  -7  15  -4 21928.8 1362.43   3
   7   8  -1 64624.8 1750.82   2
  15  -8  -1 67373.5 1778.73   2
  -7  15  -1 62331.9 845.226   4
 -15   7  -1 68334.3 1397.07   3
  -7  15  -1 65145.4 1883.71   1
   7   8  -1 73170.8 2102.09   1
 -15   7  -1 68803.7 1934.22   1
  -7  15  -1 67362.9 1688.86   2
 -15   7  -1 63482.8 1793.63   2
  15  -8  -1 67743.8 1668.78   4
 -15   7  -1 67211.6 1672.66   4
  -8  -7  -1 65144.0 1704.64   2
   7   8  -1 66046.1 1895.13   4
  -8  -7  -1 66761.6 1853.23   4
   8 -15   2 17087.2 969.054   1
   7   8   2 18905.8 1154.88   1
  -8  -7   2 17885.2 1228.09   2
   7   8   2 18373.0 968.339   3
  -8  -7   2 16982.3 1083.53   4
 -15   7   2 15271.7 977.432   4
 -15   7   2 16645.7 1047.27   2
  -7  15   2 18164.1 1225.73   1
  15  -8   2 18922.8 814.784   3
  -8  -7   5 17986.8 1567.21   2
 -15   7   5 19235.1 992.998   3
   7   8   5 18029.2 1204.82   1
  -8  -7   5 17514.6 1422.52   4
 -15   7   5 19618.8 1470.82   4
  -7  15   5 20904.8 1479.41   1
 -15   7   5 20853.5 1487.92   2
 -15   7   8 2987.16 1032.67   4
 -15   7   8 2577.50 883.337   1
  -7  15   8 2676.24 915.497   1
 -15   7   8 2955.60 965.721   2
   7   8   8 3661.88 814.074   1
  -8  -7   8 3470.58 1161.04   2
  -8  -7   8 2252.75 1086.05   4
  -8  15  -8 4456.95 1079.83   3
   8   7  -8 2465.30 880.327   3
 -15   8  -8 3853.00 1090.23   3
  15  -7  -8 4525.39 796.210   3
   7 -15  -8 4712.40 974.263   3
  -7  -8  -8 3696.53 894.049   3
  -8  15  -5 19679.8 1410.16   3
   8   7  -5 20320.1 1182.67   3
 -15   8  -5 26082.8 1518.55   3
   7 -15  -5 21069.2 746.718   2
  -8  15  -5 20429.6 748.992   1
  -7  -8  -5 20166.1 1247.92   3
  15  -7  -5 24218.7 985.112   3
  -7  -8  -5 22926.2 1115.82   2
 -15   8  -5 22436.9 964.106   1
  -8  15  -5 22210.7 1341.93   4
   7 -15  -5 19534.3 1302.69   4
 -15   8  -2 19301.8 956.504   3
  -8  15  -2 16610.2 1015.50   3
  -8  15  -2 17699.2 962.762   1
  -8  15  -2 19667.2 1142.29   2
   8   7  -2 18027.0 1141.02   1
  -7  -8  -2 16854.0 860.242   2
  -7  -8  -2 18312.5 1016.57   4
  15  -7  -2 19334.6 972.813   4
  -8  15  -2 17463.3 597.959   4
 -15   8  -2 16464.1 978.238   2
 -15   8  -2 17879.1 887.419   4
 -15   8  -2 18412.3 997.172   1
   7 -15  -2 17326.6 755.360   4
   8   7  -2 18196.7 833.281   3
   8   7   1 61643.9 1580.97   2
   8   7   1 67176.6 2037.60   1
   8   7   1 61928.8 1486.60   3
   7 -15   1 64291.0 1890.03   1
 -15   8   1 58927.1 911.327   3
  -7  -8   1 62198.3 1805.73   4
 -15   8   1 66955.3 1674.96   4
 -15   8   1 65032.0 1799.16   2
  -7  -8   1 66066.8 2004.65   2
  -8  15   1 70050.3 2137.64   1
 -15   8   1 61442.0 980.544   3
  -7  -8   4 20883.6 1557.12   2
   7 -15   4 19543.8 900.545   1
 -15   8   4 19934.7 879.377   3
   7 -15   4 20155.2 1092.61   4
 -15   8   4 23256.5 1399.57   4
   8   7   4 19005.8 1212.80   1
  -7  -8   4 21680.2 1411.58   4
  -8  15   4 18411.1 1381.99   1
 -15   8   4 20196.6 1320.37   2
 -15   8   7 19446.8 1637.00   2
  -7  -8   7 21001.3 1918.34   2
  -8  15   7 19957.1 1599.73   1
  -7  -8   7 17575.9 1692.59   4
 -15   8   7 19334.9 1611.21   4
   8   7   7 20947.4 1382.01   1
  -8  15  10 13875.0 1569.68   1
   8   7  10 11916.6 1217.77   1
 -15   8  10 14240.0 1734.96   2
  -7  -8  10 8988.64 1664.96   2
  -7  -8  10 12973.4 1867.35   4
 -15   8  10 13375.3 1562.34   1
 -15   8  10 12221.0 1662.24   4
  -9  15  -9 5597.82 1285.79   3
   9   6  -9 4642.82 973.533   3
 -15   9  -9 4147.27 1114.98   3
  15  -6  -9 4248.55 891.499   3
  -6  -9  -9 2405.70 922.083   3
   6 -15  -9 5415.70 1026.26   3
   9   6  -6 6495.29 892.419   3
 -15   9  -6 7464.83 1043.05   3
 -15   9  -6 6846.38 515.169   1
  15  -6  -6 9054.86 751.542   3
  -6  -9  -6 7220.19 911.040   3
   6 -15  -6 7397.75 933.389   3
  -9  15  -6 7434.50 1059.86   3
   6 -15  -6 9074.85 723.998   2
   9   6  -3 16614.9 849.706   3
  -6  -9  -3 15680.1 971.355   4
 -15   9  -3 17091.5 1050.99   3
  -9  15  -3 17318.2 876.514   1
   9   6  -3 15222.3 1071.94   1
  -9  15  -3 14447.3 1142.21   2
 -15   9  -3 15135.8 845.115   4
 -15   9  -3 16057.1 872.109   1
  -6  -9  -3 15738.5 923.412   3
  -6  -9  -3 16087.3 823.613   2
  -9  15  -3 17058.9 828.619   4
   6 -15  -3 15662.6 888.872   4
  -9  15  -3 15237.9 1057.72   3
 -15   9   0 27472.3 1163.16   2
   9   6   0 25764.2 870.968   3
   9   6   0 28936.4 1391.94   1
   6 -15   0 24639.6 1317.27   1
   9   6   0 30010.8 1184.18   2
  -9  15   0 26542.0 1314.24   1
   6 -15   0 22512.8 566.035   4
  15  -6   0 28581.8 1133.40   4
 -15   9   0 27312.2 1008.48   4
  -6  -9   0 27430.0 1190.11   2
 -15   9   0 26466.2 822.554   3
  -6  -9   0 28070.3 1179.99   4
  15  -6   3 4920.08 554.285   3
  -6  -9   3 5654.92 866.572   2
   9   6   3 2970.45 602.441   1
  -9  15   3 3762.15 287.363   2
   9   6   3 4460.45 616.093   3
 -15   9   3 4869.59 440.025   3
  -6  -9   3 5266.19 725.612   4
 -15   9   3 4798.10 698.352   4
   6 -15   3 5136.52 592.544   1
   6 -15   3 4532.24 561.465   4
  -9  15   3 3916.53 769.488   1
 -15   9   3 5166.36 708.465   2
   9   6   6 14342.3 1123.98   1
 -15   9   6 15143.6 1365.02   2
  -6  -9   6 14950.7 1550.36   2
   6 -15   6 11508.8 571.106   1
 -15   9   6 17405.6 1445.98   4
  -6  -9   6 16808.1 1510.16   4
  -9  15   6 15782.1 1421.39   1
  -9  15   9 251.994 849.270   1
 -15   9   9 864.200 885.728   2
  -6  -9   9-361.615 1054.22   2
  -6  -9   9 592.979 962.402   4
   9   6   9 1513.00 696.530   1
 -15   9   9 959.936 901.256   1
 -15   9   9 1109.24 899.613   4
 -15  10 -10 2721.07 1148.70   3
  10   5 -10 3101.14 1036.03   3
  15  -5 -10 3980.68 971.763   3
  -5 -10 -10 1634.60 928.274   3
   5 -15 -10 2254.91 949.484   3
   5 -15  -7 3688.95 740.591   2
  10   5  -7 4026.16 831.918   3
  15  -5  -7 4934.97 723.712   3
  -5 -10  -7 5772.64 976.407   3
 -15  10  -7 5031.93 1034.94   3
   5 -15  -7 4110.78 853.536   3
 -10  15  -7 5264.35 1082.31   3
 -10  15  -4 26146.3 1462.49   3
  -5 -10  -4 26137.7 1022.70   2
  10   5  -4 27740.3 1131.68   3
 -15  10  -4 27813.9 1445.57   3
 -10  15  -4 27879.4 937.756   1
  15  -5  -4 29759.7 820.315   3
  -5 -10  -4 27876.7 1310.27   3
  -5 -10  -4 27552.8 1337.38   4
 -10  15  -4 26863.5 1249.47   4
   5 -15  -4 24618.4 1293.85   4
 -15  10  -4 26583.8 991.937   1
 -15  10  -1 75427.1 1615.48   3
   5 -15  -1 76229.4 1219.67   4
  10   5  -1 77110.7 2216.44   1
  15  -5  -1 75584.0 1921.14   4
  -5 -10  -1 80089.3 1931.89   4
 -15  10  -1 75526.2 1589.36   4
  -5 -10  -1 75574.7 1718.77   2
 -15  10  -1 74333.2 1839.11   2
 -10  15  -1 73876.7 2001.99   1
  -5 -10   2 23245.4 1374.29   2
 -15  10   2 22375.1 1094.81   4
  10   5   2 20522.4 1194.75   1
  10   5   2 23458.0 1031.27   3
 -15  10   2 21312.4 741.817   3
  15  -5   2 23013.3 873.357   3
  -5 -10   2 20851.0 1137.41   4
 -10  15   2 24060.3 1419.74   1
 -15  10   2 20316.4 1082.20   2
   5 -15   2 21558.6 912.454   4
 -10  15   2 19917.9 624.235   2
   5 -15   2 22376.5 1158.62   1
   5 -15   5 20532.9 1335.43   4
  -5 -10   5 19831.1 1584.52   2
  10   5   5 19681.5 1225.27   1
  -5 -10   5 23108.0 1556.15   4
 -15  10   5 17316.2 1018.32   3
 -10  15   5 17440.9 894.880   2
 -10  15   5 21223.4 1549.70   1
   5 -15   5 19879.2 912.938   1
 -15  10   5 24791.5 1539.72   4
 -15  10   5 19628.6 1363.82   2
 -15  10   8 3781.33 1071.62   4
 -15  10   8 3431.93 992.896   2
 -10  15   8 2600.41 872.979   1
  -5 -10   8 1536.19 1025.83   2
 -15  10   8 3358.32 997.492   1
  -5 -10   8 2840.10 1048.56   4
  10   5   8 3457.07 718.952   1
  11   4  -8 15108.0 1258.13   3
 -11  15  -8 15730.2 1664.59   3
  15  -4  -8 14919.7 1174.59   3
  -4 -11  -8 13846.5 1365.28   3
   4 -15  -8 13123.0 1351.80   3
 -15  11  -8 12562.7 1476.12   3
 -15  11  -5 65858.0 1353.06   1
 -11  15  -5 64716.9 2406.63   3
   4 -15  -5 61224.5 1255.93   2
 -15  11  -5 71971.9 2508.29   3
  11   4  -5 68087.3 1868.45   3
  15  -4  -5 70492.6 1563.54   3
  -4 -11  -5 68161.8 2178.44   3
  -4 -11  -5 68121.7 1643.72   2
 -11  15  -5 66686.2 2247.16   4
 -11  15  -5 59171.7 1041.43   1
 -15  11  -2 18100.7 968.626   3
  -4 -11  -2 19791.6 1032.19   4
   4 -15  -2 20745.2 782.086   4
  11   4  -2 20870.9 1245.01   1
 -15  11  -2 18464.5 825.755   4
 -11  15  -2 17380.1 961.453   1
  -4 -11  -2 17249.8 792.255   2
 -11  15  -2 17127.3 641.472   4
 -15  11  -2 16696.0 966.880   2
 -11  15  -2 17295.4 1028.91   3
  11   4  -2 19176.7 711.953   3
  15  -4   1 13851.8 533.606   3
   4 -15   1 11534.7 620.785   4
  -4 -11   1 13365.5 873.331   4
  11   4   1 14994.8 752.978   3
 -11  15   1 14043.2 1078.89   1
  11   4   1 12014.5 812.256   2
  15  -4   1 11014.1 856.107   4
 -15  11   1 13721.4 774.171   4
 -11  15   1 12515.1 566.781   2
 -15  11   1 13949.3 859.642   2
   4 -15   1 12835.9 971.534   1
  11   4   1 14863.1 1053.20   1
  -4 -11   1 13846.2 1028.32   2
 -11  15   4 30198.5 1755.10   1
 -11  15   4 29956.6 1063.28   2
  -4 -11   4 32845.2 1864.00   2
 -15  11   4 29725.2 1145.40   3
  11   4   4 32028.4 1482.01   1
  15  -4   4 30782.6 1372.81   3
  -4 -11   4 31407.0 1632.05   4
 -15  11   4 32690.7 1573.33   4
   4 -15   4 32233.1 1478.35   4
 -15  11   4 30810.6 1476.29   2
   4 -15   4 30139.3 1230.58   1
 -15  11   7 20072.2 1572.78   2
  11   4   7 20805.8 1321.34   1
  -4 -11   7 20966.2 1849.56   2
 -11  15   7 20259.1 1262.95   2
 -11  15   7 22257.7 1726.19   1
   4 -15   7 21819.2 1618.69   4
   4 -15   7 14901.6 720.799   1
 -15  11   7 28111.1 1929.83   1
 -15  11   7 23666.3 1763.74   4
  -4 -11   7 21465.1 1786.36   4
 -11  15  10 17815.2 1760.22   1
 -15  11  10 15140.6 1691.45   2
  11   4  10 12028.5 1143.19   1
  -4 -11  10 15586.3 1952.72   2
 -15  11  10 14615.9 1705.46   1
  -4 -11  10 15491.5 1897.56   4
 -12  15  -9-1195.00 1105.27   3
 -15  12  -9 703.161 938.944   3
  12   3  -9 2427.57 887.611   3
  15  -3  -9 348.222 649.217   3
  -3 -12  -9 193.654 769.662   3
   3 -15  -9 520.104 855.434   3
   3 -15  -6 4291.51 621.154   2
 -15  12  -6 5201.39 964.370   3
 -12  15  -6 4226.84 899.272   3
  12   3  -6 5331.19 722.770   3
  15  -3  -6 4841.08 626.481   3
  -3 -12  -6 4224.24 769.882   3
   3 -15  -6 4503.03 795.772   3
  -3 -12  -6 3278.15 725.176   2
  -3 -12  -6 5209.15 572.285   2
 -15  12  -3 13290.3 987.007   3
  12   3  -3 13746.2 661.488   3
  -3 -12  -3 13098.7 662.355   2
 -12  15  -3 14192.5 828.872   1
 -15  12  -3 12908.9 737.413   4
   3 -15  -3 13644.1 766.095   4
  -3 -12  -3 13736.9 902.476   4
 -12  15  -3 14437.5 834.741   4
 -12  15  -3 13473.0 1005.03   3
 -12  15   0 18164.6 762.494   2
  12   3   0 18707.3 674.336   3
   3 -15   0 18791.1 763.254   2
 -12  15   0 19816.6 1224.87   1
 -15  12   0 17538.8 915.429   2
  -3 -12   0 19729.7 958.383   4
 -15  12   0 19552.8 757.815   4
   3 -15   0 19603.2 748.521   4
  12   3   0 20140.5 1222.21   1
 -15  12   0 18959.2 835.234   3
  -3 -12   0 18842.6 1007.24   2
 -12  15   3 2461.30 779.120   1
 -12  15   3 1143.17 367.209   2
  15  -3   3 1477.18 461.539   3
  12   3   3 1375.43 515.340   3
  12   3   3 2398.93 580.133   1
  -3 -12   3 1739.32 625.297   2
   3 -15   3 1592.32 520.125   1
 -15  12   3 1230.90 365.818   3
   3 -15   3 1015.75 574.577   2
 -15  12   3 752.449 599.801   1
 -15  12   3 1510.95 491.935   2
  -3 -12   3 2139.13 567.992   4
   3 -15   3 1217.00 489.722   4
 -15  12   3 1805.42 549.541   4
 -15  12   6 8391.87 1042.70   2
   3 -15   6 7173.12 696.010   1
 -15  12   6 7153.69 1162.64   1
 -12  15   6 7922.24 836.937   2
  -3 -12   6 7054.58 1176.14   2
 -12  15   6 9609.39 1205.46   1
  12   3   6 8700.04 874.885   1
 -15  12   6 8957.16 1146.91   4
  -3 -12   6 8249.12 1206.70   4
   3 -15   6 6810.90 1005.26   4
  15  -3   6 7475.23 748.781   1
 -12  15   9 402.302 837.826   1
 -15  12   9 910.265 873.217   2
  -3 -12   9 1002.94 1101.68   2
 -15  12   9 286.915 897.630   1
  -3 -12   9-580.829 1003.09   4
  12   3   9 148.410 602.894   1
 -13  15 -10 763.583 1041.47   3
 -15  13 -10 1034.46 1000.34   3
  13   2 -10 246.608 758.456   3
  15  -2 -10 441.418 766.027   3
  -2 -13 -10 1281.42 854.618   3
   2 -15 -10-92.3280 851.165   3
   2 -15  -7 15311.3 1139.57   2
 -13  15  -7 16052.1 1567.18   3
 -15  13  -7 16307.2 1559.19   3
  13   2  -7 15122.0 1125.62   3
  15  -2  -7 16561.2 1104.01   3
  -2 -13  -7 15273.2 1314.00   3
   2 -15  -7 15170.2 1306.79   3
 -13  15  -4 6869.99 869.196   3
 -15  13  -4 6329.68 793.664   3
  -2 -13  -4 6120.35 474.759   2
  13   2  -4 6849.57 575.445   3
  -2 -13  -4 7064.58 757.424   4
  15  -2  -4 6616.45 440.265   3
 -15  13  -4 6314.00 574.469   1
 -13  15  -4 5244.99 702.239   4
 -13  15  -4 6880.74 549.533   1
 -13  15  -1 17429.5 1075.28   1
 -15  13  -1 17684.8 907.189   2
 -13  15  -1 12806.8 345.916   4
 -15  13  -1 16350.1 650.955   4
  -2 -13  -1 17465.8 920.248   4
   2 -15  -1 12637.5 516.171   2
  13   2  -1 13011.3 442.513   3
 -15  13  -1 15349.6 1025.30   1
   2 -15  -1 16259.2 753.923   4
  -2 -13  -1 17245.3 844.440   2
 -13  15  -1 15798.6 926.761   3
  13   2  -1 14915.2 462.614   3
 -15  13  -1 15900.6 854.323   3
   2 -15   2 7529.84 682.480   4
  15  -2   2 7632.28 582.164   3
   2 -15   2 7176.54 809.472   1
 -15  13   2 9215.31 1012.22   1
  13   2   2 8490.75 692.533   3
  13   2   2 9979.36 905.251   1
   2 -15   2 9847.05 892.773   2
  -2 -13   2 7898.29 913.012   2
 -15  13   2 7773.33 568.102   3
 -13  15   2 8400.75 697.203   3
 -15  13   2 8392.90 692.408   2
 -13  15   2 9362.78 1006.42   1
 -13  15   2 7250.15 563.716   2
 -15  13   2 8345.91 667.240   4
 -13  15   2 7188.56 498.462   4
  -2 -13   2 8565.62 771.639   4
 -15  13   5 1927.82 633.261   2
 -15  13   5 2596.10 684.043   4
  -2 -13   5 2450.02 856.294   2
   2 -15   5 2360.30 552.466   1
  13   2   5 3492.71 652.926   1
   2 -15   5 1518.99 738.326   2
  15  -2   5 2981.17 596.826   1
 -15  13   5 2067.32 760.202   1
  -2 -13   5 3545.84 805.141   4
   2 -15   5 2120.55 650.648   4
 -13  15   5 1132.13 749.240   1
 -13  15   5 3297.03 618.005   2
  -2 -13   5 2173.63 604.435   1
 -13  15   8 2638.75 994.134   1
 -15  13   8 2416.81 893.253   2
 -13  15   8 3652.82 844.335   2
  -2 -13   8 2189.26 1064.27   2
  15  -2   8 3431.23 642.971   1
  -2 -13   8 2109.34 969.254   4
  13   2   8 3583.11 736.768   1
 -15  13   8 4840.91 1125.68   1
   2 -15   8 3368.50 1074.93   4
 -15  13   8 4305.64 1040.42   4
  14   1  -8 6094.77 937.743   3
 -14  15  -8 5946.64 1225.92   3
 -15  14  -8 3627.67 1125.32   3
  15  -1  -8 5626.22 862.325   3
  -1 -14  -8 4337.29 1001.06   3
   1 -15  -8 4972.53 959.687   3
 -14  15  -5 37192.7 1873.87   3
  -1 -14  -5 36658.1 1036.85   2
 -15  14  -5 37848.9 1879.28   3
 -14  15  -5 31190.5 853.368   1
 -15  14  -5 30742.7 896.547   1
   1 -15  -5 30000.7 1075.78   2
  14   1  -5 35222.9 1240.51   3
  15  -1  -5 35530.2 1161.91   3
  -1 -14  -5 30452.0 1200.88   2
  -1 -14  -5 37672.8 1710.22   3
 -15  14  -5 29786.3 884.263   1
 -14  15  -5 28871.4 819.102   1
   1 -15  -5 33119.0 867.107   2
 -14  15  -2 22415.2 679.009   4
   1 -15  -2 22293.7 977.437   4
  -1 -14  -2 22647.2 1049.33   4
 -15  14  -2 21991.8 770.465   4
 -15  14  -2 20406.2 1127.78   1
 -14  15  -2 20994.9 1133.33   1
  -1 -14  -2 19279.7 770.118   2
 -14  15  -2 21974.2 1164.61   3
 -15  14  -2 20440.0 1121.59   3
 -15  14   1 37687.4 1258.69   2
  -1 -14   1 39333.6 1553.53   2
  14   1   1 38430.8 1066.70   3
   1 -15   1 38680.3 1458.30   2
  14   1   1 36355.1 1617.45   1
 -15  14   1 38333.5 1818.67   1
   1 -15   1 37500.3 1240.36   4
 -15  14   1 35342.8 1030.83   4
 -14  15   1 29860.1 789.391   4
 -14  15   1 34337.5 1129.12   2
 -14  15   1 42686.5 1834.28   1
  -1 -14   1 37084.4 1312.91   4
  15  -1   1 39964.6 978.179   3
  -1 -14   4 25648.1 1472.97   4
 -14  15   4 23355.0 1617.31   1
 -15  14   4 28248.3 1757.91   1
  14   1   4 26579.5 1381.41   1
   1 -15   4 23756.4 1284.29   1
  -1 -14   4 28121.3 1752.99   2
 -14  15   4 25060.9 1200.50   2
   1 -15   4 27767.0 1684.63   2
   1 -15   4 25737.4 1473.15   4
 -15  14   4 24803.1 1286.70   2
  15  -1   4 27073.3 1388.03   1
 -15  14   4 26644.4 1348.29   4
 -14  15   4 25506.1 1277.00   4
 -15  14   7 18732.7 1411.41   2
   1 -15   7 11568.5 903.309   1
 -14  15   7 16314.8 1289.38   2
  15  -1   7 18188.9 1166.82   1
  -1 -14   7 18750.6 1764.96   2
   1 -15   7 19145.7 1799.21   2
 -14  15   7 18384.0 1697.67   1
 -15  14   7 18157.5 1657.15   1
  14   1   7 14417.7 1101.89   1
  -1 -14   7 19164.4 1637.98   4
   1 -15   7 19185.6 1678.46   4
 -15  14   7 19418.7 1594.08   4
 -15  14  10 4496.13 1184.60   1
 -14  15  10 3784.80 1207.29   1
 -15  14  10 5094.89 1238.02   2
 -14  15  10 5458.78 1159.16   2
  -1 -14  10 3425.14 1287.21   4
   1 -15  10 3326.03 1269.54   4
 -15  15  -9 235.566 987.872   3
  15   0  -9-590.632 739.839   3
   0 -15  -9 1245.25 886.536   3
 -15  15  -6 19209.7 1525.21   3
  15   0  -6 21677.9 1109.49   3
   0 -15  -6 20745.3 1415.01   3
   0 -15  -6 18856.5 820.591   2
 -15  15  -3 818.938 565.540   3
   0 -15  -3 443.270 359.041   4
 -15  15  -3 654.077 421.257   1
   0 -15  -3-8.58554 192.761   2
   0 -15   0 33790.6 1166.74   4
   0 -15   0 30990.2 1196.38   2
 -15  15   0 35713.0 1638.39   1
 -15  15   0 35049.6 1183.04   2
 -15  15   3 779.878 422.053   2
  15   0   3 375.493 438.984   3
 -15  15   3 111.776 626.359   1
  15   0   3 169.520 493.281   1
   0 -15   3-504.549 643.577   2
 -15  15   3-147.726 403.102   3
   0 -15   3-260.808 502.403   4
 -15  15   3-118.577 425.792   4
 -15  15   6 11890.8 1067.96   2
  15   0   6 13225.3 1031.33   1
   0 -15   6 9530.63 939.802   1
   0 -15   6 12171.8 1467.72   2
 -15  15   6 14805.8 1453.20   1
   0 -15   6 10767.8 1227.73   4
 -15  15   6 13180.7 1213.18   4
 -15  15   9-938.256 782.348   2
   0 -15   9 424.476 990.078   4
  15   0   9 373.515 576.345   1
 -15  15   9 280.965 988.481   1
 -16   0  -7 2192.39 753.302   2
   0  16  -7 115.617 853.721   3
 -16   0  -7 1005.23 820.526   3
 -16   0  -7-677.021 902.540   4
 -16   0  -4 34991.4 1455.73   3
  16 -16  -4 30439.8 1200.10   2
  16 -16  -4 32754.1 1268.64   4
   0  16  -4 35871.4 1585.55   1
 -16   0  -4 33019.3 1594.06   4
   0  16  -4 33630.9 1711.47   3
 -16   0  -4 28559.4 1484.92   2
   0  16  -1 987.387 522.272   1
  16 -16  -1 66.6504 179.533   4
 -16   0  -1-201.225 496.928   2
 -16   0  -1 316.664 447.742   4
   0  16  -1 384.642 370.237   4
   0  16  -1 393.621 391.775   2
   0  16   2 68349.8 2394.09   1
 -16   0   2 68115.7 2278.45   4
 -16   0   5-661.871 840.369   2
 -16   0   5-74.6700 695.140   4
   0  16   5 1038.08 731.406   1
 -16   0   8 27819.4 2268.39   2
 -16   0   8 31247.1 2365.66   4
   0  16   8 30071.7 1997.33   1
  -1  16  -8 670.726 946.057   3
   1  15  -8 1551.82 958.338   3
 -16   1  -8 3099.17 920.888   3
 -15  -1  -8 4894.07 1028.57   3
  16 -15  -8 2434.42 757.285   3
  15 -16  -8 3020.60 845.585   3
  -1  16  -5 2188.09 579.529   1
  -1  16  -5 3589.83 863.682   3
   1  15  -5 3699.43 817.860   3
   1  15  -5 1766.23 583.752   1
 -16   1  -5 3398.97 728.275   3
 -15  -1  -5 3186.65 685.795   3
 -15  -1  -5 2661.64 687.981   4
 -16   1  -5 2004.28 675.258   2
 -16   1  -5 3077.21 727.839   4
 -15  -1  -5 2922.94 683.702   2
  15 -16  -5 2315.73 527.903   2
   1  15  -2 208.328 463.234   2
  -1  16  -2 809.048 420.255   4
  -1  16  -2 224.067 466.960   2
 -16   1  -2 854.666 312.574   3
 -15  -1  -2 1289.45 320.055   3
  -1  16  -2 441.182 471.509   1
  15 -16  -2 808.963 238.752   4
  16 -15  -2 632.641 279.422   4
 -16   1  -2 336.904 434.563   2
   1  15  -2 579.197 443.652   4
  16 -15  -2 518.887 339.128   2
 -15  -1  -2 1063.04 520.019   2
 -15  -1  -2 408.444 495.358   4
 -16   1  -2-233.686 490.359   4
   1  15  -2 686.775 500.852   1
  -1  16   1 20708.2 611.835   2
 -15  -1   1 22461.6 1298.29   4
  -1  16   1 22664.5 1369.75   1
   1  15   1 21220.8 737.650   2
 -16   1   1 21581.6 1299.71   2
   1  15   1 23813.8 1383.84   1
 -16   1   1 20183.4 1214.37   4
 -15  -1   1 20885.6 1333.17   2
 -16   1   4 1240.82 639.344   2
 -15  -1   4 577.268 724.028   2
  -1  16   4 1258.57 622.322   1
 -15  -1   4 382.430 610.757   4
 -16   1   4 1077.21 681.818   4
   1  15   4 1048.68 626.499   1
 -16   1   7 919.515 835.096   2
 -15  -1   7 1372.47 1012.67   2
 -15  -1   7 3452.97 1214.24   4
 -16   1   7 3416.40 1073.46   4
   1  15   7 2617.65 843.386   1
  -1  16   7 3167.54 853.101   1
 -16   1  10 3883.82 1360.65   2
 -15  -1  10-515.094 1070.68   2
  -1  16  10 339.097 933.755   1
 -15  -1  10 2004.54 1212.37   4
 -16   1  10 2829.91 1297.01   4
   1  15  10 1036.76 870.609   1
  -2  16  -9 2698.49 1149.18   3
 -16   2  -9 7047.04 1287.04   3
 -14  -2  -9 6107.11 1167.08   3
  14 -16  -9 6368.98 1106.25   3
  16 -14  -9 4596.11 953.883   3
   2  14  -9 6772.46 1255.62   3
  -2  16  -6 7057.86 1097.64   3
   2  14  -6 6772.24 1012.85   3
  -2  16  -6 6711.31 766.203   1
 -16   2  -6 7280.63 956.471   3
 -14  -2  -6 7303.21 948.440   3
 -16   2  -6 7105.50 971.718   4
 -14  -2  -6 7410.24 981.515   4
 -16   2  -6 6987.12 919.001   2
 -14  -2  -6 7975.36 920.767   2
  14 -16  -6 5118.78 714.200   2
 -14  -2  -3 12055.6 963.944   4
  -2  16  -3 13102.6 967.884   1
 -16   2  -3 13272.4 832.068   3
  16 -14  -3 11777.3 728.047   4
 -14  -2  -3 11713.4 775.116   3
   2  14  -3 12198.6 1012.32   1
  14 -16  -3 12647.7 675.008   4
 -14  -2  -3 13846.3 1000.74   2
  14 -16  -3 11711.9 644.834   2
 -16   2  -3 12730.7 984.023   4
 -16   2  -3 12721.8 1003.48   2
  -2  16  -3 13140.9 827.570   4
  16 -14  -3 13399.6 841.549   2
  -2  16  -3 11338.8 1030.44   3
   2  14  -3 12602.4 990.330   3
   2  14   0 6401.89 650.857   4
   2  14   0 6986.42 548.156   2
 -14  -2   0 7202.88 776.433   4
  -2  16   0 5543.70 771.429   1
 -16   2   0 6670.71 789.674   2
  -2  16   0 5293.74 486.486   4
   2  14   0 6735.61 824.044   1
 -16   2   0 7857.14 764.398   4
 -14  -2   0 7378.97 807.588   2
  -2  16   0 7119.43 480.524   2
  -2  16   3 28592.8 1616.92   1
 -14  -2   3 27938.6 1548.52   4
   2  14   3 27191.6 1543.50   1
 -16   2   3 27000.1 1534.25   4
 -16   2   3 22369.7 1501.22   2
 -14  -2   3 26029.2 1632.17   2
 -16   2   6 7292.48 1184.05   2
 -14  -2   6 6137.97 1117.02   2
  -2  16   6 8076.60 1113.78   1
   2  14   6 7397.71 1015.01   1
 -14  -2   6 5298.92 1073.63   4
 -16   2   6 7394.41 659.128   3
 -16   2   6 6031.05 1177.07   4
 -14  -2   6 5683.97 620.102   3
 -16   2   9 4302.34 1360.46   2
 -14  -2   9 4838.38 1353.45   2
  -2  16   9 3505.32 1058.82   1
 -14  -2   9 4336.47 1259.21   4
 -16   2   9 6158.47 1428.28   4
   2  14   9 3820.71 1050.12   1
  -3  16 -10 20844.4 2200.21   3
   3  13 -10 23322.3 2130.78   3
 -16   3 -10 23868.8 2091.72   3
 -13  -3 -10 20977.2 1949.25   3
  16 -13 -10 28087.7 1856.42   3
  13 -16 -10 22669.8 1787.34   3
   3  13  -7 5381.63 1023.46   3
  -3  16  -7 4922.28 1033.97   3
 -16   3  -7 5916.48 991.958   3
 -13  -3  -7 4405.72 913.864   3
  16 -13  -7 4288.25 739.240   3
  13 -16  -7 3832.78 823.651   3
 -13  -3  -7 3147.22 788.193   2
  -3  16  -4 54388.0 1738.58   4
  -3  16  -4 49848.9 2029.43   3
 -16   3  -4 55149.3 1912.45   4
   3  13  -4 57303.9 2037.29   3
   3  13  -4 58676.1 1996.60   1
  13 -16  -4 53963.9 1274.54   2
 -16   3  -4 60622.7 2018.19   2
 -16   3  -4 59457.8 1885.04   3
  -3  16  -4 58627.3 1792.32   1
 -13  -3  -4 60686.6 1841.34   3
 -13  -3  -4 59146.0 2037.11   4
 -13  -3  -4 58800.5 1913.38   2
  16 -13  -4 52769.8 1670.05   4
  13 -16  -4 58765.2 1705.34   4
  16 -13  -1 2383.99 369.255   4
 -16   3  -1 2316.43 577.896   2
  -3  16  -1 1851.35 441.282   2
 -16   3  -1 2203.43 266.943   3
   3  13  -1 2158.86 539.095   4
  -3  16  -1 2439.06 378.401   4
 -13  -3  -1 1436.27 513.174   4
   3  13  -1 2459.28 491.016   2
  -3  16  -1 2550.65 571.607   1
 -13  -3  -1 2862.65 590.243   2
   3  13  -1 2214.86 610.931   1
 -16   3  -1 2527.63 592.369   4
  -3  16   2 74303.0 2401.13   1
   3  13   2 75148.6 2349.98   1
 -16   3   2 71813.0 2327.84   2
 -16   3   2 72564.5 2206.77   4
 -13  -3   2 66525.8 2167.33   4
 -13  -3   2 75591.6 2440.06   2
   3  13   5 4002.33 816.301   1
 -16   3   5 2003.84 835.909   2
  -3  16   5 5162.70 950.085   1
 -16   3   5 4506.61 474.820   3
 -16   3   5 3475.68 919.291   4
 -13  -3   5 3386.30 864.193   4
 -16   3   8 46688.6 2753.96   4
 -16   3   8 36501.8 2492.62   2
 -13  -3   8 41590.6 2668.89   2
  -3  16   8 42568.2 2303.55   1
   3  13   8 41659.2 2155.76   1
 -13  -3   8 42746.9 2722.87   4
  -4  16  -8 2074.65 994.040   3
   4  12  -8 598.751 825.647   3
 -16   4  -8 1863.08 803.068   3
 -12  -4  -8 1460.26 762.100   3
  16 -12  -8 375.107 593.390   3
  12 -16  -8 232.916 651.700   3
  -4  16  -5 5952.07 927.173   3
  -4  16  -5 7570.65 711.948   1
   4  12  -5 8259.24 960.742   3
   4  12  -5 7400.71 855.261   1
 -12  -4  -5 7276.32 951.663   4
 -16   4  -5 8079.48 931.548   3
 -12  -4  -5 7141.52 822.519   3
 -16   4  -5 8058.44 907.018   2
  12 -16  -5 6185.97 553.080   2
 -12  -4  -5 8028.39 845.551   2
 -16   4  -5 8589.80 863.871   1
  12 -16  -5 7348.01 896.832   4
 -16   4  -5 8986.11 906.807   4
  -4  16  -2 5220.30 712.143   2
  -4  16  -2 5202.57 476.648   4
 -16   4  -2 4755.19 483.194   3
  -4  16  -2 5228.38 655.316   1
   4  12  -2 4595.57 669.139   2
   4  12  -2 5105.46 726.803   1
 -12  -4  -2 5754.01 505.303   3
 -12  -4  -2 5920.56 745.654   4
 -16   4  -2 5760.92 717.195   2
 -12  -4  -2 5667.29 700.955   2
 -16   4  -2 5604.05 678.609   4
  16 -12  -2 3736.55 531.909   2
  16 -12  -2 5357.24 527.059   4
  12 -16  -2 4603.41 297.356   4
 -16   4   1 16280.0 1016.98   4
   4  12   1 17281.9 780.212   2
  -4  16   1 16846.5 1172.16   1
 -12  -4   1 15201.3 1033.75   4
 -12  -4   1 15517.9 1117.62   2
 -16   4   1 16467.8 1093.78   2
   4  12   1 18553.1 1190.85   1
  -4  16   4 8198.05 1028.37   1
 -16   4   4 7541.35 1028.32   4
 -12  -4   4 8230.61 1005.69   4
   4  12   4 10280.6 1007.19   1
 -16   4   4 7756.45 1038.49   2
 -16   4   4 8249.64 440.025   3
 -12  -4   4 8225.89 1158.70   2
 -16   4   7 11477.5 1440.62   2
 -12  -4   7 10146.1 1414.14   2
  -4  16   7 14877.9 1423.14   1
   4  12   7 11749.8 1211.97   1
 -12  -4   7 11877.5 1552.91   4
 -16   4   7 13235.6 1561.71   4
   4  12  10 1807.08 928.131   1
 -16   4  10 2867.86 1062.40   1
  -4  16  10 2010.66 1017.37   1
 -16   4  10 1090.77 1029.36   2
 -12  -4  10 1122.78 1227.43   2
 -12  -4  10 1001.43 1222.21   4
 -16   4  10 1478.78 1308.45   4
  -5  16  -9 3082.31 1294.21   3
   5  11  -9 2926.27 1062.28   3
 -16   5  -9 3334.10 1014.63   3
 -11  -5  -9 3087.64 911.237   3
  16 -11  -9 3010.38 818.522   3
  11 -16  -9 1418.52 824.709   3
  -5  16  -6 10750.1 1259.62   3
   5  11  -6 12100.4 1176.62   3
 -16   5  -6 9792.83 906.681   1
 -11  -5  -6 9834.62 1070.54   3
  16 -11  -6 11377.8 868.468   3
 -11  -5  -6 10326.6 989.198   2
  -5  16  -6 10664.5 711.926   1
  11 -16  -6 10033.3 752.297   2
   5  11  -3 5492.60 758.147   1
  -5  16  -3 4825.15 523.455   4
  -5  16  -3 3752.86 780.227   2
  16 -11  -3 3697.45 522.691   4
 -16   5  -3 5037.18 632.477   3
 -11  -5  -3 5059.55 641.245   2
  -5  16  -3 4255.52 577.181   1
 -16   5  -3 5093.57 699.973   1
 -11  -5  -3 5362.94 575.554   3
 -16   5  -3 4288.45 697.027   2
  11 -16  -3 4584.94 481.591   4
 -11  -5  -3 3383.98 640.155   4
 -16   5  -3 3442.71 566.328   4
  -5  16  -3 3706.48 648.139   3
   5  11  -3 4807.01 670.726   3
  -5  16   0 790.179 280.610   2
  16 -11   0 514.042 342.396   4
  11 -16   0 918.829 564.968   1
   5  11   0 614.763 522.205   1
  -5  16   0 720.176 514.110   1
 -11  -5   0 419.141 415.806   4
 -16   5   0 360.672 368.976   4
 -16   5   0 145.009 451.241   2
   5  11   0 638.922 355.295   2
 -11  -5   0 613.071 470.601   2
   5  11   0 100.676 404.200   4
 -16   5   3 5965.33 782.864   4
  -5  16   3 5147.26 857.742   1
 -11  -5   3 5494.81 836.868   4
   5  11   3 4817.79 731.607   1
 -16   5   3 4610.58 801.272   2
 -11  -5   3 4521.91 918.707   2
  16 -11   3 5226.62 608.256   3
   5  11   6 112.455 620.735   1
 -16   5   6 931.664 757.772   2
 -16   5   6 1000.93 479.355   3
 -11  -5   6 20.5767 786.759   2
  -5  16   6 1202.84 803.181   1
 -11  -5   6 892.993 754.222   4
 -16   5   6 1127.18 813.956   4
  -5  16   9 7503.13 1220.90   1
 -11  -5   9 6313.53 1425.91   4
 -16   5   9 4042.25 1227.40   4
 -16   5   9 4744.40 1250.71   2
 -11  -5   9 5706.98 1318.46   2
   5  11   9 6308.57 1013.76   1
  -6  16 -10 9944.85 1758.40   3
 -16   6 -10 12699.7 1649.90   3
 -10  -6 -10 17431.4 1751.35   3
  16 -10 -10 15803.1 1440.87   3
   6  10 -10 15192.8 1717.87   3
  10 -16 -10 13006.3 1474.04   3
  -6  16  -7-565.782 806.515   3
   6  10  -7-701.043 762.385   3
 -16   6  -7 801.573 728.827   3
 -16   6  -7 621.390 535.514   1
 -10  -6  -7 1870.49 740.405   3
  16 -10  -7 494.572 517.317   3
  10 -16  -7 1040.85 570.187   3
  10 -16  -7 297.588 537.730   2
   6  10  -4 57364.4 1887.84   3
 -16   6  -4 54333.3 1932.48   2
 -16   6  -4 56934.7 1751.96   1
 -16   6  -4 59975.9 1960.09   3
  -6  16  -4 58484.7 1742.36   4
 -10  -6  -4 55987.3 1953.19   4
 -10  -6  -4 59219.2 1827.64   3
  10 -16  -4 49260.9 894.663   2
   6  10  -4 58886.5 2028.89   1
 -16   6  -4 55325.5 1850.69   4
 -10  -6  -4 61918.1 1806.52   2
  -6  16  -4 54505.9 2069.08   3
  10 -16  -4 58391.1 1790.12   4
  -6  16  -4 59261.5 1615.71   1
 -10  -6  -1 3402.31 600.383   4
 -16   6  -1 3352.96 376.879   3
  -6  16  -1 2166.41 495.358   2
  -6  16  -1 2859.95 592.384   1
 -16   6  -1 2747.44 609.530   1
   6  10  -1 3585.99 565.396   2
  16 -10  -1 3394.07 468.045   4
   6  10  -1 2662.37 615.927   1
  16 -10  -1 2802.18 532.086   2
  -6  16  -1 2599.54 276.158   4
 -10  -6  -1 3216.34 561.130   2
 -16   6  -1 2663.93 534.973   2
 -16   6  -1 3657.65 558.787   4
  10 -16   2 34773.1 1377.89   1
  -6  16   2 38767.7 1731.06   1
 -10  -6   2 33886.8 1522.54   4
 -16   6   2 37164.7 1526.55   4
 -16   6   2 33228.7 1550.02   2
 -10  -6   2 38969.3 1755.29   2
   6  10   2 34711.1 1588.45   1
 -10  -6   5 2929.08 937.490   4
 -16   6   5 2320.84 469.478   3
 -10  -6   5 2372.39 865.244   2
   6  10   5 3645.31 703.748   1
  -6  16   5 1363.79 640.245   1
 -16   6   5 2186.04 734.865   4
 -16   6   5 4694.46 959.025   2
  -6  16   8 28813.5 1918.98   1
 -10  -6   8 27407.7 2215.65   2
   6  10   8 28731.7 1754.74   1
 -10  -6   8 29376.6 2295.81   4
 -16   6   8 27731.8 2183.08   4
 -16   6   8 25388.6 2010.54   2
  -7  16  -8 8013.32 1348.66   3
   7   9  -8 5809.24 1092.66   3
 -16   7  -8 7936.03 1225.45   3
  -9  -7  -8 9186.69 1184.93   3
  16  -9  -8 7772.14 929.143   3
   9 -16  -8 6268.03 1009.18   3
  -7  16  -5 26944.3 1647.51   3
  -9  -7  -5 28595.3 1299.68   2
   7   9  -5 28213.3 1437.56   3
   9 -16  -5 27382.4 1510.62   4
 -16   7  -5 32156.0 1645.14   3
  -7  16  -5 29351.6 1033.49   1
  -9  -7  -5 31346.9 1509.98   3
  16  -9  -5 32965.6 1139.37   3
  -9  -7  -5 27000.7 1507.31   4
  -7  16  -5 26484.3 1430.77   4
   9 -16  -5 26047.5 783.620   2
 -16   7  -5 29648.1 1240.38   1
  -9  -7  -2 34136.8 1432.78   4
 -16   7  -2 33305.2 1385.62   2
 -16   7  -2 35064.1 1225.92   3
  -7  16  -2 33478.5 1455.76   2
 -16   7  -2 34447.9 1402.07   1
  -7  16  -2 34326.6 1358.07   1
  -7  16  -2 32997.6 1440.35   3
  -7  16  -2 33351.3 849.837   4
  -9  -7  -2 33273.9 1282.43   2
 -16   7  -2 35662.6 1331.59   4
   9 -16  -2 29680.9 832.720   4
  16  -9  -2 31936.7 1210.96   4
   7   9  -2 32435.7 1184.03   3
   7   9  -2 34941.3 1551.78   1
   7   9   1 13525.8 786.046   2
  -7  16   1 15446.8 1105.81   1
 -16   7   1 13689.0 884.497   4
   9 -16   1 14270.8 1003.49   1
  -9  -7   1 14519.9 995.608   4
   7   9   1 13623.9 1056.94   1
   7   9   1 15253.5 844.851   3
 -16   7   1 15614.7 1011.72   2
  -9  -7   1 14140.5 1077.50   2
 -16   7   4 20325.9 833.270   3
  -9  -7   4 20962.4 1470.52   4
   9 -16   4 20888.9 935.959   1
  -7  16   4 22617.8 1512.25   1
  -9  -7   4 24295.0 1667.05   2
 -16   7   4 24964.5 1495.44   4
   7   9   4 18470.4 1252.63   1
 -16   7   4 20822.6 1400.13   2
  -7  16   7 5187.60 1030.89   1
  -9  -7   7 6648.63 1202.95   2
 -16   7   7 4284.06 1041.58   2
   7   9   7 6122.29 913.127   1
  -9  -7   7 5521.00 1142.49   4
 -16   7   7 4825.02 1043.68   4
  -7  16  10 5304.81 1172.61   1
 -16   7  10 6048.25 1418.21   2
  -9  -7  10 7536.80 1554.80   4
  -9  -7  10 6173.24 1557.10   2
 -16   7  10 6019.28 1330.87   1
   7   9  10 6728.24 1073.18   1
 -16   7  10 10176.7 1613.57   4
  -8  16  -9 135.375 897.910   3
   8   8  -9 2112.19 988.044   3
 -16   8  -9 1325.10 1033.65   3
  16  -8  -9 1212.92 772.297   3
  -8  -8  -9 1798.06 877.271   3
   8 -16  -9 588.068 777.575   3
  -8  16  -6 5142.58 927.506   3
   8   8  -6 7397.06 931.936   3
 -16   8  -6 4793.85 918.175   3
 -16   8  -6 6372.56 638.310   1
  16  -8  -6 5136.51 624.381   3
  -8  -8  -6 6181.30 753.984   2
   8 -16  -6 5175.59 538.549   2
  -8  -8  -6 5968.62 865.320   3
  -8  16  -3 890.304 529.291   3
   8   8  -3 1227.14 420.991   3
  -8  16  -3 1332.74 377.393   4
 -16   8  -3 872.505 456.380   2
  -8  -8  -3 752.300 454.031   4
 -16   8  -3 474.048 430.901   3
 -16   8  -3 810.508 448.748   1
   8 -16  -3 1052.56 413.329   4
  -8  16  -3 1010.77 630.821   2
  -8  -8  -3 606.291 395.461   3
 -16   8  -3 1633.82 456.435   4
  -8  -8  -3 1416.26 407.743   2
  -8  16  -3 1124.47 421.222   1
   8   8  -3 1286.68 576.558   1
   8 -16   0 15381.3 1119.87   1
  -8  16   0 15383.0 1061.43   1
  -8  16   0 15122.9 713.922   2
 -16   8   0 15597.4 850.151   4
   8   8   0 15875.1 773.167   3
   8   8   0 15870.0 896.321   2
  16  -8   0 16588.7 882.275   4
  -8  -8   0 14144.9 934.134   4
 -16   8   0 14697.6 586.329   3
 -16   8   0 14839.5 952.884   2
  -8  -8   0 13819.4 951.249   2
   8   8   0 15085.5 1096.40   1
 -16   8   3 1071.49 567.301   2
  16  -8   3 843.739 384.659   3
  -8  -8   3 1012.57 649.678   2
 -16   8   3 938.831 563.669   4
  -8  16   3 1196.88 640.105   1
 -16   8   3 1298.07 303.691   3
   8   8   3 1886.75 606.390   1
  -8  -8   3 896.027 561.844   4
   8 -16   3 1140.75 437.723   1
 -16   8   6 4903.51 708.973   3
  -8  -8   6 6582.65 1173.53   2
 -16   8   6 5252.12 992.070   2
   8   8   6 6239.90 882.976   1
  -8  -8   6 4912.63 1069.74   4
 -16   8   6 5201.70 1102.65   4
  -8  16   6 5961.85 1003.66   1
  -8  16   9 1320.77 846.905   1
 -16   8   9 212.513 936.514   2
  -8  -8   9 2200.64 1213.38   2
   8   8   9 1132.60 717.003   1
 -16   8   9 874.140 922.880   1
  -8  -8   9-138.123 1057.77   4
 -16   8   9 1226.21 1112.44   4
  -9  16 -10 3027.78 1284.84   3
   9   7 -10 5972.81 1196.80   3
 -16   9 -10 6956.56 1363.41   3
  16  -7 -10 8978.05 1209.51   3
   7 -16 -10 10083.2 1381.40   3
  -7  -9 -10 5598.73 1190.23   3
   7 -16  -7 5825.99 735.187   2
   9   7  -7 6355.39 924.198   3
 -16   9  -7 5612.84 1040.10   3
  16  -7  -7 5493.85 741.943   3
  -7  -9  -7 5905.95 931.693   3
   7 -16  -7 5841.82 880.797   3
  -9  16  -7 4832.99 1040.40   3
 -16   9  -7 3575.72 365.663   1
  -9  16  -4 22680.1 1383.54   3
   9   7  -4 21126.4 1082.77   3
 -16   9  -4 20720.6 1286.29   3
  -9  16  -4 21472.4 1096.25   4
  -7  -9  -4 21438.8 1020.67   2
  -7  -9  -4 21575.5 1259.08   4
  -7  -9  -4 21735.7 1173.94   3
 -16   9  -4 21025.1 996.899   1
  -9  16  -4 20977.0 911.509   1
 -16   9  -4 21504.5 1122.07   4
   7 -16  -4 17015.7 1103.86   4
   9   7  -1 15650.2 1112.98   1
 -16   9  -1 16467.8 780.987   3
  -7  -9  -1 16302.2 991.463   4
   7 -16  -1 13906.0 427.706   4
  -7  -9  -1 14973.7 885.627   2
  16  -7  -1 15897.1 927.998   4
 -16   9  -1 16306.8 864.463   4
 -16   9  -1 14605.3 934.080   2
  -9  16  -1 14161.7 874.753   2
  -9  16  -1 15071.0 996.612   1
   9   7   2 29597.2 1203.48   3
 -16   9   2 26044.4 719.899   3
   9   7   2 30905.7 1489.33   1
 -16   9   2 29091.1 1286.42   4
  -7  -9   2 32721.3 1596.57   2
  -7  -9   2 30251.9 1408.55   4
  16  -7   2 29358.3 982.802   3
   7 -16   2 31613.3 1357.07   1
 -16   9   2 28528.6 1337.45   2
   7 -16   2 29357.7 942.376   4
  -9  16   2 32934.4 1659.60   1
   7 -16   5 24250.0 961.996   1
   9   7   5 27943.5 1482.20   1
  -7  -9   5 24726.4 1805.80   2
 -16   9   5 24495.5 1125.05   3
 -16   9   5 28162.4 1699.25   4
  -9  16   5 29444.1 1796.39   1
  -7  -9   5 28530.0 1748.03   4
 -16   9   5 27303.7 1629.73   2
  -7  -9   8 3714.30 1158.45   4
 -16   9   8 4742.90 1117.20   1
  -9  16   8 4862.71 1056.08   1
   9   7   8 3714.93 765.525   1
 -16   9   8 4861.78 1038.98   2
  -7  -9   8 5697.42 1300.69   2
 -16   9   8 3295.54 1063.18   4
  10   6  -8 28722.4 1725.13   3
 -16  10  -8 32837.1 2149.37   3
 -10  16  -8 29043.4 2169.61   3
  16  -6  -8 31786.6 1587.80   3
  -6 -10  -8 30035.6 1879.13   3
   6 -16  -8 30113.8 1885.29   3
 -10  16  -5 3257.27 853.249   3
  -6 -10  -5 3017.73 506.689   2
 -16  10  -5 2723.96 777.904   3
  10   6  -5 2770.04 599.469   3
  16  -6  -5 3063.96 424.796   3
  -6 -10  -5 1807.41 559.498   3
   6 -16  -5 1882.24 232.609   2
 -16  10  -5 2726.81 447.432   1
 -10  16  -5 1477.37 649.107   4
 -10  16  -5 2474.49 349.504   1
  -6 -10  -5 2874.83 641.515   4
 -10  16  -2 35911.6 1361.34   1
 -16  10  -2 37068.9 1313.47   3
   6 -16  -2 38057.8 943.256   4
  -6 -10  -2 39560.8 1486.39   4
 -10  16  -2 35893.5 1510.81   2
 -16  10  -2 40313.3 1299.90   4
 -16  10  -2 37096.5 1399.67   2
 -10  16  -2 34160.6 753.944   4
  10   6  -2 37866.9 1679.92   1
  -6 -10  -2 36264.5 1227.87   2
 -10  16  -2 35828.1 1466.43   3
  10   6  -2 36096.3 1094.67   3
  10   6   1 3593.60 649.444   1
   6 -16   1 3257.90 354.799   4
 -10  16   1 3466.70 697.642   1
  -6 -10   1 3475.70 569.617   4
 -10  16   1 3519.66 300.766   2
 -16  10   1 2837.34 568.919   2
  10   6   1 3641.43 466.680   3
  10   6   1 3922.25 542.700   2
 -16  10   1 3060.64 503.821   4
  -6 -10   1 3920.54 666.694   2
   6 -16   1 2168.49 577.242   1
  16  -6   1 1582.60 468.646   4
  -6 -10   4 56967.0 2410.14   2
  10   6   4 58830.0 2037.72   1
 -16  10   4 53364.2 1469.56   3
   6 -16   4 53798.3 1583.54   1
  -6 -10   4 59513.5 2246.84   4
 -16  10   4 55947.4 2108.49   4
 -10  16   4 61404.4 2426.51   1
   6 -16   4 58243.8 1878.08   4
 -16  10   4 53227.6 2027.28   2
 -10  16   7 2383.58 914.031   1
 -16  10   7 969.618 774.728   2
  -6 -10   7 726.011 905.150   2
 -16  10   7 621.311 802.282   1
   6 -16   7 197.054 169.451   1
  10   6   7 630.086 598.906   1
  -6 -10   7 1772.57 943.207   4
 -16  10   7-329.567 830.481   4
  10   6  10 10688.6 1183.47   1
 -16  10  10 11969.4 1620.29   2
 -16  10  10 13375.0 1658.70   1
  -6 -10  10 12474.3 1842.92   2
  -6 -10  10 12460.4 1777.03   4
 -16  10  10 14632.2 1877.00   4
 -10  16  10 13140.6 1623.37   1
 -11  16  -9 8571.71 1465.40   3
 -16  11  -9 3781.65 1178.14   3
  11   5  -9 5934.08 1024.72   3
  16  -5  -9 7759.27 1015.91   3
   5 -16  -9 7348.68 1211.85   3
  -5 -11  -9 5886.67 1107.50   3
  -5 -11  -6 869.022 397.270   2
   5 -16  -6 623.112 392.592   2
  11   5  -6 335.769 525.272   3
 -16  11  -6 1945.45 777.418   3
  16  -5  -6 1226.21 468.088   3
  -5 -11  -6 409.003 552.955   3
   5 -16  -6 604.657 602.420   3
 -11  16  -6 472.184 641.768   3
 -16  11  -6-164.366 258.857   1
  11   5  -3 6078.04 538.295   3
 -16  11  -3 5790.59 618.791   1
 -11  16  -3 6129.30 597.706   1
 -16  11  -3 6499.10 735.135   3
 -16  11  -3 6049.03 582.252   4
  -5 -11  -3 7020.64 733.342   4
  -5 -11  -3 6036.92 561.300   2
 -11  16  -3 6160.92 570.736   4
 -11  16  -3 6687.03 801.582   3
 -11  16   0 649.646 521.854   1
  -5 -11   0 1297.09 496.609   2
  11   5   0 551.239 273.600   3
 -16  11   0 432.043 281.478   3
 -11  16   0 776.816 278.453   2
  -5 -11   0 596.096 442.187   4
 -16  11   0 89.4275 316.716   4
   5 -16   0 778.803 237.053   4
 -16  11   0 730.417 428.912   2
  11   5   0 87.3950 496.811   1
 -16  11   3 3188.15 630.160   2
  16  -5   3 4391.80 553.917   3
 -11  16   3 3372.48 364.094   2
  11   5   3 4579.20 668.775   3
  -5 -11   3 3437.95 843.851   2
 -16  11   3 4237.16 460.641   3
  11   5   3 3606.36 696.390   1
  -5 -11   3 5821.87 773.038   4
 -16  11   3 4084.17 676.006   4
   5 -16   3 2936.27 549.924   4
   5 -16   3 4154.52 650.944   1
 -11  16   3 4735.48 854.531   1
 -16  11   6 12286.0 1251.03   2
  -5 -11   6 11709.3 1477.79   2
  11   5   6 10049.5 992.213   1
 -11  16   6 11373.0 850.491   2
 -16  11   6 9253.31 1227.52   1
 -11  16   6 10469.4 1257.20   1
   5 -16   6 8569.36 654.388   1
  -5 -11   6 11541.7 1313.22   4
 -16  11   6 11256.9 1187.47   4
   5 -16   6 11992.9 1186.79   4
  11   5   9 2123.70 741.054   1
 -11  16   9 3757.19 1087.06   1
 -16  11   9 2418.21 966.962   2
  -5 -11   9 1589.45 1132.38   2
 -16  11   9 5067.64 1219.83   1
  -5 -11   9 1932.61 971.241   4
 -16  11   9 1195.83 1010.07   4
 -12  16 -10 3728.18 1263.49   3
 -16  12 -10 663.983 1003.92   3
  12   4 -10 1112.74 917.256   3
  16  -4 -10 1582.07 862.608   3
  -4 -12 -10 2558.47 992.560   3
   4 -16 -10 1387.56 952.049   3
 -12  16  -7 13707.2 1473.44   3
 -16  12  -7 12241.1 1399.24   3
  12   4  -7 14378.0 1155.34   3
  16  -4  -7 14324.4 1031.97   3
  -4 -12  -7 13840.7 1268.95   3
   4 -16  -7 16636.5 1357.60   3
  -4 -12  -7 15166.1 1016.10   2
 -12  16  -4 11469.2 899.806   4
 -12  16  -4 9880.96 1024.81   3
 -16  12  -4 10217.8 988.574   3
  12   4  -4 9686.12 700.177   3
 -12  16  -4 10297.0 665.070   1
 -16  12  -4 10687.6 707.958   1
  16  -4  -4 9193.08 437.561   3
  -4 -12  -4 10453.6 876.049   4
  -4 -12  -4 9221.44 632.505   2
   4 -16  -1 18802.7 722.864   4
  12   4  -1 17393.6 617.301   3
  -4 -12  -1 19641.0 1034.63   4
 -16  12  -1 20724.5 835.211   4
 -16  12  -1 19715.2 1018.36   2
 -12  16  -1 18645.8 1124.83   1
  -4 -12  -1 18289.1 947.673   2
  12   4  -1 18697.1 1252.83   1
 -16  12  -1 18579.0 913.846   3
  16  -4   2 4141.56 455.756   3
  -4 -12   2 3970.29 751.508   2
  12   4   2 3405.64 521.828   3
 -16  12   2 3327.86 402.341   3
  12   4   2 2629.72 647.667   1
 -16  12   2 3654.32 574.512   4
 -16  12   2 2856.10 517.330   2
 -12  16   2 4630.52 798.306   1
   4 -16   2 3444.68 501.587   4
 -12  16   2 3027.98 388.177   2
   4 -16   2 3673.71 654.771   1
  -4 -12   2 3462.60 578.091   4
 -12  16   5 5939.77 657.279   2
  -4 -12   5 6523.86 1126.17   2
 -16  12   5 9435.61 1212.48   1
  12   4   5 7048.65 861.291   1
 -16  12   5 7952.81 1016.09   4
 -16  12   5 6035.49 904.565   2
 -16  12   5 6667.51 743.094   3
 -12  16   5 8133.75 1162.91   1
  -4 -12   5 6838.63 1007.33   4
   4 -16   5 5999.14 885.408   4
   4 -16   5 6035.61 690.133   1
 -12  16   8 1493.90 870.143   1
  12   4   8 2036.27 718.450   1
 -16  12   8 1928.21 870.493   2
  -4 -12   8 1184.13 1025.91   2
 -12  16   8 3394.05 781.223   2
  -4 -12   8 2040.08 956.091   4
 -16  12   8 1522.69 902.468   4
   4 -16   8 2136.54 894.264   4
 -16  12   8 439.180 875.617   1
 -13  16  -8 49675.9 2711.81   3
 -16  13  -8 45357.0 2596.73   3
  13   3  -8 44521.1 1998.74   3
  16  -3  -8 50835.8 1958.66   3
  -3 -13  -8 45327.7 2285.95   3
   3 -16  -8 47292.5 2298.66   3
   3 -16  -5 2475.74 233.465   2
 -13  16  -5 3092.12 794.864   3
  13   3  -5 3272.19 580.585   3
 -16  13  -5 4200.43 850.340   3
 -13  16  -5 3777.58 364.549   1
  16  -3  -5 3769.57 466.205   3
  -3 -13  -5 3997.80 714.450   3
 -16  13  -5 3325.06 427.034   1
  -3 -13  -5 3940.48 513.209   2
 -16  13  -5 3716.70 423.037   1
 -13  16  -5 3745.06 822.976   4
   3 -16  -5 2402.01 321.791   2
  13   3  -2 68860.9 1166.50   3
 -16  13  -2 76905.1 2009.36   3
  -3 -13  -2 84014.4 2056.55   4
 -16  13  -2 75645.4 1956.60   2
 -13  16  -2 71460.1 1022.87   4
 -13  16  -2 78928.0 2050.70   1
   3 -16  -2 82243.0 1687.94   4
 -16  13  -2 78846.3 1600.23   4
  -3 -13  -2 74320.9 1574.97   2
 -13  16  -2 66915.0 1260.77   4
 -13  16  -2 74114.4 2080.04   3
  16  -3   1 1969.99 263.113   3
  -3 -13   1 671.740 530.522   2
  13   3   1 2050.44 561.500   1
   3 -16   1 1911.71 486.951   2
  -3 -13   1 1523.57 456.332   4
  13   3   1 2287.56 408.865   3
 -13  16   1 2173.55 356.329   2
   3 -16   1 1192.60 355.771   4
 -16  13   1 2202.41 418.592   4
 -16  13   1 2373.03 446.824   2
 -13  16   1 2049.55 661.805   1
 -13  16   4 49740.3 1488.59   2
   3 -16   4 50914.9 1728.71   1
  16  -3   4 50710.8 1765.40   3
  -3 -13   4 56634.1 2465.92   2
  -3 -13   4 52625.2 2067.42   4
 -16  13   4 43184.2 1439.93   3
   3 -16   4 61992.1 2334.92   2
 -16  13   4 55587.3 2447.16   1
  13   3   4 51125.5 1910.31   1
 -13  16   4 46544.8 2218.73   1
 -16  13   4 54422.7 2014.31   4
   3 -16   4 52985.2 1956.65   4
 -16  13   4 52124.1 1866.06   2
  16  -3   7 3547.08 646.790   1
 -16  13   7 6561.08 1143.52   1
   3 -16   7 3201.62 567.301   1
 -16  13   7 3074.54 838.671   2
 -13  16   7 3134.67 693.793   2
  -3 -13   7 3171.08 1112.27   2
 -16  13   7 6087.92 1108.74   4
   3 -16   7 5200.29 1126.53   4
  -3 -13   7 3522.81 1012.45   4
 -13  16   7 4633.69 1033.43   1
  13   3   7 3803.77 750.925   1
 -16  13  10 20100.0 1841.11   2
  -3 -13  10 17979.7 2070.42   2
  13   3  10 16183.6 1282.25   1
 -16  13  10 19876.4 1974.27   1
 -13  16  10 19834.4 1960.07   1
  -3 -13  10 19811.0 2119.59   4
 -16  14  -9 3135.61 1203.01   3
  14   2  -9 3584.63 923.672   3
  16  -2  -9 4288.28 870.530   3
  -2 -14  -9 4920.56 1037.23   3
   2 -16  -9 4216.12 1053.01   3
 -14  16  -9 3395.63 1252.25   3
   2 -16  -6 7058.99 677.346   2
 -16  14  -6 7465.03 1097.98   3
 -14  16  -6 5417.15 996.300   3
  14   2  -6 7661.43 784.300   3
   2 -16  -6 7392.83 479.227   2
  16  -2  -6 8194.92 720.703   3
  -2 -14  -6 4929.34 780.916   2
  -2 -14  -6 7294.12 927.503   3
   2 -16  -6 8037.37 990.913   3
  -2 -14  -6 8344.47 639.872   2
 -14  16  -3 22945.4 1305.08   3
 -16  14  -3 23608.2 1293.31   3
 -16  14  -3 25555.6 975.997   4
  14   2  -3 22142.2 731.306   3
 -14  16  -3 22793.1 1030.47   4
 -14  16  -3 27016.7 1177.84   1
   2 -16  -3 25111.4 1069.74   4
  -2 -14  -3 25645.4 1210.41   4
  -2 -14  -3 24097.4 836.932   2
 -16  14  -3 27160.6 1214.77   1
  -2 -14   0 7200.43 737.916   2
  14   2   0 8212.66 886.126   1
  -2 -14   0 6436.44 626.128   4
  14   2   0 6990.76 442.705   3
   2 -16   0 6090.66 560.618   2
 -16  14   0 6151.15 820.345   1
 -14  16   0 7915.70 587.123   2
 -16  14   0 7174.63 624.823   2
   2 -16   0 6924.57 541.139   4
 -16  14   0 6032.98 561.223   3
 -16  14   0 6071.38 470.514   4
 -14  16   0 6466.11 822.232   1
  16  -2   3 13942.2 900.285   3
   2 -16   3 11291.2 989.438   1
  14   2   3 12586.5 1034.76   1
  14   2   3 13285.2 945.520   3
  -2 -14   3 17572.8 1388.45   2
  16  -2   3 12672.3 1004.79   1
 -16  14   3 13398.2 1233.74   1
   2 -16   3 13807.6 1194.10   2
 -16  14   3 11233.4 769.427   3
 -14  16   3 14621.0 1283.42   1
  -2 -14   3 11925.0 1014.40   4
   2 -16   3 14111.4 1006.80   4
 -16  14   3 13331.0 950.722   4
 -16  14   3 11510.4 880.017   2
 -14  16   3 12506.8 789.584   2
  16  -2   6 5963.51 774.994   1
 -16  14   6 6933.92 942.527   2
   2 -16   6 5430.16 748.124   1
 -14  16   6 5168.63 767.210   2
 -16  14   6 7500.29 1180.26   1
  -2 -14   6 8588.10 1325.57   2
   2 -16   6 7367.06 1248.80   2
  -2 -14   6 5196.26 1077.41   4
 -14  16   6 10316.1 1296.84   1
  14   2   6 6209.72 850.880   1
   2 -16   6 6331.92 1005.60   4
 -16  14   6 6196.05 1023.25   4
  14   2   9 4653.16 838.792   1
 -16  14   9 4571.61 1086.99   2
 -14  16   9 5036.06 1011.47   2
  -2 -14   9 6007.26 1436.85   2
 -14  16   9 6057.56 1276.44   1
  16  -2   9 4327.31 714.045   1
 -16  14   9 3970.10 1181.68   1
  -2 -14   9 4631.84 1326.20   4
   2 -16   9 4744.31 1191.47   4
 -15  16 -10 2073.21 1252.88   3
 -16  15 -10 3108.71 1246.40   3
  15   1 -10 2556.31 949.736   3
  16  -1 -10 3329.06 911.109   3
  -1 -15 -10 3562.72 1060.42   3
   1 -16 -10 2070.95 987.156   3
 -15  16  -7 1802.20 938.003   3
 -16  15  -7 3308.90 966.194   3
  15   1  -7 4841.56 734.954   3
  16  -1  -7 2961.50 631.537   3
  -1 -15  -7 4944.05 910.738   3
   1 -16  -7 4168.95 866.223   3
   1 -16  -7 3868.26 504.497   2
  -1 -15  -7 2455.75 482.628   2
 -15  16  -4 626.518 372.187   1
 -15  16  -4 1646.51 641.068   3
 -16  15  -4-555.071 580.680   3
  15   1  -4 321.298 276.551   3
   1 -16  -4 689.587 200.214   2
  16  -1  -4 608.228 217.492   3
   1 -16  -4 571.004 163.587   2
   1 -16  -4 236.278 425.276   4
  -1 -15  -4 481.440 257.496   2
  -1 -15  -4 511.347 426.641   4
 -16  15  -4 478.223 369.254   1
 -15  16  -4 474.272 537.738   4
 -16  15  -4 488.932 548.031   4
  -1 -15  -1 21022.6 991.710   4
   1 -16  -1 19767.9 785.585   2
  -1 -15  -1 21182.1 955.979   2
 -15  16  -1 20444.4 958.041   2
   1 -16  -1 20379.3 914.277   4
 -16  15  -1 19733.7 664.505   4
 -15  16  -1 17591.5 502.600   4
 -16  15  -1 22114.5 1019.03   2
 -15  16  -1 21156.3 1231.53   1
 -16  15  -1 20822.8 1242.22   1
 -15  16  -1 19734.5 1043.81   3
 -16  15  -1 18946.2 997.947   3
  15   1   2 1217.78 547.643   1
  16  -1   2 1483.75 410.698   3
  15   1   2 1183.15 421.895   3
 -15  16   2 868.007 358.526   2
  -1 -15   2 795.701 596.365   2
  16  -1   2 285.735 483.368   1
   1 -16   2 971.107 557.376   2
 -16  15   2 147.687 329.103   3
   1 -16   2 2.05998 403.559   4
 -16  15   2 574.642 394.477   4
  -1 -15   2 652.941 432.855   4
 -16  15   2 1252.29 640.938   1
 -16  15   2 194.387 364.357   2
 -15  16   2 760.344 601.465   1
 -15  16   2 291.576 328.727   4
 -16  15   5 1995.29 673.429   2
 -15  16   5 2794.33 622.893   2
  -1 -15   5 3117.76 945.635   2
   1 -16   5 1799.77 865.616   2
   1 -16   5 2256.33 646.256   1
  16  -1   5 2442.87 637.877   1
 -16  15   5 3397.57 924.340   1
  15   1   5 3007.45 684.181   1
  -1 -15   5 3128.32 814.196   4
 -16  15   5 4290.86 834.341   4
 -15  16   5 3216.36 904.751   1
   1 -16   5 2903.92 769.796   4
   1 -16   8 1818.52 1006.82   4
  -1 -15   8 3538.01 1143.48   4
 -16  15   8 2508.80 866.507   2
 -15  16   8 3415.61 854.177   2
  16  -1   8 2334.21 678.767   1
  -1 -15   8 4069.65 1145.53   2
  15   1   8 1566.05 638.065   1
 -16  15   8 1313.36 955.140   1
 -15  16   8 234.513 865.965   1
 -16  16  -8 30557.8 2251.60   3
  16   0  -8 32061.0 1618.75   3
   0 -16  -8 30270.2 1946.83   3
 -16  16  -5 679.887 319.364   1
 -16  16  -5 778.268 621.919   3
 -16  16  -5-8.13559 303.149   1
  16   0  -5 545.309 353.056   3
   0 -16  -5 742.247 408.533   2
   0 -16  -5 35.9992 247.165   2
   0 -16  -5 525.486 512.938   4
 -16  16  -2 73197.5 1340.59   4
   0 -16  -2 72994.2 1849.29   4
 -16  16  -2 70950.6 2092.13   1
 -16  16  -2 67820.6 2024.68   3
  16   0   1-26.4515 269.269   3
   0 -16   1 350.603 482.820   2
   0 -16   1-280.349 420.748   4
 -16  16   1-218.937 587.659   1
 -16  16   1-89.6120 335.888   2
 -16  16   1 454.896 263.799   4
  16   0   4 32851.2 1595.96   1
   0 -16   4 34777.0 1941.76   2
 -16  16   4 31964.0 1982.13   1
   0 -16   4 33966.9 1695.28   4
 -16  16   4 36186.1 1556.01   4
 -16  16   4 29453.1 1367.87   2
  16   0   7 971.244 650.791   1
   0 -16   7 2613.34 996.905   4
 -16  16   7 22.9126 684.835   2
   0 -16   7 1268.83 970.079   2
 -16  16   7 495.983 903.993   1
 -17   0  -8 4042.54 967.442   2
   0  17  -8 5091.59 1136.39   3
 -17   0  -8 3816.28 1054.88   3
 -17   0  -8 5286.79 1142.31   4
   0  17  -5 988.210 601.117   1
   0  17  -5 184.339 656.795   3
 -17   0  -5-667.771 567.236   3
 -17   0  -5-72.3479 536.920   2
 -17   0  -5-437.157 632.897   4
   0  17  -2 16842.9 1220.04   1
 -17   0  -2 16597.1 737.218   3
  17 -17  -2 16467.0 675.953   4
   0  17  -2 15032.3 992.774   4
 -17   0  -2 14775.6 1129.58   4
 -17   0  -2 14918.1 1106.01   2
   0  17  -2 15106.2 1068.42   2
   0  17   1-292.323 553.394   1
   0  17   1-291.847 230.650   2
 -17   0   1-707.173 546.043   4
 -17   0   1-129.159 537.111   2
 -17   0   4 816.769 692.087   2
 -17   0   4 1341.90 787.884   4
   0  17   4 391.485 687.414   1
 -17   0   7 870.917 894.824   2
 -17   0   7-828.403 882.655   4
   0  17   7 51.0222 736.477   1
  -1  17  -9 3550.06 1341.74   3
   1  16  -9 2467.65 1148.87   3
 -17   1  -9 5484.88 1148.72   3
 -16  -1  -9 2679.99 996.926   3
  17 -16  -9 3430.51 915.738   3
  -1  17  -6 2076.82 648.437   1
   1  16  -6 4068.51 787.691   1
 -16  -1  -6 3007.20 758.439   2
 -17   1  -6 3906.84 873.165   2
  -1  17  -6 2902.24 923.938   3
   1  16  -6 3841.15 965.080   3
 -16  -1  -6 3826.37 836.862   3
 -17   1  -6 3440.33 785.534   3
 -17   1  -6 2180.63 811.720   4
 -16  -1  -6 3426.19 802.304   4
  -1  17  -3 27017.5 1421.26   1
  17 -16  -3 24181.5 1085.64   2
 -16  -1  -3 25999.9 1445.78   4
   1  16  -3 25376.8 1406.00   1
 -17   1  -3 27531.6 1123.21   3
 -16  -1  -3 28251.1 1151.37   3
  16 -17  -3 24086.9 989.219   2
 -17   1  -3 26724.3 1439.78   4
 -17   1  -3 25497.2 1393.82   2
  16 -17  -3 25105.6 898.245   4
   1  16  -3 23152.9 1353.34   3
  17 -16  -3 26913.3 997.935   4
 -16  -1  -3 26157.3 1385.35   2
  -1  17  -3 23562.2 1369.91   3
   1  16   0 4475.73 723.096   1
   1  16   0 3596.64 559.349   4
  -1  17   0 5030.24 796.976   1
 -16  -1   0 4010.62 700.179   4
 -17   1   0 3253.19 617.910   4
 -17   1   0 3940.40 695.067   2
   1  16   0 3718.46 457.382   2
  -1  17   0 3928.49 436.034   2
 -16  -1   0 5274.76 771.270   2
  -1  17   0 3290.02 474.714   4
 -17   1   3 13115.1 1306.53   2
 -17   1   3 13899.5 1203.63   4
  -1  17   3 12624.0 1160.16   1
   1  16   3 13242.2 1198.95   1
 -16  -1   3 14297.9 1249.64   4
 -16  -1   3 15866.9 1440.48   2
 -16  -1   6 7454.45 1335.66   2
 -17   1   6 6658.94 1240.44   2
  -1  17   6 8080.97 1135.57   1
   1  16   6 8146.54 1128.77   1
 -16  -1   6 7770.53 1272.78   4
 -17   1   6 8147.31 1263.30   4
 -17   1   6 7593.39 627.685   3
 -17   1   9 11305.2 1761.82   2
 -16  -1   9 6827.06 1536.11   2
  -1  17   9 9695.86 1370.65   1
   1  16   9 10434.4 1379.91   1
 -17   1   9 7717.58 1605.86   4
 -16  -1   9 7152.51 1571.77   4
  -2  17  -7 43303.4 2381.53   3
   2  15  -7 39903.5 2244.78   3
 -17   2  -7 43426.2 2171.86   3
 -15  -2  -7 39540.1 2067.67   3
 -15  -2  -7 41189.6 2164.65   4
 -17   2  -7 41490.0 2112.81   2
 -15  -2  -7 40331.8 2027.15   2
 -17   2  -7 40817.5 2168.43   4
  15 -17  -4 6275.88 661.259   4
 -17   2  -4 7082.44 827.203   4
 -17   2  -4 6929.93 785.357   3
 -15  -2  -4 5270.78 823.919   4
  -2  17  -4 6077.43 790.662   1
 -15  -2  -4 7356.68 743.348   3
  17 -15  -4 5136.77 644.736   4
 -17   2  -4 5685.40 806.561   2
  15 -17  -4 5310.67 544.137   2
   2  15  -4 7443.72 886.679   1
 -15  -2  -4 6301.21 819.947   2
  -2  17  -4 5731.67 911.870   3
   2  15  -4 5463.09 794.297   3
   2  15  -1 28391.8 1478.10   1
  17 -15  -1 28307.4 849.602   4
   2  15  -1 28425.1 1244.63   4
 -17   2  -1 27610.6 1416.53   2
 -17   2  -1 29124.0 693.419   3
 -17   2  -1 25070.2 1313.70   4
 -15  -2  -1 25566.6 1346.63   2
  -2  17  -1 29454.1 1466.48   1
   2  15  -1 25998.0 1134.72   2
  -2  17  -1 26227.9 1096.49   2
 -15  -2  -1 26536.6 1367.70   4
  -2  17  -1 27269.4 1034.30   4
 -15  -2   2 23003.3 1376.10   4
  -2  17   2 24552.7 1514.71   1
   2  15   2 25552.0 1517.85   1
 -17   2   2 24883.5 1437.96   4
 -17   2   2 25157.6 1507.91   2
 -15  -2   2 28611.7 1640.74   2
 -15  -2   5 36303.0 2231.76   2
  -2  17   5 35963.5 1984.09   1
   2  15   5 31813.9 1860.16   1
 -15  -2   5 33094.4 1997.99   4
 -17   2   5 37819.4 2119.02   4
 -17   2   5 32988.2 2063.15   2
 -15  -2   8 8068.47 1566.25   2
  -2  17   8 8008.58 1204.56   1
 -17   2   8 6306.21 1363.62   2
   2  15   8 8741.65 1241.84   1
 -15  -2   8 8038.27 1455.46   4
 -17   2   8 8542.15 1541.76   4
   3  14  -8 8943.85 1378.28   3
 -17   3  -8 8473.17 1240.82   3
 -14  -3  -8 8379.09 1231.08   3
  17 -14  -8 9905.58 1060.25   3
  -3  17  -8 7972.10 1393.47   3
 -14  -3  -8 8180.99 1121.84   2
 -17   3  -5 530.266 542.766   2
  -3  17  -5 652.240 691.001   3
   3  14  -5 719.402 618.345   3
 -14  -3  -5 914.731 593.814   2
  -3  17  -5 541.349 476.838   1
 -17   3  -5-166.691 574.424   3
 -14  -3  -5 418.230 528.986   3
  14 -17  -5 855.396 405.866   2
 -17   3  -5 438.485 574.571   4
 -14  -3  -5 347.181 545.037   4
  14 -17  -5 56.9156 555.913   4
   3  14  -5-148.459 535.638   1
 -17   3  -2 2274.51 529.475   4
  17 -14  -2 2177.73 490.745   2
  -3  17  -2 2650.15 612.904   2
  17 -14  -2 2456.07 417.379   4
   3  14  -2 2562.28 656.902   1
  -3  17  -2 3306.65 625.600   1
 -17   3  -2 3954.06 450.256   3
 -14  -3  -2 3225.70 419.780   3
 -17   3  -2 3136.16 644.516   2
  -3  17  -2 2512.75 450.796   4
 -14  -3  -2 3357.52 666.327   2
 -14  -3  -2 2413.62 581.148   4
   3  14  -2 2183.75 571.593   2
  14 -17  -2 2372.55 236.824   4
   3  14   1 9362.63 600.851   2
  -3  17   1 10891.5 1024.06   1
  -3  17   1 8367.34 315.974   2
 -14  -3   1 10514.6 961.820   4
 -17   3   1 10992.2 913.823   4
 -14  -3   1 10451.3 1020.99   2
 -17   3   1 10610.6 972.269   2
   3  14   1 10199.2 1039.51   1
  -3  17   4 8037.17 1051.65   1
   3  14   4 6956.77 976.977   1
 -17   3   4 9938.33 1140.29   4
 -14  -3   4 7309.66 1022.69   4
 -17   3   4 7526.02 1077.92   2
 -14  -3   4 7199.06 1177.79   2
   3  14   7 4782.74 939.701   1
 -17   3   7 2273.78 983.268   2
 -14  -3   7 3578.59 1186.87   2
  -3  17   7 4252.59 997.323   1
 -14  -3   7 4506.47 1149.86   4
 -17   3   7 3875.62 1112.36   4
  -4  17  -9 2221.86 1134.86   3
   4  13  -9 6234.27 1268.84   3
 -17   4  -9 4464.36 1119.04   3
 -13  -4  -9 6027.57 1136.65   3
  17 -13  -9 5868.04 948.400   3
  13 -17  -9 4302.47 978.973   3
  -4  17  -6 8405.47 1186.92   3
   4  13  -6 9637.49 1140.45   3
 -17   4  -6 9673.44 1068.27   3
 -13  -4  -6 8723.29 1018.03   3
  -4  17  -6 8516.78 764.577   1
 -17   4  -6 8722.74 1030.85   4
 -13  -4  -6 9235.32 1058.30   4
 -13  -4  -6 9165.44 983.145   2
  13 -17  -6 7564.56 692.028   2
 -17   4  -6 9047.44 1025.09   2
  17 -13  -3 5813.23 585.867   4
  -4  17  -3 7611.33 959.867   2
 -17   4  -3 5948.63 705.878   4
 -17   4  -3 8016.50 823.499   2
 -17   4  -3 7524.32 689.249   3
 -13  -4  -3 7499.89 674.445   3
 -13  -4  -3 4933.83 732.114   4
 -13  -4  -3 6003.92 717.073   2
  13 -17  -3 6080.58 487.597   4
  -4  17  -3 7478.15 646.235   4
  -4  17  -3 6670.72 735.027   1
   4  13  -3 7195.62 822.582   1
  -4  17  -3 5946.36 811.346   3
   4  13  -3 6379.61 763.665   3
   4  13   0 5277.92 770.429   1
  -4  17   0 4877.40 755.870   1
   4  13   0 3774.13 482.597   2
 -17   4   0 4890.96 725.482   2
 -13  -4   0 4451.37 680.798   2
 -17   4   0 4081.98 617.293   4
 -13  -4   0 4501.17 701.840   4
  -4  17   0 4242.99 388.961   2
 -17   4   3 7007.32 939.385   4
  -4  17   3 4788.93 836.885   1
 -13  -4   3 5408.81 940.745   2
   4  13   3 4964.65 822.308   1
 -13  -4   3 6313.79 924.510   4
 -17   4   3 5587.79 884.242   2
 -17   4   6 1024.51 437.069   3
   4  13   6 2360.04 748.282   1
 -17   4   6 1605.34 888.875   2
 -13  -4   6 2109.08 953.490   2
  -4  17   6 2201.83 872.648   1
 -13  -4   6 1450.35 894.102   4
 -17   4   6 725.750 770.533   4
   4  13   9 80.1544 756.583   1
 -17   4   9 1952.11 1145.53   2
 -13  -4   9 776.349 1030.86   2
 -13  -4   9 2893.77 1375.60   4
 -17   4   9 1359.63 1062.91   4
  -4  17   9 595.142 879.794   1
  -5  17 -10 238.428 1096.31   3
   5  12 -10 3286.97 1231.00   3
 -17   5 -10 3041.31 1158.17   3
 -12  -5 -10 2538.05 1082.77   3
  17 -12 -10 3149.79 959.425   3
  12 -17 -10 2235.30 1036.25   3
  -5  17  -7 14795.3 1500.63   3
   5  12  -7 18331.4 1559.46   3
 -17   5  -7 17397.5 1501.09   3
 -12  -5  -7 18294.9 1435.06   3
  17 -12  -7 19586.0 1188.08   3
 -12  -5  -7 18908.9 1361.63   2
 -17   5  -4 5310.76 737.666   1
  -5  17  -4 7039.89 730.619   1
 -12  -5  -4 5725.34 726.440   2
 -17   5  -4 7982.53 884.056   3
   5  12  -4 5913.11 848.362   1
 -12  -5  -4 5772.96 709.193   3
 -17   5  -4 6930.53 807.021   4
 -17   5  -4 5998.57 778.443   2
  -5  17  -4 6170.95 686.675   4
 -12  -5  -4 6670.76 826.633   4
  12 -17  -4 6383.73 678.952   4
  12 -17  -4 6259.26 413.655   2
  -5  17  -4 6139.91 886.607   3
   5  12  -4 6279.98 789.418   3
   5  12  -1 24359.1 1138.94   2
 -17   5  -1 24730.5 732.316   3
   5  12  -1 25357.1 1400.71   1
  -5  17  -1 28122.5 1389.62   1
  -5  17  -1 25051.9 777.809   4
 -17   5  -1 26304.1 1241.68   4
 -12  -5  -1 26609.9 1302.30   2
 -17   5  -1 26099.4 1303.80   2
  17 -12  -1 28068.4 1040.63   4
 -12  -5  -1 27059.3 1343.94   4
  -5  17  -1 26750.2 1121.35   2
  -5  17   2 6560.95 928.941   1
 -12  -5   2 4196.79 727.580   4
 -17   5   2 5138.69 744.119   4
   5  12   2 7010.35 866.230   1
 -12  -5   2 6069.54 863.696   2
 -17   5   2 4765.07 774.910   2
 -12  -5   5 34776.4 2149.77   2
  -5  17   5 32977.2 1899.76   1
   5  12   5 31387.6 1696.70   1
 -17   5   5 31904.7 1035.08   3
 -12  -5   5 33021.5 1971.03   4
 -17   5   5 34442.6 1943.91   4
 -17   5   5 32230.0 1974.80   2
 -17   5   8 6021.81 1275.49   4
 -17   5   8 8927.61 1368.32   2
  -5  17   8 6683.91 1180.66   1
 -12  -5   8 4151.35 1227.75   2
   5  12   8 6710.28 1087.37   1
 -12  -5   8 6129.66 1368.29   4
   6  11  -8 2014.07 931.799   3
 -17   6  -8 2028.49 944.655   3
 -11  -6  -8 2580.90 847.740   3
  17 -11  -8 3386.11 730.220   3
  11 -17  -8 1965.31 794.437   3
  -6  17  -8 922.786 907.984   3
  -6  17  -5 16931.9 1375.31   3
   6  11  -5 18134.1 1252.38   3
 -11  -6  -5 18124.3 1131.57   2
 -17   6  -5 18036.8 1297.58   3
  -6  17  -5 17299.1 938.293   1
 -11  -6  -5 18381.1 1220.25   3
  11 -17  -5 15381.3 1152.29   4
 -11  -6  -5 15529.7 1253.44   4
  11 -17  -5 15184.0 638.420   2
 -17   6  -5 16913.1 1107.79   1
 -17   6  -5 16205.4 1163.58   4
 -17   6  -5 15985.7 1201.44   2
  17 -11  -2 8541.36 677.245   4
  -6  17  -2 8684.08 859.334   2
 -17   6  -2 8644.92 648.911   3
 -17   6  -2 9284.88 793.577   4
  -6  17  -2 10045.9 548.063   4
  -6  17  -2 9339.82 828.483   1
 -11  -6  -2 8640.55 865.549   4
  11 -17  -2 7252.18 345.239   4
   6  11  -2 9326.58 897.822   1
 -17   6  -2 8861.55 819.944   2
 -11  -6  -2 7642.21 745.445   2
   6  11   1 26788.2 1435.62   1
  -6  17   1 29670.9 1552.31   1
   6  11   1 24958.5 1021.34   2
 -11  -6   1 27785.1 1388.76   4
 -17   6   1 29177.2 1309.75   4
 -17   6   1 26971.5 1387.43   2
 -11  -6   1 31341.1 1550.75   2
  11 -17   1 26815.9 1375.28   1
 -11  -6   4 18858.0 1559.14   2
  -6  17   4 19114.6 1432.92   1
 -11  -6   4 17168.9 1369.63   4
 -17   6   4 18566.3 1408.57   4
   6  11   4 17581.0 1252.67   1
 -17   6   4 17225.9 661.480   3
 -17   6   4 17511.3 1392.23   2
 -17   6   7 1764.67 953.749   2
   6  11   7 2652.26 827.500   1
 -11  -6   7 3866.27 1159.37   2
  -6  17   7 2172.82 829.166   1
 -11  -6   7 2704.26 1103.39   4
 -17   6   7 3951.68 1094.28   4
   6  11  10 1814.65 863.475   1
 -17   6  10 2243.14 1192.79   2
  -6  17  10 2696.60 1068.71   1
 -11  -6  10 1647.21 1245.66   2
 -17   6  10 3108.93 1103.30   1
 -17   6  10 3509.74 1303.72   4
 -11  -6  10 1523.45 1232.45   4
  -7  17  -9-22.6433 941.191   3
   7  10  -9 1223.39 950.648   3
 -17   7  -9 1938.39 1012.21   3
 -10  -7  -9 1305.87 868.134   3
  17 -10  -9 1113.38 719.187   3
  10 -17  -9 1960.85 916.182   3
  -7  17  -6 10401.7 1254.73   3
   7  10  -6 8796.61 1014.11   3
 -17   7  -6 9803.18 1109.36   3
  -7  17  -6 8229.39 579.019   1
 -10  -7  -6 10560.7 1048.11   3
 -17   7  -6 8163.60 811.408   1
  17 -10  -6 9751.62 797.584   3
 -10  -7  -6 10496.5 920.607   2
  10 -17  -6 7790.00 594.650   2
 -10  -7  -6 7065.47 948.074   4
 -17   7  -3 2565.30 584.911   1
  -7  17  -3 2756.82 627.373   3
   7  10  -3 3727.79 681.443   1
 -17   7  -3 3371.58 589.564   3
 -10  -7  -3 1830.20 514.132   4
  -7  17  -3 1960.78 678.260   2
 -17   7  -3 2937.89 595.625   2
 -10  -7  -3 2929.51 531.744   3
 -17   7  -3 2534.39 513.818   4
 -10  -7  -3 2271.20 513.602   2
  -7  17  -3 2587.26 409.409   4
  10 -17  -3 2318.46 450.447   4
  -7  17  -3 2510.68 534.647   1
   7  10  -3 3043.25 559.128   3
  -7  17   0 8562.89 547.841   2
  -7  17   0 8287.41 876.740   1
 -17   7   0 6811.48 363.122   3
 -10  -7   0 9313.68 845.086   2
 -17   7   0 7691.65 685.616   4
   7  10   0 10067.6 943.185   1
   7  10   0 9073.91 719.303   2
   7  10   0 7849.67 636.704   3
 -17   7   0 8740.11 797.038   2
 -10  -7   0 7761.75 777.735   4
  17 -10   0 8166.26 637.886   4
 -17   7   3 3592.81 724.670   2
 -10  -7   3 3121.34 842.833   2
 -17   7   3 3212.31 276.949   3
  -7  17   3 3913.28 776.058   1
 -17   7   3 3687.08 731.818   4
  10 -17   3 4216.76 604.374   1
 -10  -7   3 4887.91 807.124   4
  17 -10   3 3751.03 538.410   3
   7  10   3 4763.17 793.790   1
 -17   7   6 312.878 460.618   3
 -17   7   6 1560.07 874.600   2
 -10  -7   6 1114.39 850.598   4
 -10  -7   6 1176.05 972.141   2
  -7  17   6 2406.36 910.408   1
   7  10   6 703.669 601.827   1
 -17   7   6 797.245 739.278   4
  -7  17   9 6779.01 1259.63   1
 -17   7   9 7363.92 1381.29   2
 -10  -7   9 6691.54 1506.74   2
   7  10   9 5854.69 1041.66   1
 -17   7   9 6797.71 1417.28   4
 -10  -7   9 7130.95 1464.39   4
 -17   7   9 5456.08 1199.59   1
  -8  17 -10 3340.01 1298.68   3
   8   9 -10 3361.92 1152.98   3
 -17   8 -10 4584.78 1299.13   3
  -9  -8 -10 3150.27 1106.58   3
  17  -9 -10 5032.49 992.380   3
   9 -17 -10 3949.64 1101.19   3
  -8  17  -7 7544.89 1234.53   3
   8   9  -7 8792.30 1115.01   3
 -17   8  -7 10132.5 1258.77   3
  -9  -8  -7 10445.5 1205.74   3
  17  -9  -7 8471.66 835.502   3
   9 -17  -7 11164.7 1197.09   3
  -9  -8  -7 11623.9 1047.28   2
   9 -17  -7 8832.12 780.426   2
   8   9  -4 7871.28 796.668   3
 -17   8  -4 8325.37 858.830   3
   8   9  -4 7835.35 898.814   1
 -17   8  -4 6149.50 696.280   1
  -9  -8  -4 7003.52 730.596   3
 -17   8  -4 8930.77 895.064   2
 -17   8  -4 6465.65 743.473   4
  -9  -8  -4 6409.82 820.979   4
  -9  -8  -4 7323.02 714.265   2
  -8  17  -4 7514.74 730.827   4
   9 -17  -4 6541.32 766.623   4
  -8  17  -4 7563.89 661.513   1
  -8  17  -4 7314.91 929.419   3
 -17   8  -1 40996.1 1147.43   3
  -8  17  -1 40732.7 1633.01   1
  -8  17  -1 39058.1 1365.20   2
  17  -9  -1 40214.6 1382.18   4
   8   9  -1 41120.8 1727.89   1
  -9  -8  -1 42090.4 1613.93   4
 -17   8  -1 42715.5 1434.05   4
 -17   8  -1 39491.1 1508.82   2
  -9  -8  -1 40186.2 1483.87   2
   8   9   2 12127.6 1051.15   1
   9 -17   2 11345.9 919.953   1
 -17   8   2 8094.39 354.409   3
  -8  17   2 12920.5 1126.78   1
   8   9   2 9796.99 802.090   3
  -9  -8   2 13229.4 1068.97   4
 -17   8   2 11560.9 986.198   2
 -17   8   2 13249.6 956.218   4
  -9  -8   2 11060.6 1072.23   2
  -9  -8   5 35661.4 2149.69   2
 -17   8   5 35090.7 1255.16   3
  -9  -8   5 36976.8 2022.47   4
  -8  17   5 36742.4 1980.92   1
 -17   8   5 37269.0 1999.58   4
   8   9   5 35269.9 1729.47   1
 -17   8   5 34389.2 1896.80   2
 -17   8   8 1499.00 984.176   4
 -17   8   8 961.518 859.311   2
  -8  17   8 803.098 874.443   1
  -9  -8   8 2920.02 1233.18   2
   8   9   8 2113.06 783.026   1
 -17   8   8 2387.67 943.948   1
  -9  -8   8 1703.23 1020.75   4
  -9  17  -8 1890.27 1018.85   3
   9   8  -8 2266.63 864.293   3
 -17   9  -8 1685.47 882.444   3
  17  -8  -8 1711.70 622.515   3
  -8  -9  -8 965.280 712.918   3
   8 -17  -8 2036.39 822.331   3
  -9  17  -5 41057.3 2003.53   3
  -9  17  -5 41925.0 1179.69   1
  -8  -9  -5 41558.7 1498.20   2
 -17   9  -5 43422.5 1919.25   3
  -8  -9  -5 42557.6 1749.58   3
  17  -8  -5 45082.9 1229.31   3
  -8  -9  -5 45857.2 1887.26   4
  -9  17  -5 39568.2 1707.77   4
   9   8  -5 43083.1 1694.22   3
 -17   9  -5 41158.0 1407.14   1
   8 -17  -2 10419.5 580.178   4
 -17   9  -2 12523.1 813.443   3
   8 -17  -2 11130.4 481.982   4
  -9  17  -2 11807.4 927.832   3
  -9  17  -2 10241.8 834.820   1
  -9  17  -2 12088.1 959.042   2
   9   8  -2 12015.0 1035.08   1
 -17   9  -2 10016.2 756.772   4
 -17   9  -2 10572.1 837.567   2
  -8  -9  -2 11426.3 922.977   4
 -17   9  -2 11874.8 938.016   1
  -9  17  -2 11534.7 450.540   4
  -8  -9  -2 12157.0 824.581   2
   9   8  -2 11139.7 723.105   3
 -17   9   1 37832.6 1371.42   4
 -17   9   1 35938.6 1480.31   2
   8 -17   1 39426.0 1649.77   1
   9   8   1 36231.8 1232.64   3
 -17   9   1 31144.1 695.575   3
   9   8   1 39080.3 1697.10   1
   9   8   1 37938.9 1333.54   2
  -8  -9   1 37718.3 1523.04   4
  -8  -9   1 39165.1 1664.58   2
  -9  17   1 31481.4 610.488   2
 -17   9   1 34426.9 785.674   3
  -9  17   1 39418.0 1761.49   1
  -8  -9   4 5561.47 1001.62   2
   9   8   4 6775.03 858.035   1
 -17   9   4 6181.36 549.854   3
   8 -17   4 7490.33 694.160   1
 -17   9   4 5560.72 864.430   4
 -17   9   4 6521.33 951.633   2
  -9  17   4 5858.63 974.227   1
  -8  -9   4 6352.63 959.440   4
 -17   9   7 6946.05 1147.04   2
  -8  -9   7 7248.13 1362.04   2
  -8  -9   7 8137.15 1346.70   4
 -17   9   7 9187.98 1284.38   4
  -9  17   7 7734.62 1193.50   1
   9   8   7 7481.34 980.965   1
  -9  17  10 3108.26 1172.35   1
 -17   9  10 3107.14 1162.98   2
  -8  -9  10 1409.81 1228.82   2
   9   8  10 2881.05 897.342   1
 -17   9  10 3361.09 1218.34   1
 -17   9  10 6644.99 1569.18   4
  -8  -9  10 2042.90 1299.35   4
  10   7  -9 6841.75 1224.41   3
 -10  17  -9 3679.90 1269.38   3
 -17  10  -9 6542.81 1304.75   3
  17  -7  -9 6641.12 974.052   3
  -7 -10  -9 6026.55 1136.80   3
   7 -17  -9 6316.44 1150.47   3
  -7 -10  -6 2170.09 520.803   2
 -17  10  -6 881.337 423.235   1
 -10  17  -6 857.313 681.684   3
  10   7  -6 229.157 542.176   3
 -17  10  -6 537.917 677.989   3
 -10  17  -6 271.316 136.196   1
  17  -7  -6 1306.53 456.951   3
  -7 -10  -6 574.195 610.379   3
   7 -17  -6 834.148 298.701   2
  -7 -10  -3 5821.01 675.605   4
 -17  10  -3 5906.82 726.104   3
  10   7  -3 4980.82 778.058   1
 -10  17  -3 5190.88 610.016   1
 -17  10  -3 5429.86 651.971   1
 -17  10  -3 4172.38 641.386   2
 -17  10  -3 5665.10 626.090   4
  10   7  -3 4536.61 549.318   3
  -7 -10  -3 5056.55 584.996   2
 -10  17  -3 5381.82 502.223   4
   7 -17  -3 4883.89 616.430   4
 -10  17  -3 4801.76 699.532   3
 -17  10   0 7388.19 502.934   3
 -17  10   0 8990.70 790.629   2
 -17  10   0 8048.30 657.805   4
 -10  17   0 6841.85 584.655   2
  10   7   0 6554.85 537.440   3
  17  -7   0 7779.35 703.378   4
  -7 -10   0 8478.98 758.655   4
 -10  17   0 7048.66 817.545   1
   7 -17   0 5322.33 306.751   4
  10   7   0 6174.44 816.033   1
  -7 -10   0 5954.97 692.722   2
  17  -7   3 1820.95 443.861   3
 -10  17   3 2593.75 718.532   1
  -7 -10   3 3270.30 798.268   2
  10   7   3 2496.37 665.558   1
 -17  10   3 2940.44 396.529   3
 -17  10   3 2143.51 595.028   4
  -7 -10   3 2927.96 664.885   4
   7 -17   3 2197.01 482.572   4
   7 -17   3 2275.45 565.528   1
 -17  10   3 2984.28 633.162   2
 -17  10   6 7308.04 1140.51   2
  10   7   6 8054.35 925.435   1
  -7 -10   6 10175.3 1339.78   2
 -17  10   6 8413.33 1148.71   4
  -7 -10   6 7182.81 1139.65   4
 -10  17   6 9190.74 1263.60   1
   7 -17   6 5359.62 512.656   1
 -10  17   9-591.069 873.861   1
 -17  10   9-65.4722 927.550   2
  -7 -10   9-283.607 1043.39   2
 -17  10   9 233.716 900.051   1
  10   7   9-504.936 663.857   1
  -7 -10   9 75.3474 944.014   4
 -17  10   9 328.988 1052.11   4
 -11  17 -10 2748.16 1285.37   3
 -17  11 -10 2771.14 1175.76   3
  11   6 -10 1563.62 992.117   3
  17  -6 -10 3321.68 854.874   3
  -6 -11 -10 3024.37 994.975   3
   6 -17 -10 3624.75 1161.37   3
 -11  17  -7 3727.25 1046.17   3
  11   6  -7 1904.77 711.590   3
 -17  11  -7 1886.24 953.496   3
  17  -6  -7 3084.57 589.061   3
  -6 -11  -7 2160.78 747.214   3
   6 -17  -7 1634.91 654.265   3
  -6 -11  -7 2979.62 642.133   2
 -11  17  -4 18850.6 1310.93   3
 -17  11  -4 19179.1 1280.77   3
 -11  17  -4 19020.1 893.878   1
  11   6  -4 19040.1 993.437   3
  -6 -11  -4 19991.3 1176.94   3
 -17  11  -4 18991.8 1053.90   4
  -6 -11  -4 16882.8 1153.26   4
 -11  17  -4 19805.1 1070.92   4
 -17  11  -4 18739.3 965.757   1
   6 -17  -4 16412.9 1109.05   4
  -6 -11  -4 19333.8 952.832   2
   6 -17  -1 30187.7 757.719   4
 -17  11  -1 32880.3 1150.84   3
 -17  11  -1 32504.2 1134.93   4
  11   6  -1 34204.7 1634.27   1
  11   6  -1 30044.0 912.265   3
  -6 -11  -1 30776.4 1340.17   4
  -6 -11  -1 32312.2 1294.74   2
 -17  11  -1 32098.3 1321.47   2
 -11  17  -1 31907.7 1432.16   1
  -6 -11   2 6659.04 918.240   2
  11   6   2 7164.86 676.003   3
  11   6   2 7867.22 872.756   1
 -17  11   2 6773.97 737.960   2
 -17  11   2 6628.86 456.099   3
  -6 -11   2 6373.38 754.913   4
 -17  11   2 7403.97 736.639   4
   6 -17   2 7547.50 836.311   1
   6 -17   2 7598.64 592.470   4
 -11  17   2 8616.97 996.732   1
 -11  17   2 6034.67 368.298   2
  17  -6   2 7066.30 533.509   3
   6 -17   5 14929.3 1158.84   4
  -6 -11   5 14794.4 1500.87   2
 -17  11   5 12051.0 869.368   3
  11   6   5 14960.3 1152.30   1
 -11  17   5 14849.5 777.237   2
   6 -17   5 14491.7 893.392   1
 -17  11   5 14278.6 1298.18   4
  -6 -11   5 15229.2 1383.22   4
 -11  17   5 17162.6 1504.96   1
 -17  11   5 15046.9 1267.14   2
  11   6   8 3789.59 835.459   1
 -17  11   8 2713.53 938.842   2
  -6 -11   8 1701.52 1067.24   2
 -17  11   8 3816.02 1115.98   1
 -11  17   8 3023.32 1046.74   1
  -6 -11   8 3046.46 1110.23   4
 -17  11   8 3432.11 1139.61   4
 -17  12  -8 7549.85 1328.37   3
 -12  17  -8 7721.40 1294.95   3
  12   5  -8 7558.93 1028.39   3
  17  -5  -8 9411.53 963.770   3
  -5 -12  -8 8143.85 1141.27   3
   5 -17  -8 10098.3 1230.18   3
  -5 -12  -8 8412.78 921.941   2
 -12  17  -5 28711.3 1485.93   4
 -17  12  -5 32471.0 1813.49   3
 -12  17  -5 29822.8 925.978   1
 -17  12  -5 31487.3 1100.83   1
  17  -5  -5 36031.2 1027.96   3
  -5 -12  -5 33166.9 1601.16   3
  12   5  -5 33855.6 1376.99   3
  -5 -12  -5 31450.6 1603.94   4
 -12  17  -5 34482.0 1873.11   3
  -5 -12  -5 32069.4 1214.41   2
 -17  12  -2 6573.52 665.766   3
  12   5  -2 4693.39 767.254   1
  -5 -12  -2 6259.85 596.167   2
 -17  12  -2 6897.36 699.698   2
 -17  12  -2 5438.60 547.385   4
  -5 -12  -2 5929.46 667.111   4
 -12  17  -2 4604.49 297.907   4
   5 -17  -2 5672.00 481.751   4
 -12  17  -2 6057.10 682.261   1
 -12  17  -2 4684.64 685.715   3
  12   5  -2 4722.06 449.726   3
  12   5   1 23888.9 1369.21   1
 -17  12   1 23386.2 1027.25   4
  12   5   1 21457.4 925.910   3
   5 -17   1 21473.3 836.252   4
  -5 -12   1 24001.3 1202.34   4
 -17  12   1 23235.5 1144.75   2
 -12  17   1 24491.0 1465.64   1
  17  -5   1 23889.8 674.022   3
 -12  17   1 22191.2 750.870   2
  -5 -12   1 20606.8 1273.73   2
 -12  17   4 3905.57 912.210   1
 -12  17   4 4125.26 475.155   2
 -17  12   4 3953.20 548.025   3
 -17  12   4 5572.63 817.770   4
  -5 -12   4 4228.42 942.587   2
  12   5   4 6126.74 825.090   1
  -5 -12   4 4218.25 848.100   4
   5 -17   4 6205.80 788.599   4
   5 -17   4 4674.45 677.076   1
 -17  12   4 4405.02 768.666   2
 -17  12   7 19665.5 1780.11   1
 -17  12   7 17498.1 1529.85   2
  -5 -12   7 21046.5 2001.59   2
  12   5   7 18358.1 1375.14   1
 -12  17   7 18231.2 1141.81   2
  -5 -12   7 19689.2 1771.95   4
 -12  17   7 23870.8 1889.92   1
 -17  12   7 21422.2 1725.91   4
   5 -17   7 16846.7 1449.67   4
 -12  17  10 1534.11 1169.34   1
  12   5  10 1259.70 762.800   1
 -17  12  10 2243.06 1049.76   2
  -5 -12  10 1254.51 1227.54   2
 -17  12  10-219.779 968.455   1
  -5 -12  10 1582.15 1286.65   4
 -13  17  -9 598.589 1015.64   3
 -17  13  -9 808.174 982.086   3
  13   4  -9-665.405 826.487   3
  17  -4  -9 528.352 716.836   3
  -4 -13  -9 1406.74 837.524   3
   4 -17  -9 2455.84 1011.60   3
   4 -17  -6 1267.46 328.647   2
  -4 -13  -6 2630.65 520.495   2
 -13  17  -6 1667.90 848.951   3
 -17  13  -6 717.546 236.337   1
 -17  13  -6 1575.81 290.390   1
 -17  13  -6 1366.41 732.257   3
  13   4  -6 1484.25 546.827   3
  17  -4  -6 2878.38 486.567   3
  -4 -13  -6 2406.14 701.446   3
   4 -17  -6 1816.34 264.465   2
  13   4  -3 5205.67 468.120   3
 -17  13  -3 6461.13 778.882   3
 -17  13  -3 5577.92 573.998   4
   4 -17  -3 6305.99 579.038   4
  -4 -13  -3 5138.84 656.878   4
  -4 -13  -3 5606.49 534.508   2
 -13  17  -3 5409.29 571.373   4
 -13  17  -3 6145.22 640.235   1
 -13  17  -3 6819.71 838.262   3
 -17  13   0 4977.40 484.958   4
 -13  17   0 4399.57 453.424   2
  13   4   0 4075.28 419.888   3
 -17  13   0 4423.58 586.488   2
  -4 -13   0 5195.44 697.270   2
  -4 -13   0 4627.56 591.030   4
   4 -17   0 4138.19 414.467   4
 -13  17   0 6515.40 833.631   1
  13   4   0 5015.56 793.715   1
 -17  13   0 4590.82 494.955   3
  17  -4   3 6583.72 663.830   3
  -4 -13   3 6637.18 984.654   2
  13   4   3 6041.56 734.101   3
 -17  13   3 4959.01 543.926   3
 -13  17   3 8336.85 1066.52   1
  -4 -13   3 6342.64 823.723   4
 -17  13   3 7226.67 801.848   4
   4 -17   3 6954.52 737.936   4
  13   4   3 8186.77 915.198   1
 -13  17   3 7628.18 565.389   2
   4 -17   3 6349.81 785.837   1
 -17  13   3 6674.38 793.718   2
 -17  13   6 7120.31 1018.52   2
 -17  13   6 7958.17 1218.46   1
  -4 -13   6 9042.62 1331.59   2
 -13  17   6 6877.72 751.981   2
   4 -17   6 11698.3 1199.85   4
  13   4   6 8838.71 971.363   1
 -13  17   6 10136.5 1289.62   1
  -4 -13   6 8565.54 1209.96   4
 -17  13   6 7402.23 1067.33   4
   4 -17   6 6499.90 713.181   1
 -13  17   9 4110.15 1146.68   1
 -17  13   9 2845.79 1019.97   2
  -4 -13   9 5719.79 1469.75   2
  13   4   9 2896.20 791.769   1
 -17  13   9 3255.19 1193.47   1
  -4 -13   9 2704.64 1109.65   4
 -17  13   9 4481.31 1244.09   4
 -14  17  -7 5367.03 1106.76   3
 -17  14  -7 4152.50 1041.52   3
  14   3  -7 5488.28 791.344   3
  17  -3  -7 4371.73 667.828   3
  -3 -14  -7 5713.40 1004.06   3
   3 -17  -7 5417.30 934.801   3
  -3 -14  -7 5191.35 652.068   2
  -3 -14  -4 9889.14 894.305   4
 -14  17  -4 8794.97 674.426   1
 -17  14  -4 9049.58 741.697   1
  14   3  -4 8176.10 615.285   3
 -17  14  -4 8356.47 925.036   3
  17  -3  -4 6617.28 318.153   3
   3 -17  -4 7903.51 736.106   4
  -3 -14  -4 8902.19 606.194   2
 -14  17  -4 6747.09 777.844   4
 -14  17  -4 9362.89 1044.27   3
 -17  14  -4 8527.86 713.514   1
  -3 -14  -1 13120.5 883.814   4
  14   3  -1 10100.7 459.389   3
 -14  17  -1 11077.6 712.363   2
   3 -17  -1 11978.4 668.002   4
 -17  14  -1 11111.2 612.540   4
  14   3  -1 13210.9 1150.58   1
 -14  17  -1 11285.9 964.361   1
 -17  14  -1 11263.4 828.436   2
  -3 -14  -1 10901.4 804.795   2
  14   3  -1 10194.7 455.246   3
 -14  17  -1 10050.7 822.615   3
 -17  14  -1 11750.7 793.119   3
 -17  14   2 2641.03 529.638   4
  14   3   2 2500.19 674.294   1
  17  -3   2 3417.31 442.313   3
   3 -17   2 2960.80 526.966   4
  14   3   2 3284.20 546.734   3
  -3 -14   2 3685.20 771.710   2
 -17  14   2 3135.30 451.277   3
   3 -17   2 3713.50 641.831   2
 -17  14   2 3099.48 792.751   1
  -3 -14   2 2989.20 591.479   4
 -14  17   2 2252.76 417.089   2
 -14  17   2 3054.73 774.355   1
 -17  14   2 2824.37 530.463   2
 -17  14   5 203.418 593.800   2
 -14  17   5 629.271 510.755   2
   3 -17   5-275.489 514.341   1
  14   3   5 1004.35 605.645   1
  -3 -14   5 736.000 791.826   2
   3 -17   5 770.934 724.177   2
 -14  17   5-455.173 730.025   1
 -17  14   5-726.194 777.496   1
 -17  14   5-694.146 636.962   4
  -3 -14   5-33.7296 641.629   4
   3 -17   5 512.644 611.450   4
 -17  14   8 7508.35 1149.32   2
  -3 -14   8 8667.57 1418.59   2
 -14  17   8 6731.20 952.399   2
 -17  14   8 8196.46 1357.78   1
  14   3   8 7505.90 1000.16   1
 -14  17   8 7296.02 1301.18   1
  -3 -14   8 8289.34 1351.82   4
   3 -17   8 8190.05 1319.07   4
 -17  14   8 6941.97 1229.25   4
 -15  17  -8 10978.4 1540.46   3
 -17  15  -8 12540.8 1541.17   3
  15   2  -8 12128.8 1136.10   3
  17  -2  -8 13276.1 1081.53   3
  -2 -15  -8 12513.9 1394.52   3
   2 -17  -8 11724.7 1375.28   3
  -2 -15  -8 10095.1 881.171   2
 -17  15  -5 31404.1 1032.20   1
 -15  17  -5 32553.3 1838.15   3
 -17  15  -5 34854.4 1866.68   3
 -15  17  -5 35325.2 1042.77   1
  15   2  -5 32526.2 1179.37   3
  17  -2  -5 32299.4 972.572   3
  -2 -15  -5 31279.6 1029.77   2
 -17  15  -5 29297.4 1026.36   1
 -15  17  -5 27479.0 1503.84   4
  -2 -15  -5 34976.8 1608.09   4
 -17  15  -2 24588.8 1237.06   3
 -17  15  -2 27629.5 1267.44   2
 -17  15  -2 25575.6 1337.89   1
 -17  15  -2 25753.0 920.481   4
  -2 -15  -2 28187.9 1263.84   4
   2 -17  -2 27497.9 1104.80   4
 -15  17  -2 27963.5 1349.54   1
 -15  17  -2 28146.0 712.264   4
 -15  17  -2 20834.9 762.363   4
  -2 -15  -2 24516.2 965.974   2
 -15  17  -2 23582.5 1270.07   3
 -17  15   1 27158.5 1605.48   1
  -2 -15   1 25334.4 1371.29   2
  15   2   1 25509.2 951.084   3
   2 -17   1 25972.0 1215.97   2
 -17  15   1 23355.2 932.638   4
  17  -2   1 24854.7 720.593   3
  -2 -15   1 25683.2 1196.97   4
 -17  15   1 25415.7 1140.64   2
   2 -17   1 24299.8 1044.90   4
  15   2   1 24580.2 1456.83   1
 -15  17   1 26064.4 1571.12   1
 -15  17   1 23729.3 969.984   2
 -17  15   4 6794.47 1123.63   1
  15   2   4 6487.75 879.440   1
 -15  17   4 5839.02 1054.63   1
  17  -2   4 7189.70 857.707   1
  -2 -15   4 7151.71 1137.60   2
   2 -17   4 5818.15 1023.41   2
 -17  15   4 6965.97 833.638   2
  -2 -15   4 4673.33 836.789   4
   2 -17   4 5891.71 833.940   4
 -17  15   4 6463.24 828.711   4
 -15  17   4 6178.53 701.479   2
 -17  15   7 37540.1 1994.22   2
 -17  15   7 43851.5 2520.39   1
 -15  17   7 37657.7 1782.56   2
  -2 -15   7 42399.0 2645.63   2
 -15  17   7 43010.7 2463.71   1
  -2 -15   7 41564.8 2364.38   4
  15   2   7 37500.1 1777.61   1
   2 -17   7 41648.4 2267.97   4
 -17  15   7 38683.3 2182.45   4
  17  -2   7 36128.4 1612.99   1
 -16  17  -9 8367.49 1467.05   3
 -17  16  -9 8882.77 1487.41   3
  16   1  -9 8212.73 1071.45   3
  17  -1  -9 7995.68 1025.04   3
  -1 -16  -9 6735.13 1192.54   3
   1 -17  -9 8828.35 1251.48   3
  -1 -16  -9 8932.42 909.998   2
 -16  17  -6 7624.07 1146.58   3
 -17  16  -6 7156.27 1106.67   3
   1 -17  -6 6192.25 646.594   2
 -17  16  -6 4920.59 279.559   1
  16   1  -6 10603.8 851.749   3
  -1 -16  -6 5315.66 740.750   2
  17  -1  -6 8487.95 699.758   3
  -1 -16  -6 8875.37 624.774   2
   1 -17  -6 6807.40 471.469   2
 -17  16  -6 4360.39 278.687   1
 -17  16  -3 10302.7 979.825   3
 -16  17  -3 10488.9 990.290   3
 -16  17  -3 12910.1 645.099   4
 -17  16  -3 11934.1 679.532   4
   1 -17  -3 11782.2 831.600   4
 -17  16  -3 12023.9 906.486   1
 -16  17  -3 12585.3 910.948   1
  -1 -16  -3 10453.2 569.192   2
 -16  17  -3 11896.3 828.710   4
  -1 -16   0 4467.72 555.047   4
 -16  17   0 3998.85 521.558   2
 -17  16   0 3998.78 549.488   2
  -1 -16   0 5673.85 695.392   2
 -16  17   0 5455.10 819.846   1
  16   1   0 2785.14 282.573   3
   1 -17   0 4699.66 606.227   2
 -17  16   0 4422.98 804.267   1
   1 -17   0 4342.30 547.940   4
 -17  16   0 3823.18 364.697   4
 -16  17   0 1992.70 199.354   4
 -17  16   3 23839.8 1671.32   1
  16   1   3 24354.8 1464.92   1
 -17  16   3 22692.1 1177.02   2
  17  -1   3 25013.9 1193.84   3
  16   1   3 23639.9 1238.45   3
  17  -1   3 24293.0 1436.99   1
  -1 -16   3 25306.3 1644.68   2
   1 -17   3 26276.8 1605.56   2
 -16  17   3 27518.3 1765.69   1
  -1 -16   3 23986.2 1389.00   4
   1 -17   3 24146.4 1326.04   4
 -17  16   3 21540.4 1127.90   4
 -16  17   3 22969.2 1102.64   2
 -16  17   3 25438.3 1115.68   4
 -16  17   6 5455.31 1163.70   1
 -17  16   6 5131.05 870.445   2
 -16  17   6 4780.77 773.971   2
  16   1   6 4264.63 795.808   1
  -1 -16   6 5770.54 1150.82   2
   1 -17   6 4769.61 1092.60   2
  17  -1   6 5221.55 798.370   1
 -17  16   6 5369.10 1110.73   1
  -1 -16   6 3794.10 982.835   4
   1 -17   6 2635.14 840.671   4
 -17  16   6 3107.58 797.477   4
 -16  17   9 3951.36 1156.14   1
  17  -1   9 1526.05 675.389   1
 -17  16   9 2331.15 970.868   2
 -16  17   9 1756.98 898.105   2
  -1 -16   9 936.695 1146.00   2
  -1 -16   9 3899.11 1235.56   4
   1 -17   9 1444.67 1050.63   4
 -17  16   9 2967.54 1197.64   1
  16   1   9 3438.45 777.813   1
 -17  17  -7-126.991 834.979   3
  17   0  -7 1275.77 543.119   3
   0 -17  -7 262.712 373.761   2
 -17  17  -4 1024.95 670.117   3
  17   0  -4 323.699 176.344   3
   0 -17  -4 574.856 243.746   2
   0 -17  -4 1464.30 478.199   4
 -17  17  -4 1332.81 619.152   4
   0 -17  -4 165.444 193.999   2
 -17  17  -4 482.632 420.484   1
   0 -17  -1-340.155 379.590   4
 -17  17  -1-256.541 420.421   3
   0 -17  -1 487.226 379.461   2
 -17  17  -1-889.426 540.379   1
 -17  17  -1 476.453 197.215   4
 -17  17  -1 13.2783 361.793   2
  17   0   2 14638.9 844.858   3
  17   0   2 13933.2 1163.52   1
   0 -17   2 15236.9 1223.33   2
 -17  17   2 14250.0 775.957   4
   0 -17   2 14582.8 1027.34   4
 -17  17   2 13270.3 854.159   2
 -17  17   2 16552.8 1400.77   1
 -17  17   5 319.621 571.050   2
   0 -17   5-56.7780 761.727   2
  17   0   5 9.42975 565.714   1
 -17  17   5-1074.29 750.761   1
   0 -17   5-490.696 720.000   4
 -17  17   5-218.796 551.313   4
  17   0   8 2426.10 728.751   1
 -17  17   8 2522.04 855.289   2
   0 -17   8 4738.27 1318.70   2
   0 -17   8 3229.19 1081.10   4
 -17  17   8 5336.18 1279.71   1
 -18   0  -9 1116.82 891.425   2
   0  18  -9 364.486 1225.58   3
 -18   0  -9-422.060 899.668   3
 -18   0  -9-9.41649 897.073   4
   0  18  -6 26805.8 1886.96   3
 -18   0  -6 24089.3 1597.29   2
 -18   0  -6 27531.4 1612.22   3
 -18   0  -6 25587.6 1664.98   4
   0  18  -6 25248.7 1488.38   1
   0  18  -3-1115.54 604.340   3
   0  18  -3 1468.64 664.156   1
 -18   0  -3-566.638 544.686   4
 -18   0  -3 819.761 383.238   3
  18 -18  -3-56.0877 314.917   4
 -18   0  -3-306.424 527.488   2
   0  18   0 12966.4 873.740   4
 -18   0   0 16044.6 1214.68   2
 -18   0   0 15581.5 1134.06   4
   0  18   0 16050.6 778.384   2
   0  18   0 16504.4 1262.08   1
   0  18   3-390.713 629.625   1
 -18   0   3-354.432 696.924   2
 -18   0   3 310.874 622.322   4
 -18   0   6 23354.7 2063.07   2
   0  18   6 23844.8 1758.51   1
 -18   0   6 27135.4 2042.17   4
 -18   0   9-543.571 1296.92   4
 -18   0   9-1115.63 1237.76   2
   0  18   9-404.821 889.823   1
  -1  18  -7 21205.5 1812.20   3
   1  17  -7 19682.2 1723.10   3
 -18   1  -7 22482.2 1628.60   3
 -17  -1  -7 22929.2 1651.75   3
 -17  -1  -7 21763.1 1662.16   2
 -18   1  -7 22247.1 1616.99   2
 -18   1  -7 22115.2 1698.36   4
 -17  -1  -7 20376.2 1694.98   4
   1  17  -4 3863.87 785.444   3
 -17  -1  -4 4747.77 809.351   2
  17 -18  -4 2813.51 499.735   2
  18 -17  -4 4228.29 578.838   4
 -17  -1  -4 3663.42 808.619   4
  -1  18  -4 4877.96 923.467   3
 -18   1  -4 5274.17 688.924   3
 -17  -1  -4 4501.89 646.169   3
  -1  18  -4 4589.53 751.916   1
 -18   1  -4 2807.98 745.429   4
  17 -18  -4 3842.21 558.918   4
   1  17  -4 6522.97 867.638   1
 -18   1  -4 6235.31 838.737   2
  -1  18  -1 17736.1 947.548   4
   1  17  -1 18282.7 1281.42   1
 -17  -1  -1 17131.7 1175.69   4
 -18   1  -1 19341.0 1234.92   4
 -18   1  -1 19021.3 1261.10   2
   1  17  -1 16882.1 963.465   2
 -17  -1  -1 19057.7 1266.54   2
  -1  18  -1 20012.6 1339.95   1
  -1  18  -1 17315.8 939.449   2
  18 -17  -1 15974.0 605.293   4
 -17  -1   2 1989.80 794.621   2
   1  17   2 3248.63 824.972   1
  -1  18   2 2807.04 787.886   1
 -18   1   2 4425.14 786.049   4
 -17  -1   2 3037.60 732.418   4
 -18   1   2 4019.53 855.602   2
  -1  18   5 20934.4 1599.79   1
   1  17   5 18348.2 1534.01   1
 -17  -1   5 21253.7 1762.07   4
 -18   1   5 19056.8 1672.41   4
 -18   1   5 21259.6 1795.88   2
 -17  -1   5 18071.9 1721.24   2
 -18   1   8 12366.4 1771.17   2
 -17  -1   8 15779.0 1857.54   2
  -1  18   8 16568.6 1625.66   1
   1  17   8 15799.3 1638.68   1
 -17  -1   8 20442.2 2098.13   4
 -18   1   8 14694.2 1928.15   4
  -2  18  -8 3586.08 1093.05   3
   2  16  -8 1979.94 1029.30   3
 -18   2  -8 1862.05 899.188   3
 -16  -2  -8 2744.69 960.733   3
 -18   2  -8 871.090 903.613   4
 -16  -2  -8 1837.43 910.212   4
 -18   2  -8 1386.06 816.462   2
 -16  -2  -8 1926.67 858.458   2
  -2  18  -5 5736.96 1000.54   3
   2  16  -5 3910.77 885.017   3
 -18   2  -5 4655.79 836.151   2
   2  16  -5 6666.37 902.586   1
 -18   2  -5 4636.77 758.745   3
 -16  -2  -5 7316.34 859.215   3
 -18   2  -5 6557.97 897.529   4
  16 -18  -5 4424.39 577.816   2
  -2  18  -5 5000.96 743.138   1
  16 -18  -5 4470.03 725.005   4
 -16  -2  -5 6208.82 916.646   4
 -16  -2  -5 5561.26 834.132   2
   2  16  -2 10367.4 1010.01   1
 -18   2  -2 11067.4 629.952   3
 -16  -2  -2 10175.0 629.905   3
  16 -18  -2 9070.77 419.476   4
  18 -16  -2 9014.83 613.612   4
  -2  18  -2 9145.89 763.563   4
 -16  -2  -2 8947.87 921.002   4
 -16  -2  -2 10120.3 973.508   2
  -2  18  -2 11460.7 1023.68   1
  -2  18  -2 10198.5 923.724   2
 -18   2  -2 8811.59 919.970   4
 -18   2  -2 9664.25 933.996   2
  -2  18   1 1335.36 205.438   2
   2  16   1 1577.32 659.202   1
 -18   2   1 1370.31 547.408   4
   2  16   1 2094.79 359.091   2
 -16  -2   1 685.276 517.680   4
 -18   2   1 1408.05 625.053   2
 -16  -2   1 1450.55 669.935   2
  -2  18   1 3039.02 769.805   1
   2  16   4 1803.51 779.478   1
 -16  -2   4 923.449 737.730   4
 -18   2   4 2861.99 811.797   2
 -16  -2   4 443.937 753.012   2
  -2  18   4 1790.79 782.034   1
 -18   2   4 2394.33 836.068   4
   2  16   7 1670.85 825.831   1
 -18   2   7 1529.46 973.869   2
 -16  -2   7 1368.04 1169.90   2
  -2  18   7 640.000 786.309   1
 -16  -2   7 1220.10 1070.81   4
 -18   2   7 1196.03 960.465   4
  -3  18  -9 1375.56 1159.76   3
   3  15  -9 445.727 1110.78   3
 -18   3  -9 4016.33 1089.24   3
 -15  -3  -9 1.01738 854.065   3
  18 -15  -9 595.714 671.912   3
 -15  -3  -9 2143.77 991.944   2
  -3  18  -6 7196.61 1192.45   3
   3  15  -6 7944.95 1154.58   3
  15 -18  -6 6816.77 697.132   2
 -18   3  -6 9933.47 1120.38   2
 -18   3  -6 8490.34 1026.59   3
  -3  18  -6 8394.45 840.274   1
 -15  -3  -6 8456.26 962.133   3
 -18   3  -6 7998.63 1058.67   4
 -15  -3  -6 9565.86 1031.23   2
 -15  -3  -6 6232.85 1000.65   4
   3  15  -3 6205.61 837.484   1
 -18   3  -3 5865.75 622.956   3
 -15  -3  -3 6247.26 634.298   3
 -18   3  -3 5333.28 752.807   4
 -15  -3  -3 5956.40 867.508   4
  -3  18  -3 5572.36 647.374   4
 -15  -3  -3 6866.56 860.127   2
  15 -18  -3 5650.86 469.931   4
  18 -15  -3 4576.87 558.624   4
 -18   3  -3 6346.94 849.153   2
  -3  18  -3 4928.61 820.355   3
   3  15  -3 4873.92 748.540   3
  -3  18  -3 6875.24 835.905   1
  -3  18   0 21508.3 1365.31   1
  -3  18   0 20689.2 752.008   2
 -18   3   0 21345.8 1202.60   4
 -18   3   0 19680.9 1254.81   2
   3  15   0 20179.6 943.579   2
 -15  -3   0 18718.8 1210.02   4
 -15  -3   0 20665.1 1302.97   2
   3  15   0 22440.8 1376.18   1
 -18   3   3 2246.59 765.184   2
 -15  -3   3 3224.12 818.886   2
   3  15   3 1041.29 586.563   1
 -18   3   3 2602.03 785.272   4
  -3  18   3 2199.65 761.468   1
 -15  -3   3 782.165 648.065   4
 -18   3   6 12641.7 1513.05   2
 -15  -3   6 16396.0 1721.29   2
  -3  18   6 18050.4 1604.67   1
 -18   3   6 17823.9 1621.12   4
   3  15   6 16767.5 1445.91   1
 -15  -3   6 17841.2 1701.00   4
   3  15   9 1467.66 924.863   1
 -18   3   9 3949.54 1366.31   2
 -15  -3   9 2509.67 1181.90   2
  -3  18   9 3569.06 1151.65   1
 -15  -3   9 3052.19 1303.87   4
 -18   3   9 2336.49 1245.81   4
   4  14  -7 13378.4 1411.84   3
 -18   4  -7 12446.0 1326.28   3
 -14  -4  -7 13299.6 1323.24   3
 -14  -4  -7 13387.5 1408.11   4
 -18   4  -7 12869.2 1344.72   4
  -4  18  -7 11118.6 1447.95   3
 -14  -4  -7 13542.0 1267.49   2
 -18   4  -4 24006.0 1365.53   4
   4  14  -4 24716.9 1428.14   1
  -4  18  -4 22655.2 1240.30   1
 -18   4  -4 23961.8 1265.41   3
 -14  -4  -4 27382.5 1299.07   3
  14 -18  -4 21181.0 790.808   2
 -18   4  -4 25519.3 1447.32   2
 -14  -4  -4 22130.7 1282.48   2
  14 -18  -4 22414.7 1061.10   4
 -14  -4  -4 22903.6 1384.81   4
  -4  18  -4 21501.2 1150.47   4
  -4  18  -4 21746.4 1484.64   3
   4  14  -4 22800.6 1395.04   3
   4  14  -1 14522.3 1139.28   1
 -18   4  -1 13668.3 497.517   3
  -4  18  -1 14726.1 1122.15   1
  18 -14  -1 15154.8 743.708   4
 -14  -4  -1 12856.6 1015.64   4
 -18   4  -1 13787.5 993.148   4
 -14  -4  -1 15980.6 1116.33   2
   4  14  -1 16592.9 967.258   2
 -18   4  -1 12967.0 1025.43   2
  -4  18  -1 14062.2 699.456   4
  -4  18  -1 14939.3 858.769   2
  -4  18   2 22661.1 1480.79   1
 -14  -4   2 17420.0 1244.24   4
 -18   4   2 19474.2 1285.77   4
   4  14   2 17854.9 1322.47   1
 -18   4   2 23380.3 1465.54   2
 -14  -4   2 21479.6 1479.32   2
 -14  -4   5 7951.43 1280.63   2
  -4  18   5 6122.72 1043.85   1
   4  14   5 7146.81 1012.68   1
 -18   4   5 5727.22 1098.22   4
 -14  -4   5 4820.72 1009.51   4
 -18   4   5 5895.81 1085.21   2
 -18   4   5 6173.67 450.029   3
   4  14   8 4099.49 1027.95   1
 -18   4   8 2531.38 1045.82   2
 -14  -4   8 3454.91 1273.61   2
  -4  18   8 4980.04 1081.34   1
 -14  -4   8 5880.83 1384.13   4
 -18   4   8 2959.36 1164.43   4
  -5  18  -8 11670.9 1544.74   3
   5  13  -8 13567.9 1559.07   3
 -18   5  -8 13904.8 1457.83   3
 -13  -5  -8 12933.5 1391.67   3
  18 -13  -8 12571.1 1120.92   3
 -13  -5  -8 14496.6 1349.28   2
 -18   5  -5 4578.37 753.848   4
   5  13  -5 6512.55 941.704   3
  -5  18  -5 4939.88 903.649   3
 -18   5  -5 2942.62 712.173   3
 -13  -5  -5 5235.54 857.327   4
 -13  -5  -5 5109.03 739.919   3
  -5  18  -5 4536.73 640.141   1
 -18   5  -5 4936.55 856.689   2
 -13  -5  -5 6127.90 789.101   2
  13 -18  -5 3895.08 422.584   2
  13 -18  -5 4216.23 755.611   4
   5  13  -5 5618.89 840.512   1
  -5  18  -2 20941.0 1240.84   2
  18 -13  -2 21105.5 973.158   4
 -18   5  -2 22371.8 897.922   3
   5  13  -2 21909.4 1345.55   1
 -18   5  -2 19186.8 1161.67   4
 -18   5  -2 19734.0 1196.34   2
 -13  -5  -2 20958.7 1206.01   2
  -5  18  -2 21220.3 1244.42   1
 -13  -5  -2 18397.0 1235.05   4
  -5  18  -2 21867.5 873.109   4
   5  13   1 17272.3 1212.10   1
  -5  18   1 16081.1 1199.11   1
   5  13   1 14953.6 817.959   2
 -18   5   1 16352.2 1083.71   4
 -13  -5   1 15815.3 1128.16   4
 -18   5   1 14884.3 1136.32   2
 -13  -5   1 16941.2 1216.41   2
 -13  -5   4 13100.0 1319.08   4
  -5  18   4 11482.8 1252.58   1
 -18   5   4 13025.4 1303.24   2
   5  13   4 11444.1 1103.50   1
 -18   5   4 10468.4 1176.54   4
 -18   5   4 7840.90 324.098   3
 -13  -5   4 11850.6 1354.72   2
 -18   5   7 7246.54 1350.93   2
 -13  -5   7 8376.70 1449.81   2
  -5  18   7 9105.64 1273.83   1
   5  13   7 9089.00 1163.13   1
 -13  -5   7 7785.05 1329.54   4
 -18   5   7 8748.88 1410.04   4
  -6  18  -9 4364.35 1306.17   3
   6  12  -9 4525.19 1198.72   3
 -18   6  -9 7724.67 1349.78   3
 -12  -6  -9 5150.28 1199.97   3
  18 -12  -9 4922.69 937.679   3
  12 -18  -9 3622.10 988.126   3
 -12  -6  -9 6411.50 1050.59   2
 -18   6  -6 6544.29 909.363   4
  -6  18  -6 6308.83 1081.31   3
   6  12  -6 6340.83 985.068   3
 -12  -6  -6 6747.38 988.926   4
  -6  18  -6 7020.79 659.485   1
 -18   6  -6 7328.90 1058.62   3
 -12  -6  -6 7137.35 920.314   3
 -18   6  -6 4896.37 803.854   1
 -12  -6  -6 6802.48 873.975   2
  12 -18  -6 5852.96 544.951   2
 -18   6  -3 17436.9 1151.65   2
   6  12  -3 18733.5 1284.82   1
 -18   6  -3 21146.4 1098.16   3
 -12  -6  -3 19797.4 992.191   3
 -18   6  -3 16274.7 1073.04   4
  18 -12  -3 15131.4 924.134   4
 -12  -6  -3 18404.4 1124.33   2
  12 -18  -3 17373.3 784.833   4
  -6  18  -3 18646.7 1091.65   1
  -6  18  -3 19739.6 880.502   4
  -6  18  -3 15939.3 1203.76   3
   6  12  -3 16105.4 1065.31   3
 -12  -6  -3 15400.8 1138.41   4
 -12  -6   0 14227.8 1058.37   2
 -12  -6   0 12932.7 983.264   4
   6  12   0 13527.6 1084.03   1
  -6  18   0 14172.5 1115.90   1
 -18   6   0 14136.3 1040.02   2
  18 -12   0 11572.3 726.628   4
 -18   6   0 12397.6 905.815   4
   6  12   0 12286.7 805.837   2
  -6  18   0 12641.6 603.793   2
  -6  18   3 4925.26 910.883   1
 -18   6   3 5551.52 856.375   4
 -12  -6   3 6037.55 872.127   4
 -18   6   3 7773.14 989.705   2
   6  12   3 6073.49 879.830   1
 -12  -6   3 7105.87 1087.28   2
 -18   6   6 1870.89 494.427   3
 -18   6   6 1949.43 919.090   2
 -12  -6   6 2685.20 1026.93   2
   6  12   6 2544.58 804.095   1
  -6  18   6 2386.49 863.365   1
 -12  -6   6 2246.65 996.639   4
 -18   6   6 2504.21 923.284   4
  -6  18   9 8174.95 1361.90   1
   6  12   9 8255.84 1196.82   1
 -18   6   9 4969.88 1374.97   2
 -12  -6   9 3996.87 1349.92   2
 -18   6   9 7586.34 1510.48   4
 -12  -6   9 6837.43 1565.30   4
  -7  18  -7 8696.62 1315.24   3
   7  11  -7 7787.09 1094.51   3
 -18   7  -7 6572.08 1083.67   3
 -11  -7  -7 10043.5 1115.15   3
 -11  -7  -7 9057.41 991.463   2
  18 -11  -7 10222.2 910.772   3
   7  11  -4 29320.3 1573.20   1
 -18   7  -4 25116.9 1302.34   1
 -18   7  -4 30585.5 1474.67   3
 -11  -7  -4 26268.3 1287.51   3
   7  11  -4 26630.8 1364.88   3
 -18   7  -4 26342.7 1364.86   4
 -18   7  -4 28751.6 1498.12   2
 -11  -7  -4 26271.6 1452.21   4
 -11  -7  -4 26720.0 1314.21   2
  -7  18  -4 26466.9 1177.55   4
  -7  18  -4 29946.4 1268.66   1
  11 -18  -4 26951.5 1240.54   4
  -7  18  -4 25754.6 1576.90   3
  -7  18  -1 20225.3 1022.63   2
  -7  18  -1 17582.3 547.553   4
 -18   7  -1 19608.4 746.676   3
 -18   7  -1 20127.7 1092.26   4
  -7  18  -1 22558.5 1264.89   1
   7  11  -1 19675.2 1279.67   1
  18 -11  -1 20340.7 971.563   4
 -11  -7  -1 20949.3 1213.28   4
 -18   7  -1 18714.5 1150.02   2
 -11  -7  -1 20301.1 1148.27   2
   7  11   2 23829.0 1427.41   1
  -7  18   2 23865.4 1495.90   1
  11 -18   2 22250.8 1255.26   1
 -18   7   2 23453.3 1290.88   4
 -18   7   2 27161.3 1449.14   2
 -11  -7   2 24841.7 1576.84   2
 -11  -7   2 24244.1 1409.87   4
 -18   7   5 14985.5 798.986   3
  -7  18   5 16202.7 1415.57   1
 -11  -7   5 15173.5 1549.81   2
 -11  -7   5 13948.8 1390.20   4
 -18   7   5 15095.9 1414.09   4
   7  11   5 14525.6 1233.94   1
 -18   7   5 14261.8 1431.73   2
  -7  18   8 8401.42 1260.76   1
 -18   7   8 7981.98 1409.97   2
 -11  -7   8 9502.09 1605.18   2
   7  11   8 7356.31 1072.21   1
 -11  -7   8 7306.32 1445.35   4
 -18   7   8 8968.60 1420.32   4
  -8  18  -8 19618.4 1957.34   3
   8  10  -8 17007.9 1550.57   3
 -18   8  -8 21018.3 1795.74   3
 -10  -8  -8 20512.3 1652.48   3
  18 -10  -8 20816.2 1291.98   3
  10 -18  -8 17876.1 1519.23   3
 -10  -8  -8 19900.8 1429.51   2
  -8  18  -5 20081.9 1528.53   3
  -8  18  -5 21814.9 999.530   1
 -18   8  -5 23068.8 1446.42   3
 -10  -8  -5 22594.2 1334.07   3
 -18   8  -5 22371.9 1352.24   4
 -10  -8  -5 23735.7 1255.08   2
  -8  18  -5 18828.1 1200.98   4
  10 -18  -5 19428.2 1301.93   4
   8  10  -5 19981.0 1266.48   3
 -18   8  -5 19269.3 1133.08   1
 -10  -8  -5 21282.1 1388.02   4
   8  10  -2 32847.4 1627.63   1
 -18   8  -2 30983.7 1191.26   3
  -8  18  -2 31189.8 1463.39   2
  -8  18  -2 32153.9 1430.36   1
  10 -18  -2 26971.3 608.309   4
 -18   8  -2 31042.8 1325.90   4
 -10  -8  -2 29719.2 1463.66   4
  18 -10  -2 28775.9 1251.39   4
  -8  18  -2 31787.3 803.456   4
 -10  -8  -2 31040.9 1338.14   2
  10 -18  -2 24383.7 677.917   4
 -18   8  -2 31027.4 1420.77   2
   8  10  -2 29236.4 1202.13   3
  -8  18  -2 29058.8 1427.29   3
  -8  18   1 36138.5 1718.46   1
   8  10   1 32321.5 1602.23   1
   8  10   1 29971.5 1214.67   3
 -10  -8   1 30394.5 1465.17   4
 -18   8   1 33644.3 1382.70   4
 -18   8   1 31732.9 1474.33   2
 -10  -8   1 31097.0 1593.38   2
   8  10   1 32840.4 1230.09   2
  -8  18   4 20791.3 1540.88   1
 -10  -8   4 21701.1 1682.29   2
 -18   8   4 19401.3 780.542   3
  10 -18   4 20087.1 1029.43   1
   8  10   4 22038.6 1421.79   1
 -18   8   4 21625.2 1475.45   4
 -18   8   4 22835.0 1537.03   2
 -10  -8   4 23758.4 1631.60   4
  -8  18   7 19381.8 1670.44   1
 -18   8   7 13800.6 1542.71   2
 -10  -8   7 16956.1 1791.92   2
 -10  -8   7 12636.7 1640.03   4
 -18   8   7 18623.8 1752.61   4
   8  10   7 14727.6 1307.61   1
 -18   8  10 6620.56 1487.54   2
 -10  -8  10 3546.86 1416.26   2
 -10  -8  10 5424.18 1518.59   4
 -18   8  10 6740.65 1649.78   4
   8  10  10 6518.92 1182.29   1
  -9  18  -9 2189.84 1210.28   3
   9   9  -9 1223.94 908.157   3
 -18   9  -9 2085.61 1081.22   3
  -9  -9  -9 2405.34 976.001   3
  18  -9  -9 2800.99 762.787   3
   9 -18  -9 1418.62 878.748   3
  -9  -9  -9 2029.80 771.896   2
   9 -18  -6 2718.08 323.213   2
 -18   9  -6 2702.39 599.546   1
  -9  18  -6 2493.94 851.889   3
   9   9  -6 4082.95 800.343   3
 -18   9  -6 5267.67 945.245   3
  -9  -9  -6 3877.70 847.226   4
  18  -9  -6 3909.48 515.542   3
  -9  -9  -6 2948.38 732.089   3
  -9  -9  -6 3746.01 656.328   2
  -9  18  -6 3039.98 389.482   1
 -18   9  -3 11045.6 872.335   1
 -18   9  -3 10885.1 928.677   2
 -18   9  -3 10079.3 873.997   3
   9 -18  -3 9766.50 728.416   4
  -9  18  -3 10424.0 825.409   1
 -18   9  -3 10877.7 837.439   4
  -9  -9  -3 10503.5 934.891   4
  -9  -9  -3 10461.1 828.584   2
   9   9  -3 13450.0 1148.86   1
  -9  18  -3 11023.5 638.209   4
  -9  18  -3 8675.23 952.692   3
   9   9  -3 10973.7 811.462   3
 -18   9   0 1332.63 296.189   3
  18  -9   0 840.152 424.588   4
  -9  18   0 1032.67 354.069   2
  -9  18   0 870.259 537.546   1
   9   9   0 1350.77 363.379   3
  -9  -9   0 1036.78 469.358   4
 -18   9   0 824.642 391.046   4
 -18   9   0 730.767 457.065   2
   9   9   0 2134.52 628.415   1
  -9  -9   0 1714.16 547.665   2
  -9  -9   3 10628.9 1190.13   2
   9   9   3 11827.3 1076.33   1
 -18   9   3 8559.70 480.094   3
   9 -18   3 8712.34 833.925   1
  -9  -9   3 10558.6 1058.10   4
 -18   9   3 13022.6 1106.64   4
 -18   9   3 10264.2 1026.52   2
  18  -9   3 9785.50 726.718   3
  -9  18   3 10611.3 1167.58   1
   9   9   6 4392.56 863.605   1
 -18   9   6 2819.37 889.270   4
 -18   9   6 4401.46 687.473   3
 -18   9   6 3736.97 972.593   2
  -9  18   6 5302.12 1023.83   1
  -9  -9   6 3557.57 1021.57   2
  -9  -9   6 5187.07 1131.71   4
   9   9   9 2364.63 881.871   1
  -9  -9   9 1354.79 1160.37   4
  -9  18   9 787.353 967.686   1
 -18   9   9 1649.58 1159.31   2
 -18   9   9 2412.00 1117.13   1
  -9  -9   9 2610.93 1119.95   2
 -18   9   9 3944.74 1254.05   4
 -10  18 -10 6858.94 1626.89   3
 -18  10 -10 10442.6 1662.28   3
  18  -8 -10 8024.69 1131.73   3
   8 -18 -10 8184.70 1335.70   3
  -8 -10 -10 5754.98 1242.52   3
 -10  18  -7 16091.4 1610.19   3
  -8 -10  -7 18092.8 1217.99   2
  10   8  -7 18099.9 1403.61   3
 -18  10  -7 18365.0 1564.76   3
  18  -8  -7 20803.3 1133.20   3
  -8 -10  -7 17801.3 1419.23   3
  10   8  -4 21967.7 1139.44   3
 -18  10  -4 21303.2 1336.67   3
 -18  10  -4 21803.7 1327.77   2
 -10  18  -4 20050.7 1011.00   1
  -8 -10  -4 22855.4 1248.23   3
 -10  18  -4 20678.5 1066.37   4
 -18  10  -4 20434.4 1089.32   1
  -8 -10  -4 21427.7 1086.44   2
 -18  10  -4 22470.2 1203.80   4
  -8 -10  -4 21545.8 1311.58   4
   8 -18  -4 19831.8 1149.40   4
 -10  18  -4 18816.9 1357.87   3
 -18  10  -1 33702.1 1412.77   2
  10   8  -1 33030.1 1605.95   1
 -10  18  -1 36380.2 1568.18   1
 -10  18  -1 34669.4 1346.03   2
  -8 -10  -1 36404.2 1517.64   4
 -18  10  -1 35090.6 1289.74   4
  -8 -10  -1 33333.0 1378.35   2
 -18  10  -1 31563.9 1097.47   3
 -18  10   2 25192.0 719.693   3
  10   8   2 28985.9 1259.04   3
  10   8   2 32080.6 1604.25   1
 -18  10   2 30972.7 1407.35   4
 -18  10   2 26877.8 1401.14   2
   8 -18   2 28580.4 1421.57   1
   8 -18   2 27200.4 883.695   4
  -8 -10   2 27463.6 1434.57   4
 -10  18   2 32163.5 1725.68   1
  18  -8   2 30124.9 1011.57   3
  -8 -10   2 30189.0 1682.36   2
  10   8   5 19615.4 1368.32   1
  -8 -10   5 20026.3 1746.70   2
 -18  10   5 16868.4 966.286   3
   8 -18   5 18751.6 970.009   1
  -8 -10   5 18499.0 1515.49   4
 -18  10   5 21596.7 1553.65   4
 -10  18   5 21019.2 1621.89   1
 -18  10   5 17875.2 1439.19   2
  10   8   8 19302.4 1458.83   1
 -18  10   8 19354.4 1811.61   2
  -8 -10   8 19324.5 1976.01   2
 -18  10   8 19396.3 1828.40   1
  -8 -10   8 18059.6 1912.22   4
 -18  10   8 17034.8 1725.23   4
 -10  18   8 20273.9 1797.67   1
 -11  18  -8 10506.2 1543.41   3
  11   7  -8 9026.11 1148.39   3
 -18  11  -8 9054.68 1332.82   3
  18  -7  -8 10431.8 995.019   3
  -7 -11  -8 8778.35 1190.19   3
   7 -18  -8 7514.67 1094.09   3
  -7 -11  -8 10903.5 1057.34   2
 -11  18  -5 14396.8 1334.72   3
  11   7  -5 13648.4 991.394   3
 -18  11  -5 14695.4 1266.31   3
 -18  11  -5 14323.2 867.728   1
  -7 -11  -5 13645.3 1109.14   3
  -7 -11  -5 15448.2 1204.73   4
  -7 -11  -5 13672.8 928.735   2
 -11  18  -5 15612.2 772.966   1
 -11  18  -5 14066.8 1102.06   4
 -11  18  -2 23468.3 1230.55   1
 -18  11  -2 25653.4 1157.79   3
 -11  18  -2 22445.4 1289.24   2
   7 -18  -2 26869.2 813.587   4
 -18  11  -2 24216.8 1246.99   2
 -18  11  -2 24431.8 1098.15   4
  -7 -11  -2 25154.1 1309.13   4
 -11  18  -2 22194.3 494.612   4
  11   7  -2 26361.3 1522.22   1
  -7 -11  -2 24166.3 1112.93   2
 -11  18  -2 23366.4 1282.82   3
  11   7  -2 23770.9 961.609   3
  11   7   1 18934.8 930.779   3
 -18  11   1 18952.4 665.521   3
  -7 -11   1 19826.6 1162.14   4
 -18  11   1 19548.0 1025.90   4
 -18  11   1 18421.4 1116.96   2
  11   7   1 21700.6 1354.27   1
 -11  18   1 18194.4 597.049   2
 -11  18   1 21608.5 1401.97   1
   7 -18   1 16740.1 648.687   4
  -7 -11   1 18230.8 1227.80   2
 -18  11   1 17921.3 698.156   3
  -7 -11   4 24575.0 1750.76   2
 -18  11   4 24369.8 1035.79   3
  11   7   4 26917.3 1523.65   1
   7 -18   4 26272.0 1261.79   1
  -7 -11   4 27227.9 1652.89   4
 -18  11   4 28371.4 1603.39   4
 -11  18   4 25827.2 1742.60   1
   7 -18   4 28708.3 1361.97   4
 -18  11   4 24715.1 1520.90   2
 -18  11   7 7740.33 1229.46   2
  11   7   7 7070.80 991.247   1
 -11  18   7 6860.52 1150.50   1
  -7 -11   7 6943.35 1368.30   2
 -18  11   7 6798.91 1211.80   1
 -18  11   7 6754.83 1177.33   4
  -7 -11   7 5698.85 1222.81   4
 -12  18  -9 8384.76 1562.26   3
  12   6  -9 7224.85 1135.94   3
 -18  12  -9 5543.30 1274.36   3
  18  -6  -9 9499.23 1062.55   3
  -6 -12  -9 8035.55 1237.31   3
   6 -18  -9 9099.14 1337.57   3
  -6 -12  -9 9190.73 1057.06   2
 -12  18  -6 4162.58 992.189   3
  -6 -12  -6 3002.93 558.663   2
 -18  12  -6 2800.89 472.959   1
  12   6  -6 2495.57 670.876   3
 -18  12  -6 3241.16 910.860   3
  18  -6  -6 3452.62 508.420   3
  -6 -12  -6 2061.19 647.034   3
  -6 -12  -6 3420.27 774.171   4
   6 -18  -6 1445.46 217.170   2
  12   6  -3 5427.57 555.547   3
 -18  12  -3 5882.63 730.887   3
 -12  18  -3 5654.05 659.293   1
 -18  12  -3 4849.15 575.321   4
   6 -18  -3 6082.63 539.421   4
 -18  12  -3 5158.42 712.290   2
  -6 -12  -3 5507.45 715.414   4
 -12  18  -3 6124.17 527.254   4
  -6 -12  -3 4220.62 539.530   2
 -18  12  -3 5396.95 661.322   1
 -12  18  -3 3829.07 704.821   3
  12   6   0 13700.9 1159.93   1
  -6 -12   0 12059.1 879.710   4
  12   6   0 12275.2 676.461   3
 -12  18   0 13013.9 624.468   2
 -18  12   0 12774.1 778.612   4
 -18  12   0 13130.3 934.551   2
   6 -18   0 12003.5 542.515   4
 -12  18   0 13945.6 1118.62   1
  -6 -12   0 13463.6 974.186   2
 -18  12   0 11818.9 680.140   3
 -12  18   3 17407.2 1387.43   1
 -12  18   3 12386.6 557.425   2
  -6 -12   3 16876.7 1415.13   2
 -18  12   3 16805.6 1156.25   4
 -18  12   3 15289.7 764.970   3
  -6 -12   3 17326.6 1247.12   4
 -18  12   3 17646.8 1201.03   2
  12   6   3 18893.3 1271.74   1
  18  -6   3 17265.4 926.337   3
   6 -18   3 15203.3 1081.68   1
   6 -18   3 15430.8 946.890   4
 -18  12   6 4833.59 971.959   2
  -6 -12   6 5054.48 1225.31   2
  12   6   6 5382.63 894.144   1
 -12  18   6 4197.71 560.969   2
   6 -18   6 3892.15 591.599   1
 -18  12   6 6689.74 1169.92   1
 -12  18   6 5661.48 1103.53   1
 -18  12   6 6864.29 1094.81   4
  -6 -12   6 3975.85 1003.06   4
   6 -18   6 4890.92 939.565   4
 -12  18   9 4974.97 1193.82   1
  12   6   9 3601.06 899.627   1
 -18  12   9 3126.98 1085.33   2
  -6 -12   9 4053.16 1339.71   2
 -18  12   9 2905.11 1175.20   1
  -6 -12   9 5049.96 1256.25   4
 -18  12   9 4390.75 1245.72   4
 -13  18  -7 6841.62 1151.80   3
  -5 -13  -7 8001.17 815.113   2
 -18  13  -7 8333.25 1272.76   3
  13   5  -7 10539.3 1018.90   3
  18  -5  -7 8342.24 777.653   3
  -5 -13  -7 7425.86 1041.38   3
 -13  18  -4 12187.8 1149.97   3
  13   5  -4 10250.2 734.875   3
  -5 -13  -4 12235.4 763.544   2
 -18  13  -4 12759.4 1139.17   3
 -13  18  -4 12154.3 782.754   1
 -18  13  -4 11577.3 835.854   1
 -18  13  -4 12761.9 867.857   4
  -5 -13  -4 12606.6 1009.95   4
 -13  18  -4 11242.3 869.271   4
 -18  13  -1 14989.3 879.173   3
 -18  13  -1 16206.1 1001.18   2
  13   5  -1 15899.9 659.068   3
  -5 -13  -1 15235.8 1014.08   4
 -18  13  -1 16347.0 819.557   4
   5 -18  -1 16214.1 664.662   4
 -13  18  -1 18016.4 1172.39   1
  13   5  -1 17684.5 1307.00   1
  -5 -13  -1 18011.8 1028.17   2
  -5 -13   2 20536.6 1387.98   2
 -18  13   2 18100.8 1100.07   2
  13   5   2 18702.7 1022.31   3
 -18  13   2 16422.4 754.090   3
 -18  13   2 18938.2 1083.33   4
 -13  18   2 21799.0 1506.12   1
   5 -18   2 19369.4 950.576   4
 -13  18   2 17760.4 707.119   2
  -5 -13   2 17834.6 1151.33   4
  18  -5   2 19531.5 808.020   3
  13   5   2 20982.3 1356.01   1
 -13  18   5 4922.19 960.854   1
 -13  18   5 4335.75 572.311   2
 -18  13   5 4062.96 658.251   3
  -5 -13   5 4393.24 1048.79   2
  13   5   5 5453.02 848.394   1
 -18  13   5 5248.98 919.481   4
  -5 -13   5 4561.30 919.394   4
   5 -18   5 4479.99 688.294   1
   5 -18   5 4655.40 867.372   4
 -18  13   5 4520.77 876.314   2
 -18  13   5 8103.89 1155.35   1
 -18  13   8 10248.8 1357.45   2
  -5 -13   8 11944.6 1791.03   2
  13   5   8 11034.4 1141.27   1
 -18  13   8 10337.4 1506.78   1
  -5 -13   8 10111.1 1520.05   4
 -13  18   8 14154.5 1640.25   1
 -18  13   8 13490.5 1575.92   4
 -14  18  -8 6019.78 1254.48   3
  14   4  -8 5967.72 938.607   3
 -18  14  -8 5607.47 1218.35   3
  18  -4  -8 6052.78 815.333   3
  -4 -14  -8 4219.49 1043.10   3
   4 -18  -8 5159.56 1013.70   3
  -4 -14  -8 5387.17 770.667   2
 -14  18  -5 7989.01 1055.96   3
 -18  14  -5 10056.8 1128.86   3
  14   4  -5 6530.92 702.568   3
 -14  18  -5 7309.56 549.982   1
  18  -4  -5 7411.12 472.122   3
  -4 -14  -5 7619.07 913.007   4
 -18  14  -5 6704.58 618.187   1
  -4 -14  -5 7878.66 643.790   2
 -18  14  -5 7733.70 642.940   1
 -14  18  -5 6777.64 912.496   4
  14   4  -2 19728.0 703.515   3
 -18  14  -2 22838.9 1179.77   3
  -4 -14  -2 23061.2 1222.71   4
  14   4  -2 20024.7 636.769   3
 -18  14  -2 23302.1 1183.13   2
 -14  18  -2 19316.9 478.409   4
 -18  14  -2 22211.8 961.822   4
   4 -18  -2 22394.7 933.947   4
  -4 -14  -2 22412.6 1024.98   2
 -14  18  -2 24038.2 1268.14   1
 -14  18  -2 22692.5 1281.17   3
  -4 -14   1 12612.7 1084.33   2
   4 -18   1 11242.4 699.074   4
  14   4   1 11195.7 719.927   3
  14   4   1 14116.2 1163.62   1
 -14  18   1 11661.8 642.015   2
  -4 -14   1 12822.6 921.988   4
 -18  14   1 11361.9 769.580   4
 -14  18   1 12442.6 1123.04   1
 -18  14   1 11373.8 870.145   2
  18  -4   1 12059.5 477.948   3
 -14  18   4 21956.8 1685.00   1
 -14  18   4 18554.0 927.846   2
  -4 -14   4 22498.3 1686.86   2
 -18  14   4 15512.6 946.035   3
 -18  14   4 20833.2 1643.71   1
  -4 -14   4 19764.6 1418.34   4
 -18  14   4 20002.5 1343.10   4
  14   4   4 20530.6 1358.80   1
   4 -18   4 19409.4 1283.24   4
 -18  14   4 19802.1 1345.23   2
   4 -18   4 16893.4 1178.23   1
 -18  14   7 12472.4 1337.50   2
  -4 -14   7 15450.7 1598.94   4
  -4 -14   7 13044.7 1588.29   2
 -14  18   7 11582.7 1002.95   2
 -18  14   7 15789.2 1652.49   1
 -14  18   7 14285.0 1608.91   1
  14   4   7 13533.5 1213.04   1
 -18  14   7 12182.8 1423.21   4
   4 -18   7 11932.4 1360.29   4
 -15  18  -9 3352.60 1214.22   3
 -18  15  -9 2812.03 1162.54   3
  15   3  -9 2677.79 867.175   3
  18  -3  -9 1882.33 734.883   3
  -3 -15  -9 1047.50 885.117   3
   3 -18  -9 747.047 875.561   3
  -3 -15  -9 1776.87 674.049   2
 -15  18  -6 16299.6 1495.31   3
 -18  15  -6 17695.2 1566.41   3
  15   3  -6 15339.9 1007.44   3
  18  -3  -6 20362.4 920.091   3
  -3 -15  -6 12590.7 1057.64   2
  -3 -15  -6 17911.1 1380.38   3
  -3 -15  -6 18759.5 1364.98   4
  -3 -15  -6 18842.3 946.623   2
   3 -18  -6 12845.3 455.576   2
 -18  15  -6 12699.8 567.627   1
 -18  15  -6 12574.0 580.707   1
  -3 -15  -3 2571.28 573.027   4
 -15  18  -3 2268.68 652.074   3
 -18  15  -3 2885.24 660.490   3
 -15  18  -3 1871.16 535.689   1
  15   3  -3 1935.54 326.826   3
 -18  15  -3 2671.47 589.166   1
 -18  15  -3 1993.18 419.834   4
   3 -18  -3 2522.41 498.401   4
 -15  18  -3 2528.77 472.252   4
  -3 -15  -3 1840.19 412.425   2
 -15  18   0 19548.6 881.106   2
  -3 -15   0 20388.0 1182.20   2
  15   3   0 19976.1 1360.77   1
 -18  15   0 18208.8 1312.82   1
  15   3   0 16011.6 684.588   3
 -18  15   0 17809.6 1012.44   2
   3 -18   0 17275.5 821.664   4
 -18  15   0 17142.3 783.615   4
  -3 -15   0 16709.6 986.232   4
 -15  18   0 17964.4 1323.76   1
 -18  15   0 16325.8 887.488   3
  -3 -15   3 4901.78 831.426   4
  18  -3   3 4629.60 626.463   3
  15   3   3 5783.27 844.899   1
  -3 -15   3 6491.35 1030.68   2
  15   3   3 5735.20 755.006   3
 -18  15   3 5766.70 967.271   1
 -18  15   3 4383.21 568.817   3
   3 -18   3 5447.22 861.416   2
   3 -18   3 4439.29 698.877   4
 -18  15   3 5524.50 738.150   4
 -15  18   3 5081.17 555.563   2
 -18  15   3 4346.44 716.813   2
 -15  18   3 5477.90 972.969   1
 -18  15   6 8535.91 1068.26   2
 -15  18   6 9572.54 936.187   2
  -3 -15   6 7390.99 1322.09   2
 -18  15   6 9201.68 1348.65   1
 -15  18   6 8896.71 1356.00   1
  -3 -15   6 8041.98 1184.57   4
  15   3   6 9874.22 1038.81   1
   3 -18   6 9267.23 1135.48   4
 -18  15   6 9097.98 1170.18   4
 -15  18   9 112.683 1018.43   1
  15   3   9 231.567 664.419   1
 -18  15   9-309.069 861.546   2
  -3 -15   9 360.727 1190.28   2
 -15  18   9 332.396 800.819   2
 -18  15   9 46.5101 1034.22   1
  -3 -15   9 330.253 1007.59   4
   3 -18   9 909.700 929.636   4
 -16  18  -7 594.956 879.151   3
 -18  16  -7 164.095 790.860   3
  16   2  -7 1117.22 599.015   3
  18  -2  -7 2162.66 605.797   3
  -2 -16  -7 598.112 702.905   3
   2 -18  -7 861.094 307.471   2
  -2 -16  -7 796.202 470.694   2
 -16  18  -4 3410.90 764.369   3
 -18  16  -4 3217.29 748.363   3
 -18  16  -4 2716.69 568.714   1
  16   2  -4 3100.77 380.475   3
 -18  16  -4 3018.04 494.567   4
   2 -18  -4 3833.36 612.664   4
  -2 -16  -4 3287.80 643.607   4
 -16  18  -4 3700.15 694.456   4
 -16  18  -4 4008.68 585.987   1
  -2 -16  -4 2902.85 407.723   2
 -16  18  -1 2053.41 533.214   3
 -18  16  -1 1635.11 434.946   3
  -2 -16  -1 1994.60 523.426   2
  16   2  -1 762.058 179.331   3
   2 -18  -1 1432.10 281.484   2
 -18  16  -1 2208.84 473.504   2
   2 -18  -1 1659.82 408.315   4
 -18  16  -1 1409.81 287.728   4
 -16  18  -1 770.369 374.814   2
 -18  16  -1 1300.50 562.030   1
  -2 -16  -1 1364.68 445.906   4
 -16  18  -1 2025.93 610.736   1
  16   2  -1 976.122 148.486   3
  18  -2   2 8482.23 624.793   3
  16   2   2 8059.93 722.744   3
  -2 -16   2 8187.84 1004.98   2
   2 -18   2 9739.17 983.070   2
 -18  16   2 8881.56 707.251   3
 -18  16   2 7868.88 1124.79   1
  16   2   2 8460.13 990.185   1
  -2 -16   2 9285.63 867.972   4
   2 -18   2 10017.2 832.834   4
 -18  16   2 6746.74 693.221   2
 -16  18   2 8813.63 680.297   2
 -18  16   2 8319.33 723.635   4
 -16  18   2 8186.34 1054.23   1
 -18  16   5 6143.55 896.550   2
 -16  18   5 5063.36 762.426   2
  16   2   5 6165.59 881.581   1
  18  -2   5 4824.69 809.057   1
   2 -18   5 5150.89 1084.36   2
  -2 -16   5 5432.28 1108.12   2
  -2 -16   5 5728.50 1008.60   4
 -18  16   5 6257.81 926.411   4
 -18  16   5 6004.27 1177.71   1
   2 -18   5 3623.93 841.975   4
 -16  18   5 4943.60 1097.85   1
 -16  18   8 994.404 1011.05   1
 -18  16   8 463.625 756.462   2
 -16  18   8 989.005 754.324   2
  -2 -16   8 468.076 1139.22   2
  16   2   8 1008.59 681.829   1
 -18  16   8 2207.44 1081.47   1
  -2 -16   8-788.989 932.845   4
   2 -18   8 3508.57 1058.89   4
 -17  18  -8 16004.0 1814.53   3
 -18  17  -8 13913.2 1675.21   3
  17   1  -8 16332.1 1190.99   3
  18  -1  -8 16156.2 1143.12   3
  -1 -17  -8 16151.6 1608.54   3
   1 -18  -8 13052.7 1441.39   3
  -1 -17  -8 16776.1 986.787   2
 -18  17  -5 20499.3 944.700   1
 -17  18  -5 22828.0 1645.64   3
 -18  17  -5 21607.8 1551.52   3
  17   1  -5 20871.1 858.258   3
  -1 -17  -5 13700.8 823.663   2
  18  -1  -5 19067.2 710.647   3
   1 -18  -5 23710.8 1356.95   4
  -1 -17  -5 23144.5 1392.20   4
  -1 -17  -5 16776.9 724.405   2
 -18  17  -5 20332.1 946.737   1
 -17  18  -5 21153.4 928.889   1
  -1 -17  -2 3015.80 475.359   2
 -17  18  -2 2545.84 314.949   4
 -17  18  -2 2551.90 632.666   3
 -18  17  -2 2232.12 506.318   2
 -18  17  -2 3205.35 650.751   3
 -17  18  -2 3945.30 589.478   2
   1 -18  -2 3851.45 574.558   4
 -18  17  -2 3479.66 397.540   4
  -1 -17  -2 3361.98 574.597   4
 -17  18  -2 3893.82 689.490   1
 -18  17  -2 4220.61 680.626   1
 -17  18  -2 2247.31 380.717   4
  18  -1   1 18341.0 662.821   3
 -17  18   1 23752.6 1567.99   1
  17   1   1 20652.5 834.990   3
 -18  17   1 22026.0 1534.00   1
  -1 -17   1 24212.4 1366.31   2
   1 -18   1 21018.5 1194.66   2
  17   1   1 23011.2 1472.95   1
   1 -18   1 19571.0 1042.35   4
  -1 -17   1 19291.9 1082.71   4
 -18  17   1 18422.4 807.534   4
 -18  17   1 17849.6 1012.40   2
 -17  18   1 21351.3 1039.82   2
  18  -1   4 4106.51 787.525   1
  -1 -17   4 4875.56 956.212   2
   1 -18   4 3966.89 918.929   2
  17   1   4 5684.31 916.144   1
 -18  17   4 4768.76 1083.62   1
   1 -18   4 4539.85 847.570   4
  -1 -17   4 4044.07 799.453   4
 -17  18   4 3970.34 683.622   2
 -18  17   4 4587.90 766.789   4
 -17  18   4 3319.49 943.642   1
 -18  17   4 4169.56 754.113   2
 -18  17   7 20977.8 1545.31   2
 -17  18   7 18013.0 1360.72   2
  17   1   7 17230.0 1329.45   1
  -1 -17   7 22118.0 2010.99   2
   1 -18   7 21020.7 2006.68   2
 -18  17   7 24098.6 2010.93   1
 -17  18   7 23310.0 2003.33   1
  18  -1   7 16459.3 1275.54   1
  -1 -17   7 20297.1 1784.76   4
   1 -18   7 18980.5 1670.19   4
 -18  18  -9 574.168 1018.49   3
  18   0  -9-31.4189 671.821   3
   0 -18  -9 808.150 830.228   3
 -18  18  -6 24998.3 1839.64   3
   0 -18  -6 21330.8 769.775   2
 -18  18  -6 19627.0 644.215   1
  18   0  -6 28580.1 1099.08   3
   0 -18  -6 27346.8 1557.08   4
 -18  18  -3 504.035 597.274   3
   0 -18  -3 655.060 217.793   2
   0 -18  -3-11.0320 476.784   4
 -18  18  -3 179.855 277.452   4
 -18  18  -3 578.961 488.282   1
 -18  18  -3 206.590 441.314   4
 -18  18   0 16195.4 1313.96   1
   0 -18   0 18847.4 1082.33   2
   0 -18   0 16532.4 948.486   4
 -18  18   0 16810.6 936.187   2
 -18  18   3 222.271 437.151   2
   0 -18   3 195.061 573.738   4
  18   0   3 608.610 510.295   3
  18   0   3 480.999 578.701   1
   0 -18   3-139.653 676.724   2
 -18  18   3 496.765 676.027   1
 -18  18   3-638.758 484.446   4
  18   0   6 24761.4 1570.09   1
 -18  18   6 24028.1 1485.45   2
   0 -18   6 27861.6 2091.54   2
 -18  18   6 26649.3 2094.38   1
   0 -18   6 26903.3 1860.12   4
 -18  18   9 23.3121 1022.32   1
  18   0   9 1392.76 719.450   1
 -18  18   9 868.797 854.071   2
   0 -18   9 1244.35 1206.64   4
   0  19  -7 498.108 942.261   3
 -19   0  -7 222.354 668.982   3
 -19   0  -7-155.680 898.272   4
 -19   0  -7-42.4948 766.750   2
   0  19  -4 1743.92 707.465   3
   0  19  -4 1683.41 662.229   1
 -19   0  -4 1886.07 559.605   3
 -19   0  -4 218.347 615.096   4
 -19   0  -4 1332.88 653.405   2
  19 -19  -4 960.514 454.510   4
 -19   0  -1 1238.34 670.754   2
   0  19  -1 635.209 613.488   1
 -19   0  -1-387.565 516.610   4
   0  19  -1 455.747 410.170   2
 -19   0   2 28870.1 1723.38   4
 -19   0   2 30263.8 1856.87   2
   0  19   2 29934.4 1787.46   1
 -19   0   5-1113.45 999.951   2
 -19   0   5 143.504 813.087   4
   0  19   5 538.505 835.385   1
 -19   0   8 20929.0 2241.00   2
   0  19   8 24813.7 2012.76   1
 -19   0   8 22557.5 2236.37   4
  -1  19  -8 438.814 998.802   3
   1  18  -8 1142.34 1068.69   3
 -19   1  -8 1997.84 862.424   3
 -18  -1  -8 1072.33 870.138   3
 -18  -1  -8-43.5316 841.299   4
 -19   1  -8 1674.02 881.681   2
 -18  -1  -8-409.432 855.189   2
 -19   1  -8 105.361 810.451   4
  -1  19  -5 474.985 762.703   3
   1  18  -5 846.917 777.541   3
 -19   1  -5 153.344 525.202   3
  -1  19  -5 234.459 610.461   1
 -18  -1  -5 519.527 497.392   3
 -19   1  -5 1197.22 625.906   4
 -19   1  -5 380.653 642.621   2
 -18  -1  -5-837.868 579.615   4
   1  18  -5-289.916 635.632   1
 -18  -1  -5 891.975 711.677   2
  -1  19  -2 1835.47 590.369   2
 -19   1  -2 2469.46 371.552   3
  18 -19  -2 1845.94 274.215   4
  19 -18  -2 1751.07 364.709   4
  -1  19  -2 2131.89 695.107   1
 -18  -1  -2 2804.53 666.073   4
 -19   1  -2 1487.13 567.892   4
   1  18  -2 2272.25 690.747   1
 -19   1  -2 2195.87 690.963   2
 -18  -1  -2 1957.86 682.675   2
  -1  19   1 3532.26 331.274   2
   1  18   1 3321.77 397.329   2
  -1  19   1 4090.58 879.020   1
 -18  -1   1 3958.91 742.925   4
 -19   1   1 4273.90 774.689   4
   1  18   1 4595.40 899.427   1
 -18  -1   1 5481.46 884.290   2
 -19   1   1 3643.75 859.609   2
   1  18   4 4502.31 937.826   1
 -19   1   4 3997.74 1061.95   2
 -18  -1   4 3591.24 1000.03   2
  -1  19   4 5133.61 1003.56   1
 -18  -1   4 3797.65 947.609   4
 -19   1   4 3404.65 886.373   4
   1  18   7 647.100 860.872   1
  -1  19   7 2025.86 980.175   1
 -19   1   7 546.364 969.359   2
 -18  -1   7 800.258 1090.83   2
 -18  -1   7 350.658 986.867   4
 -19   1   7 412.254 978.660   4
 -19   2  -9 3204.26 1104.11   4
  -2  19  -9 4867.52 1492.83   3
   2  17  -9 4275.39 1299.73   3
 -17  -2  -9 5599.66 1186.93   3
 -19   2  -9 5458.49 1133.72   3
 -17  -2  -9 6146.04 1269.44   2
 -17  -2  -9 4883.67 1243.91   4
 -19   2  -9 4963.13 1160.11   2
  -2  19  -6 3119.94 989.918   3
   2  17  -6 4469.58 996.338   3
 -19   2  -6 5013.39 868.795   3
  -2  19  -6 4835.97 792.201   1
 -17  -2  -6 4991.85 946.265   2
 -17  -2  -6 3191.56 765.296   3
 -19   2  -6 4276.44 895.469   4
 -19   2  -6 3755.55 898.550   2
   2  17  -6 2321.58 767.555   1
 -17  -2  -6 3087.86 834.668   4
  -2  19  -3 12615.7 1063.23   1
 -19   2  -3 13666.7 831.150   3
 -17  -2  -3 13157.4 802.517   3
   2  17  -3 12437.9 1109.14   1
 -19   2  -3 10557.1 1041.52   4
  19 -17  -3 11420.9 736.566   4
 -19   2  -3 12591.3 1091.04   2
 -17  -2  -3 11835.8 1060.09   2
 -17  -2  -3 11009.4 1072.15   4
  17 -19  -3 9181.60 538.091   4
  -2  19  -3 10503.9 1055.67   3
   2  17  -3 10540.4 1059.14   3
   2  17   0 4940.80 559.226   2
  -2  19   0 4111.75 816.257   1
 -17  -2   0 4519.42 747.945   4
 -19   2   0 4684.80 728.951   4
  -2  19   0 4585.65 446.932   2
 -17  -2   0 5081.44 808.855   2
 -19   2   0 4189.90 803.292   2
   2  17   0 4187.01 788.980   1
 -17  -2   3 9399.63 1073.30   4
  -2  19   3 10759.2 1172.26   1
   2  17   3 8256.40 1083.09   1
 -19   2   3 7066.81 974.252   4
 -19   2   3 6603.24 1038.31   2
 -17  -2   3 6079.51 1082.36   2
   2  17   6 5159.81 1043.40   1
 -19   2   6 4659.35 1194.74   2
 -17  -2   6 4533.88 1249.13   2
 -17  -2   6 5557.79 1210.98   4
  -2  19   6 4762.40 1039.04   1
 -19   2   6 4136.63 1162.48   4
   2  17   9 5783.30 1217.46   1
 -19   2   9 6424.69 1598.14   2
 -17  -2   9 4888.92 1533.69   2
  -2  19   9 6439.24 1352.19   1
 -19   2   9 8907.77 1707.00   4
 -17  -2   9 5455.87 1532.09   4
 -19   3  -7 4028.06 970.202   4
  -3  19  -7 2826.93 1052.60   3
   3  16  -7 2425.85 951.844   3
 -16  -3  -7 3814.33 902.696   2
 -19   3  -7 3332.98 908.192   3
 -16  -3  -7 3389.27 844.712   3
 -16  -3  -7 2251.93 848.712   4
 -19   3  -7 4526.26 964.598   2
  -3  19  -4 21241.0 1316.72   1
 -19   3  -4 21591.3 1189.59   3
 -16  -3  -4 21826.4 1164.04   3
 -19   3  -4 20190.7 1357.38   4
  16 -19  -4 16307.4 796.444   2
 -16  -3  -4 22850.0 1442.17   4
 -19   3  -4 21350.8 1435.36   2
  16 -19  -4 20250.2 977.606   4
   3  16  -4 21283.1 1397.79   1
 -16  -3  -4 21858.1 1357.49   2
  -3  19  -4 18712.8 1413.28   3
   3  16  -4 19683.4 1409.71   3
 -19   3  -1 3608.28 269.029   3
  19 -16  -1 3313.57 424.087   4
  -3  19  -1 3044.68 477.943   4
  -3  19  -1 4470.41 772.155   1
 -19   3  -1 3335.59 751.962   2
 -19   3  -1 3441.15 685.744   4
  -3  19  -1 4199.06 570.549   2
   3  16  -1 2336.73 518.140   2
 -16  -3  -1 3586.59 698.926   4
   3  16  -1 2718.88 685.759   1
 -16  -3  -1 2812.94 664.353   2
  -3  19   2 16837.6 1351.47   1
 -16  -3   2 15056.5 1228.69   4
 -19   3   2 16768.1 1249.93   4
   3  16   2 19078.7 1426.33   1
 -19   3   2 17059.6 1334.22   2
 -16  -3   2 17674.3 1427.67   2
 -19   3   5 4138.38 1066.43   2
   3  16   5 3227.68 883.280   1
 -16  -3   5 4168.51 1074.85   2
 -19   3   5 2712.82 978.824   4
  -3  19   5 3507.80 914.890   1
 -16  -3   5 1852.63 829.031   4
 -16  -3   8 20558.3 2110.79   2
  -3  19   8 23980.4 1970.64   1
   3  16   8 21706.5 1787.45   1
 -16  -3   8 24026.6 2249.45   4
 -19   3   8 19117.2 2062.31   4
 -19   3   8 21544.6 2105.17   2
  -4  19  -8 2279.00 1127.27   3
   4  15  -8 1409.57 922.441   3
 -19   4  -8 1462.99 910.502   3
 -15  -4  -8 1436.58 870.495   3
 -15  -4  -8 194.877 833.385   4
 -19   4  -8 1189.74 810.680   2
 -15  -4  -8 1337.17 859.552   2
 -19   4  -8 1060.51 894.198   4
  -4  19  -5 16223.4 1432.99   3
   4  15  -5 16397.8 1344.25   3
 -19   4  -5 17174.9 1238.14   3
 -15  -4  -5 16417.1 1165.25   3
 -19   4  -5 16517.5 1264.77   4
 -15  -4  -5 15546.1 1278.94   4
 -19   4  -5 19633.3 1391.97   2
  15 -19  -5 13599.5 734.740   2
   4  15  -5 17374.1 1351.62   1
  15 -19  -5 14819.5 1077.03   4
 -15  -4  -5 14072.2 1164.62   2
  -4  19  -5 14628.3 1080.44   1
 -15  -4  -2 7647.98 880.762   2
 -19   4  -2 8120.43 569.068   3
   4  15  -2 7804.87 932.459   1
  19 -15  -2 7999.84 647.175   4
 -19   4  -2 9046.35 934.398   2
  -4  19  -2 7182.44 633.387   4
  -4  19  -2 10059.4 968.268   1
 -15  -4  -2 5753.41 808.409   4
  -4  19  -2 6946.38 805.795   2
 -19   4  -2 8063.32 855.139   4
 -15  -4   1 6849.77 850.014   4
  -4  19   1 6997.90 937.870   1
   4  15   1 6917.98 579.955   2
 -19   4   1 6306.58 792.708   4
 -19   4   1 8118.04 928.757   2
 -15  -4   1 7389.76 962.651   2
   4  15   1 9212.21 974.364   1
 -19   4   4-438.993 782.170   2
 -15  -4   4 332.780 825.166   2
   4  15   4 655.050 662.040   1
  -4  19   4 1092.74 781.682   1
 -15  -4   4 1573.13 817.888   4
 -19   4   4 172.707 759.895   4
 -19   4   7 5665.16 1273.01   2
  -4  19   7 7004.75 1233.71   1
 -15  -4   7 6079.77 1289.96   2
   4  15   7 6738.89 1127.29   1
 -15  -4   7 8519.11 1399.82   4
 -19   4   7 5070.92 1247.88   4
  -5  19  -9 1101.78 1163.39   3
   5  14  -9 3460.50 1179.23   3
 -19   5  -9 2503.24 1134.43   3
 -14  -5  -9 4750.73 1125.21   3
  19 -14  -9 3065.39 870.483   3
 -14  -5  -9 5269.45 1126.68   2
 -14  -5  -6-97.1885 606.630   2
  -5  19  -6 133.813 798.054   3
   5  14  -6 872.117 766.463   3
 -19   5  -6 829.064 683.264   3
 -14  -5  -6 949.897 602.433   3
 -19   5  -6-985.207 610.433   4
 -14  -5  -6 1206.03 754.731   4
 -19   5  -6 837.896 750.791   2
  14 -19  -6-141.628 388.904   2
  -5  19  -6 826.831 489.802   1
 -19   5  -3 24622.9 1409.42   2
 -14  -5  -3 28485.3 1543.43   4
 -19   5  -3 27727.7 1186.14   3
 -14  -5  -3 26408.4 1131.92   3
 -19   5  -3 26278.4 1421.87   4
  19 -14  -3 24882.2 1126.91   4
  -5  19  -3 23706.3 1022.51   4
 -14  -5  -3 30099.6 1513.10   2
  14 -19  -3 24061.2 790.388   4
  -5  19  -3 24856.7 1345.35   1
   5  14  -3 28868.4 1573.13   1
  -5  19  -3 24616.7 1474.02   3
   5  14  -3 26720.2 1405.39   3
 -19   5   0 3577.99 703.393   2
  -5  19   0 4052.75 384.625   2
 -14  -5   0 2983.07 619.617   4
 -19   5   0 2056.70 560.827   4
  -5  19   0 2925.78 709.795   1
   5  14   0 3027.25 505.805   2
 -14  -5   0 2435.66 633.453   2
   5  14   0 3382.02 709.814   1
 -19   5   3 16116.0 1280.23   4
  -5  19   3 17583.0 1419.42   1
 -14  -5   3 14932.8 1306.92   4
   5  14   3 15674.1 1319.65   1
 -19   5   3 15936.1 1336.27   2
 -14  -5   3 19110.3 1510.94   2
 -19   5   6 917.070 884.863   2
   5  14   6 1094.89 713.061   1
 -14  -5   6 276.001 964.719   2
  -5  19   6 194.450 790.169   1
 -14  -5   6 796.578 823.395   4
 -19   5   6 1007.24 852.255   4
 -19   5   9 7227.38 1556.00   2
   5  14   9 3418.16 990.020   1
 -14  -5   9 4386.31 1385.80   2
 -14  -5   9 1447.97 1196.01   4
 -19   5   9 6137.39 1450.33   4
  -5  19   9 4017.62 1156.83   1
  -6  19  -7 9357.36 1346.58   3
   6  13  -7 9700.15 1190.10   3
 -19   6  -7 8131.01 1135.81   4
 -19   6  -7 10869.5 1345.40   3
 -13  -6  -7 8062.45 1074.99   3
 -13  -6  -7 9672.30 1070.02   2
 -13  -6  -7 7194.31 1098.49   4
  13 -19  -4 18628.2 997.366   4
 -19   6  -4 19920.1 1235.43   3
   6  13  -4 20500.9 1389.95   1
 -13  -6  -4 20600.6 1148.13   3
 -19   6  -4 17743.5 1214.24   4
 -13  -6  -4 21164.7 1365.15   4
 -13  -6  -4 19467.6 1223.90   2
  -6  19  -4 19738.8 1059.60   4
 -19   6  -4 16383.5 1242.43   2
  -6  19  -4 19942.1 1154.09   1
  -6  19  -4 18693.1 1400.38   3
   6  13  -4 19850.8 1258.61   3
 -19   6  -1 3907.49 682.665   2
 -19   6  -1 5241.03 387.055   3
  -6  19  -1 5520.92 812.002   1
   6  13  -1 4049.40 784.141   1
  -6  19  -1 4867.84 403.329   4
  19 -13  -1 4336.86 531.300   4
 -13  -6  -1 6144.59 775.815   4
 -19   6  -1 4850.40 652.578   4
 -13  -6  -1 5401.14 766.066   2
  -6  19  -1 5210.61 615.000   2
  -6  19   2 40128.2 1963.85   1
 -13  -6   2 37647.2 1781.38   4
 -19   6   2 39954.8 1761.31   4
 -19   6   2 39297.1 1842.07   2
 -13  -6   2 45441.0 2093.63   2
   6  13   2 42429.3 1918.58   1
 -19   6   5 1448.79 323.624   3
 -19   6   5 3635.09 963.989   2
 -13  -6   5 2837.01 1016.40   2
   6  13   5 3188.24 813.941   1
  -6  19   5 2053.18 877.791   1
 -13  -6   5 1897.89 781.270   4
 -19   6   5 1794.56 827.079   4
 -19   6   8 11533.5 1656.35   2
  -6  19   8 10573.1 1486.84   1
 -13  -6   8 10671.3 1660.92   2
 -13  -6   8 6610.81 1496.59   4
   6  13   8 12142.8 1368.24   1
 -19   6   8 9194.80 1528.04   4
 -12  -7  -8 3581.80 852.771   2
  -7  19  -8 4262.99 1192.05   3
   7  12  -8 3245.44 978.120   3
 -19   7  -8 1738.42 924.273   3
 -12  -7  -8 2738.17 889.438   3
  19 -12  -8 2738.65 734.623   3
  -7  19  -5 11344.5 1291.42   3
   7  12  -5 14035.1 1163.77   3
  12 -19  -5 8750.21 416.712   2
 -19   7  -5 13893.7 1179.57   3
  -7  19  -5 13320.8 933.455   1
 -12  -7  -5 12469.0 1032.49   3
  12 -19  -5 9274.07 989.347   4
 -19   7  -5 14010.7 1233.18   2
 -12  -7  -5 11817.7 1147.62   4
 -12  -7  -5 12953.6 1040.07   2
 -19   7  -5 10958.6 1056.89   4
  -7  19  -2 7666.43 884.405   2
 -19   7  -2 7042.27 774.082   4
 -19   7  -2 8709.98 684.788   3
  -7  19  -2 8240.72 828.233   1
  -7  19  -2 8954.87 541.984   4
 -12  -7  -2 8091.46 886.118   4
  19 -12  -2 6339.00 665.609   4
 -19   7  -2 7157.82 849.857   2
 -12  -7  -2 6308.75 753.133   2
   7  12  -2 6753.12 887.179   1
   7  12   1 12108.7 1100.72   1
  -7  19   1 11619.5 1129.88   1
   7  12   1 10386.1 763.385   2
 -12  -7   1 10904.2 993.243   4
 -19   7   1 13697.3 1104.87   2
 -12  -7   1 10445.1 1095.83   2
 -19   7   1 11973.4 925.781   4
 -19   7   4 2801.08 266.777   3
 -12  -7   4 7053.69 1129.73   2
  -7  19   4 4643.03 939.489   1
   7  12   4 4365.59 803.152   1
 -12  -7   4 6576.00 1004.30   4
 -19   7   4 4189.49 925.874   4
 -19   7   4 4658.21 971.303   2
 -19   7   7 4089.36 1168.33   2
 -12  -7   7 2180.83 1173.50   2
   7  12   7 2421.09 836.818   1
  -7  19   7 2096.87 947.264   1
 -12  -7   7 3360.00 1106.97   4
 -19   7   7 4177.83 1194.51   4
  -8  19  -9 4757.26 1406.20   3
   8  11  -9 7181.70 1315.71   3
 -19   8  -9 12719.9 1628.54   3
 -11  -8  -9 10240.6 1381.82   3
  19 -11  -9 10482.7 1082.64   3
 -11  -8  -9 10194.6 1253.46   2
 -19   8  -6 2483.73 726.935   4
 -19   8  -6 1434.38 616.063   1
  -8  19  -6 226.089 729.579   3
   8  11  -6 2884.77 753.163   3
 -19   8  -6 1641.46 764.402   3
  -8  19  -6 1498.08 409.153   1
 -11  -8  -6 2875.09 730.508   3
 -11  -8  -6 1832.66 822.098   4
 -11  -8  -6 1628.90 603.112   2
  11 -19  -6 1154.13 261.024   2
  -8  19  -3 3355.76 622.117   1
  -8  19  -3 2148.18 657.832   3
   8  11  -3 2893.28 562.889   3
 -19   8  -3 3301.60 603.737   4
 -11  -8  -3 3152.14 698.838   4
   8  11  -3 3409.98 778.328   1
 -19   8  -3 2936.78 596.768   3
 -19   8  -3 2670.89 601.377   2
  -8  19  -3 2635.88 390.856   4
  11 -19  -3 3485.59 469.472   4
 -11  -8  -3 2979.88 601.660   2
  -8  19   0 3482.40 415.066   2
 -11  -8   0 2843.97 603.422   4
  -8  19   0 4585.56 763.962   1
 -19   8   0 2522.67 257.595   3
   8  11   0 5210.22 813.190   1
  19 -11   0 3551.84 535.401   4
 -19   8   0 3132.36 557.998   4
 -19   8   0 2702.94 626.593   2
 -11  -8   0 3342.99 685.866   2
  -8  19   3 10250.1 1115.10   1
   8  11   3 11399.4 1069.10   1
 -19   8   3 10178.9 1060.14   4
 -11  -8   3 11644.5 1127.32   4
 -19   8   3 9164.75 1043.60   2
  19 -11   3 10417.7 794.613   3
 -11  -8   3 12305.0 1240.76   2
  11 -19   3 10520.0 924.551   1
 -19   8   6 2252.12 562.884   3
 -19   8   6 2847.69 972.112   2
 -11  -8   6 1980.47 1005.06   2
  -8  19   6 2391.63 875.616   1
   8  11   6 2399.87 761.207   1
 -11  -8   6 1107.61 878.388   4
 -19   8   6 2034.19 936.046   4
 -11  -8   9 8472.15 1733.02   2
 -19   8   9 4954.96 1370.98   2
  -8  19   9 6187.85 1302.10   1
 -19   8   9 8175.63 1398.68   1
 -11  -8   9 6201.84 1493.68   4
   8  11   9 6394.37 1133.10   1
 -19   8   9 7666.08 1429.03   4
 -10  -9  -7 8975.29 980.981   2
  -9  19  -7 11335.2 1397.98   3
   9  10  -7 7717.58 1080.39   3
 -19   9  -7 9400.63 1222.34   3
 -10  -9  -7 10791.4 1167.73   3
  19 -10  -7 11470.0 884.577   3
 -10  -9  -7 10583.9 1264.01   4
   9  10  -4 10247.3 916.719   3
 -19   9  -4 11127.8 920.647   4
  -9  19  -4 11774.7 872.259   1
 -19   9  -4 10132.8 1001.71   3
   9  10  -4 11475.2 1141.09   1
 -19   9  -4 7548.58 818.264   1
 -10  -9  -4 10951.6 916.849   3
 -19   9  -4 9911.24 978.853   2
 -10  -9  -4 11497.1 909.370   2
  -9  19  -4 10496.2 774.257   4
 -10  -9  -4 10736.3 1045.27   4
  10 -19  -4 10209.1 914.720   4
  -9  19  -4 10147.5 1097.02   3
 -19   9  -1 8570.27 608.882   3
  -9  19  -1 7709.88 721.556   2
  -9  19  -1 8539.29 909.528   1
 -10  -9  -1 8343.49 857.309   4
 -19   9  -1 7857.64 741.306   4
 -19   9  -1 8718.45 852.141   2
 -10  -9  -1 7264.46 786.949   2
   9  10  -1 9587.34 1012.71   1
  -9  19   2 20391.7 1439.24   1
   9  10   2 20884.5 1382.36   1
 -19   9   2 19921.6 1210.06   4
 -19   9   2 17798.7 1240.04   2
 -10  -9   2 20032.1 1458.66   2
 -10  -9   2 15998.4 1235.57   4
  -9  19   5 9892.35 1260.58   1
   9  10   5 7786.14 990.621   1
 -10  -9   5 8054.18 1317.23   2
 -19   9   5 6795.66 641.677   3
 -10  -9   5 7665.04 1152.65   4
 -19   9   5 9447.92 1190.20   4
 -19   9   5 7287.73 1130.15   2
  -9  19   8 6048.71 1262.44   1
 -19   9   8 4812.49 1185.07   2
 -10  -9   8 3570.22 1389.13   2
   9  10   8 4276.68 916.442   1
 -10  -9   8 2709.31 1295.87   4
 -19   9   8 3825.06 1217.71   4
 -10  19  -8 1563.69 1101.29   3
  10   9  -8 2959.41 847.279   3
 -19  10  -8 3805.84 1048.92   3
  -9 -10  -8 3914.10 968.109   3
  19  -9  -8 4262.97 716.277   3
 -10  19  -5 8011.76 1106.47   3
  10   9  -5 7320.14 850.256   3
 -19  10  -5 7988.04 795.836   1
 -19  10  -5 8932.22 1102.55   3
  -9 -10  -5 8060.40 892.422   3
 -19  10  -5 7897.06 899.943   4
  -9 -10  -5 7095.83 954.579   4
  -9 -10  -5 8333.32 826.570   2
 -10  19  -5 7249.85 847.768   4
   9 -19  -5 8670.24 1009.79   4
 -10  19  -5 8163.03 685.953   1
 -19  10  -2 19883.6 1208.98   2
 -19  10  -2 22407.7 1089.18   3
 -10  19  -2 21449.8 1213.47   1
 -10  19  -2 19889.3 1246.78   2
  10   9  -2 22515.0 1415.40   1
   9 -19  -2 20476.6 619.958   4
 -19  10  -2 20039.0 1098.14   4
  -9 -10  -2 19834.6 1229.64   4
 -10  19  -2 19175.8 517.589   4
  -9 -10  -2 19456.2 1103.38   2
   9 -19  -2 16215.2 660.509   4
 -10  19  -2 18143.5 1189.01   3
  10   9  -2 20589.1 998.592   3
 -19  10   1 7753.28 433.641   3
 -10  19   1 9513.95 1044.29   1
 -10  19   1 5819.08 353.994   2
  10   9   1 8322.24 712.417   3
 -19  10   1 6645.35 360.117   3
  10   9   1 7478.39 921.167   1
  -9 -10   1 10140.4 926.508   4
 -10  19   1 6917.62 311.977   2
 -19  10   1 8704.29 772.405   4
 -19  10   1 8620.72 877.126   2
  -9 -10   1 8968.68 986.979   2
  -9 -10   4 9656.74 1251.93   2
 -19  10   4 8079.12 593.733   3
  10   9   4 10176.6 1039.81   1
  -9 -10   4 8279.69 1119.21   4
   9 -19   4 8490.41 814.871   1
 -19  10   4 8350.47 1028.23   4
 -19  10   4 10244.8 1109.33   2
 -10  19   4 10489.8 1280.05   1
 -19  10   7 8952.65 1333.32   2
  10   9   7 8649.69 1099.46   1
  -9 -10   7 10081.3 1522.53   2
  -9 -10   7 11939.8 1559.97   4
 -19  10   7 10604.2 1437.82   4
 -10  19   7 11073.6 1420.50   1
  11   8  -9 7548.96 1244.01   3
 -11  19  -9 5672.36 1399.62   3
 -19  11  -9 8667.54 1459.26   3
  19  -8  -9 8828.40 1017.29   3
  -8 -11  -9 8442.40 1281.52   3
   8 -19  -9 6554.19 1193.54   3
  -8 -11  -9 6752.31 1010.91   2
 -11  19  -6 2868.27 354.322   1
 -11  19  -6 3578.53 925.474   3
  11   8  -6 3292.77 773.202   3
 -19  11  -6 2247.89 560.516   1
 -19  11  -6 3339.32 895.717   3
  19  -8  -6 3863.66 517.474   3
  -8 -11  -6 1856.77 661.982   3
  -8 -11  -6 3247.32 842.603   4
  -8 -11  -6 3752.57 670.786   2
  11   8  -3 8658.11 1006.25   1
 -19  11  -3 10619.4 914.110   3
 -11  19  -3 10389.5 865.213   1
 -19  11  -3 10626.7 899.615   1
 -11  19  -3 11386.6 593.243   4
   8 -19  -3 10714.3 609.376   4
 -19  11  -3 11069.2 958.279   2
 -19  11  -3 11760.8 861.339   4
  -8 -11  -3 11701.6 1026.88   4
  -8 -11  -3 9293.98 763.779   2
   8 -19  -3 8379.34 722.333   4
 -11  19  -3 9860.82 1008.92   3
  11   8  -3 10465.6 757.275   3
 -11  19   0 4064.69 754.861   1
 -19  11   0 3508.63 424.247   3
  -8 -11   0 3275.20 663.669   2
 -19  11   0 3018.93 608.630   2
 -11  19   0 4173.86 528.841   2
  11   8   0 3744.17 483.434   3
 -11  19   0 3938.02 360.003   2
  -8 -11   0 3391.64 616.283   4
 -19  11   0 3851.09 536.159   4
  11   8   0 4133.28 781.784   1
  19  -8   3 2417.51 459.370   3
 -11  19   3 2699.08 785.604   1
  -8 -11   3 3156.53 856.862   2
 -19  11   3 2371.45 364.374   3
  11   8   3 2556.05 708.889   1
  -8 -11   3 2116.63 701.589   4
 -19  11   3 2989.91 718.525   4
   8 -19   3 2651.01 628.295   1
   8 -19   3 2542.15 496.852   4
 -19  11   3 1291.69 617.642   2
  11   8   6 1266.79 669.943   1
 -19  11   6 644.009 770.109   2
 -11  19   6 136.664 813.692   1
  -8 -11   6 2877.33 1093.83   2
 -19  11   6 1065.04 884.029   4
   8 -19   6 923.851 442.928   1
  -8 -11   6 1474.62 837.469   4
 -11  19   9 7719.81 1376.04   1
  11   8   9 6831.30 1048.82   1
  -8 -11   9 10404.7 1728.32   2
 -19  11   9 6996.17 1324.73   2
 -19  11   9 7044.75 1374.73   1
 -19  11   9 7702.03 1433.46   4
  -8 -11   9 5461.92 1368.05   4
 -12  19  -7 2437.86 941.281   3
  12   7  -7 4265.75 883.176   3
 -19  12  -7 1112.36 860.112   3
  19  -7  -7 847.005 477.204   3
  -7 -12  -7 4168.91 922.713   3
  -7 -12  -7 709.167 715.251   4
  -7 -12  -7 392.682 499.839   2
 -19  12  -7 870.630 274.488   1
  12   7  -4 4378.44 592.345   3
 -19  12  -4 5270.02 852.231   3
 -19  12  -4 5166.98 674.344   4
 -12  19  -4 5080.01 630.128   1
 -19  12  -4 4268.55 717.418   2
  -7 -12  -4 3989.55 578.710   2
 -12  19  -4 5303.58 640.797   4
  -7 -12  -4 5605.87 804.580   4
   7 -19  -4 4763.04 771.935   4
 -19  12  -4 3609.33 609.442   1
 -12  19  -4 5292.88 881.754   3
 -19  12  -1 9114.73 704.528   3
 -19  12  -1 9063.02 834.905   2
 -12  19  -1 9787.88 854.521   2
  12   7  -1 9896.35 1050.41   1
  12   7  -1 9077.82 582.012   3
 -19  12  -1 9508.42 722.138   4
  -7 -12  -1 9421.72 831.291   4
   7 -19  -1 8976.68 442.844   4
  -7 -12  -1 10858.8 873.646   2
 -12  19  -1 10405.8 964.099   1
  -7 -12   2 7822.72 1055.27   2
   7 -19   2 7091.00 583.229   4
  12   7   2 5750.07 690.834   3
 -19  12   2 6374.21 456.653   3
  12   7   2 8306.70 928.092   1
  -7 -12   2 7847.74 895.407   4
 -19  12   2 6647.19 803.592   2
 -19  12   2 6729.41 778.112   4
 -12  19   2 4998.00 329.076   2
 -12  19   2 8967.68 1134.09   1
  19  -7   2 8882.59 580.950   3
  -7 -12   5 9230.77 1329.93   2
 -19  12   5 8905.52 768.015   3
  12   7   5 12304.0 1190.06   1
   7 -19   5 9180.31 830.104   1
  -7 -12   5 13976.4 1373.78   4
 -19  12   5 12890.0 1267.93   4
 -12  19   5 13392.8 1395.99   1
   7 -19   5 12183.5 1070.23   4
 -19  12   5 10555.8 1174.63   2
 -12  19   8 4435.65 1161.34   1
  12   7   8 3060.27 897.568   1
 -19  12   8 1672.13 982.371   2
  -7 -12   8 1659.96 1140.28   2
 -19  12   8 2535.35 1070.00   1
  -7 -12   8 3856.49 1200.77   4
 -19  12   8 2984.89 1091.14   4
 -13  19  -8 15771.1 1728.47   3
 -19  13  -8 13922.9 1582.84   3
  13   6  -8 11831.0 1221.32   3
  19  -6  -8 15500.7 1102.13   3
  -6 -13  -8 13878.9 1425.98   3
  -6 -13  -8 13764.0 1104.60   2
 -13  19  -5 1475.34 404.456   1
 -13  19  -5 1560.09 756.380   3
  13   6  -5 2327.89 592.895   3
 -19  13  -5 1812.76 758.385   3
 -19  13  -5 908.631 461.764   1
 -19  13  -5 1262.11 521.510   4
  -6 -13  -5 1344.72 610.151   4
  -6 -13  -5 1957.61 511.853   2
 -13  19  -5 1147.89 619.753   4
 -13  19  -2 41784.1 1664.98   1
 -19  13  -2 39874.4 1494.94   3
  13   6  -2 41774.7 1983.61   1
 -13  19  -2 36586.8 1655.38   2
 -19  13  -2 42097.6 1636.93   2
   6 -19  -2 41409.0 1130.73   4
 -19  13  -2 37478.6 1323.39   4
  -6 -13  -2 37597.9 1604.90   4
  -6 -13  -2 38622.7 1402.56   2
 -13  19  -2 39378.1 1687.01   3
  13   6  -2 37517.0 1117.03   3
  13   6   1 4602.43 549.474   3
 -19  13   1 4399.99 664.007   2
 -13  19   1 4000.02 391.731   2
  -6 -13   1 4831.64 722.627   4
 -19  13   1 4506.12 610.197   4
  13   6   1 3924.42 758.926   1
   6 -19   1 4451.36 468.899   4
 -13  19   1 5348.41 892.208   1
 -19  13   1 4525.79 476.874   3
  -6 -13   1 6241.95 909.230   2
  -6 -13   4 18905.7 1619.58   2
 -13  19   4 11791.0 613.963   2
 -19  13   4 14299.4 867.233   3
  13   6   4 18906.8 1365.36   1
  -6 -13   4 17525.6 1395.18   4
   6 -19   4 15327.8 1107.21   1
 -19  13   4 16486.9 1272.47   4
 -13  19   4 19391.4 1587.94   1
   6 -19   4 15444.1 1070.12   4
 -19  13   4 14660.2 1245.96   2
 -19  13   7 11051.4 1340.78   2
  -6 -13   7 9134.93 1362.60   4
 -19  13   7 10749.4 1464.31   1
  13   6   7 7824.25 1037.76   1
  -6 -13   7 6361.80 1348.93   2
 -13  19   7 10931.5 1443.16   1
 -19  13   7 8759.15 1256.75   4
   6 -19   7 9202.96 1189.46   4
 -14  19  -9 2207.81 1089.29   3
 -19  14  -9 5642.10 1379.20   3
  14   5  -9 3180.20 911.876   3
  -5 -14  -9 5995.51 1185.09   3
  19  -5  -9 4128.65 834.043   3
   5 -19  -9 3897.11 1095.89   3
  -5 -14  -9 3657.02 773.790   2
 -14  19  -6 616.458 771.289   3
 -14  19  -6-25.1578 133.465   1
 -19  14  -6 902.934 801.129   3
  14   5  -6 363.557 551.470   3
  19  -5  -6 37.6285 326.344   3
  -5 -14  -6 211.111 596.106   3
  -5 -14  -6 1808.93 696.930   4
  -5 -14  -6 292.437 453.204   2
 -19  14  -6-41.2313 295.352   1
 -14  19  -3 14937.8 967.819   1
  14   5  -3 13905.6 719.690   3
 -19  14  -3 14770.7 1084.41   3
 -19  14  -3 14832.6 1089.62   2
   5 -19  -3 15769.2 831.664   4
  -5 -14  -3 14935.6 1095.92   4
 -14  19  -3 13984.3 700.951   4
  -5 -14  -3 14222.6 830.405   2
 -19  14  -3 14261.5 859.904   4
 -14  19  -3 14930.6 1158.86   3
 -14  19   0 3378.87 760.715   1
  14   5   0 3093.41 417.702   3
 -14  19   0 3026.48 418.133   2
  14   5   0 2599.77 763.672   1
  -5 -14   0 3601.32 601.482   4
 -19  14   0 4432.72 511.343   4
   5 -19   0 2715.09 388.782   4
 -19  14   0 2846.58 559.578   2
  -5 -14   0 4074.74 690.667   2
 -19  14   0 2728.46 461.405   3
  19  -5   3 22531.5 1049.39   3
  -5 -14   3 23521.9 1660.23   2
 -19  14   3 16461.6 881.323   3
 -19  14   3 24614.9 1374.46   4
 -14  19   3 23832.6 1665.83   1
  -5 -14   3 21964.7 1403.31   4
 -19  14   3 20503.0 1321.80   2
   5 -19   3 21022.8 1173.21   4
  14   5   3 20434.5 1377.08   1
 -14  19   3 20790.5 839.878   2
 -14  19   6 1258.63 883.991   1
   5 -19   6-35.1198 546.502   1
 -19  14   6 1163.98 824.910   2
  -5 -14   6-887.651 1054.76   2
 -14  19   6 243.039 476.366   2
  14   5   6-29.8599 609.458   1
  -5 -14   6 627.747 823.681   4
 -19  14   6 1915.34 1036.62   1
 -19  14   6 1559.05 841.135   4
   5 -19   6 790.765 692.860   4
 -19  14   9 3322.61 1189.40   1
 -14  19   9 3265.88 1188.62   1
 -19  14   9 2368.23 996.424   2
  -5 -14   9 2436.13 1225.07   2
  14   5   9 1819.81 813.127   1
  -5 -14   9 2753.37 1150.75   4
 -19  14   9 2837.26 1021.10   4
 -15  19  -7 6257.72 1246.90   3
 -19  15  -7 8044.13 1210.17   3
  15   4  -7 6152.12 845.417   3
  19  -4  -7 8153.15 756.740   3
  -4 -15  -7 6767.04 1063.35   3
  -4 -15  -7 5329.57 668.450   2
 -15  19  -4 1432.71 734.573   3
 -19  15  -4 113.523 557.078   3
   4 -19  -4 620.363 418.925   4
  15   4  -4 249.872 346.855   3
 -19  15  -4 287.880 490.048   1
 -15  19  -4 339.825 420.615   1
  -4 -15  -4 1226.33 555.157   4
 -19  15  -4 945.799 477.000   1
 -19  15  -4 442.745 420.839   4
  -4 -15  -4-131.992 342.666   2
 -15  19  -4 675.370 493.181   4
 -19  15  -1 9819.93 816.262   2
  -4 -15  -1 9407.31 808.380   4
  15   4  -1 8713.89 1039.42   1
  15   4  -1 7766.04 469.413   3
 -15  19  -1 9477.01 985.924   1
 -15  19  -1 8648.75 678.552   2
   4 -19  -1 8954.77 593.824   4
 -19  15  -1 9243.30 622.028   4
  -4 -15  -1 9329.59 795.357   2
  15   4  -1 9142.36 492.440   3
 -15  19  -1 10055.4 880.555   3
 -19  15  -1 9023.78 753.053   3
  -4 -15   2 5229.13 941.433   2
   4 -19   2 8179.35 753.457   4
  15   4   2 7724.03 758.150   3
  15   4   2 7409.35 927.691   1
 -19  15   2 6558.40 590.975   3
 -19  15   2 8232.92 1150.19   1
 -15  19   2 9767.58 1119.84   1
 -19  15   2 6263.23 732.572   2
 -15  19   2 6731.74 561.018   2
 -19  15   2 7000.98 743.479   4
  -4 -15   2 6824.89 828.068   4
  19  -4   2 7760.32 563.556   3
 -15  19   5 13869.9 924.194   2
  -4 -15   5 16238.2 1671.39   2
 -19  15   5 16378.5 1618.19   1
 -15  19   5 19094.3 1696.36   1
  -4 -15   5 13542.6 1345.00   4
 -19  15   5 16052.0 1312.84   4
  15   4   5 16208.8 1284.76   1
   4 -19   5 14801.7 1261.42   4
 -19  15   5 14304.0 1239.40   2
 -15  19   8 664.295 1007.25   1
  15   4   8 733.021 681.857   1
 -19  15   8-403.187 788.832   2
  -4 -15   8 2004.37 1113.82   2
 -15  19   8 1458.31 720.403   2
 -19  15   8 315.107 949.653   1
  -4 -15   8 1960.84 1091.23   4
 -19  15   8 626.846 1003.61   4
   4 -19   8 2442.09 1056.42   4
 -16  19  -8 22843.1 2095.59   3
 -19  16  -8 26191.4 2146.81   3
  16   3  -8 26458.7 1566.82   3
  19  -3  -8 27309.2 1389.81   3
  -3 -16  -8 22633.2 1764.03   3
  -3 -16  -8 23006.1 1238.92   2
 -19  16  -5 3968.57 585.568   1
 -16  19  -5 2506.69 843.035   3
 -16  19  -5 2730.87 473.649   1
 -19  16  -5 3626.79 917.990   3
  16   3  -5 3011.74 539.826   3
  19  -3  -5 2331.12 259.255   3
   3 -19  -5 3879.89 672.702   4
  -3 -16  -5 2377.32 687.417   4
  -3 -16  -5 2419.33 463.855   2
 -19  16  -5 3559.01 531.200   1
 -16  19  -5 2170.59 735.467   4
 -19  16  -2 17674.2 1119.20   3
 -19  16  -2 19079.6 1119.16   2
 -19  16  -2 20061.4 1272.58   1
  -3 -16  -2 19190.2 1134.51   4
   3 -19  -2 17675.5 906.605   4
 -16  19  -2 13801.5 408.734   4
 -16  19  -2 20455.2 1244.26   1
 -19  16  -2 18673.3 849.404   4
  -3 -16  -2 18308.1 945.264   2
 -16  19  -2 14840.8 1102.94   3
  -3 -16   1 4276.33 813.637   2
  16   3   1 3052.66 482.800   3
   3 -19   1 3585.90 592.689   2
 -16  19   1 5055.76 938.692   1
  -3 -16   1 3715.95 647.434   4
 -16  19   1 2418.45 457.852   2
 -19  16   1 3936.25 852.146   1
   3 -19   1 2629.86 477.873   4
  16   3   1 4372.69 838.233   1
 -19  16   1 2837.47 491.594   4
 -19  16   1 2263.73 527.143   2
  19  -3   1 2770.13 273.013   3
 -16  19   4 16977.8 994.051   2
  16   3   4 19523.0 1403.49   1
  -3 -16   4 19467.2 1617.20   2
 -19  16   4 21779.0 1784.57   1
   3 -19   4 19030.2 1536.31   2
 -16  19   4 20512.0 1720.14   1
   3 -19   4 19390.0 1327.84   4
 -19  16   4 21408.9 1331.05   4
 -19  16   4 16763.3 1255.54   2
  -3 -16   4 20802.6 1469.64   4
 -16  19   7 3619.66 1106.00   1
 -19  16   7 4186.33 1051.90   2
 -16  19   7 2299.79 733.846   2
  -3 -16   7 4940.87 1248.01   2
  16   3   7 2776.54 835.414   1
 -19  16   7 4604.97 1130.23   1
  -3 -16   7 2900.50 967.015   4
   3 -19   7 4202.02 1069.42   4
 -19  16   7 5138.71 1088.94   4
 -17  19  -9 6230.16 1400.97   3
 -19  17  -9 6719.66 1525.88   3
  17   2  -9 6418.98 1000.21   3
  -2 -17  -9 7676.94 1282.55   3
 -19  17  -6 5302.02 1072.07   3
 -17  19  -6 4610.09 1017.85   3
  17   2  -6 4704.37 646.702   3
  19  -2  -6 5468.71 521.139   3
 -17  19  -6 2719.67 286.624   1
  -2 -17  -6 5365.52 900.049   4
  -2 -17  -6 4773.80 526.284   2
 -19  17  -6 3982.97 394.839   1
 -17  19  -3 10167.3 1049.77   3
 -19  17  -3 8161.99 940.948   3
 -17  19  -3 8617.58 514.380   4
 -19  17  -3 8943.42 650.509   4
   2 -19  -3 11289.7 851.017   4
 -19  17  -3 8299.36 856.462   1
  -2 -17  -3 8675.86 855.773   4
 -19  17  -3 9717.27 900.619   2
 -17  19  -3 9933.59 922.359   1
 -17  19  -3 8176.61 677.431   4
  -2 -17  -3 8040.98 626.451   2
 -19  17   0 3261.46 513.958   3
  -2 -17   0 4700.07 730.456   2
  17   2   0 3136.61 343.655   3
   2 -19   0 3130.22 518.172   2
 -19  17   0 3495.19 534.505   2
 -19  17   0 4267.57 887.604   1
  -2 -17   0 3624.78 600.964   4
   2 -19   0 3583.94 527.383   4
 -19  17   0 3847.66 443.697   4
 -17  19   0 4040.02 506.960   2
 -17  19   0 3324.61 750.144   1
  19  -2   3 9449.24 798.999   3
  17   2   3 11789.3 988.918   3
  -2 -17   3 10122.2 1177.03   2
   2 -19   3 9884.66 1077.63   2
  17   2   3 10789.5 1143.94   1
 -17  19   3 12290.6 1357.28   1
  -2 -17   3 12464.1 1123.79   4
   2 -19   3 8713.09 898.860   4
 -19  17   3 9207.59 899.087   2
 -19  17   3 9237.91 864.741   4
 -17  19   3 9183.01 761.725   2
 -19  17   3 10965.8 1277.18   1
  17   2   6 4569.37 904.636   1
 -19  17   6 5545.66 983.231   2
 -19  17   6 5972.80 1220.98   1
 -17  19   6 3991.92 768.848   2
   2 -19   6 6267.78 1332.28   2
  -2 -17   6 4960.07 1280.35   2
  -2 -17   6 3809.59 1038.06   4
   2 -19   6 2721.41 908.732   4
 -19  17   6 4718.68 946.552   4
 -17  19   6 5265.11 1253.36   1
  17   2   9 2667.46 856.769   1
 -17  19   9 3015.82 1188.94   1
 -19  17   9 2451.43 974.334   2
 -17  19   9 5319.84 1056.36   2
  -2 -17   9 2970.96 1423.84   2
  -2 -17   9 4760.60 1264.25   4
   2 -19   9 2923.30 1163.42   4
 -19  17   9 4496.34 1281.28   1
 -18  19  -7-55.6923 873.776   3
 -19  18  -7 3118.71 990.709   3
  18   1  -7 1494.26 546.477   3
  19  -1  -7 1631.83 518.626   3
  -1 -18  -7 2147.04 848.814   4
  -1 -18  -7 971.207 419.001   2
 -19  18  -4 4975.64 873.627   3
 -18  19  -4 3293.50 613.264   1
 -18  19  -4 2631.69 816.591   3
 -18  19  -4 4300.51 522.149   4
 -19  18  -4 3214.20 497.718   4
  -1 -18  -4 3775.71 677.835   4
   1 -19  -4 2777.20 585.725   4
 -19  18  -4 4192.26 636.155   1
  -1 -18  -4 2594.95 353.635   2
 -18  19  -4 2186.98 640.300   4
 -19  18  -4 2527.85 687.653   4
 -18  19  -1 3585.17 610.697   3
  -1 -18  -1 5337.07 667.114   2
   1 -19  -1 4375.29 482.165   2
 -18  19  -1 5096.24 638.318   2
 -19  18  -1 5969.74 678.786   2
  -1 -18  -1 5055.26 625.787   4
   1 -19  -1 4195.74 543.813   4
 -18  19  -1 6606.36 910.874   1
 -19  18  -1 4447.97 384.646   4
 -18  19  -1 2632.87 217.685   4
 -19  18  -1 5776.42 858.982   1
 -18  19  -1 2167.98 233.428   4
 -19  18  -1 4033.62 639.295   3
  18   1   2 2801.58 690.726   1
  19  -1   2 2025.68 440.254   3
  18   1   2 1781.14 491.891   3
  -1 -18   2 3377.58 794.732   2
   1 -19   2 2784.14 725.149   2
  -1 -18   2 2463.52 605.486   4
 -19  18   2 3220.12 897.318   1
   1 -19   2 1381.09 538.187   4
 -18  19   2 1452.14 762.801   1
 -19  18   2 2456.66 555.304   2
 -19  18   2 1863.90 459.814   4
 -18  19   2 2406.23 515.250   2
 -18  19   2 2007.27 350.516   4
 -19  18   5-18.3619 571.343   2
  18   1   5 843.747 647.950   1
 -18  19   5 100.199 583.136   2
  -1 -18   5 893.194 833.240   2
  19  -1   5 610.768 641.642   1
   1 -19   5 143.566 744.966   2
 -19  18   5 1003.28 818.309   1
  -1 -18   5 676.440 692.296   4
   1 -19   5 896.828 698.711   4
 -18  19   5-37.2572 789.528   1
 -19  18   5-271.083 605.012   4
 -18  19   8 1289.35 1126.37   1
  19  -1   8 1502.21 774.546   1
 -19  18   8 68.4982 818.784   2
 -18  19   8 266.774 758.791   2
  18   1   8 2047.02 795.187   1
  -1 -18   8 1720.29 1143.92   2
  -1 -18   8 315.883 929.325   4
   1 -19   8 1413.02 968.786   4
 -19  18   8 252.689 1050.35   1
 -19  19  -8 26188.3 2193.44   3
 -19  19  -5 839.973 684.054   3
 -19  19  -5-71.7882 434.371   1
   0 -19  -5 78.1254 197.301   2
  19   0  -5 342.299 199.277   3
   0 -19  -5-5.18606 546.084   4
 -19  19  -2 31540.4 1391.02   2
 -19  19  -2 33855.5 1638.23   1
 -19  19  -2 28108.3 818.708   4
   0 -19  -2 31528.3 1352.07   4
 -19  19  -2 30366.4 1528.96   3
  19   0   1 564.836 281.241   3
   0 -19   1 870.876 604.294   2
   0 -19   1 61.2666 455.436   4
 -19  19   1 433.116 452.957   2
 -19  19   1 285.734 676.057   1
 -19  19   1 613.605 285.737   4
  19   0   4 1544.37 720.767   1
 -19  19   4 1316.42 601.178   2
 -19  19   4 3142.65 941.810   1
   0 -19   4 2216.68 900.089   2
   0 -19   4 2527.63 770.647   4
 -19  19   4 2948.71 644.851   4
  19   0   7 367.922 683.009   1
 -19  19   7 39.4045 691.850   2
   0 -19   7 33.9905 945.497   2
   0 -19   7 88.0283 912.551   4
 -19  19   7 193.221 1014.87   1
   0  20  -8 4959.91 1408.73   3
 -20   0  -8 6433.59 1190.83   3
 -20   0  -8 4123.39 1072.40   4
 -20   0  -8 6165.91 1151.82   2
   0  20  -5-121.577 835.334   3
 -20   0  -5 1243.25 585.535   3
   0  20  -5 252.167 658.178   1
 -20   0  -5 73.8943 629.965   2
 -20   0  -5-450.048 661.447   4
   0  20  -2 5984.95 908.846   1
 -20   0  -2 4439.72 854.184   4
  20 -20  -2 3222.55 334.421   4
 -20   0  -2 4741.27 851.792   2
   0  20   1-239.497 279.222   2
   0  20   1-118.402 606.769   1
 -20   0   1 435.230 599.739   4
 -20   0   1-488.618 722.715   2
   0  20   4 812.905 811.993   1
 -20   0   4 2332.00 918.406   2
 -20   0   4 1062.50 794.921   4
 -20   0   7 708.945 1144.85   2
 -20   0   7-863.825 1038.49   4
   0  20   7 358.212 903.854   1
   1  19  -6 7333.83 1206.06   3
  -1  20  -6 4195.29 1077.37   3
   1  19  -6 7319.12 1009.53   1
 -20   1  -6 8294.32 1027.43   3
 -19  -1  -6 8651.37 1014.26   3
  -1  20  -6 6867.01 967.835   1
 -20   1  -6 6484.26 1097.69   4
 -19  -1  -6 9239.86 1181.24   4
 -20   1  -6 7532.08 1176.57   2
 -19  -1  -6 8889.55 1134.82   2
  -1  20  -3 3341.18 772.160   3
  -1  20  -3 4366.89 858.774   1
   1  19  -3 5442.78 898.842   1
 -20   1  -3 4825.13 547.394   3
 -19  -1  -3 5639.29 590.235   3
  20 -19  -3 3368.27 484.496   4
  19 -20  -3 5237.97 489.832   4
 -19  -1  -3 4230.61 869.722   2
 -20   1  -3 4007.92 797.497   2
 -20   1  -3 4890.27 881.826   4
 -19  -1  -3 5055.14 893.965   4
   1  19  -3 4329.50 822.743   3
   1  19   0 7937.08 645.511   2
 -19  -1   0 6985.95 901.027   4
 -20   1   0 6435.42 862.858   4
  -1  20   0 7066.69 560.610   2
  -1  20   0 8972.88 1076.87   1
 -20   1   0 7296.04 979.780   2
 -19  -1   0 6513.82 957.715   2
   1  19   0 7889.90 1020.80   1
  -1  20   3 6803.00 1068.52   1
   1  19   3 5870.66 1023.87   1
 -19  -1   3 5422.68 988.050   4
 -20   1   3 6627.08 1039.19   4
 -20   1   3 7127.85 1151.47   2
 -19  -1   3 5870.78 1093.96   2
   1  19   6 4349.40 1058.32   1
 -20   1   6 5282.98 1270.07   2
 -19  -1   6 2010.22 1178.00   2
 -19  -1   6 4136.77 1137.95   4
 -20   1   6 4094.73 1098.24   4
  -1  20   6 4871.98 1094.99   1
  -2  20  -7 4533.50 1161.26   3
   2  18  -7 6066.69 1194.12   3
 -20   2  -7 6290.41 1075.07   3
 -18  -2  -7 7283.62 1057.33   3
 -20   2  -7 5584.14 1147.43   4
 -18  -2  -7 4289.12 1042.62   4
 -20   2  -7 4709.44 995.325   2
 -18  -2  -7 5684.27 999.842   2
 -20   2  -4 267.886 589.146   4
  -2  20  -4 502.264 596.559   3
   2  18  -4 1838.99 690.053   3
   2  18  -4 1534.71 640.350   1
  -2  20  -4 1567.27 641.092   1
 -20   2  -4 1755.92 524.058   3
 -18  -2  -4 2307.71 548.669   3
 -18  -2  -4 1143.00 658.124   4
  20 -18  -4 768.099 468.751   4
  18 -20  -4 1601.02 452.730   4
 -20   2  -4 1629.42 699.568   2
 -18  -2  -4 1396.31 616.532   2
   2  18  -1 28956.2 1668.87   1
 -20   2  -1 26092.3 1561.75   2
  -2  20  -1 23271.1 1131.61   4
 -18  -2  -1 27201.3 1512.34   4
 -20   2  -1 28033.8 1519.64   4
 -18  -2  -1 24588.4 1519.08   2
   2  18  -1 24414.4 1181.92   2
  -2  20  -1 29524.7 1659.49   1
  -2  20  -1 26894.7 1158.69   2
  -2  20   2 8231.16 1121.20   1
 -18  -2   2 6309.63 981.661   4
 -20   2   2 6386.33 986.250   4
   2  18   2 6368.17 1036.38   1
 -20   2   2 6984.68 1038.58   2
 -18  -2   2 7729.95 1072.56   2
  -2  20   5 13271.9 1445.82   1
 -18  -2   5 12293.6 1573.87   4
 -20   2   5 15248.8 1598.76   4
   2  18   5 13899.4 1467.98   1
 -20   2   5 12616.7 1512.45   2
 -18  -2   5 12215.4 1558.71   2
   2  18   8 5060.16 1202.78   1
 -20   2   8 1534.52 1199.33   2
 -18  -2   8 2709.07 1244.50   2
  -2  20   8 1676.45 1015.66   1
 -18  -2   8 2485.07 1182.04   4
 -20   2   8 2917.58 1264.28   4
  -3  20  -8 1247.68 1050.23   3
   3  17  -8 3465.43 1095.11   3
 -20   3  -8 4584.13 1095.16   4
 -20   3  -8 3111.52 960.281   3
 -17  -3  -8 4257.79 984.865   3
 -20   3  -8 5164.61 1147.23   2
 -17  -3  -8 2622.91 977.817   4
 -17  -3  -8 4543.56 987.453   2
  -3  20  -5 751.968 736.835   3
   3  17  -5 1358.09 719.892   3
   3  17  -5 2043.20 794.032   1
 -20   3  -5 792.989 591.285   3
 -17  -3  -5 1172.29 561.430   3
 -20   3  -5 2242.78 708.342   4
  17 -20  -5 626.445 405.432   2
 -20   3  -5 1555.95 701.340   2
 -17  -3  -5 124.620 698.900   4
 -17  -3  -5 740.771 656.283   2
  -3  20  -5 1447.36 628.272   1
  -3  20  -2 5658.92 791.005   2
   3  17  -2 8024.20 968.870   1
 -20   3  -2 7145.36 506.680   3
  20 -17  -2 5958.51 567.157   4
  -3  20  -2 4798.86 627.977   4
 -17  -3  -2 5668.19 838.536   4
 -20   3  -2 6753.74 867.338   4
 -20   3  -2 7080.34 955.476   2
 -17  -3  -2 5468.29 823.459   2
  -3  20  -2 6490.45 875.466   1
 -20   3   1 2427.85 649.010   4
   3  17   1 911.260 375.809   2
   3  17   1 1333.01 624.712   1
  -3  20   1 636.325 141.501   2
 -17  -3   1 1015.12 578.260   4
 -20   3   1 322.365 576.921   2
 -17  -3   1 1599.32 701.848   2
  -3  20   1 2246.67 705.684   1
  -3  20   4 8242.13 1230.98   1
 -17  -3   4 10553.0 1238.85   4
 -20   3   4 10512.4 1229.61   4
 -20   3   4 7239.63 1172.08   2
 -17  -3   4 9068.19 1313.92   2
   3  17   4 8684.99 1154.80   1
   3  17   7 1099.97 846.854   1
 -20   3   7 1897.89 1077.79   2
 -17  -3   7 1634.02 1135.22   2
  -3  20   7 2498.56 1012.76   1
 -17  -3   7 739.478 910.563   4
 -20   3   7 2158.08 1108.89   4
 -16  -4  -9 4704.98 1297.93   4
 -20   4  -9 5215.87 1181.45   2
  -4  20  -9 5943.24 1475.14   3
   4  16  -9 3362.77 1293.37   3
 -20   4  -9 7331.52 1356.78   3
 -16  -4  -9 4553.15 1089.94   3
 -20   4  -9 5160.46 1250.04   4
 -16  -4  -9 4463.67 1062.15   2
  -4  20  -6 10434.5 1361.86   3
   4  16  -6 9764.37 1222.76   3
  -4  20  -6 12389.0 1045.29   1
 -20   4  -6 16424.1 1372.57   3
 -16  -4  -6 15309.8 1268.46   3
 -20   4  -6 12548.7 1256.96   4
 -16  -4  -6 12867.9 1318.97   4
 -20   4  -6 13493.7 1310.91   2
 -16  -4  -6 12651.2 1222.45   2
  -4  20  -3 2553.56 758.298   3
   4  16  -3 2238.75 635.925   3
   4  16  -3 2352.76 676.956   1
 -20   4  -3 2976.73 516.235   3
 -16  -4  -3 2542.62 479.028   3
  -4  20  -3 3497.57 711.881   1
 -20   4  -3 1958.51 648.344   4
 -16  -4  -3 2276.29 670.162   4
  -4  20  -3 2142.73 532.616   4
  20 -16  -3 1669.57 469.996   4
  16 -20  -3 1625.01 277.365   4
 -20   4  -3 3043.84 753.778   2
 -16  -4  -3 3071.15 688.624   2
   4  16   0 14818.0 1255.91   1
  -4  20   0 15699.5 1301.22   1
 -20   4   0 14652.4 1113.54   4
   4  16   0 14384.4 871.748   2
 -20   4   0 15537.8 1214.97   2
  -4  20   0 15492.0 657.071   2
 -16  -4   0 14250.6 1119.99   4
 -16  -4   0 13747.2 1175.73   2
 -20   4   3 4361.83 996.520   2
 -16  -4   3 4742.08 1017.11   2
  -4  20   3 5977.24 1016.24   1
 -16  -4   3 3981.06 852.223   4
   4  16   3 5624.63 960.599   1
 -20   4   3 4710.85 875.104   4
 -16  -4   6 6904.74 1318.07   2
 -20   4   6 2988.86 1041.55   2
   4  16   6 4342.70 1005.93   1
  -4  20   6 3911.66 1109.79   1
 -16  -4   6 3747.26 1109.74   4
 -20   4   6 3614.07 1080.37   4
   4  16   9 2933.38 981.141   1
 -20   4   9 3574.10 1348.68   2
 -16  -4   9 1118.97 1146.04   2
  -4  20   9 3258.97 1151.03   1
 -16  -4   9 3589.81 1395.55   4
 -20   4   9 2438.65 1323.05   4
  -5  20  -7 9991.92 1538.83   3
   5  15  -7 15052.5 1520.78   3
 -20   5  -7 13137.0 1411.95   2
 -20   5  -7 16412.1 1483.28   3
 -15  -5  -7 14164.2 1344.64   3
 -20   5  -7 14775.0 1424.43   4
 -15  -5  -7 16133.5 1577.06   4
 -15  -5  -7 14138.6 1325.36   2
   5  15  -4 2856.03 729.556   3
  -5  20  -4 4767.90 753.759   1
   5  15  -4 4450.65 882.286   1
 -20   5  -4 4039.19 693.398   3
 -15  -5  -4 3564.94 586.997   3
 -20   5  -4 3778.77 735.617   4
 -20   5  -4 3768.38 755.874   2
  15 -20  -4 4550.95 561.256   4
 -15  -5  -4 3619.92 720.800   2
 -15  -5  -4 4645.46 895.081   4
  -5  20  -4 5675.42 956.362   3
   5  15  -1 28165.2 1600.13   1
 -15  -5  -1 25138.6 1442.32   4
 -20   5  -1 19893.4 563.825   3
  -5  20  -1 28657.3 1575.84   1
  -5  20  -1 22725.4 860.362   4
  20 -15  -1 22650.3 979.014   4
 -20   5  -1 24498.1 1343.95   4
 -20   5  -1 23968.5 1448.57   2
 -15  -5  -1 23677.5 1397.24   2
  -5  20  -1 26796.1 1146.14   2
 -15  -5   2 3891.89 871.711   2
   5  15   2 2173.47 738.243   1
  -5  20   2 1730.16 754.687   1
 -15  -5   2 3448.42 769.212   4
 -20   5   2 3037.46 694.248   4
 -20   5   2 1588.66 699.735   2
 -15  -5   5 22752.3 1930.00   2
  -5  20   5 23913.7 1768.58   1
   5  15   5 21592.8 1605.53   1
 -15  -5   5 18782.3 1664.63   4
 -20   5   5 22358.7 1766.41   4
 -20   5   5 20394.9 1762.30   2
  -5  20   8 2159.82 1037.57   1
 -20   5   8 4226.12 1376.29   2
   5  15   8 2776.91 947.810   1
 -15  -5   8 3184.88 1327.16   2
 -15  -5   8 2185.54 1124.84   4
 -20   5   8 1329.63 1091.90   4
  -6  20  -8 1112.48 980.415   3
   6  14  -8-448.452 913.723   3
 -20   6  -8 3625.18 1058.97   3
 -14  -6  -8 1176.38 782.842   3
 -20   6  -8 79.2052 832.623   4
 -14  -6  -8 2077.75 960.417   4
 -14  -6  -8 1254.22 796.315   2
  -6  20  -5 7224.86 1056.93   3
   6  14  -5 5865.87 923.495   3
  14 -20  -5 4310.75 368.121   2
 -20   6  -5 7110.66 919.267   3
  -6  20  -5 6519.86 792.604   1
 -14  -6  -5 5211.12 782.263   3
 -20   6  -5 7395.32 947.531   4
 -14  -6  -5 7520.97 1000.10   4
 -20   6  -5 5901.36 963.832   2
 -14  -6  -5 5232.44 804.080   2
   6  14  -5 5902.89 907.756   1
  14 -20  -5 5480.12 795.095   4
  -6  20  -2 18848.3 1213.88   2
  -6  20  -2 19855.9 854.381   4
 -20   6  -2 18971.8 852.701   3
 -20   6  -2 17106.4 1205.48   2
  -6  20  -2 17806.7 1239.70   1
  20 -14  -2 16642.1 952.104   4
 -14  -6  -2 17673.0 1265.29   4
 -20   6  -2 19183.1 1206.61   4
   6  14  -2 21120.7 1406.35   1
 -14  -6  -2 18250.8 1219.09   2
   6  14   1 6903.73 921.960   1
  -6  20   1 6158.29 902.826   1
 -14  -6   1 7017.00 944.476   4
   6  14   1 6798.10 632.432   2
 -20   6   1 5212.25 749.538   4
 -20   6   1 7142.03 932.773   2
 -14  -6   1 7749.88 994.963   2
 -20   6   4 2607.54 900.025   2
 -14  -6   4 3863.52 1012.02   2
  -6  20   4 4575.12 1033.89   1
   6  14   4 3721.85 851.569   1
 -14  -6   4 3721.11 912.713   4
 -20   6   4 4438.00 930.942   4
 -20   6   7 5055.22 1206.32   2
 -20   6   7 5637.81 1272.71   4
 -14  -6   7 4998.67 1297.16   2
  -6  20   7 6048.02 1184.97   1
   6  14   7 5766.09 1096.49   1
 -14  -6   7 3411.83 1196.85   4
  -7  20  -9 2265.02 1291.91   3
   7  13  -9 4390.92 1222.72   3
 -20   7  -9 4879.62 1196.57   3
  20 -13  -9 4469.75 935.369   3
 -13  -7  -9 4007.50 1089.56   3
 -13  -7  -9 2343.02 1125.98   4
 -13  -7  -9 4370.71 1068.49   2
  -7  20  -6 8820.28 1306.02   3
   7  13  -6 7912.86 1068.23   3
 -20   7  -6 10256.0 1188.35   3
 -13  -7  -6 9069.95 1033.08   3
 -20   7  -6 10853.0 1170.96   4
 -20   7  -6 10143.0 1197.44   2
 -13  -7  -6 8450.56 1114.33   4
 -13  -7  -6 9627.93 1036.54   2
  -7  20  -6 7895.30 731.098   1
  -7  20  -3 1544.28 636.170   3
   7  13  -3 194.646 503.463   3
  -7  20  -3 1566.28 598.516   1
 -20   7  -3 1651.23 559.942   3
 -20   7  -3 1416.76 562.730   4
 -13  -7  -3 1328.71 575.608   4
  -7  20  -3 757.102 364.131   4
 -20   7  -3 939.661 524.096   2
 -13  -7  -3 964.299 513.568   2
   7  13  -3 1403.27 637.997   1
  13 -20  -3 995.805 275.479   4
  -7  20   0 11220.7 1087.87   1
   7  13   0 13348.6 1191.34   1
  20 -13   0 9852.25 757.003   4
 -20   7   0 12320.5 953.157   4
 -20   7   0 13738.6 1098.96   2
 -13  -7   0 13023.7 1051.08   4
 -13  -7   0 13969.9 1128.55   2
  -7  20   0 13198.3 626.634   2
 -20   7   3 4052.72 808.974   2
 -13  -7   3 3281.29 852.582   2
  -7  20   3 4517.41 917.513   1
   7  13   3 4312.46 812.927   1
 -20   7   3 6211.18 896.421   4
 -13  -7   3 3078.89 834.791   4
 -20   7   6 777.567 893.166   2
 -13  -7   6 1384.45 979.889   2
   7  13   6 2344.59 832.019   1
  -7  20   6 3219.12 978.257   1
 -13  -7   6 1107.53 916.539   4
 -20   7   6 364.734 895.090   4
 -20   7   9 4134.19 1335.92   2
 -13  -7   9 2743.65 1485.52   2
   7  13   9 2954.26 997.630   1
  -7  20   9 2523.77 1182.04   1
 -13  -7   9 2666.96 1370.09   4
 -20   7   9 1431.12 1173.04   4
  -8  20  -7 9905.30 1422.05   3
 -12  -8  -7 11212.1 1381.77   4
   8  12  -7 11284.2 1256.09   3
 -20   8  -7 10924.7 1373.38   3
 -12  -8  -7 14613.4 1348.97   3
 -20   8  -7 12476.8 1299.16   4
 -12  -8  -7 11812.0 1156.74   2
   8  12  -4 8279.80 892.285   3
 -20   8  -4 6033.57 780.066   4
  12 -20  -4 6471.52 715.886   4
 -20   8  -4 7306.47 864.432   3
 -12  -8  -4 7468.19 784.988   3
 -12  -8  -4 7008.70 909.560   4
 -20   8  -4 5712.96 813.026   2
 -12  -8  -4 6754.70 806.663   2
  -8  20  -4 6095.79 649.960   4
   8  12  -4 7824.40 1012.43   1
  -8  20  -4 8266.36 813.901   1
  -8  20  -4 5501.48 932.904   3
  -8  20  -1 23559.2 1143.36   2
 -20   8  -1 22061.2 805.148   3
  -8  20  -1 25284.0 1420.84   1
  20 -12  -1 20503.4 1052.34   4
 -12  -8  -1 23106.0 1314.20   4
 -20   8  -1 25121.2 1252.97   4
 -20   8  -1 24997.4 1396.72   2
   8  12  -1 23620.0 1490.50   1
 -12  -8  -1 20641.0 1246.04   2
  -8  20   2 11410.1 1195.41   1
   8  12   2 9402.22 1035.89   1
 -12  -8   2 9547.78 1045.26   4
 -20   8   2 9532.87 943.649   4
 -20   8   2 9147.33 1014.22   2
 -12  -8   2 7913.85 1055.15   2
 -20   8   5 6208.54 524.769   3
 -12  -8   5 5122.73 1248.80   2
 -20   8   5 5537.71 1026.16   2
 -12  -8   5 6523.08 1110.89   4
 -20   8   5 5564.23 1040.12   4
   8  12   5 8077.91 1056.04   1
 -20   8   8-311.763 988.748   2
 -12  -8   8 924.645 1094.54   2
  -8  20   8 929.687 906.574   1
   8  12   8 1232.12 860.762   1
 -12  -8   8 1166.72 1077.12   4
 -20   8   8 1752.91 1086.45   4
  -9  20  -8 11417.7 1612.43   3
   9  11  -8 11660.8 1362.44   3
 -20   9  -8 14442.8 1614.76   3
 -11  -9  -8 11393.7 1315.46   3
  20 -11  -8 11042.9 982.510   3
 -11  -9  -8 11939.3 1449.36   4
 -11  -9  -8 11671.7 1183.05   2
  -9  20  -5 11197.8 1243.41   3
  -9  20  -5 9544.86 798.440   1
   9  11  -5 8005.59 939.058   3
 -20   9  -5 9701.15 1100.12   3
 -11  -9  -5 10642.4 1009.95   3
  -9  20  -5 8601.89 884.193   4
 -20   9  -5 9746.24 1019.21   4
 -20   9  -5 8691.79 1054.81   2
 -11  -9  -5 9956.53 1105.08   4
 -11  -9  -5 11441.0 960.782   2
  11 -20  -5 10171.6 1021.20   4
 -11  -9  -2 8281.19 851.712   2
   9  11  -2 10208.1 1049.67   1
 -11  -9  -2 8803.61 966.814   4
  -9  20  -2 9215.63 935.568   2
 -20   9  -2 10982.9 783.049   3
  -9  20  -2 10298.3 957.958   1
  -9  20  -2 8984.30 440.152   4
 -20   9  -2 8917.54 826.433   4
 -20   9  -2 8593.54 907.562   2
   9  11  -2 9158.21 806.726   3
  -9  20  -2 7749.55 887.419   3
  -9  20   1 19054.5 1415.55   1
   9  11   1 16781.9 1265.00   1
 -11  -9   1 21444.8 1309.65   4
 -20   9   1 17741.9 1117.84   4
 -20   9   1 19228.5 1280.01   2
 -11  -9   1 20142.6 1387.67   2
 -11  -9   4 5248.03 1102.27   2
  -9  20   4 6746.94 1044.78   1
 -20   9   4 5098.62 432.743   3
   9  11   4 7413.21 1011.91   1
  11 -20   4 5743.60 735.267   1
 -11  -9   4 6972.86 1039.53   4
 -20   9   4 4799.73 895.390   4
 -20   9   4 6187.24 1012.70   2
 -20   9   7 8176.32 1395.16   2
  -9  20   7 11299.0 1452.72   1
 -11  -9   7 11608.7 1637.33   2
 -20   9   7 9038.33 1415.46   4
 -11  -9   7 5775.19 1239.85   4
   9  11   7 8952.15 1174.25   1
 -10  20  -9 1714.33 1145.70   3
  10  10  -9-205.748 881.742   3
 -20  10  -9 473.851 1053.01   3
 -10 -10  -9-168.428 821.413   3
  20 -10  -9 192.953 604.939   3
 -10 -10  -9 113.982 745.071   2
 -10  20  -6 7023.78 1148.87   3
  10  10  -6 10126.1 1077.05   3
 -20  10  -6 9884.38 1181.61   3
 -10 -10  -6 9585.28 1046.02   3
 -10  20  -6 7725.97 622.647   1
 -10 -10  -6 9583.66 947.099   2
 -20  10  -6 10201.0 1094.17   4
 -10 -10  -6 9484.73 1113.80   4
 -10  20  -3-526.127 511.087   3
  10 -20  -3 1043.61 288.816   4
  10  10  -3 1853.34 527.217   3
 -20  10  -3 1297.68 564.689   3
 -20  10  -3 908.380 551.126   2
 -20  10  -3 924.429 483.456   4
 -10  20  -3 958.087 308.425   4
 -10  20  -3 1167.90 525.736   1
 -10 -10  -3 342.859 459.578   2
  10 -20  -3 163.232 378.406   4
  10  10  -3 212.563 602.987   1
 -10 -10  -3 338.871 496.233   4
 -20  10   0 7278.93 494.513   3
 -10  20   0 8121.85 976.434   1
 -20  10   0 7483.88 735.383   4
 -10  20   0 8210.81 599.785   2
  10  10   0 6597.93 644.742   3
 -10 -10   0 8828.81 861.756   4
 -20  10   0 7088.22 843.168   2
  10  10   0 10111.2 1014.20   1
 -10 -10   0 8338.23 915.478   2
  20 -10   3 1513.72 479.267   3
  10  10   3 944.631 659.352   1
 -10 -10   3-33.1626 748.464   2
 -20  10   3 241.052 220.723   3
 -10  20   3 617.976 705.910   1
 -10 -10   3 1089.80 636.247   4
  10 -20   3 431.343 560.389   1
 -20  10   3 40.6668 602.627   4
 -20  10   3 1077.77 655.260   2
 -20  10   6 7760.71 1264.58   2
 -10  20   6 11735.2 1420.25   1
  10  10   6 10109.3 1136.01   1
 -10 -10   6 11358.1 1519.86   2
 -10 -10   6 7847.80 1270.63   4
 -20  10   6 10193.8 1360.28   4
 -20  10   9 1368.86 1127.76   2
 -10  20   9-1011.48 1076.22   1
 -10 -10   9-866.956 1172.36   2
 -20  10   9-283.178 992.481   1
  10  10   9-778.794 784.733   1
 -10 -10   9-343.718 1222.78   4
 -20  10   9 68.5640 1039.83   4
 -11  20  -7 11009.7 1429.82   3
  11   9  -7 11161.4 1170.44   3
 -20  11  -7 12739.7 1433.49   3
  -9 -11  -7 10333.5 1151.48   3
  20  -9  -7 12421.0 868.071   3
  -9 -11  -7 11225.4 1295.17   4
  -9 -11  -7 12769.8 1078.71   2
  11   9  -4 6771.78 767.885   3
 -20  11  -4 7780.89 928.084   3
 -11  20  -4 7205.76 745.231   1
 -20  11  -4 6357.60 904.300   2
 -20  11  -4 6787.31 798.371   4
  -9 -11  -4 5619.57 707.262   2
 -20  11  -4 5811.83 769.150   1
  -9 -11  -4 5307.55 792.887   4
 -11  20  -4 6815.82 659.524   4
   9 -20  -4 6327.04 779.345   4
 -11  20  -4 8871.58 1057.86   3
 -20  11  -1 20523.1 945.625   3
 -11  20  -1 21919.9 1367.46   1
  11   9  -1 21166.2 1433.59   1
 -11  20  -1 20161.7 1110.36   2
  11   9  -1 17775.8 877.361   3
  -9 -11  -1 18033.4 1191.70   4
 -20  11  -1 20234.2 1045.45   4
 -20  11  -1 20854.0 1223.85   2
  -9 -11  -1 20642.1 1212.61   2
 -20  11   2 7304.38 417.905   3
  11   9   2 11336.3 1107.93   1
  -9 -11   2 10922.4 1048.59   4
 -20  11   2 11579.9 995.406   4
 -20  11   2 11434.9 1041.53   2
 -20  11   2 8416.23 437.067   3
  -9 -11   2 12201.4 1217.67   2
 -11  20   2 12736.8 1258.46   1
  -9 -11   5 10447.1 1426.35   2
 -20  11   5 6684.15 662.460   3
  11   9   5 7193.14 987.447   1
   9 -20   5 7887.91 761.395   1
  -9 -11   5 7627.55 1166.45   4
 -20  11   5 9545.70 1191.82   4
 -20  11   5 7999.95 1119.32   2
 -11  20   5 9999.55 1282.67   1
 -11  20   8 13362.8 1639.38   1
 -20  11   8 11687.1 1518.04   2
  11   9   8 10840.0 1281.25   1
  -9 -11   8 9415.25 1692.66   2
 -20  11   8 13794.1 1680.26   1
  -9 -11   8 11711.4 1652.66   4
 -20  11   8 12415.2 1552.34   4
 -12  20  -8 1433.51 1071.55   3
  12   8  -8 1175.95 779.832   3
 -20  12  -8-756.912 903.804   3
  20  -8  -8 979.448 527.644   3
  -8 -12  -8 1571.89 818.451   3
  -8 -12  -8 514.763 798.039   4
  -8 -12  -8 2006.77 708.585   2
 -12  20  -5 6875.23 1058.48   3
  12   8  -5 7609.18 829.400   3
 -20  12  -5 8220.84 1124.89   3
 -20  12  -5 7419.67 797.150   1
  -8 -12  -5 9709.90 1005.89   3
 -20  12  -5 5572.61 781.592   4
  -8 -12  -5 8686.78 810.297   2
 -12  20  -5 8153.21 693.488   1
 -12  20  -5 6663.42 842.418   4
  -8 -12  -5 8927.01 1004.30   4
 -20  12  -2 10261.9 919.596   2
 -20  12  -2 10095.2 806.764   3
 -12  20  -2 10199.1 955.437   1
 -12  20  -2 9903.23 970.415   2
   8 -20  -2 10080.7 520.044   4
  -8 -12  -2 10416.3 964.364   4
 -20  12  -2 10113.9 818.797   4
  12   8  -2 9531.52 1064.23   1
  -8 -12  -2 8425.86 785.250   2
   8 -20  -2 7576.27 575.521   4
 -12  20  -2 10488.9 1003.21   3
  12   8  -2 9261.19 692.976   3
 -12  20   1 19208.6 753.032   2
  12   8   1 21302.9 1051.59   3
 -20  12   1 21697.0 723.801   3
 -12  20   1 20372.1 638.808   2
 -20  12   1 25926.1 1238.81   4
 -20  12   1 22768.2 1289.69   2
  -8 -12   1 25401.3 1364.92   4
  12   8   1 26580.3 1576.61   1
  -8 -12   1 24324.9 1479.77   2
 -12  20   1 28144.7 1677.48   1
 -20  12   1 20074.5 780.225   3
 -20  12   4 4165.11 534.845   3
  -8 -12   4 5293.22 1036.13   2
  12   8   4 6858.33 1041.23   1
   8 -20   4 6703.52 829.226   1
  -8 -12   4 5399.38 1043.37   4
 -20  12   4 4876.39 872.127   4
 -20  12   4 5439.71 928.812   2
 -12  20   4 7420.55 1112.09   1
   8 -20   4 6243.19 749.012   4
 -20  12   7 10378.1 1398.87   2
  -8 -12   7 12981.6 1754.40   2
  12   8   7 10237.9 1160.96   1
  -8 -12   7 11255.7 1562.67   4
 -20  12   7 10290.6 1408.56   4
 -12  20   7 13262.5 1567.96   1
 -20  12   7 12443.7 1528.69   1
 -13  20  -9 2448.24 1126.79   3
  13   7  -9 4900.59 1089.59   3
 -20  13  -9 4173.99 1287.66   3
  20  -7  -9 2637.57 745.635   3
  -7 -13  -9 3230.76 1015.97   3
  -7 -13  -9 3449.60 853.180   2
 -13  20  -6 1566.93 777.271   3
  13   7  -6 1392.98 615.152   3
 -13  20  -6 1278.02 291.404   1
 -20  13  -6 1931.64 874.409   3
  -7 -13  -6 1436.31 535.022   2
  -7 -13  -6 1129.58 610.215   3
 -20  13  -6 2695.64 690.016   4
  -7 -13  -6 2199.71 759.806   4
  13   7  -3 4336.97 536.763   3
 -13  20  -3 3473.57 740.809   3
 -20  13  -3 5140.32 783.819   3
 -13  20  -3 5140.18 703.159   1
  -7 -13  -3 3676.68 584.414   2
   7 -20  -3 4430.98 492.503   4
 -20  13  -3 4427.38 706.620   2
 -20  13  -3 5828.00 664.544   4
 -13  20  -3 4274.14 388.060   4
  -7 -13  -3 3761.93 719.599   4
 -20  13   0 13542.9 766.344   3
 -20  13   0 13089.4 848.487   4
  13   7   0 14318.9 1208.24   1
  13   7   0 12126.9 744.648   3
 -13  20   0 15898.4 699.022   2
  -7 -13   0 14043.8 1033.18   4
 -20  13   0 15255.8 1073.94   2
   7 -20   0 10921.7 530.664   4
  -7 -13   0 14233.0 1098.21   2
 -13  20   0 14660.7 1217.00   1
  13   7   3 1913.47 672.651   1
  20  -7   3 1217.50 449.803   3
 -13  20   3 1997.34 818.836   1
  -7 -13   3 2083.25 799.593   2
 -13  20   3 740.935 190.242   2
 -20  13   3 672.416 349.482   3
  -7 -13   3 1610.84 637.027   4
 -20  13   3 2065.91 663.515   4
   7 -20   3 1940.63 512.439   4
 -20  13   3 1337.77 624.314   2
 -20  13   6 8439.66 1238.98   2
  -7 -13   6 8202.21 1424.27   2
  13   7   6 8895.47 1064.41   1
 -20  13   6 11775.9 1539.84   1
  -7 -13   6 8331.27 1276.33   4
 -20  13   6 8815.79 1242.19   4
 -13  20   6 11743.1 1446.74   1
   7 -20   6 9728.34 1103.10   4
 -13  20   9 4389.62 1346.33   1
 -20  13   9 4033.96 1165.66   2
  13   7   9 1892.18 892.041   1
  -7 -13   9 2712.13 1335.78   2
 -20  13   9 4072.79 1260.65   1
  -7 -13   9 3354.58 1337.54   4
 -20  13   9 3281.83 1263.13   4
 -14  20  -7 5570.67 1174.87   3
 -20  14  -7 7007.64 1277.64   3
  14   6  -7 5954.45 885.174   3
  20  -6  -7 7272.73 681.757   3
  -6 -14  -7 6272.11 986.396   3
  -6 -14  -7 6111.08 1061.55   4
  -6 -14  -7 5431.54 730.179   2
 -14  20  -4 3409.29 806.128   3
 -20  14  -4 3511.86 635.417   1
  14   6  -4 2680.90 516.784   3
 -20  14  -4 4057.17 800.720   3
 -14  20  -4 4286.65 625.381   1
 -20  14  -4 5832.71 874.622   2
   6 -20  -4 4610.02 598.341   4
 -20  14  -4 4580.15 648.034   4
  -6 -14  -4 3992.60 761.795   4
  -6 -14  -4 3400.21 552.400   2
 -14  20  -4 3900.08 609.725   4
 -20  14  -1 7491.12 709.621   3
 -20  14  -1 9107.44 844.030   2
  14   6  -1 7405.62 544.756   3
  -6 -14  -1 8029.37 827.687   4
 -20  14  -1 7888.65 652.183   4
   6 -20  -1 7243.19 477.923   4
  14   6  -1 10020.5 1100.57   1
  -6 -14  -1 7937.55 836.350   2
 -14  20  -1 9753.26 986.864   1
  -6 -14   2 17775.8 1452.93   2
  14   6   2 16969.9 1044.83   3
 -20  14   2 13604.5 709.407   3
  -6 -14   2 18973.9 1261.53   4
 -20  14   2 16528.4 1096.79   4
 -20  14   2 15687.9 1141.93   2
   6 -20   2 16977.7 915.223   4
 -14  20   2 14428.5 643.894   2
 -14  20   2 18884.6 1517.49   1
  20  -6   2 19882.1 808.327   3
  14   6   2 19116.3 1387.45   1
  14   6   5 6230.02 914.311   1
  -6 -14   5 7611.55 1251.70   2
 -14  20   5 4740.45 508.635   2
 -20  14   5 8625.81 1286.45   1
   6 -20   5 4709.47 798.099   1
  -6 -14   5 7496.88 1138.88   4
 -14  20   5 9465.70 1294.48   1
 -20  14   5 5803.29 999.338   4
   6 -20   5 6863.26 943.077   4
 -20  14   5 7518.16 1064.59   2
 -14  20   8 380.081 975.073   1
 -20  14   8 1860.05 938.556   2
  -6 -14   8 2.69389 1080.02   2
  14   6   8 858.208 792.703   1
 -20  14   8 2559.58 1117.17   1
  -6 -14   8 1109.64 1024.40   4
 -20  14   8 1919.71 1069.59   4
 -15  20  -8 4274.81 1212.44   3
 -20  15  -8 4977.15 1197.73   3
  15   5  -8 4632.82 875.524   3
  -5 -15  -8 6394.88 1151.03   3
  20  -5  -8 3253.78 657.170   3
  -5 -15  -8 2062.46 641.063   2
 -15  20  -5 20100.9 1572.80   3
 -20  15  -5 22193.7 1597.34   3
  15   5  -5 21274.3 1089.43   3
 -15  20  -5 24910.8 1034.70   1
   5 -20  -5 25348.7 1262.95   4
 -20  15  -5 22110.2 1266.08   4
  -5 -15  -5 24160.9 1509.49   4
 -20  15  -5 20844.7 1105.67   1
  -5 -15  -5 19973.6 1005.19   2
 -20  15  -5 20264.9 1043.11   1
 -15  20  -5 17941.9 1216.13   4
 -15  20  -2 2635.26 617.269   3
  15   5  -2 2139.70 356.657   3
 -20  15  -2 2784.86 561.380   3
 -15  20  -2 2694.93 631.394   1
  15   5  -2 2021.40 313.724   3
 -20  15  -2 3418.75 617.229   2
  -5 -15  -2 3181.42 676.905   4
 -20  15  -2 3201.26 483.672   4
   5 -20  -2 1966.87 412.277   4
  -5 -15  -2 3188.71 581.405   2
  -5 -15   1 28635.8 1608.52   2
 -20  15   1 23080.1 1251.23   2
  15   5   1 23473.4 1055.73   3
  15   5   1 27766.2 1662.68   1
  -5 -15   1 24598.4 1301.76   4
 -15  20   1 23297.8 907.610   2
 -20  15   1 24352.4 1127.68   4
   5 -20   1 21524.2 969.832   4
 -15  20   1 31847.8 1779.45   1
 -20  15   1 23133.1 988.253   3
 -20  15   4 4054.77 805.993   2
 -15  20   4 4251.17 1036.90   1
 -15  20   4 3361.45 505.138   2
  -5 -15   4 2973.50 965.560   2
 -20  15   4 2294.81 530.767   3
  15   5   4 3550.89 802.891   1
 -20  15   4 4006.40 989.689   1
  -5 -15   4 3575.43 857.469   4
 -20  15   4 3150.94 740.877   4
   5 -20   4 3117.38 694.224   4
 -20  15   7 10753.6 1364.55   2
  -5 -15   7 15865.0 1778.39   2
 -15  20   7 10499.0 917.219   2
 -20  15   7 16416.8 1799.49   1
  15   5   7 14254.7 1316.56   1
  -5 -15   7 11338.0 1492.96   4
 -15  20   7 13629.8 1655.06   1
 -20  15   7 16772.4 1589.66   4
   5 -20   7 12510.7 1379.57   4
 -16  20  -9 2102.72 1228.25   3
 -20  16  -9 3566.89 1361.88   3
  16   4  -9 2407.88 895.638   3
  -4 -16  -9 3362.48 1087.56   3
 -20  16  -6 2706.72 438.343   1
 -16  20  -6 3832.67 1045.69   3
 -20  16  -6 3488.23 976.851   3
  16   4  -6 3470.96 650.643   3
  20  -4  -6 3649.39 397.845   3
  -4 -16  -6 4767.17 906.365   4
  -4 -16  -6 4579.17 604.172   2
 -16  20  -6 2177.27 284.908   1
 -20  16  -3 5168.60 788.793   3
  16   4  -3 3981.21 396.268   3
 -16  20  -3 5113.34 375.212   4
 -20  16  -3 5433.37 749.137   2
 -20  16  -3 6967.83 840.160   1
   4 -20  -3 4705.68 608.746   4
 -20  16  -3 5167.03 597.799   4
  -4 -16  -3 5509.52 817.236   4
 -16  20  -3 4175.37 456.174   4
  -4 -16  -3 4999.38 589.440   2
 -16  20  -3 6684.01 752.149   1
 -16  20  -3 5023.19 840.992   3
  -4 -16   0 11659.5 1022.65   2
  16   4   0 14777.9 1277.74   1
  16   4   0 13233.2 689.989   3
 -20  16   0 14642.1 1304.63   1
 -16  20   0 14010.9 802.183   2
 -20  16   0 14508.5 984.045   2
  -4 -16   0 14997.3 1033.60   4
   4 -20   0 12432.5 728.827   4
 -20  16   0 12339.9 731.340   4
 -16  20   0 14605.2 1264.75   1
 -20  16   0 14304.5 887.348   3
 -16  20   3 2221.63 892.032   1
  20  -4   3 3818.44 569.564   3
 -16  20   3 1907.05 449.669   2
  -4 -16   3 2865.62 896.378   2
 -20  16   3 1628.35 461.440   3
 -20  16   3 1255.87 794.129   1
 -20  16   3 1474.68 539.756   4
  -4 -16   3 2165.99 706.000   4
   4 -20   3 1863.47 591.009   4
 -20  16   3 2326.98 628.110   2
  16   4   3 2563.01 753.008   1
 -20  16   6 10154.1 1231.14   2
 -16  20   6 8861.66 882.483   2
  -4 -16   6 11843.9 1601.18   2
 -20  16   6 15730.0 1729.43   1
 -16  20   6 13868.5 1629.08   1
  -4 -16   6 10686.5 1362.23   4
 -20  16   6 14181.5 1398.09   4
   4 -20   6 10729.7 1260.71   4
  16   4   6 12715.2 1243.65   1
 -16  20   9 5418.24 1348.00   1
 -20  16   9 4786.09 1208.31   2
  -4 -16   9 3552.08 1437.06   2
  16   4   9 2271.23 822.694   1
 -20  16   9 5344.19 1399.44   1
  -4 -16   9 4053.63 1274.87   4
 -17  20  -7 1955.28 936.889   3
 -20  17  -7 538.253 837.440   3
  17   3  -7 2744.30 665.088   3
  20  -3  -7 1928.97 507.146   3
  -3 -17  -7 2178.28 841.188   4
  -3 -17  -7 1533.79 499.490   2
 -17  20  -4 7643.13 1060.78   3
 -20  17  -4 10617.4 1109.99   3
  17   3  -4 6184.78 478.631   3
 -20  17  -4 10070.4 790.803   4
   3 -20  -4 9942.07 840.629   4
  -3 -17  -4 8711.51 898.357   4
 -20  17  -4 8688.81 838.229   1
  -3 -17  -4 6904.77 601.947   2
 -17  20  -4 7963.07 798.121   4
 -17  20  -4 10611.6 859.043   1
 -17  20  -1 1036.47 518.542   3
 -17  20  -1 536.756 598.851   1
  17   3  -1 602.926 184.009   3
 -20  17  -1 1018.73 463.279   3
 -20  17  -1 1558.77 472.425   2
  -3 -17  -1 2117.55 590.590   2
  17   3  -1 714.091 222.489   3
 -17  20  -1 1320.22 409.373   2
  -3 -17  -1 1024.35 482.908   4
 -20  17  -1 1195.46 360.339   4
 -20  17  -1 958.027 587.471   1
   3 -20  -1 1126.95 369.100   4
  20  -3   2 5324.42 507.693   3
  -3 -17   2 4410.37 940.627   2
  17   3   2 3710.58 605.589   3
   3 -20   2 3934.42 745.143   2
  17   3   2 5245.79 892.637   1
 -20  17   2 3816.50 935.151   1
 -17  20   2 5678.57 1011.22   1
  -3 -17   2 4277.50 741.313   4
   3 -20   2 5118.43 688.411   4
 -17  20   2 4500.45 586.149   2
 -20  17   2 3346.31 597.099   4
 -20  17   2 3031.52 623.248   2
 -20  17   5 1339.23 716.000   2
 -17  20   5 1035.20 552.552   2
  -3 -17   5 1119.87 890.841   2
 -20  17   5 1897.04 967.000   1
  -3 -17   5 2084.92 864.984   4
   3 -20   5 811.716 749.155   4
 -20  17   5 390.275 630.752   4
  17   3   5 657.959 663.603   1
 -17  20   5 2034.02 974.055   1
 -17  20   8 2674.38 1159.74   1
 -20  17   8 2045.72 979.832   2
 -17  20   8 1173.60 762.391   2
  -3 -17   8 3351.19 1285.75   2
  17   3   8 1603.90 770.998   1
 -20  17   8 3919.00 1242.75   1
  -3 -17   8 3217.83 1261.06   4
   3 -20   8 1713.52 1003.09   4
 -20  17   8 1142.37 851.272   4
 -18  20  -8 1750.06 1121.68   3
 -20  18  -8 828.544 1027.48   3
  18   2  -8 2472.40 716.186   3
  -2 -18  -8 1998.21 958.622   4
 -18  20  -5 13995.5 871.259   1
 -18  20  -5 12887.0 1341.10   3
 -20  18  -5 11135.9 1272.66   3
  18   2  -5 9592.75 617.843   3
 -20  18  -5 15136.2 1026.52   4
   2 -20  -5 14089.5 1089.21   4
  -2 -18  -5 15347.8 1192.71   4
  -2 -18  -5 8880.62 612.127   2
 -20  18  -5 11903.8 853.422   1
  -2 -18  -2 7153.82 711.532   2
 -20  18  -2 6884.60 844.386   3
 -20  18  -2 7092.05 544.512   4
 -18  20  -2 9384.98 844.706   2
  -2 -18  -2 9653.75 885.072   4
 -20  18  -2 7117.99 900.748   1
   2 -20  -2 8224.75 737.803   4
 -18  20  -2 5377.50 306.176   4
 -18  20  -2 8552.23 928.194   1
 -20  18  -2 6216.63 760.988   2
 -18  20  -2 4182.73 355.760   4
 -18  20  -2 7258.70 885.340   3
 -18  20   1 33340.8 1918.96   1
  18   2   1 22511.3 932.585   3
  -2 -18   1 25865.3 1487.68   2
  18   2   1 22772.0 1568.84   1
   2 -20   1 26241.0 1316.36   2
 -20  18   1 28716.7 1872.84   1
  -2 -18   1 26274.6 1337.76   4
 -18  20   1 22405.4 1063.13   2
 -20  18   1 24450.2 1217.07   2
   2 -20   1 22341.3 1142.38   4
 -20  18   1 20463.0 931.998   4
  20  -2   1 20016.6 586.312   3
 -20  18   4 256.722 541.655   2
 -18  20   4 778.247 546.412   2
  -2 -18   4 221.336 851.807   2
   2 -20   4 1429.19 798.141   2
  18   2   4 1507.62 694.121   1
 -20  18   4 44.6857 800.153   1
  -2 -18   4 1038.69 684.687   4
   2 -20   4 590.799 638.486   4
 -20  18   4 1244.11 641.235   4
 -18  20   4 1251.17 850.751   1
 -18  20   7 5528.38 1272.43   1
 -20  18   7 6210.46 1066.82   2
  18   2   7 5039.02 907.459   1
 -18  20   7 5039.80 917.446   2
  -2 -18   7 6799.58 1399.70   2
 -20  18   7 4975.66 1290.24   1
  -2 -18   7 6920.58 1276.57   4
   2 -20   7 3447.51 1060.56   4
 -20  18   7 4902.18 1078.69   4
  -1 -19  -6 2480.47 381.267   2
 -19  20  -6 3164.85 1034.37   3
 -20  19  -6 5360.08 1162.62   3
  20  -1  -6 2613.70 369.927   3
  19   1  -6 2699.32 466.577   3
  -1 -19  -6 4333.33 882.272   4
   1 -20  -6 4535.31 815.563   4
 -19  20  -3 6722.40 963.964   3
 -20  19  -3 7706.53 956.280   3
  -1 -19  -3 5419.55 479.667   2
 -20  19  -3 6598.01 808.611   2
 -19  20  -3 8284.93 558.304   4
 -20  19  -3 8183.00 618.982   4
   1 -20  -3 7111.91 776.841   4
  -1 -19  -3 7746.81 848.762   4
 -20  19  -3 7839.43 887.140   1
 -19  20  -3 9145.54 895.995   1
 -19  20  -3 5807.89 653.052   4
 -19  20   0 8486.10 747.664   2
  -1 -19   0 8906.78 869.631   2
   1 -20   0 8937.03 785.906   2
 -20  19   0 9717.32 842.402   2
 -19  20   0 9056.32 1115.46   1
  -1 -19   0 8446.73 787.302   4
   1 -20   0 7329.70 713.267   4
 -20  19   0 6088.38 464.329   4
 -20  19   0 6867.09 997.928   1
 -20  19   0 7907.37 758.145   3
  19   1   3 7944.26 1063.91   1
  20  -1   3 5746.52 716.538   3
  19   1   3 6563.83 811.242   3
  -1 -19   3 7864.66 1106.53   2
   1 -20   3 7799.12 1111.81   2
 -19  20   3 6646.53 1145.14   1
  -1 -19   3 5308.44 923.137   4
   1 -20   3 7050.35 901.755   4
 -20  19   3 8703.10 1234.93   1
 -20  19   3 5750.54 769.574   2
 -19  20   3 6958.62 751.970   2
 -20  19   3 5839.15 733.643   4
 -20  19   6 8006.39 1422.80   1
  20  -1   6 6238.29 960.034   1
 -20  19   6 4791.68 938.074   2
 -19  20   6 3840.83 762.009   2
  -1 -19   6 9857.51 1519.66   2
   1 -20   6 7516.50 1371.65   2
  19   1   6 7718.26 1084.63   1
 -19  20   6 7578.97 1416.31   1
  -1 -19   6 9169.61 1281.62   4
   1 -20   6 6060.73 1126.06   4
 -20  19   6 7147.46 1010.21   4
 -20  20  -7 34.9267 983.874   3
   0 -20  -7-205.257 682.118   4
 -20  20  -4 1376.79 541.994   1
 -20  20  -4 1594.28 720.014   3
 -20  20  -4 840.386 373.213   4
   0 -20  -4 1266.59 594.013   4
 -20  20  -1 362.653 446.239   3
   0 -20  -1 605.604 426.940   2
   0 -20  -1 272.935 405.758   4
 -20  20  -1 64.6693 172.060   4
 -20  20  -1 440.133 444.103   2
 -20  20  -1-227.437 579.295   1
  20   0   2 5345.84 591.085   3
   0 -20   2 5985.04 947.854   2
   0 -20   2 5798.46 842.601   4
 -20  20   2 5653.60 716.140   2
 -20  20   2 4897.50 516.061   4
 -20  20   2 6141.71 1166.79   1
  20   0   5 67.1241 668.980   1
 -20  20   5 602.322 622.103   2
   0 -20   5 747.441 870.432   2
   0 -20   5 660.533 766.974   4
 -20  20   5 1643.69 962.271   1
 -20  20   8 3117.57 960.613   2
   0 -20   8 2503.08 1174.86   4
  20   0   8 1642.06 770.327   1
 -20  20   8 4187.46 1269.04   1
   0  21  -6 1687.93 951.901   3
 -21   0  -6 3891.86 864.936   3
   0  21  -6 2530.74 900.415   1
 -21   0  -6 2175.78 801.278   4
 -21   0  -6 2981.76 1008.94   2
   0  21  -3 512.091 646.463   3
   0  21  -3 589.938 707.691   1
 -21   0  -3 188.204 352.309   3
 -21   0  -3-33.3902 654.555   4
 -21   0  -3 62.1230 727.690   2
   0  21   0 37144.3 1204.25   2
 -21   0   0 35137.7 1817.26   4
 -21   0   0 36500.8 1965.42   2
   0  21   0 40293.0 2045.78   1
 -21   0   3 28.5396 731.512   4
 -21   0   3 1545.78 879.806   2
   0  21   3 367.578 699.031   1
   0  21   6 21197.9 1844.29   1
 -21   0   6 18329.2 1871.57   4
  -1  21  -7 3931.77 1161.23   3
   1  20  -7 6002.67 1270.28   3
 -21   1  -7 6948.36 1080.87   3
 -20  -1  -7 6358.51 1059.68   3
 -21   1  -7 4525.59 1071.28   4
 -21   1  -7 5832.35 1114.48   2
 -20  -1  -7 5941.00 1171.75   2
 -20  -1  -7 3005.80 937.811   4
  -1  21  -4 2372.83 845.245   3
   1  20  -4 3390.84 852.703   3
 -21   1  -4 3524.99 800.708   2
 -20  -1  -4 3661.41 636.352   3
 -21   1  -4 3518.68 583.722   3
 -21   1  -4 2311.73 814.283   4
 -20  -1  -4 2041.79 792.412   4
 -20  -1  -4 4152.19 886.830   2
  -1  21  -4 3576.60 781.839   1
   1  20  -4 2687.46 805.797   1
   1  20  -1 5249.23 949.412   1
  -1  21  -1 3975.72 880.900   1
 -20  -1  -1 4458.22 793.850   4
 -21   1  -1 5224.57 840.933   4
 -21   1  -1 5457.46 898.201   2
   1  20  -1 3988.81 636.851   2
  -1  21  -1 4147.98 615.525   2
 -20  -1   2 3884.01 925.729   2
  -1  21   2 5146.18 991.957   1
   1  20   2 5744.97 1032.34   1
 -20  -1   2 4238.97 921.331   4
 -21   1   2 2854.09 832.304   4
 -21   1   2 4540.41 968.367   2
   1  20   5 11260.6 1442.24   1
 -20  -1   5 7845.34 1334.97   4
 -21   1   5 8603.89 1421.44   4
 -21   1   5 8282.16 1372.49   2
  -1  21   5 6262.28 1168.38   1
 -20  -1   5 7557.88 1434.73   2
   1  20   8 4828.69 1199.78   1
 -21   1   8 1743.12 1230.96   2
 -20  -1   8 3809.14 1388.63   2
 -20  -1   8 1380.65 1324.89   4
 -21   1   8 258.659 1060.25   4
  -1  21   8 2267.85 1204.13   1
  -2  21  -8 3086.31 1135.45   3
   2  19  -8 5544.84 1350.07   3
 -21   2  -8 6271.50 1149.85   3
 -19  -2  -8 7156.57 1204.98   3
 -21   2  -8 6658.30 1259.47   4
 -19  -2  -8 5905.93 1169.47   2
 -19  -2  -8 3289.19 1111.60   4
 -21   2  -8 5191.63 1127.90   2
  -2  21  -5 712.694 845.519   3
   2  19  -5 1665.20 742.022   3
  -2  21  -5 1657.56 717.467   1
 -21   2  -5 2001.82 643.306   3
 -19  -2  -5 534.384 508.326   3
 -21   2  -5 1958.37 782.435   4
 -19  -2  -5 1838.68 831.940   4
 -21   2  -5 1002.21 776.707   2
 -19  -2  -5 893.118 697.271   2
   2  19  -5 1441.65 742.460   1
   2  19  -2 5792.09 922.878   1
 -21   2  -2 5791.14 456.596   3
  21 -19  -2 5146.67 495.873   4
 -19  -2  -2 5757.31 878.265   4
 -21   2  -2 5069.79 849.113   4
 -21   2  -2 5288.13 894.849   2
 -19  -2  -2 7537.40 948.102   2
  -2  21  -2 7036.12 986.624   1
   2  19   1 3437.51 462.766   2
 -19  -2   1 5370.07 930.942   4
 -21   2   1 3957.36 857.533   4
  -2  21   1 5086.58 972.175   1
  -2  21   1 2824.72 272.252   2
 -21   2   1 5359.06 997.701   2
   2  19   1 4833.39 940.794   1
 -19  -2   1 4565.39 917.671   2
 -21   2   4 745.485 909.304   2
 -19  -2   4 245.402 805.978   2
   2  19   4 1147.17 774.144   1
 -19  -2   4 1016.67 837.054   4
 -21   2   4 1642.27 835.522   4
  -2  21   4-277.645 757.958   1
   2  19   7 1725.63 942.571   1
 -21   2   7 2971.86 1346.82   2
 -19  -2   7 5147.95 1420.78   2
 -19  -2   7 770.679 1087.44   4
 -21   2   7 1767.56 1119.06   4
  -2  21   7 2285.57 968.089   1
  -3  21  -6 18933.5 1721.76   3
   3  18  -6 18754.1 1623.06   3
  -3  21  -6 20006.3 1357.47   1
 -21   3  -6 24636.3 1567.23   3
 -18  -3  -6 23663.5 1537.45   3
 -21   3  -6 18951.4 1559.15   4
 -18  -3  -6 19643.7 1616.00   4
 -21   3  -6 24071.8 1717.17   2
 -18  -3  -6 19947.8 1510.51   2
   3  18  -6 19762.6 1516.64   1
  -3  21  -3 1415.64 697.088   3
   3  18  -3 1146.43 671.439   3
 -21   3  -3 1655.69 653.733   2
 -21   3  -3 1091.85 630.682   4
 -21   3  -3 2128.62 456.678   3
 -18  -3  -3 1007.43 405.197   3
  21 -18  -3 940.480 463.754   4
  18 -21  -3 1382.77 269.500   4
   3  18  -3 2595.66 734.808   1
  -3  21  -3 1522.23 698.736   1
 -18  -3  -3 2331.21 682.044   2
 -18  -3  -3 2200.29 714.649   4
   3  18   0 22470.9 1539.04   1
  -3  21   0 21318.7 1517.24   1
   3  18   0 17528.9 947.764   2
 -18  -3   0 19103.0 1337.06   4
 -21   3   0 19661.7 1297.14   4
 -21   3   0 20280.8 1447.98   2
 -18  -3   0 18681.1 1464.48   2
  -3  21   0 21127.8 796.250   2
 -21   3   3 193.441 747.355   2
 -18  -3   3 76.1756 837.993   2
 -18  -3   3 708.585 645.507   4
   3  18   3 360.478 659.366   1
 -21   3   3 237.318 650.574   4
  -3  21   3-125.255 674.973   1
 -21   3   6 10576.0 1577.62   2
 -18  -3   6 13656.7 1762.08   2
  -3  21   6 12357.4 1477.99   1
   3  18   6 11738.3 1404.22   1
 -18  -3   6 11751.6 1570.75   4
 -21   3   6 15507.8 1671.29   4
  -4  21  -7 1220.17 984.128   3
   4  17  -7 3551.68 1023.31   3
 -17  -4  -7 4369.78 1078.38   4
 -21   4  -7 4035.86 954.929   4
 -21   4  -7 3597.54 942.472   3
 -17  -4  -7 2663.08 875.826   3
 -21   4  -7 3300.51 956.869   2
 -17  -4  -7 4160.02 967.044   2
 -21   4  -4 1953.71 676.970   4
  -4  21  -4 3534.99 873.919   3
   4  17  -4 2580.20 790.131   3
  -4  21  -4 3593.50 782.152   1
 -17  -4  -4 1781.31 747.992   4
 -21   4  -4 2405.07 578.368   3
 -17  -4  -4 2615.41 578.752   3
 -21   4  -4 3217.81 764.890   2
 -17  -4  -4 1183.03 713.442   2
  17 -21  -4 1664.29 436.525   4
   4  17  -4 3059.65 796.419   1
   4  17  -1 10449.0 1126.31   1
  21 -17  -1 7200.76 590.208   4
  -4  21  -1 7838.41 640.336   4
  -4  21  -1 10429.7 1129.57   1
 -17  -4  -1 9743.53 1015.84   4
 -21   4  -1 9399.70 968.724   4
 -21   4  -1 9989.68 1098.91   2
 -17  -4  -1 8830.05 1028.23   2
  -4  21  -1 9736.57 756.419   2
  -4  21   2 7047.42 1005.43   1
 -21   4   2 6013.53 959.501   4
 -17  -4   2 4533.67 876.798   4
 -21   4   2 6231.18 1011.70   2
 -17  -4   2 6651.02 1081.98   2
   4  17   2 5930.46 989.657   1
 -17  -4   5 8993.52 1433.85   2
  -4  21   5 8887.83 1242.69   1
   4  17   5 9065.84 1186.37   1
 -17  -4   5 10333.0 1357.52   4
 -21   4   5 7451.93 1247.00   4
 -21   4   5 8539.42 1366.78   2
   4  17   8 1039.78 869.310   1
 -17  -4   8 2584.08 1179.42   2
  -4  21   8 2959.22 1135.06   1
 -17  -4   8 1159.44 1077.56   4
 -21   4   8 3060.94 1171.80   4
  -5  21  -8 4441.03 1288.83   3
   5  16  -8 4260.72 1204.39   3
 -21   5  -8 5711.20 1109.55   3
 -16  -5  -8 4227.85 993.340   3
 -21   5  -8 6441.55 1220.23   4
 -21   5  -8 4884.27 1161.52   2
 -16  -5  -8 5350.80 1041.80   2
  -5  21  -5 212.427 774.273   3
   5  16  -5-567.038 647.373   3
 -21   5  -5 847.034 605.032   3
 -16  -5  -5-251.734 528.981   3
  -5  21  -5-810.211 621.297   1
 -16  -5  -5 701.107 684.205   4
 -21   5  -5 457.849 718.142   2
 -16  -5  -5-330.660 584.703   2
   5  16  -5 104.156 680.133   1
 -21   5  -5-25.4739 606.296   4
 -21   5  -2 9556.19 979.994   4
 -21   5  -2 9062.26 579.254   3
   5  16  -2 9959.35 1079.20   1
  -5  21  -2 7860.02 663.921   4
 -16  -5  -2 9787.86 1070.87   4
 -21   5  -2 8158.49 942.017   2
  -5  21  -2 9067.02 985.774   1
 -16  -5  -2 8139.08 927.489   2
  21 -16  -2 8322.36 724.740   4
  -5  21  -2 8111.43 896.996   2
   5  16   1-146.494 376.005   2
 -16  -5   1-888.758 600.911   4
 -21   5   1 988.926 562.883   4
   5  16   1 535.148 639.888   1
  -5  21   1-6.66817 668.888   1
 -21   5   1 458.286 586.972   2
 -16  -5   1-196.859 672.907   2
 -21   5   4 5653.32 1068.58   2
  -5  21   4 5286.30 1051.55   1
 -16  -5   4 4352.07 983.308   4
   5  16   4 5816.04 989.380   1
 -21   5   4 4075.86 1002.44   4
 -16  -5   4 6984.19 1192.01   2
 -21   5   7-949.870 955.561   2
 -16  -5   7 391.544 1054.89   2
   5  16   7-194.137 766.747   1
  -5  21   7 58.2399 893.966   1
 -16  -5   7-953.093 1064.97   4
 -21   5   7 172.341 1077.85   4
  -6  21  -6 29430.9 2060.98   3
   6  15  -6 29966.7 1855.32   3
 -21   6  -6 34055.3 1859.12   3
 -15  -6  -6 30009.7 1665.31   3
 -21   6  -6 31121.6 1829.24   4
 -15  -6  -6 31014.2 1909.75   4
 -21   6  -6 31286.2 1888.32   2
 -15  -6  -6 33788.9 1796.14   2
  -6  21  -6 26389.7 1336.75   1
 -21   6  -3 7751.10 728.715   3
 -21   6  -3 7789.57 898.483   4
 -15  -6  -3 7375.98 942.869   4
 -21   6  -3 6686.82 906.350   2
  15 -21  -3 6282.42 374.584   4
 -15  -6  -3 6752.51 854.631   2
  -6  21  -3 8667.65 969.082   1
   6  15  -3 8049.18 1030.59   1
  -6  21  -3 6731.21 637.906   4
  -6  21  -3 6146.73 917.372   3
   6  15  -3 7191.26 896.392   3
   6  15   0 3879.65 839.055   1
 -15  -6   0 4319.31 787.901   4
 -21   6   0 3234.48 664.881   4
  -6  21   0 4436.19 396.364   2
  -6  21   0 3677.63 786.371   1
 -21   6   0 3536.96 743.223   2
 -15  -6   0 2645.38 723.759   2
 -15  -6   3 5156.42 1011.39   2
  -6  21   3 7433.99 1149.10   1
 -15  -6   3 5197.45 967.702   4
 -21   6   3 5708.08 907.657   4
 -21   6   3 7518.50 1079.96   2
   6  15   3 6787.19 1047.44   1
 -21   6   6 1546.17 938.544   2
 -15  -6   6 1659.48 995.568   2
   6  15   6 872.066 710.630   1
  -6  21   6 1013.16 867.714   1
 -15  -6   6 1834.49 1051.12   4
 -21   6   6 3597.95 1055.08   4
  -7  21  -7 3089.67 1058.18   3
   7  14  -7 4629.02 1026.42   3
 -21   7  -7 4999.63 1093.16   3
 -14  -7  -7 5946.52 1000.97   3
 -21   7  -7 6930.25 1157.52   2
 -14  -7  -7 5938.06 1189.70   4
 -21   7  -7 5654.67 1065.11   4
 -14  -7  -7 5564.88 951.649   2
  -7  21  -4 3008.54 780.645   3
   7  14  -4 2383.98 712.107   3
 -21   7  -4 2577.99 643.024   3
   7  14  -4 2218.70 788.414   1
 -14  -7  -4 1570.34 534.152   3
  -7  21  -4 2933.21 665.976   1
 -21   7  -4 2151.87 678.913   4
 -14  -7  -4 2412.22 736.171   4
 -14  -7  -4 5085.42 870.563   2
 -21   7  -4 1833.22 649.103   2
  -7  21  -4 1501.09 499.147   4
  14 -21  -4 1808.78 485.309   4
 -21   7  -1 4176.17 342.429   3
  -7  21  -1 5734.50 830.064   1
   7  14  -1 4871.53 889.952   1
  21 -14  -1 3733.06 537.619   4
 -21   7  -1 4568.15 693.345   4
 -14  -7  -1 3925.26 768.235   4
 -21   7  -1 4955.01 812.096   2
 -14  -7  -1 5157.78 805.558   2
  -7  21  -1 4733.78 634.698   2
   7  14   2 5696.95 944.697   1
  -7  21   2 4906.68 912.901   1
 -14  -7   2 5832.82 910.472   4
 -21   7   2 6789.82 886.468   4
 -14  -7   2 8153.09 1136.46   2
 -21   7   2 4938.48 859.114   2
 -14  -7   5 7348.65 1224.83   4
 -21   7   5 6125.36 1121.42   2
 -14  -7   5 6997.77 1259.28   2
  -7  21   5 5896.69 1068.45   1
 -21   7   5 7569.59 1185.60   4
   7  14   5 7218.56 1060.51   1
 -21   7   8 7393.29 1587.36   2
 -14  -7   8 8848.70 1647.40   2
  -7  21   8 8745.87 1422.67   1
 -14  -7   8 9356.87 1581.55   4
 -21   7   8 9593.00 1584.34   4
   7  14   8 9728.83 1305.13   1
   8  13  -8 9009.44 1308.08   3
  -8  21  -8 6414.44 1363.59   3
 -21   8  -8 10604.1 1399.32   3
 -13  -8  -8 11582.0 1338.15   3
 -21   8  -8 10090.4 1330.95   4
 -13  -8  -8 7487.35 1334.73   4
 -13  -8  -8 10085.7 1198.32   2
  -8  21  -5 1576.62 755.158   3
   8  13  -5 1398.89 633.365   3
  13 -21  -5 1057.10 629.358   4
 -21   8  -5 2262.41 694.625   3
 -13  -8  -5 2079.88 605.676   3
 -21   8  -5 2242.47 713.942   4
 -13  -8  -5 1766.77 739.940   4
 -21   8  -5 1189.13 624.460   2
 -13  -8  -5 819.581 611.089   2
   8  13  -5 227.043 683.821   1
  -8  21  -5 659.954 515.188   1
  -8  21  -2 30158.6 1534.11   2
 -21   8  -2 28007.0 1512.61   2
 -21   8  -2 34274.3 1219.38   3
  -8  21  -2 35940.4 1665.25   1
  -8  21  -2 32652.6 898.207   4
 -21   8  -2 28022.3 1419.90   4
 -13  -8  -2 31122.1 1539.47   2
   8  13  -2 34573.3 1809.71   1
 -13  -8  -2 32948.3 1665.14   4
  -8  21   1 10461.4 1176.41   1
   8  13   1 8816.17 1042.29   1
 -13  -8   1 8415.60 949.649   4
 -21   8   1 8564.46 876.564   4
 -21   8   1 8281.46 935.215   2
 -13  -8   1 8715.63 1116.32   2
 -21   8   4 12502.3 1381.69   2
 -13  -8   4 10719.9 1410.41   2
   8  13   4 14201.4 1298.55   1
  -8  21   4 13911.0 1416.23   1
 -13  -8   4 10494.4 1246.34   4
 -21   8   4 11167.2 1224.28   4
 -21   8   7 2036.48 1038.64   2
 -13  -8   7 2281.67 1154.99   2
  -8  21   7 1496.85 972.426   1
   8  13   7 2375.88 918.846   1
 -13  -8   7 1299.89 1037.27   4
 -21   8   7 515.761 960.371   4
  -9  21  -9 2425.48 1350.09   3
   9  12  -9 5611.21 1352.53   3
 -12  -9  -9 5357.97 1062.33   2
 -21   9  -9 5093.76 1355.20   3
 -12  -9  -9 3956.39 1082.18   3
  21 -12  -9 3598.72 809.378   3
  -9  21  -6 5464.90 1111.69   3
   9  12  -6 4481.38 881.113   3
 -21   9  -6 5948.64 1029.20   3
 -12  -9  -6 5250.20 876.219   3
 -21   9  -6 4369.76 840.294   4
  -9  21  -6 4361.93 637.106   1
 -12  -9  -6 3692.43 859.699   4
 -12  -9  -6 4397.42 792.098   2
 -21   9  -6 4138.26 977.354   2
 -21   9  -3 8608.00 824.852   3
   9  12  -3 9379.78 1103.94   1
  -9  21  -3 9939.43 977.116   1
  12 -21  -3 9040.45 467.120   4
 -21   9  -3 9331.02 932.267   4
 -12  -9  -3 8265.34 965.859   4
 -21   9  -3 8274.34 969.603   2
  -9  21  -3 8988.42 572.843   4
 -12  -9  -3 9190.88 922.344   2
  12 -21  -3 6566.03 495.942   4
  -9  21  -3 8709.31 1024.84   3
   9  12  -3 7462.27 849.126   3
 -21   9   0 5180.87 310.379   3
  -9  21   0 7711.05 975.139   1
   9  12   0 7815.92 1015.30   1
 -12  -9   0 7684.96 880.801   4
 -21   9   0 7952.73 801.085   4
 -21   9   0 7221.76 865.946   2
 -12  -9   0 9064.23 994.428   2
  -9  21   0 8758.79 582.440   2
  -9  21   3 12512.3 1281.80   1
   9  12   3 11954.3 1202.67   1
 -12  -9   3 13345.9 1289.34   4
 -21   9   3 10357.5 1104.04   4
 -21   9   3 12436.8 1237.00   2
 -12  -9   3 12327.0 1360.87   2
 -12  -9   6 5375.85 1233.38   2
  -9  21   6 6071.27 1136.69   1
   9  12   6 3767.17 870.963   1
 -12  -9   6 5340.39 1186.52   4
 -21   9   6 5350.23 1053.37   4
 -21   9   6 6034.56 1156.74   2
   9  12   9 7770.73 1228.87   1
  -9  21   9 10640.5 1619.71   1
 -21   9   9 5037.81 1388.92   2
 -12  -9   9 6027.31 1593.13   2
 -21   9   9 8590.65 1563.76   1
 -12  -9   9 7242.74 1673.51   4
 -21   9   9 8254.04 1550.58   4
 -11 -10  -7 7297.18 980.373   2
 -10  21  -7 6933.29 1281.74   3
  10  11  -7 7382.59 1087.47   3
 -21  10  -7 9524.92 1316.13   3
 -11 -10  -7 5315.45 1064.75   4
 -11 -10  -7 7374.24 1079.34   3
 -21  10  -7 5780.83 979.002   4
  10  11  -4 8174.86 898.160   3
  10  11  -4 8716.61 1112.02   1
 -21  10  -4 9470.16 985.960   3
 -21  10  -4 7968.34 873.828   4
 -21  10  -4 6660.96 907.247   2
 -11 -10  -4 7474.82 990.236   4
 -10  21  -4 8878.05 845.886   1
 -11 -10  -4 7573.65 848.923   2
 -10  21  -4 8444.00 690.224   4
  11 -21  -4 7720.00 792.641   4
 -10  21  -4 5849.49 951.973   3
 -10  21  -1 9694.79 818.191   2
 -21  10  -1 8933.50 645.631   3
 -11 -10  -1 7450.24 856.586   4
 -21  10  -1 8791.62 809.237   4
 -21  10  -1 8080.92 909.826   2
 -11 -10  -1 8227.68 918.599   2
  10  11  -1 10091.7 1041.13   1
 -10  21   2 24591.7 1641.26   1
  10  11   2 24552.1 1582.62   1
 -11 -10   2 20118.3 1397.81   4
 -21  10   2 22924.7 1374.97   4
 -21  10   2 23247.2 1470.78   2
 -11 -10   2 23233.6 1626.80   2
 -21  10   5 1152.86 773.701   2
 -21  10   5 1602.59 440.307   3
 -11 -10   5 2021.80 1003.40   2
 -10  21   5 2553.49 930.754   1
 -11 -10   5 4291.98 1036.68   4
 -21  10   5 1123.36 726.191   4
  10  11   5 2832.37 819.056   1
 -10  21   8 12825.6 1605.23   1
  10  11   8 13417.8 1399.08   1
 -21  10   8 11372.9 1631.72   2
 -11 -10   8 11868.4 1723.63   2
 -11 -10   8 14339.0 1796.98   4
 -21  10   8 11370.1 1581.10   4
 -11  21  -8 14653.4 1763.62   3
  11  10  -8 12097.1 1328.41   3
 -21  11  -8 13812.4 1588.00   3
 -10 -11  -8 15754.7 1497.27   3
  21 -10  -8 14067.1 1028.80   3
 -10 -11  -8 17956.8 1705.50   4
 -10 -11  -8 14980.0 1278.15   2
 -11  21  -5 3905.52 943.578   3
  11  10  -5 2134.31 635.778   3
 -21  11  -5 2368.58 781.277   3
 -11  21  -5 2330.85 546.322   1
 -10 -11  -5 2986.88 692.992   3
 -21  11  -5 2906.06 675.396   4
 -10 -11  -5 2701.42 792.311   4
 -21  11  -5 3286.25 790.353   2
 -10 -11  -5 2624.14 634.232   2
 -21  11  -2 22879.7 1135.51   3
 -11  21  -2 21414.9 1361.24   2
 -11  21  -2 26008.5 1426.96   1
  11  10  -2 26174.9 1646.95   1
 -10 -11  -2 22693.7 1373.26   4
 -21  11  -2 25263.6 1276.17   4
 -21  11  -2 22520.8 1361.37   2
 -10 -11  -2 22456.9 1259.56   2
  10 -21  -2 18911.5 509.523   4
  10 -21  -2 15379.2 577.990   4
 -11  21  -2 21880.0 1394.56   3
  11  10  -2 22064.7 1093.55   3
 -21  11   1 6824.50 420.847   3
 -11  21   1 8549.70 1032.33   1
 -11  21   1 4985.93 318.940   2
 -21  11   1 6168.22 343.919   3
  11  10   1 11764.2 1188.48   1
 -10 -11   1 7548.41 895.264   4
 -21  11   1 7894.21 811.995   4
 -11  21   1 5607.24 282.594   2
 -21  11   1 9395.66 985.610   2
 -10 -11   1 8779.76 1028.00   2
 -11  21   4 8159.88 1179.56   1
 -10 -11   4 7917.74 1225.66   2
 -21  11   4 5490.45 506.750   3
  11  10   4 7775.93 1052.62   1
  10 -21   4 6895.35 848.464   1
 -10 -11   4 8755.00 1201.15   4
 -21  11   4 8130.29 1082.11   4
 -21  11   4 7365.34 1045.20   2
 -11  21   7 6549.34 1287.33   1
 -21  11   7 7140.03 1305.01   2
  11  10   7 7722.37 1117.24   1
 -10 -11   7 6140.92 1426.28   2
 -10 -11   7 7308.33 1388.76   4
 -21  11   7 7034.26 1328.86   4
 -12  21  -9 11744.8 1797.39   3
  12   9  -9 9125.80 1263.73   3
 -21  12  -9 9715.74 1546.23   3
  -9 -12  -9 10783.3 1429.49   3
  21  -9  -9 9232.36 1001.44   3
  -9 -12  -9 8203.25 1377.44   4
  -9 -12  -9 8957.05 1115.87   2
  12   9  -6 4712.56 842.807   3
 -12  21  -6 2940.80 916.901   3
 -21  12  -6 5530.34 1094.63   3
 -12  21  -6 3457.36 469.180   1
  -9 -12  -6 4177.60 849.620   3
 -21  12  -6 5119.70 880.497   4
  -9 -12  -6 5361.18 981.865   4
  -9 -12  -6 3002.41 674.950   2
  12   9  -3 11302.4 1180.73   1
 -21  12  -3 12063.6 1005.92   3
 -12  21  -3 11832.7 972.517   1
   9 -21  -3 13157.1 644.577   4
 -21  12  -3 12146.4 1098.61   2
 -21  12  -3 11660.5 947.678   4
  -9 -12  -3 13452.8 1129.84   4
 -12  21  -3 12070.6 532.038   4
  -9 -12  -3 12623.2 952.471   2
   9 -21  -3 10824.9 797.699   4
 -12  21  -3 10629.3 1085.26   3
  12   9  -3 9674.10 777.747   3
 -12  21   0 7426.37 982.439   1
 -21  12   0 5929.71 528.589   3
 -12  21   0 7483.59 670.517   2
  12   9   0 4975.05 588.339   3
 -12  21   0 7185.99 464.423   2
  -9 -12   0 7588.74 858.455   4
 -21  12   0 6782.57 698.439   4
 -21  12   0 7170.11 825.113   2
  -9 -12   0 6949.55 912.531   2
  12   9   0 7380.15 996.158   1
  -9 -12   3 8282.87 1209.72   2
 -21  12   3 6169.87 498.449   3
  12   9   3 10058.0 1114.28   1
  -9 -12   3 10049.5 1124.74   4
 -21  12   3 8370.71 1006.69   4
 -21  12   3 7805.65 981.035   2
 -12  21   3 9734.08 1231.01   1
  21  -9   3 7999.09 702.554   3
 -21  12   6 4690.11 1062.35   2
 -12  21   6 4121.48 1170.14   1
  12   9   6 5663.67 991.973   1
  -9 -12   6 4230.01 1147.00   2
  -9 -12   6 6751.53 1254.38   4
 -21  12   6 5735.45 1183.06   4
  12   9   9 4310.59 1094.03   1
 -12  21   9 5035.10 1328.88   1
 -21  12   9 4966.12 1345.41   2
  -9 -12   9 4745.18 1422.97   2
 -21  12   9 3407.64 1335.65   1
  -9 -12   9 2292.43 1325.78   4
 -21  12   9 6768.51 1418.70   4
  -8 -13  -7 2927.94 972.265   4
 -13  21  -7 2372.20 977.288   3
  13   8  -7 1443.37 756.829   3
 -21  13  -7-4.81321 824.359   3
  -8 -13  -7 1519.30 724.993   3
  -8 -13  -7 1190.52 599.062   2
 -21  13  -4 11224.7 907.326   4
  13   8  -4 10795.8 841.390   3
 -21  13  -4 11837.3 1124.73   3
 -13  21  -4 12307.3 925.363   1
  -8 -13  -4 12071.1 1126.65   4
   8 -21  -4 14069.8 829.965   4
 -21  13  -4 13223.6 1163.35   2
  -8 -13  -4 12356.4 904.655   2
 -13  21  -4 11926.9 770.736   4
   8 -21  -4 9232.26 926.326   4
 -13  21  -4 13274.5 1288.68   3
 -13  21  -1 11321.0 1083.17   1
 -21  13  -1 9863.00 752.830   3
 -13  21  -1 9405.31 886.311   2
  13   8  -1 10596.5 1123.55   1
  13   8  -1 7433.75 608.122   3
  -8 -13  -1 9124.81 896.249   4
 -21  13  -1 9725.61 908.889   2
 -21  13  -1 8993.32 748.589   4
   8 -21  -1 7791.68 400.796   4
  -8 -13  -1 8607.39 894.484   2
  -8 -13   2 34734.1 1943.61   2
 -21  13   2 25623.6 854.146   3
  -8 -13   2 31269.8 1652.04   4
 -21  13   2 30535.7 1487.40   4
  13   8   2 35653.0 1852.51   1
 -21  13   2 27945.1 1511.89   2
   8 -21   2 27246.7 973.658   4
 -13  21   2 34341.5 1952.32   1
 -21  13   2 29523.9 919.336   3
 -21  13   5 2592.34 834.670   2
 -13  21   5 1648.93 985.001   1
 -21  13   5 287.303 489.991   3
  13   8   5 1086.88 688.130   1
  -8 -13   5 814.635 754.235   4
 -21  13   5 942.178 742.862   4
 -21  13   8 7656.25 1330.75   2
  13   8   8 10921.6 1292.67   1
  -8 -13   8 8030.56 1543.64   2
 -21  13   8 11618.6 1677.11   1
  -8 -13   8 11855.3 1725.15   4
 -21  13   8 9295.86 1443.59   4
 -13  21   8 9622.75 1514.06   1
 -14  21  -8 6910.73 1364.17   3
 -21  14  -8 12435.1 1556.70   3
  14   7  -8 6559.80 1039.58   3
  21  -7  -8 10434.5 887.108   3
  -7 -14  -8 11570.4 1355.73   3
  -7 -14  -8 8687.98 1290.34   4
  -7 -14  -8 9455.96 988.954   2
 -14  21  -5 9913.14 1215.21   3
  14   7  -5 8821.19 848.669   3
 -21  14  -5 7983.25 1110.80   3
 -14  21  -5 9035.19 745.395   1
 -21  14  -5 8771.54 912.699   4
  -7 -14  -5 6869.66 950.206   4
  -7 -14  -5 6603.44 745.760   2
 -14  21  -2 5916.87 827.908   1
 -21  14  -2 5006.92 664.193   3
  14   7  -2 5689.72 933.453   1
  14   7  -2 3646.14 439.393   3
 -21  14  -2 4694.08 727.690   2
  -7 -14  -2 5269.04 771.967   4
 -21  14  -2 5394.19 660.072   4
   7 -21  -2 5974.34 478.825   4
  -7 -14  -2 5892.90 734.302   2
 -14  21  -2 5018.81 811.559   3
  14   7  -2 4136.36 481.670   3
  14   7   1 5318.26 909.557   1
  14   7   1 3968.95 596.071   3
 -21  14   1 5404.05 483.020   3
  -7 -14   1 5401.12 799.922   4
 -14  21   1 5458.13 441.361   2
 -21  14   1 5885.19 705.876   4
   7 -21   1 4202.37 436.680   4
 -21  14   1 4049.73 698.790   2
 -14  21   1 6374.71 995.757   1
 -21  14   1 5503.08 534.418   3
  -7 -14   1 4810.57 894.732   2
  14   7   4 3032.30 834.445   1
 -21  14   4 3230.05 841.358   2
  -7 -14   4 1752.37 893.790   2
 -21  14   4 2130.93 511.540   3
 -14  21   4 1168.75 225.004   2
  -7 -14   4 3142.86 855.016   4
 -14  21   4 4815.81 1079.95   1
 -21  14   4 1910.49 769.758   4
   7 -21   4 3490.16 695.963   4
 -14  21   7 4112.47 1198.55   1
 -21  14   7 3442.49 1048.83   2
  -7 -14   7 2622.47 1297.42   2
  14   7   7 4467.11 988.232   1
 -21  14   7 4927.55 1300.93   1
  -7 -14   7 4424.42 1160.43   4
 -21  14   7 2750.91 1039.23   4
 -15  21  -6 432.323 275.357   1
 -15  21  -6 1328.66 831.980   3
 -21  15  -6 1389.49 860.876   3
  15   6  -6-22.0435 543.059   3
 -21  15  -6 1091.01 619.516   4
  -6 -15  -6 632.790 744.297   4
  -6 -15  -6 46.5073 457.131   2
 -21  15  -6 646.418 437.351   1
  15   6  -3 5278.58 546.315   3
 -15  21  -3 5134.93 836.175   3
 -15  21  -3 6231.37 777.090   1
 -21  15  -3 7097.50 855.487   3
 -15  21  -3 5469.66 377.038   4
 -15  21  -3 5191.84 333.401   4
 -21  15  -3 6756.01 881.245   2
 -21  15  -3 6001.13 698.984   4
  -6 -15  -3 5871.41 842.838   4
  -6 -15  -3 6835.27 713.012   2
   6 -21  -3 6274.61 603.821   4
  -6 -15   0 3484.90 732.291   2
  15   6   0 2686.89 455.276   3
  15   6   0 4909.65 917.248   1
 -15  21   0 3828.50 470.683   2
  -6 -15   0 4985.50 730.231   4
 -21  15   0 3522.99 688.081   2
   6 -21   0 2899.39 414.748   4
 -21  15   0 2863.16 516.168   4
 -15  21   0 4694.09 864.145   1
 -21  15   0 4007.64 553.507   3
  -6 -15   3 7677.03 1142.51   2
 -21  15   3 7355.59 906.267   4
 -21  15   3 4465.74 539.031   3
  -6 -15   3 6686.97 975.879   4
 -15  21   3 8552.17 1222.20   1
 -21  15   3 7564.85 924.156   2
   6 -21   3 5335.29 702.267   4
  15   6   3 9831.52 1097.86   1
 -15  21   3 4448.37 439.461   2
  21  -6   3 6902.45 672.259   3
 -21  15   6 25551.7 1818.44   2
  -6 -15   6 29003.5 2307.61   2
 -15  21   6 20478.0 981.211   2
 -21  15   6 31113.6 2236.56   1
  15   6   6 28013.4 1740.59   1
  -6 -15   6 26414.0 1998.99   4
 -15  21   6 29090.0 2205.16   1
 -21  15   6 29896.2 1911.76   4
   6 -21   6 28972.5 1789.89   4
 -16  21  -7-931.031 841.503   3
 -21  16  -7-437.826 876.124   3
  16   5  -7-446.392 589.001   3
  21  -5  -7-58.7186 365.071   3
  -5 -16  -7 1419.41 835.449   4
  -5 -16  -7 1164.67 507.577   2
 -16  21  -4 6338.62 1003.93   3
 -21  16  -4 5012.05 889.084   3
 -16  21  -4 8185.35 804.095   1
  16   5  -4 4730.74 553.514   3
 -21  16  -4 4996.42 829.509   2
 -21  16  -4 6047.33 772.521   1
   5 -21  -4 5739.65 665.737   4
 -21  16  -4 6543.60 701.404   4
  -5 -16  -4 8154.25 937.879   4
  -5 -16  -4 4769.57 588.872   2
 -16  21  -4 6348.04 679.039   4
  16   5  -1 48.7602 259.658   3
 -16  21  -1 129.506 498.269   3
 -21  16  -1 841.042 463.131   3
  16   5  -1 716.923 670.401   1
  -5 -16  -1-63.5520 500.224   2
 -16  21  -1 649.004 555.090   1
  16   5  -1 408.045 308.411   3
 -16  21  -1 448.262 350.614   2
  -5 -16  -1 631.371 498.567   4
 -21  16  -1 220.331 341.469   4
   5 -21  -1-390.750 329.839   4
 -21  16  -1 804.551 482.019   2
  -5 -16   2 9390.92 1145.56   2
  16   5   2 7192.20 792.004   3
  16   5   2 8789.50 1096.72   1
 -21  16   2 6361.84 597.817   3
 -21  16   2 10681.7 1298.23   1
  -5 -16   2 8101.72 956.927   4
 -21  16   2 9309.69 860.408   4
 -21  16   2 8353.87 906.794   2
 -16  21   2 7735.43 1143.43   1
   5 -21   2 6972.12 719.153   4
 -16  21   2 6901.62 579.629   2
  21  -5   2 8723.98 577.397   3
 -16  21   5 703.954 894.123   1
 -21  16   5 30.1447 657.786   2
 -16  21   5 418.203 439.278   2
  -5 -16   5-170.147 904.689   2
  16   5   5 500.307 685.504   1
 -21  16   5-384.402 908.380   1
  -5 -16   5 610.943 724.578   4
 -21  16   5 29.7726 645.755   4
   5 -21   5 973.487 698.546   4
 -16  21   8 6332.94 1390.93   1
 -21  16   8 3949.06 1075.51   2
  16   5   8 3473.62 909.023   1
  -5 -16   8 6698.02 1568.26   2
 -21  16   8 5997.52 1380.80   1
  -5 -16   8 5656.39 1309.59   4
 -21  16   8 4285.87 1201.95   4
   5 -21   8 4681.63 1166.97   4
 -17  21  -8 747.329 981.283   3
 -21  17  -8 1132.55 1003.83   3
  17   4  -8 2896.53 830.411   3
  -4 -17  -8 3575.77 1032.10   4
 -17  21  -5 8616.90 1183.47   3
 -21  17  -5 7283.74 1108.46   3
  17   4  -5 7844.40 675.588   3
 -17  21  -5 9183.86 744.965   1
 -21  17  -5 9294.07 877.608   4
   4 -21  -5 9615.08 888.166   4
  -4 -17  -5 7796.42 999.809   4
 -21  17  -5 7308.18 766.038   1
  -4 -17  -5 8192.27 711.281   2
 -21  17  -2 5046.11 719.755   3
 -21  17  -2 6312.96 798.120   2
  17   4  -2 3950.06 325.124   3
  17   4  -2 3650.08 353.707   3
 -21  17  -2 6525.71 889.894   1
  -4 -17  -2 6795.52 832.025   4
   4 -21  -2 6243.56 621.360   4
 -21  17  -2 6359.23 595.388   4
 -17  21  -2 6679.49 905.427   1
  -4 -17  -2 5452.76 702.301   2
 -17  21  -2 5611.32 814.543   3
  -4 -17   1 8972.83 1110.55   2
  17   4   1 6338.00 648.621   3
 -21  17   1 9813.83 1221.31   1
  -4 -17   1 7552.66 853.090   4
 -17  21   1 6882.95 622.174   2
 -21  17   1 9030.67 870.460   2
   4 -21   1 5579.06 645.108   4
 -21  17   1 6658.12 698.728   4
 -17  21   1 8648.41 1143.33   1
  17   4   1 10115.9 1193.60   1
 -21  17   1 7319.14 688.092   3
 -17  21   4 3041.13 972.038   1
 -21  17   4 1844.40 691.353   2
 -17  21   4 2994.93 580.176   2
  -4 -17   4 4241.09 1085.93   2
 -21  17   4 3582.98 1010.68   1
  -4 -17   4 1356.36 800.873   4
   4 -21   4 2880.17 731.462   4
 -21  17   4 3575.50 786.149   4
  17   4   4 3151.34 833.574   1
 -17  21   7 3513.50 1190.56   1
 -21  17   7 2872.12 932.025   2
 -17  21   7 2414.98 699.971   2
  -4 -17   7 2127.07 1169.11   2
  17   4   7 2572.87 888.367   1
 -21  17   7 3933.63 1183.77   1
  -4 -17   7 1902.30 977.966   4
   4 -21   7 3527.13 1125.48   4
 -21  17   7 4145.11 1131.23   4
   3 -21  -6 13261.8 1157.09   4
 -18  21  -6 9519.02 1380.31   3
 -21  18  -6 12220.2 1491.22   3
  18   3  -6 9902.40 809.050   3
 -21  18  -6 12252.9 1067.35   4
  -3 -18  -6 11805.7 1214.33   4
  -3 -18  -6 9720.34 709.074   2
  -3 -18  -3 963.055 470.836   2
 -18  21  -3 155.330 581.493   3
 -21  18  -3-9.59212 561.631   3
 -18  21  -3 871.044 561.626   1
  18   3  -3 189.392 117.175   3
 -18  21  -3 487.855 223.960   4
 -21  18  -3 1205.08 520.279   2
 -21  18  -3 141.406 353.790   4
   3 -21  -3 58.0720 446.486   4
  -3 -18  -3 236.911 528.521   4
 -21  18  -3 1343.56 581.418   1
 -18  21  -3 67.8498 302.490   4
  -3 -18   0 18909.5 1270.22   2
 -18  21   0 19806.6 1014.86   2
  18   3   0 15734.7 685.203   3
 -21  18   0 22458.2 1632.49   1
  -3 -18   0 19325.7 1164.98   4
   3 -21   0 19151.8 977.050   4
 -21  18   0 17959.1 862.589   4
 -18  21   0 21236.5 1533.80   1
 -21  18   0 19676.2 1171.03   2
 -21  18   0 19452.0 1076.27   3
 -18  21   3 946.665 438.069   2
  21  -3   3 849.312 495.012   3
  -3 -18   3 1053.80 787.047   2
   3 -21   3 2083.10 763.044   2
  18   3   3 1117.59 736.265   1
 -21  18   3 2925.72 954.287   1
  -3 -18   3 893.421 618.282   4
   3 -21   3 1487.29 616.854   4
 -21  18   3 1433.66 591.730   4
 -18  21   3 1637.45 873.159   1
 -21  18   3 1066.12 542.894   2
 -21  18   6 13253.4 1319.40   2
 -18  21   6 12209.6 1001.13   2
  18   3   6 16802.5 1414.57   1
  -3 -18   6 19652.1 1884.76   2
 -21  18   6 18488.6 1864.37   1
 -18  21   6 18102.9 1853.53   1
  -3 -18   6 16906.8 1629.25   4
   3 -21   6 18343.3 1546.97   4
 -21  18   6 17226.1 1551.02   4
 -19  21  -7 2328.05 1083.45   3
 -21  19  -7 2467.47 1111.94   3
   2 -21  -7 4204.95 875.696   4
  -2 -19  -7 2950.81 908.681   4
  -2 -19  -4-154.937 312.528   2
 -19  21  -4 59.9132 648.130   3
 -21  19  -4 873.280 735.392   3
 -19  21  -4 748.557 545.163   1
 -19  21  -4 512.183 336.118   4
 -21  19  -4 770.955 425.929   4
   2 -21  -4-395.898 502.199   4
  -2 -19  -4 315.941 533.786   4
 -21  19  -4-817.066 570.030   1
  -2 -19  -1 4376.95 693.940   2
 -19  21  -1 5264.18 659.096   2
 -21  19  -1 6024.78 761.077   2
 -21  19  -1 6497.25 966.910   1
  -2 -19  -1 4129.48 655.401   4
   2 -21  -1 4141.56 557.690   4
 -21  19  -1 4726.16 460.022   4
 -19  21  -1 7737.07 1011.36   1
 -19  21  -1 5769.79 805.892   3
 -21  19  -1 5949.95 754.222   3
  21  -2   2 6565.06 560.253   3
  19   2   2 5299.74 664.297   3
  19   2   2 6330.80 1018.89   1
  -2 -19   2 7068.15 1039.99   2
   2 -21   2 8892.27 1031.68   2
 -19  21   2 5639.14 1109.28   1
  -2 -19   2 6067.87 863.767   4
   2 -21   2 6103.40 803.183   4
 -21  19   2 5950.78 736.588   2
 -19  21   2 5318.25 672.630   2
 -21  19   2 9195.42 1244.03   1
 -21  19   2 5280.22 647.389   4
 -21  19   5 1687.78 744.294   2
 -19  21   5 1099.63 605.903   2
  -2 -19   5 911.731 965.378   2
   2 -21   5 2806.23 1006.18   2
  19   2   5 624.715 698.790   1
 -21  19   5 3397.16 1136.22   1
  -2 -19   5 897.409 795.797   4
   2 -21   5 898.948 751.667   4
 -21  19   5 1651.86 737.820   4
 -19  21   5 996.008 903.045   1
 -19  21   8 4046.17 1332.52   1
 -21  19   8 3045.84 982.281   2
  -2 -19   8 2879.97 1342.67   2
  19   2   8 4056.67 982.736   1
  -2 -19   8 3891.92 1258.04   4
 -21  19   8 7455.23 1491.27   1
   2 -21   8 3568.85 1182.99   4
 -20  21  -8 3945.02 1332.24   3
 -21  20  -8 1417.84 1054.41   3
   1 -21  -8 4756.76 1080.74   4
  -1 -20  -8 4767.79 1076.21   4
 -21  20  -5 8261.85 1165.17   3
 -20  21  -5 5327.63 1025.62   3
 -20  21  -5 8087.44 739.096   4
 -21  20  -5 8055.77 783.458   4
   1 -21  -5 7824.18 945.488   4
  -1 -20  -5 6633.25 926.945   4
 -21  20  -5 6803.84 766.571   1
 -20  21  -5 8094.83 773.431   1
  -1 -20  -2 3662.11 518.062   2
 -20  21  -2 3950.94 657.492   2
 -21  20  -2 4076.32 642.610   2
 -21  20  -2 5914.94 864.046   1
  -1 -20  -2 4363.44 695.488   4
 -21  20  -2 3214.67 393.546   4
 -20  21  -2 2584.47 262.224   4
 -20  21  -2 4936.18 842.440   1
 -20  21  -2 2146.05 321.391   4
   1 -21  -2 4588.30 649.342   4
 -20  21  -2 4791.05 810.749   3
 -21  20  -2 4783.96 827.059   3
   1 -21   1 5829.42 755.018   4
  20   1   1 3484.88 419.584   3
 -21  20   1 5005.70 675.530   2
  -1 -20   1 5766.71 921.473   2
 -20  21   1 7635.74 1154.87   1
   1 -21   1 5451.06 805.836   2
  -1 -20   1 5105.97 714.531   4
 -20  21   1 4625.61 661.321   2
 -21  20   1 3865.92 473.493   4
 -21  20   1 4795.63 975.593   1
  21  -1   1 3004.89 275.224   3
  20   1   4 4164.57 917.530   1
 -21  20   4 2516.42 705.462   2
 -20  21   4 3528.19 686.090   2
  -1 -20   4 4310.11 1089.30   2
   1 -21   4 3797.95 989.761   2
  -1 -20   4 3714.27 870.503   4
 -21  20   4 5341.90 1160.95   1
   1 -21   4 3444.58 844.726   4
 -21  20   4 4692.74 772.740   4
 -20  21   4 4568.58 1113.92   1
 -20  21   7 4072.46 985.215   2
 -21  20   7 3161.60 938.659   2
  20   1   7 4091.31 975.907   1
  -1 -20   7 4354.29 1384.01   2
 -21  20   7 8123.19 1550.76   1
  -1 -20   7 5125.06 1179.57   4
   1 -21   7 5500.48 1229.60   4
 -20  21   7 6107.38 1392.34   1
 -21  21  -6 18544.0 1209.83   4
   0 -21  -6 15933.5 1322.40   4
 -21  21  -3-261.991 631.267   3
   0 -21  -3 937.371 499.574   4
 -21  21  -3 374.215 511.755   2
 -21  21  -3 407.508 324.586   4
 -21  21  -3-48.7548 560.175   1
   0 -21   0 36446.5 1503.11   2
 -21  21   0 38252.1 1540.25   2
   0 -21   0 34690.7 1467.79   4
 -21  21   0 36544.8 1565.67   3
 -21  21   3 346.733 518.599   2
   0 -21   3-182.769 735.326   2
   0 -21   3 116.552 633.140   4
 -21  21   3 461.724 846.211   1
 -21  21   3 1054.93 471.728   4
 -21  21   6 3898.48 920.072   2
   0 -21   6 6536.55 1397.01   2
   0 -21   6 2781.74 1018.01   4
 -21  21   6 3565.59 1181.66   1
  21   0   6 4005.86 935.288   1
   0  22  -7 96.2566 1025.79   3
 -22   0  -7 297.719 723.357   3
 -22   0  -7 1155.83 900.578   2
   0  22  -4 1649.62 880.187   3
 -22   0  -4 2411.72 557.856   3
 -22   0  -4 53.3467 703.266   4
   0  22  -4 2288.96 818.626   1
 -22   0  -4-424.075 720.877   2
   0  22  -1-1023.34 724.561   1
 -22   0  -1-1004.23 634.341   4
 -22   0  -1 520.253 687.527   2
 -22   0   2 4337.43 1088.29   2
   0  22   2 6604.58 1137.27   1
 -22   0   2 4722.57 998.192   4
   0  22   5 290.653 988.612   1
 -22   0   5 771.244 1008.93   2
 -22   0   5 1575.04 984.642   4
   1  21  -5 6180.19 1049.67   1
  -1  22  -5 6890.66 1130.81   3
   1  21  -5 4558.06 1045.39   3
 -21  -1  -5 7263.28 1139.64   2
 -22   1  -5 8843.83 943.619   3
 -21  -1  -5 8144.77 886.876   3
 -22   1  -5 6427.12 1157.90   4
 -21  -1  -5 8084.62 1183.34   4
 -22   1  -5 6889.48 1084.27   2
  -1  22  -5 7579.93 1050.10   1
   1  21  -2 1522.68 767.096   1
 -21  -1  -2-896.139 691.359   2
 -21  -1  -2 287.820 622.820   4
 -22   1  -2 540.864 656.482   4
  -1  22  -2 42.4898 666.406   1
 -22   1  -2 1679.39 740.528   2
  -1  22   1 6202.35 423.121   2
 -21  -1   1 7208.31 1065.63   4
 -22   1   1 11154.9 1214.14   4
  -1  22   1 11227.6 1290.44   1
 -22   1   1 9052.91 1209.02   2
 -21  -1   1 9416.78 1242.49   2
   1  21   1 10649.6 1292.82   1
  -1  22   4 3495.71 1027.31   1
 -22   1   4 3133.13 1068.49   2
 -21  -1   4 4102.66 1251.18   2
   1  21   4 3413.68 947.659   1
 -21  -1   4 1077.29 945.846   4
 -22   1   4 2699.65 987.879   4
   1  21   7 4895.67 1206.34   1
 -22   1   7 7601.82 1607.90   2
 -21  -1   7 3451.69 1388.49   2
 -21  -1   7 6626.42 1522.11   4
 -22   1   7 4463.38 1392.19   4
  -1  22   7 4537.41 1199.15   1
  -2  22  -6 1925.11 829.466   1
   2  20  -6 933.166 836.315   1
  -2  22  -6 2424.55 986.782   3
   2  20  -6 1123.33 927.282   3
 -22   2  -6 1802.31 707.602   3
 -20  -2  -6 536.434 651.501   3
 -22   2  -6 2697.78 884.220   4
 -20  -2  -6 1630.65 802.325   4
 -22   2  -6 1412.91 806.236   2
 -20  -2  -6 1614.25 843.225   2
 -20  -2  -3 11893.3 1232.01   2
  -2  22  -3 11394.3 1187.55   1
 -22   2  -3 11774.7 766.745   3
   2  20  -3 10120.9 1184.93   1
 -20  -2  -3 10132.8 1134.03   4
 -22   2  -3 8513.94 1121.33   4
 -22   2  -3 10374.0 1191.64   2
  -2  22  -3 11723.1 1198.43   3
   2  20  -3 9834.06 1128.73   3
  -2  22   0 2911.99 847.347   1
  -2  22   0 3036.84 455.276   2
   2  20   0 1753.98 823.838   1
 -20  -2   0 3482.67 852.469   4
 -22   2   0 1678.53 704.221   4
   2  20   0 1823.23 467.445   2
 -22   2   0 1864.74 792.906   2
 -20  -2   0 3233.75 873.016   2
  -2  22   3 7223.48 1179.00   1
 -20  -2   3 9487.28 1215.86   4
 -22   2   3 5926.83 1069.40   4
   2  20   3 6456.66 1091.61   1
 -22   2   3 7588.02 1244.00   2
 -20  -2   3 6651.49 1254.00   2
 -22   2   6 6832.42 1529.57   2
 -20  -2   6 4663.72 1438.27   2
  -2  22   6 8695.29 1378.95   1
   2  20   6 6885.48 1268.13   1
 -20  -2   6 6257.97 1356.01   4
 -22   2   6 5530.45 1369.53   4
 -19  -3  -7 1587.91 904.250   4
  -3  22  -7 402.787 1019.47   3
   3  19  -7 1710.38 1028.19   3
 -22   3  -7 681.513 821.282   3
 -19  -3  -7 984.628 749.139   3
 -22   3  -7-8.78768 771.736   4
 -22   3  -7 1530.63 841.845   2
 -19  -3  -7-491.099 776.672   2
  -3  22  -7 1018.63 734.017   1
  -3  22  -4 3000.01 857.555   3
   3  19  -4 2665.15 864.321   3
  -3  22  -4 5956.38 953.339   1
 -22   3  -4 4942.19 694.137   3
   3  19  -4 4989.15 945.431   1
 -19  -3  -4 4303.06 669.223   3
 -22   3  -4 5321.37 936.532   4
 -19  -3  -4 3807.43 900.330   4
 -22   3  -4 4771.48 941.299   2
 -19  -3  -4 4334.86 856.077   2
  -3  22  -1 2679.78 743.552   1
  -3  22  -1 2917.97 550.291   4
 -19  -3  -1 3209.68 766.745   4
 -22   3  -1 2120.41 684.620   4
 -22   3  -1 4010.33 893.109   2
 -19  -3  -1 3639.51 870.456   2
  -3  22  -1 3136.52 538.312   2
   3  19  -1 3359.37 847.566   1
 -19  -3   2 6152.71 1077.35   2
  -3  22   2 6940.04 1099.63   1
 -19  -3   2 5018.73 979.278   4
 -22   3   2 4141.26 860.509   4
   3  19   2 5072.52 984.379   1
 -22   3   2 3685.98 968.318   2
 -22   3   5 1654.65 1056.77   2
 -19  -3   5 507.550 1058.96   2
   3  19   5 642.844 798.721   1
 -19  -3   5 2709.54 1087.88   4
 -22   3   5 1050.96 992.214   4
  -3  22   5 595.757 850.109   1
 -22   3   8 7405.25 1561.64   2
 -19  -3   8 3780.21 1488.14   2
   3  19   8 6765.60 1301.66   1
  -3  22   8 5290.62 1355.79   1
 -19  -3   8 3163.08 1241.68   4
 -22   3   8 3580.86 1280.85   4
  -4  22  -8 1169.23 1172.12   3
   4  18  -8 1413.23 1109.23   3
 -22   4  -8-252.427 782.855   3
 -18  -4  -8 2775.09 966.672   3
 -22   4  -8 2002.34 958.013   4
 -18  -4  -8 1452.78 961.832   4
 -22   4  -8 1428.23 928.764   2
 -18  -4  -8 1656.88 984.939   2
   4  18  -5 5466.63 1051.34   3
  -4  22  -5 4898.20 1046.38   3
 -22   4  -5 8742.79 973.990   3
   4  18  -5 5400.10 973.936   1
 -18  -4  -5 5808.53 800.786   3
  -4  22  -5 8875.90 1043.44   1
 -22   4  -5 5362.25 999.010   4
 -18  -4  -5 6860.70 1035.33   4
 -22   4  -5 6304.33 1045.76   2
 -18  -4  -5 5563.87 944.891   2
  -4  22  -2 1528.45 602.158   2
  -4  22  -2 807.802 611.694   1
  -4  22  -2 2383.02 541.482   4
   4  18  -2 80.9270 649.458   1
 -22   4  -2 2043.02 336.156   3
  22 -18  -2 1390.98 437.655   4
 -22   4  -2 920.780 579.847   4
 -18  -4  -2 811.450 605.273   4
 -22   4  -2 1271.44 662.849   2
 -18  -4  -2 1504.86 714.662   2
  -4  22   1 4038.12 948.804   1
   4  18   1 1897.38 503.923   2
   4  18   1 1685.32 772.754   1
 -18  -4   1 2622.60 720.064   4
 -22   4   1 2485.19 714.007   4
 -22   4   1 3430.52 819.608   2
 -18  -4   1 1983.90 831.876   2
 -22   4   4-1069.73 857.762   2
 -18  -4   4-47.1655 837.249   2
   4  18   4 1209.60 726.639   1
 -18  -4   4 209.278 796.578   4
  -4  22   4 838.425 750.009   1
 -22   4   4 870.957 734.431   4
 -22   4   7 3477.48 1245.38   2
   4  18   7 1339.48 924.177   1
 -18  -4   7 1764.29 1162.76   2
  -4  22   7 2087.42 1017.25   1
 -18  -4   7 2169.98 1096.86   4
 -22   4   7 2049.51 1143.08   4
 -22   5  -6 2481.10 836.188   4
 -17  -5  -6 1841.32 851.361   4
  -5  22  -6 1347.91 998.003   3
   5  17  -6 2098.49 872.641   3
 -22   5  -6 2924.22 808.268   3
 -17  -5  -6 2859.18 754.414   3
  -5  22  -6 2204.25 740.313   1
 -22   5  -6 3013.72 916.189   2
 -17  -5  -6 1523.40 740.583   2
 -22   5  -3 6364.67 639.796   3
 -22   5  -3 6790.82 958.500   4
 -17  -5  -3 5597.34 952.900   4
  -5  22  -3 4549.67 639.482   4
  17 -22  -3 4343.36 280.019   4
 -22   5  -3 7225.39 980.826   2
 -17  -5  -3 5252.98 908.432   2
   5  17  -3 6631.71 992.682   1
  -5  22  -3 5585.56 862.263   1
  -5  22  -3 5007.85 973.652   3
   5  17  -3 5635.04 840.464   3
 -22   5   0 2046.98 674.411   4
 -17  -5   0 1148.25 598.606   4
  -5  22   0 1649.31 306.074   2
 -22   5   0 986.723 674.071   2
 -17  -5   0 1066.71 769.655   2
  -5  22   0 2217.65 759.031   1
   5  17   0 2186.47 781.986   1
 -17  -5   3 5610.04 1117.53   2
 -17  -5   3 6844.86 1071.57   4
 -22   5   3 6351.37 1011.06   4
  -5  22   3 5040.34 1004.45   1
 -22   5   3 5978.67 1064.03   2
   5  17   3 7232.93 1064.54   1
 -22   5   6 3583.83 1129.79   2
 -17  -5   6 2394.25 1130.33   2
   5  17   6 2421.92 921.078   1
  -5  22   6 2227.97 1010.85   1
 -17  -5   6 5422.04 1290.92   4
 -22   5   6 2413.31 1055.34   4
 -22   6  -7 2982.94 950.017   2
  -6  22  -7 1353.73 975.840   3
   6  16  -7 3728.76 1055.00   3
 -22   6  -7 2516.77 853.069   3
 -16  -6  -7 1885.34 783.257   3
 -22   6  -7 1295.85 836.080   4
 -16  -6  -7 2695.88 979.987   4
 -16  -6  -7 3220.76 869.550   2
  -6  22  -4 7560.68 896.933   1
 -16  -6  -4 7227.92 990.633   2
   6  16  -4 7334.61 1063.49   1
 -22   6  -4 8089.01 818.721   3
 -16  -6  -4 6783.96 758.496   3
 -22   6  -4 6501.96 883.026   4
 -16  -6  -4 8330.34 1062.13   4
 -22   6  -4 8932.95 1061.80   2
  16 -22  -4 5578.86 534.100   4
  -6  22  -4 6869.60 1052.24   3
   6  16  -4 7362.11 1010.66   3
   6  16  -1 15090.9 1321.93   1
  -6  22  -1 15733.4 1296.11   1
  22 -16  -1 13446.4 855.003   4
 -16  -6  -1 14196.1 1204.64   4
 -22   6  -1 14843.4 1132.22   4
 -22   6  -1 14859.1 1254.85   2
 -16  -6  -1 14615.4 1251.55   2
  -6  22  -1 15285.1 908.736   2
   6  16   2 8900.74 1119.00   1
  -6  22   2 9408.49 1167.51   1
 -16  -6   2 8059.92 1061.92   4
 -22   6   2 9204.34 1050.88   4
 -22   6   2 7760.41 1134.48   2
 -16  -6   2 9256.13 1156.47   2
 -22   6   5 2593.50 976.578   2
 -16  -6   5 3971.11 1244.45   2
  -6  22   5 3312.15 1019.68   1
 -16  -6   5 4336.20 1061.64   4
 -22   6   5 3782.48 1038.53   4
   6  16   5 4807.80 1054.35   1
 -22   6   8 2503.61 1274.46   2
 -16  -6   8 2159.20 1258.41   2
   6  16   8 1390.70 980.939   1
  -6  22   8 963.176 1045.99   1
 -16  -6   8 890.964 1257.00   4
 -22   6   8 958.735 1051.80   4
  -7  22  -8 825.524 1045.55   3
   7  15  -8 757.329 920.009   3
 -22   7  -8 1031.95 941.008   3
 -15  -7  -8 1145.02 885.831   3
 -22   7  -8 2338.42 974.180   4
 -15  -7  -8 1826.58 1087.40   4
 -22   7  -8 1415.32 923.287   2
 -15  -7  -8 2400.92 924.565   2
   7  15  -5 5248.27 944.565   3
  -7  22  -5 5924.94 838.392   1
 -22   7  -5 6385.52 943.892   3
 -15  -7  -5 6394.07 836.941   3
 -22   7  -5 6242.84 901.056   4
 -22   7  -5 4893.90 990.582   2
 -15  -7  -5 3406.12 878.720   4
 -15  -7  -5 6005.08 914.599   2
   7  15  -5 5430.99 1008.48   1
  -7  22  -5 5578.19 1061.56   3
  -7  22  -2 5604.11 492.685   4
 -22   7  -2 6513.76 565.952   3
 -15  -7  -2 5913.77 887.439   4
 -22   7  -2 6022.78 783.270   4
 -15  -7  -2 6393.89 894.978   2
   7  15  -2 6063.90 983.676   1
  -7  22  -2 5840.07 876.625   1
 -22   7  -2 7591.79 954.942   2
  -7  22  -2 4502.45 806.195   2
 -15  -7   1 3395.04 889.224   2
   7  15   1 3921.09 854.073   1
  -7  22   1 4724.80 908.500   1
 -15  -7   1 3673.19 806.597   4
 -22   7   1 3462.06 709.601   4
 -22   7   1 2928.01 735.260   2
 -22   7   4 1308.60 922.739   2
 -15  -7   4 2120.22 929.341   2
  -7  22   4 3151.70 953.354   1
   7  15   4 874.411 745.608   1
 -15  -7   4 1892.88 809.074   4
 -22   7   4 1825.15 827.809   4
 -22   7   7 2062.08 1120.27   2
 -15  -7   7 6070.13 1476.70   2
   7  15   7 5470.61 1110.36   1
  -7  22   7 4962.24 1222.33   1
 -15  -7   7 5046.10 1287.70   4
 -22   7   7 5044.38 1246.29   4
 -22   8  -6 843.404 766.607   2
  -8  22  -6 1811.35 967.530   3
  -8  22  -6 1290.58 576.966   1
   8  14  -6 2440.12 860.119   3
 -22   8  -6 2486.40 843.157   3
 -14  -8  -6 2462.08 761.494   3
 -22   8  -6 1420.80 751.119   4
 -14  -8  -6 2097.94 836.843   4
 -14  -8  -6 1419.48 704.620   2
 -22   8  -3 15819.5 1185.93   4
   8  14  -3 14552.9 1287.10   1
 -22   8  -3 17428.9 1049.38   3
  14 -22  -3 13570.0 458.488   4
 -14  -8  -3 16805.3 1311.86   4
  -8  22  -3 16047.9 803.477   4
 -22   8  -3 18055.5 1338.00   2
  -8  22  -3 18136.7 1252.74   1
  14 -22  -3 12036.6 450.496   4
 -14  -8  -3 14698.6 1164.16   2
  -8  22  -3 15516.3 1299.86   3
   8  14  -3 14720.6 1128.29   3
  -8  22   0 1082.58 295.127   2
   8  14   0 712.533 645.295   1
 -14  -8   0 331.079 542.441   4
  -8  22   0 618.889 635.479   1
 -22   8   0 1609.73 587.252   4
 -22   8   0 2058.48 705.147   2
 -14  -8   0 520.167 601.814   2
   8  14   3 12291.7 1238.67   1
  -8  22   3 13494.4 1373.37   1
 -14  -8   3 11922.4 1249.64   4
 -22   8   3 11616.1 1201.05   4
 -22   8   3 9433.37 1180.06   2
 -14  -8   3 11858.2 1396.61   2
 -22   8   6 929.564 922.452   2
 -14  -8   6 658.728 1118.63   2
  -8  22   6-126.907 858.618   1
   8  14   6 2724.79 927.886   1
 -14  -8   6 2351.05 1088.25   4
 -22   8   6 1076.20 1061.08   4
  -9  22  -7 3908.74 1184.48   3
   9  13  -7 3014.30 945.979   3
 -22   9  -7 2474.73 984.395   3
 -13  -9  -7 1876.92 808.462   3
 -22   9  -7 2195.90 793.045   4
 -13  -9  -7 2344.30 962.582   4
 -22   9  -7 1382.68 911.840   2
 -13  -9  -7 4020.13 840.815   2
 -22   9  -4 9272.18 976.456   3
 -22   9  -4 7218.06 876.247   4
 -13  -9  -4 5810.48 965.645   4
 -22   9  -4 8155.06 1000.00   2
  -9  22  -4 6515.59 641.615   4
  13 -22  -4 7746.31 709.159   4
  -9  22  -4 7917.20 860.047   1
   9  13  -4 7248.01 1068.06   1
 -13  -9  -4 6381.93 846.718   2
  -9  22  -4 7864.89 1108.58   3
   9  13  -4 8972.37 950.769   3
  -9  22  -1 2873.03 592.557   2
   9  13  -1 2585.95 757.536   1
 -22   9  -1 1651.84 339.282   3
 -13  -9  -1 1463.96 581.521   4
 -22   9  -1 2292.99 604.730   4
  -9  22  -1 1958.76 693.945   1
 -22   9  -1 2676.40 710.331   2
 -13  -9  -1 3079.40 740.786   2
 -13  -9   2 2435.87 884.488   2
   9  13   2 2281.25 788.400   1
  -9  22   2 3169.70 827.111   1
 -13  -9   2 1400.57 652.672   4
 -22   9   2 1029.00 619.710   4
 -22   9   2 2952.60 817.004   2
 -22   9   5 1838.46 974.177   2
 -13  -9   5-991.682 969.347   2
  -9  22   5 625.016 842.704   1
   9  13   5 1053.82 789.526   1
 -13  -9   5 3832.97 1015.39   4
 -22   9   5 1339.77 803.823   4
   9  13   8 8158.75 1259.17   1
 -13  -9   8 7270.50 1624.13   2
 -22   9   8 4784.98 1392.92   2
  -9  22   8 6772.93 1363.95   1
 -13  -9   8 9897.76 1675.27   4
 -22   9   8 6631.50 1335.22   4
 -10  22  -8 3055.94 1223.53   3
  10  12  -8 2924.64 1054.12   3
 -22  10  -8 4299.49 1203.76   3
 -12 -10  -8 1283.42 822.696   3
 -22  10  -8 1990.58 886.743   4
 -12 -10  -8 1707.61 960.801   4
 -12 -10  -8 2400.81 809.991   2
  10  12  -5 5738.59 845.157   3
 -10  22  -5 5098.37 1052.13   3
 -22  10  -5 9079.34 1092.68   3
 -12 -10  -5 7475.69 897.028   3
 -22  10  -5 5179.85 798.285   4
 -22  10  -5 6707.86 979.271   2
 -12 -10  -5 6397.53 942.176   4
 -12 -10  -5 6438.22 860.562   2
 -10  22  -5 8321.07 821.627   1
 -10  22  -2 9045.42 1016.35   2
  10  12  -2 10220.6 1120.15   1
 -22  10  -2 9833.76 769.172   3
 -10  22  -2 11892.0 1094.43   1
 -10  22  -2 6226.85 313.589   4
 -12 -10  -2 10730.6 1043.54   4
 -22  10  -2 9693.09 911.158   4
 -22  10  -2 9875.01 1006.87   2
 -12 -10  -2 10705.9 1004.88   2
  10  12  -2 8298.02 790.754   3
 -10  22  -2 7802.57 947.289   3
 -10  22   1 10261.9 1156.23   1
  10  12   1 8985.37 1069.72   1
 -12 -10   1 9044.02 1025.32   4
 -22  10   1 8405.07 899.806   4
 -22  10   1 7222.61 930.358   2
 -12 -10   1 10930.9 1157.56   2
 -12 -10   4 8168.96 1272.92   2
 -22  10   4 5892.09 1074.66   2
 -22  10   4 3144.15 274.783   3
 -10  22   4 6267.16 1162.14   1
  10  12   4 5678.68 1001.13   1
 -12 -10   4 6606.30 1145.28   4
 -22  10   4 8223.27 1179.01   4
 -10  22   7 7980.32 1372.44   1
  10  12   7 6903.49 1152.48   1
 -12 -10   7 7791.70 1561.88   2
 -22  10   7 5554.00 1315.37   2
 -12 -10   7 5895.54 1284.83   4
 -22  10   7 4730.82 1237.54   4
 -11  22  -6 546.172 770.075   3
  11  11  -6 1590.08 769.526   3
 -22  11  -6 1394.82 793.937   3
 -11  22  -6 1152.87 448.030   1
 -11 -11  -6 334.482 624.586   3
 -22  11  -6 2470.28 706.876   4
 -11 -11  -6 1163.76 706.335   4
 -22  11  -6 652.908 706.066   2
 -11 -11  -6 563.843 588.185   2
 -22  11  -3 19016.9 1180.32   3
 -11  22  -3 18805.0 1228.06   1
 -11  22  -3 16692.0 636.627   4
  11 -22  -3 18010.8 659.983   4
 -22  11  -3 17531.5 1169.46   4
 -11 -11  -3 19313.2 1373.07   4
 -22  11  -3 20135.5 1353.04   2
  11  11  -3 18956.3 1492.16   1
 -11 -11  -3 16435.8 1148.16   2
  11 -22  -3 16728.0 778.571   4
 -11  22  -3 19185.2 1373.87   3
  11  11  -3 17845.4 1103.88   3
 -11  22   0 4380.81 516.218   2
 -22  11   0 4998.21 449.248   3
  11  11   0 4343.61 865.536   1
 -11  22   0 3752.63 800.488   1
 -11  22   0 5221.57 386.047   2
 -11 -11   0 5936.48 857.823   4
 -22  11   0 5495.87 713.894   4
 -22  11   0 4954.30 780.529   2
 -11 -11   0 4456.37 850.948   2
 -11 -11   3 18603.6 1634.01   2
 -11  22   3 19723.6 1641.81   1
  11  11   3 21880.5 1568.68   1
 -11 -11   3 14717.4 1353.38   4
 -22  11   3 16940.3 1332.42   4
 -22  11   3 17389.3 1407.05   2
  11  11   6 240.076 703.104   1
 -22  11   6 345.272 898.417   2
 -11 -11   6 1911.54 1155.94   2
 -11  22   6 155.300 818.888   1
 -11 -11   6 1883.15 1034.38   4
 -22  11   6 2786.53 1033.54   4
  12  10  -7 8092.17 1097.13   3
 -12  22  -7 4276.17 1109.95   3
 -22  12  -7 6919.15 1155.99   3
 -10 -12  -7 7978.20 1163.37   3
 -22  12  -7 8754.54 1152.17   4
 -10 -12  -7 7729.16 1214.80   4
 -10 -12  -7 6608.78 906.250   2
  12  10  -4 7253.72 805.520   3
 -12  22  -4 4120.97 834.867   3
 -22  12  -4 6913.63 923.335   3
 -12  22  -4 7796.15 832.563   1
  10 -22  -4 8137.51 641.106   4
 -22  12  -4 6988.39 842.524   4
 -22  12  -4 5590.69 839.903   2
 -10 -12  -4 6776.41 956.596   4
 -12  22  -4 7955.14 633.975   4
 -10 -12  -4 5869.03 783.278   2
  10 -22  -4 6220.01 786.621   4
 -22  12  -1 6913.63 666.229   3
 -12  22  -1 9244.62 1031.03   1
  12  10  -1 9657.06 1141.84   1
 -12  22  -1 7441.71 802.147   2
  12  10  -1 6391.12 634.654   3
 -10 -12  -1 8673.26 946.446   4
 -22  12  -1 6820.35 719.396   4
 -22  12  -1 7492.04 876.850   2
 -10 -12  -1 7049.36 892.344   2
 -12  22   2 11223.7 1260.15   1
 -22  12   2 9382.57 969.692   4
 -22  12   2 6669.42 398.215   3
  12  10   2 11185.5 1190.88   1
 -10 -12   2 10680.5 1092.53   4
 -22  12   2 8962.27 1051.03   2
 -10 -12   2 9235.35 1195.20   2
 -22  12   2 6858.41 414.865   3
 -22  12   5 4936.89 1014.59   2
 -12  22   5 5403.38 1157.67   1
 -10 -12   5 6313.95 1262.98   2
  12  10   5 5985.44 973.183   1
 -10 -12   5 4775.09 1094.23   4
 -22  12   5 5713.64 1021.00   4
  12  10   8 2661.02 956.364   1
 -22  12   8 2572.29 1138.53   2
 -12  22   8 3478.01 1235.60   1
 -10 -12   8 1767.91 1182.53   2
 -22  12   8 1980.43 1144.19   1
 -10 -12   8 3532.16 1198.67   4
 -22  12   8 3061.88 1258.99   4
 -13  22  -8 7840.51 1439.61   3
  13   9  -8 6516.70 1123.01   3
 -22  13  -8 6128.22 1316.86   3
  -9 -13  -8 9041.47 1264.54   3
  -9 -13  -8 9020.94 1345.05   4
  -9 -13  -8 5468.37 900.126   2
  13   9  -5 806.173 582.846   3
 -13  22  -5 1629.57 532.550   1
 -22  13  -5 2053.36 849.632   3
  -9 -13  -5 757.033 684.796   4
 -22  13  -5 2028.41 822.184   2
  -9 -13  -5 830.877 523.971   2
 -22  13  -5 1814.54 593.043   4
 -13  22  -2 1714.61 659.596   3
  13   9  -2 1125.05 431.728   3
  13   9  -2 1549.92 784.956   1
 -22  13  -2 1034.81 451.825   3
 -13  22  -2 1848.85 685.086   2
 -13  22  -2 1393.92 600.667   1
 -22  13  -2 2147.64 534.006   4
   9 -22  -2 765.427 223.934   4
 -22  13  -2 1215.74 563.518   2
   9 -22  -2 743.484 312.061   4
  -9 -13  -2 935.905 545.894   2
  -9 -13  -2 1238.78 574.258   4
 -22  13   1 2357.48 387.691   3
  -9 -13   1 1347.33 673.694   2
 -13  22   1 1768.39 785.693   1
 -13  22   1 1325.31 328.133   2
  13   9   1 2319.34 770.327   1
 -22  13   1 1644.16 306.721   3
 -13  22   1 1740.36 269.297   2
  -9 -13   1 2342.59 704.019   4
 -22  13   1 2455.32 625.157   4
 -22  13   1 1073.64 607.504   2
 -22  13   4 4542.10 544.354   3
  -9 -13   4 6073.82 1193.60   2
  13   9   4 5454.71 981.209   1
 -22  13   4 6554.38 1017.27   4
  -9 -13   4 7020.47 1041.16   4
 -22  13   4 7652.47 1097.18   2
 -13  22   4 7574.82 1218.69   1
 -22  13   7 3521.18 1077.07   2
 -13  22   7 3290.73 1141.09   1
  13   9   7 1484.72 913.653   1
  -9 -13   7-251.050 1091.05   2
 -22  13   7 703.398 945.988   1
  -9 -13   7 2516.68 1045.39   4
 -22  13   7 1783.39 1013.19   4
 -14  22  -6 2284.28 996.946   3
  14   8  -6 2157.50 698.331   3
 -22  14  -6 1775.50 903.717   3
 -22  14  -6 2071.34 752.065   4
  -8 -14  -6 1910.24 890.135   4
  -8 -14  -6 738.861 570.249   2
 -14  22  -6 1546.68 389.195   1
  14   8  -3 10128.5 767.349   3
 -22  14  -3 12164.8 1068.90   3
 -14  22  -3 11674.9 1005.20   1
   8 -22  -3 9601.78 641.092   4
 -22  14  -3 9823.14 1003.21   2
 -22  14  -3 10540.3 865.452   4
  -8 -14  -3 11398.9 1082.36   4
 -14  22  -3 8674.57 367.732   4
  -8 -14  -3 10892.3 921.564   2
   8 -22  -3 8981.86 797.855   4
 -14  22  -3 9535.86 1061.55   3
 -22  14   0 529.332 377.111   3
  -8 -14   0 1459.83 654.979   2
  14   8   0 1140.36 643.273   1
 -14  22   0 2301.90 718.528   1
  14   8   0 384.936 403.914   3
 -14  22   0 1870.11 528.987   2
 -14  22   0 1284.56 338.816   2
  -8 -14   0 61.0924 518.830   4
 -22  14   0 1228.48 447.803   4
 -22  14   0 481.072 531.528   2
   8 -22   0 774.599 243.351   4
  -8 -14   3 14061.8 1461.88   2
 -22  14   3 9421.30 634.233   3
  -8 -14   3 12044.0 1182.89   4
  14   8   3 12268.7 1252.97   1
 -22  14   3 12502.8 1148.21   4
 -22  14   3 11691.4 1141.85   2
   8 -22   3 13656.2 910.933   4
 -14  22   3 15392.4 1513.28   1
  22  -8   3 14018.4 860.339   3
 -22  14   6 1175.76 833.804   2
 -14  22   6 2429.61 1031.59   1
  -8 -14   6 3031.34 1161.54   2
  14   8   6 838.321 774.895   1
 -22  14   6 1664.32 1112.14   1
  -8 -14   6 2812.05 990.524   4
 -22  14   6 1709.10 929.920   4
 -15  22  -7 5922.85 1308.74   3
 -22  15  -7 7978.44 1321.48   3
  15   7  -7 4322.80 830.339   3
 -22  15  -7 6305.77 977.591   4
  -7 -15  -7 3467.46 933.169   4
  -7 -15  -7 4729.88 754.082   2
   7 -22  -4 1955.18 485.381   4
 -15  22  -4 1125.86 726.314   3
  15   7  -4 2408.32 507.588   3
 -22  15  -4 1304.79 672.209   3
 -15  22  -4 3390.24 647.740   1
 -22  15  -4 3555.41 622.361   4
  -7 -15  -4 2509.60 745.647   4
 -15  22  -4 1772.68 445.804   4
  -7 -15  -4 2259.36 563.585   2
 -22  15  -4 2399.23 750.911   2
 -22  15  -1 1685.54 502.979   3
  15   7  -1 3847.63 877.194   1
  15   7  -1 2932.98 467.655   3
 -15  22  -1 3079.54 730.913   2
 -15  22  -1 3407.03 503.569   2
 -22  15  -1 3895.31 734.316   2
  -7 -15  -1 4031.66 702.248   4
   7 -22  -1 2720.08 368.969   4
 -22  15  -1 2832.59 492.178   4
  -7 -15  -1 4050.43 769.943   2
 -15  22  -1 5587.56 890.724   1
 -15  22   2 4850.51 1004.51   1
 -22  15   2 4516.35 493.007   3
  -7 -15   2 5167.63 806.977   4
  15   7   2 4074.19 839.665   1
 -22  15   2 5640.94 799.137   4
 -22  15   2 6078.80 802.644   2
   7 -22   2 6749.04 653.731   4
 -15  22   2 5126.01 425.647   2
 -22  15   5 4277.06 946.576   2
  -7 -15   5 8627.42 1398.95   2
 -22  15   5 5487.97 1194.73   1
  15   7   5 6776.46 1054.15   1
  -7 -15   5 5409.66 1122.79   4
 -15  22   5 6930.92 1311.65   1
   7 -22   5 6233.49 931.369   4
 -22  15   5 4928.98 997.233   4
 -15  22   8 3742.79 1263.27   1
 -22  15   8-49.6107 927.661   2
  -7 -15   8 1790.71 1401.99   2
 -22  15   8 2423.49 1216.11   1
  -7 -15   8 417.322 1038.72   4
 -22  15   8 1015.55 1018.99   4
  15   7   8 2134.50 889.328   1
 -16  22  -8 50.0356 1035.29   3
 -22  16  -8 3485.88 1169.96   3
  16   6  -8 1363.65 734.570   3
  -6 -16  -8 2049.67 957.522   3
  -6 -16  -8 2030.99 947.541   4
  -6 -16  -8 1359.10 614.794   2
 -16  22  -5 3166.05 929.151   3
 -22  16  -5 2237.67 606.135   4
 -22  16  -5 4717.21 979.815   3
  16   6  -5 2764.84 551.040   3
   6 -22  -5 4203.60 664.985   4
  -6 -16  -5 4552.64 832.968   4
 -22  16  -5 3357.77 857.726   2
 -22  16  -5 2712.27 592.813   1
 -16  22  -5 2672.72 571.538   1
  -6 -16  -5 2717.16 562.838   2
 -22  16  -2 8547.55 852.305   3
  16   6  -2 7117.03 529.245   3
 -22  16  -2 11070.3 995.021   2
  -6 -16  -2 11022.4 993.253   4
   6 -22  -2 8937.12 624.193   4
 -22  16  -2 8053.57 709.704   4
  -6 -16  -2 8863.51 869.680   2
 -16  22  -2 8353.88 970.249   3
 -16  22  -2 10773.9 1051.44   1
  16   6  -2 8052.04 570.222   3
  -6 -16   1 16289.5 1354.20   2
  16   6   1 10232.7 796.144   3
  16   6   1 15056.8 1347.35   1
  -6 -16   1 14200.5 1120.45   4
 -16  22   1 12432.3 710.030   2
 -22  16   1 16122.7 1149.59   2
 -22  16   1 12081.8 920.087   4
   6 -22   1 11183.8 738.353   4
 -16  22   1 14992.7 1355.22   1
 -22  16   1 12460.3 789.569   3
 -16  22   4 3395.95 415.942   2
  -6 -16   4 5572.90 1190.12   2
 -22  16   4 6334.26 1203.33   1
  -6 -16   4 5754.80 1008.03   4
 -22  16   4 5768.80 910.531   4
 -16  22   4 7992.88 1231.67   1
 -22  16   4 5494.51 936.578   2
   6 -22   4 4035.62 730.626   4
  16   6   4 6406.70 1037.06   1
 -16  22   7 2704.28 1063.93   1
 -22  16   7 2265.92 985.985   2
  16   6   7 848.945 741.212   1
  -6 -16   7 3239.76 1221.95   2
 -22  16   7 775.499 1030.46   1
  -6 -16   7 1861.11 1099.50   4
 -22  16   7 1461.91 915.615   4
   6 -22   7 2420.43 950.546   4
 -17  22  -6 1535.35 882.092   3
 -22  17  -6 1640.90 944.239   3
  17   5  -6 1758.06 592.492   3
   5 -22  -6 3386.45 763.763   4
 -22  17  -6 3287.87 745.673   4
  -5 -17  -6 3168.57 869.584   4
  -5 -17  -6 1517.26 528.841   2
 -22  17  -6 2177.20 500.650   1
 -17  22  -3 8477.67 903.155   1
 -22  17  -3 8427.96 962.198   3
  17   5  -3 5282.56 471.386   3
  17   5  -3 4571.53 390.345   3
 -22  17  -3 6492.98 867.932   1
 -22  17  -3 8013.75 911.929   2
 -17  22  -3 6694.90 321.370   4
   5 -22  -3 7636.80 722.810   4
 -22  17  -3 8751.48 786.523   4
  -5 -17  -3 9853.08 996.222   4
 -17  22  -3 5378.16 335.187   4
  -5 -17  -3 6374.00 707.428   2
 -17  22  -3 9200.66 1050.68   3
 -22  17   0 1458.99 469.419   3
 -17  22   0 2313.39 817.833   1
  -5 -17   0 910.963 618.687   2
  17   5   0 2134.39 437.597   3
 -22  17   0 2527.91 809.778   1
  -5 -17   0 1344.88 530.718   4
 -17  22   0 2209.24 459.139   2
 -22  17   0 2663.93 531.095   4
   5 -22   0 1006.93 393.384   4
 -22  17   0 2306.72 609.954   2
  17   5   0 2186.70 825.693   1
  17   5   3 5157.88 895.765   1
  -5 -17   3 7920.50 1216.83   2
 -22  17   3 4828.88 1103.82   1
  -5 -17   3 5887.79 946.184   4
 -17  22   3 8493.41 1223.11   1
 -22  17   3 6371.01 868.360   4
   5 -22   3 6360.70 809.565   4
 -22  17   3 6483.09 904.426   2
 -17  22   3 5252.45 562.711   2
  22  -5   3 5757.81 637.380   3
 -17  22   6 3701.21 1084.78   1
 -22  17   6 891.790 823.649   2
  17   5   6 1780.75 801.227   1
  -5 -17   6 1108.74 1071.98   2
 -17  22   6 1463.50 543.491   2
 -22  17   6 3236.83 1175.38   1
  -5 -17   6-401.138 884.470   4
 -22  17   6 1164.25 834.540   4
   5 -22   6 4441.97 969.397   4
 -18  22  -7 2568.03 1098.26   3
 -22  18  -7 1120.33 1011.50   3
  18   4  -7 1628.85 652.051   3
   4 -22  -7 3646.18 873.140   4
  -4 -18  -7 1216.98 779.266   4
 -18  22  -4-289.911 698.524   3
 -22  18  -4 271.605 652.403   3
  18   4  -4 160.877 268.403   3
 -18  22  -4 403.418 465.330   1
 -18  22  -4 466.891 310.441   4
 -22  18  -4 547.226 427.801   4
   4 -22  -4 487.013 508.822   4
  -4 -18  -4-637.584 643.558   4
 -22  18  -4-138.567 571.300   2
 -22  18  -4 502.794 553.853   1
  -4 -18  -4 362.226 429.774   2
 -18  22  -1 2479.55 689.657   3
 -22  18  -1 2518.98 598.731   3
 -18  22  -1 3101.53 804.671   1
  -4 -18  -1 3680.51 737.120   2
  18   4  -1 1557.85 311.486   3
 -18  22  -1 3849.52 565.694   2
  -4 -18  -1 2574.96 629.237   4
 -22  18  -1 3860.25 834.642   1
   4 -22  -1 1635.14 428.799   4
 -22  18  -1 2026.21 591.164   2
 -22  18  -1 2749.61 445.324   4
  18   4  -1 1588.93 261.876   3
 -18  22   2 2263.08 849.397   1
  18   4   2 2121.49 791.499   1
  22  -4   2 1775.96 363.327   3
  18   4   2 2126.78 599.835   3
  -4 -18   2 2366.74 975.237   2
 -22  18   2 2172.26 891.682   1
  -4 -18   2 2197.81 716.486   4
   4 -22   2 527.387 484.458   4
 -22  18   2 1953.79 585.501   4
 -22  18   2 642.778 530.435   2
 -18  22   2 1035.63 442.715   2
  18   4   5 8409.44 1161.24   1
  -4 -18   5 8431.36 1399.00   2
 -18  22   5 4126.72 646.325   2
 -22  18   5 7023.87 1400.26   1
 -18  22   5 5807.10 1270.61   1
  -4 -18   5 5592.30 1092.61   4
   4 -22   5 4687.30 947.520   4
 -22  18   5 4457.24 870.576   4
 -22  18   5 6067.99 1025.12   2
 -18  22   8 1509.50 1197.01   1
 -22  18   8 71.7316 902.798   2
  -4 -18   8 1087.62 1321.20   2
 -22  18   8 1847.23 1150.47   1
  -4 -18   8 1132.95 1051.60   4
  18   4   8 835.632 774.807   1
   4 -22   8 87.6670 981.464   4
 -22  18   8 1156.99 965.383   4
 -22  19  -8 8059.29 1510.44   3
 -19  22  -8 5063.18 1364.16   3
  -3 -19  -8 7007.42 1246.36   4
 -19  22  -5 215.799 723.261   3
 -22  19  -5-16.5462 756.946   3
   3 -22  -5 1243.86 595.212   4
  19   3  -5 771.485 325.533   3
 -19  22  -5 984.292 500.254   1
 -22  19  -5 1008.34 540.395   4
  -3 -19  -5 1774.73 663.227   4
 -22  19  -5 1763.34 552.709   1
  -3 -19  -5 762.379 382.250   2
  -3 -19  -2 4974.24 716.914   2
 -22  19  -2 4048.66 734.452   3
 -19  22  -2 5036.16 679.122   2
 -22  19  -2 7520.21 987.794   1
  -3 -19  -2 4282.84 716.904   4
   3 -22  -2 5755.59 652.768   4
 -22  19  -2 5480.35 541.149   4
 -22  19  -2 4417.86 689.425   2
 -19  22  -2 5655.46 893.242   1
 -19  22  -2 4687.96 828.889   3
 -22  19   1 2005.11 534.186   3
  19   3   1 2403.56 514.785   3
  -3 -19   1 4404.60 859.600   2
  19   3   1 3340.34 892.254   1
   3 -22   1 3442.59 623.978   4
 -22  19   1 2453.33 878.013   1
 -19  22   1 2514.24 497.883   2
  -3 -19   1 2358.81 632.065   4
 -22  19   1 2588.19 599.862   2
 -22  19   1 3046.98 541.645   4
 -19  22   1 4453.12 995.090   1
  -3 -19   4 8926.72 1353.39   2
 -22  19   4 7117.78 1336.47   1
 -19  22   4 6675.80 1247.64   1
  19   3   4 5142.44 974.557   1
  -3 -19   4 4109.36 952.287   4
   3 -22   4 5252.61 908.593   4
 -22  19   4 5586.67 956.811   2
 -22  19   4 4586.86 781.998   4
 -19  22   4 5115.01 724.042   2
 -19  22   7 1213.39 1108.93   1
 -22  19   7 1430.92 896.227   2
  19   3   7 1829.32 898.850   1
  -3 -19   7 468.875 1111.92   2
 -22  19   7 1378.36 1058.82   1
  -3 -19   7 843.793 1002.95   4
   3 -22   7 1461.68 965.636   4
 -22  19   7 2511.42 961.575   4
 -20  22  -6 4181.23 1099.00   3
 -22  20  -6 4699.97 1153.06   3
 -22  20  -6 7200.73 868.271   4
   2 -22  -6 7281.96 961.657   4
  -2 -20  -6 7506.82 1066.29   4
 -20  22  -3 8979.97 1091.57   3
  -2 -20  -3 7785.76 661.035   2
 -22  20  -3 7270.35 984.898   3
 -20  22  -3 10369.1 999.526   2
 -22  20  -3 9515.94 968.161   2
  -2 -20  -3 9313.73 961.053   4
   2 -22  -3 10419.2 878.621   4
 -22  20  -3 9122.25 674.778   4
 -20  22  -3 8324.56 471.915   4
 -20  22  -3 11009.8 1070.82   1
 -22  20  -3 9626.80 1011.53   1
 -20  22   0 2068.95 635.270   3
 -22  20   0 1922.56 524.829   3
  20   2   0 1255.89 198.823   3
  -2 -20   0 3055.24 751.105   2
  -2 -20   0 1702.06 568.950   4
 -20  22   0 1809.33 491.149   2
   2 -22   0 1374.65 550.973   4
 -22  20   0 1681.82 585.607   2
 -22  20   0 3773.94 919.965   1
 -22  20   0 1859.54 383.204   4
 -20  22   0 4135.16 940.454   1
  20   2   3 11951.9 1286.08   1
  -2 -20   3 13265.5 1447.55   2
   2 -22   3 11549.9 1285.85   2
 -22  20   3 12540.7 1540.08   1
 -20  22   3 12722.8 1521.10   1
  -2 -20   3 10385.9 1156.85   4
   2 -22   3 9261.40 1013.90   4
 -22  20   3 9502.28 994.461   2
 -22  20   3 9208.56 872.647   4
 -20  22   3 9583.71 862.102   2
  20   2   6 2191.16 855.578   1
 -22  20   6 1887.46 846.533   2
 -20  22   6 1309.76 698.440   2
  -2 -20   6 897.995 1035.07   2
 -22  20   6 2478.70 1205.25   1
  -2 -20   6-1279.58 999.552   4
   2 -22   6 3051.52 974.951   4
 -22  20   6 985.808 775.855   4
 -20  22   6 2003.14 1161.49   1
 -21  22  -7 9567.89 1476.57   3
 -22  21  -7 8098.52 1426.43   3
   1 -22  -7 6086.00 1044.86   4
  -1 -21  -7 6255.32 1088.94   4
 -22  21  -4 3082.95 662.614   1
 -21  22  -4 5044.82 982.395   3
 -22  21  -4 3287.62 896.433   3
 -21  22  -4 3709.32 715.599   1
 -22  21  -4 3484.10 798.264   2
 -21  22  -4 3679.52 512.452   4
 -22  21  -4 3587.30 544.502   4
   1 -22  -4 2028.52 672.393   4
  -1 -21  -4 3604.80 771.791   4
  -1 -21  -1 8872.34 834.746   2
   1 -22  -1 8906.69 602.921   2
   1 -22  -1 9883.59 843.556   4
 -21  22  -1 11023.7 935.621   2
 -22  21  -1 9082.51 870.300   2
 -22  21  -1 12057.0 1243.23   1
  -1 -21  -1 9839.63 875.034   4
 -21  22  -1 14059.2 1336.43   1
 -22  21  -1 7178.39 469.479   4
 -21  22  -1 8895.68 976.939   3
 -22  21  -1 11297.0 1016.91   3
  -1 -21   2-842.830 735.359   2
   1 -22   2 1370.77 737.545   2
  -1 -21   2 1421.45 661.890   4
   1 -22   2 114.147 624.453   4
 -22  21   2 614.656 847.486   1
 -22  21   2 867.221 467.236   2
 -21  22   2 1149.95 523.438   2
 -21  22   2 925.344 832.078   1
 -22  21   2 1116.49 428.061   4
 -21  22   5 6316.24 875.301   2
  21   1   5 7682.79 1164.36   1
   1 -22   5 6780.11 1298.44   2
  -1 -21   5 5272.34 1216.90   2
   1 -22   5 5956.62 1123.40   4
  -1 -21   5 6853.04 1121.86   4
 -22  21   5 5930.91 1261.99   1
 -22  21   5 8891.13 1023.15   4
 -21  22   5 6282.44 1314.73   1
 -22  21   5 6199.42 976.629   2
 -22  22  -5-1203.84 760.231   3
 -22  22  -5-447.047 532.401   1
 -22  22  -5 512.483 448.144   4
   0 -22  -5 156.145 600.072   4
   0 -22  -2 2651.52 318.003   2
 -22  22  -2 6792.78 874.480   2
   0 -22  -2 5467.45 714.719   4
 -22  22  -2 3152.38 328.679   4
 -22  22  -2 6283.81 937.930   1
 -22  22  -2 5106.12 896.149   3
  22   0   1 125.167 168.006   3
   0 -22   1 287.195 628.418   2
   0 -22   1 536.359 536.930   4
 -22  22   1-120.124 451.376   2
 -22  22   1 883.465 845.334   1
 -22  22   4 931.425 626.110   2
   0 -22   4 1344.66 931.514   2
   0 -22   4 2082.38 812.150   4
 -22  22   4 2739.17 1146.96   1
   0 -22   7 102.217 1029.72   2
   0 -22   7 958.418 973.208   4
 -22  22   7 1043.07 1116.48   1
   0  23  -5 789.048 808.814   3
 -23   0  -5-500.907 541.767   3
   0  23  -5-574.530 837.056   1
 -23   0  -5 1039.95 889.634   2
 -23   0  -5 234.851 759.267   4
 -23   0  -2 4014.55 886.198   4
 -23   0  -2 4190.81 980.995   2
   0  23  -2 2787.18 915.009   1
   0  23   1 16.5014 708.317   1
 -23   0   1-1179.54 748.134   4
 -23   0   1-164.758 867.860   2
 -23   0   4 4667.98 1207.38   2
 -23   0   4 5457.57 1162.40   4
   0  23   4 6094.67 1265.99   1
  -1  23  -6 2661.39 1161.75   3
   1  22  -6 1952.93 1044.70   3
  -1  23  -6 2482.96 933.148   1
 -23   1  -6 3184.13 815.164   3
 -22  -1  -6 3805.59 850.626   3
   1  22  -6 4040.40 1024.75   1
 -23   1  -6 3767.25 1048.45   4
 -22  -1  -6 2486.86 951.180   4
 -23   1  -6 3428.66 1038.07   2
 -22  -1  -6 4712.13 1092.04   2
  -1  23  -3 6812.26 1103.62   1
   1  22  -3 7090.35 1106.82   1
 -23   1  -3 5755.47 563.492   3
 -22  -1  -3 4932.19 953.182   4
 -23   1  -3 4566.91 932.504   4
 -23   1  -3 4510.81 989.487   2
 -22  -1  -3 5383.32 1005.77   2
  -1  23  -3 4914.00 963.059   3
   1  22  -3 5180.12 977.484   3
 -23   1   0 5937.97 970.883   4
 -22  -1   0 4619.32 904.735   4
 -23   1   0 5346.02 1039.94   2
 -22  -1   0 8359.30 1225.41   2
  -1  23   0 6828.37 1135.30   1
   1  22   0 7088.25 1100.68   1
 -23   1   3 7779.27 1283.61   2
 -22  -1   3 7105.21 1311.12   2
  -1  23   3 8427.72 1281.72   1
 -22  -1   3 8537.57 1289.68   4
 -23   1   3 7132.67 1153.88   4
   1  22   3 7835.99 1214.59   1
  -1  23   6 3812.64 1153.10   1
   1  22   6 2640.65 1063.54   1
 -23   1   6 2729.88 1235.98   2
 -22  -1   6 1833.87 1326.22   2
 -22  -1   6 4370.90 1293.96   4
 -23   1   6 2672.64 1151.89   4
  -2  23  -7 2975.40 1179.38   3
   2  21  -7 2481.41 1120.65   3
 -23   2  -7 4612.68 962.994   3
 -21  -2  -7 2903.36 857.519   3
 -23   2  -7 2482.57 956.567   4
 -21  -2  -7 2150.04 1014.82   4
 -23   2  -7 2164.72 1007.66   2
 -21  -2  -7 1444.98 945.306   2
  -2  23  -7 2795.17 885.316   1
  -2  23  -4 1332.91 792.207   3
   2  21  -4 530.619 755.753   3
 -23   2  -4 1688.85 808.087   2
   2  21  -4-317.183 721.751   1
  -2  23  -4 2529.95 831.929   1
 -23   2  -4 222.533 455.846   3
 -21  -2  -4 982.508 492.319   3
 -23   2  -4 1187.13 807.166   4
 -21  -2  -4 1446.71 797.963   4
 -21  -2  -4-18.3448 780.159   2
  -2  23  -1 4034.28 873.992   1
 -21  -2  -1 4033.19 855.941   4
 -23   2  -1 3501.56 796.866   4
 -23   2  -1 3260.06 852.768   2
 -21  -2  -1 2932.20 795.735   2
   2  21  -1 2390.14 811.244   1
 -21  -2   2 2061.40 896.467   2
  -2  23   2 1719.23 871.314   1
   2  21   2 1466.95 762.179   1
 -21  -2   2 1279.75 773.384   4
 -23   2   2 2736.19 807.262   4
 -23   2   2 2725.07 937.164   2
 -23   2   5 6176.79 1315.00   2
 -21  -2   5 5327.04 1330.72   2
   2  21   5 7660.78 1274.71   1
 -21  -2   5 3846.70 1131.14   4
 -23   2   5 4099.79 1250.62   4
  -2  23   5 5892.93 1158.77   1
   3  20  -5 41.0818 750.712   1
  -3  23  -5 1174.18 932.880   3
   3  20  -5 654.547 823.483   3
 -23   3  -5 971.212 582.348   3
 -20  -3  -5 1928.72 635.894   3
 -23   3  -5-55.1442 795.316   4
 -20  -3  -5 1392.20 768.584   4
 -23   3  -5 2208.49 891.677   2
 -20  -3  -5 1361.67 815.133   2
  -3  23  -5 1351.94 765.024   1
   3  20  -2 15183.3 1400.55   1
 -20  -3  -2 12355.8 1181.78   4
 -23   3  -2 13443.7 1241.36   4
 -23   3  -2 12293.8 1231.84   2
 -20  -3  -2 13017.4 1271.01   2
  -3  23  -2 14125.4 1301.07   1
  -3  23   1 3219.60 951.589   1
 -20  -3   1 4158.26 843.984   4
 -23   3   1 2887.04 764.059   4
 -23   3   1 2532.40 848.082   2
   3  20   1 4536.36 1000.12   1
 -20  -3   1 1883.74 896.442   2
 -23   3   4 1759.94 1010.87   2
 -20  -3   4 1168.46 996.424   2
   3  20   4 1818.99 838.218   1
 -20  -3   4 638.147 863.573   4
 -23   3   4 1278.37 868.284   4
  -3  23   4 2674.34 932.283   1
 -23   3   7 790.832 1198.87   2
   3  20   7 1032.65 1026.75   1
 -20  -3   7 1818.67 1262.33   2
 -20  -3   7 624.273 997.300   4
 -23   3   7 90.3956 999.674   4
  -3  23   7 611.222 998.222   1
  -4  23  -6 9843.19 1430.17   3
   4  19  -6 8601.04 1217.64   1
   4  19  -6 9277.91 1306.13   3
  -4  23  -6 8871.42 1129.41   1
 -23   4  -6 11862.8 1219.82   3
 -19  -4  -6 11918.1 1153.57   3
 -19  -4  -6 10210.4 1390.04   4
 -23   4  -6 10373.6 1289.72   2
 -19  -4  -6 10350.7 1288.14   2
 -23   4  -6 9884.70 1238.38   4
  -4  23  -3 13379.4 1248.69   1
 -23   4  -3 12624.7 786.797   3
 -19  -4  -3 11423.6 1227.76   4
 -23   4  -3 13437.5 1251.18   4
 -23   4  -3 11994.7 1271.68   2
   4  19  -3 11582.2 1223.32   1
 -19  -4  -3 11417.7 1210.31   2
  -4  23  -3 12751.4 1297.38   3
   4  19  -3 11831.9 1166.42   3
   4  19   0 11619.1 1286.26   1
  -4  23   0 12549.8 1271.54   1
 -19  -4   0 11397.1 1150.02   4
 -23   4   0 11035.0 1108.21   4
  -4  23   0 11712.5 608.139   2
 -23   4   0 11691.1 1221.78   2
 -19  -4   0 11748.8 1257.51   2
  -4  23   3 9516.53 1273.27   1
 -19  -4   3 7297.13 1122.66   4
 -23   4   3 8786.56 1191.89   4
   4  19   3 9712.94 1254.88   1
 -23   4   3 10736.8 1372.72   2
 -19  -4   3 8487.57 1328.08   2
 -23   4   6 3619.61 1422.19   2
 -19  -4   6 4307.16 1433.70   2
   4  19   6 5108.67 1129.19   1
  -4  23   6 6988.62 1279.90   1
 -19  -4   6 5760.00 1305.18   4
 -23   4   6 4063.63 1235.15   4
  -5  23  -7 5017.46 1332.69   3
   5  18  -7 3324.45 1155.24   3
 -23   5  -7 3639.03 955.348   3
 -18  -5  -7 4244.96 961.026   3
 -23   5  -7 4928.82 1095.06   4
 -18  -5  -7 5315.88 1113.47   4
 -18  -5  -7 3571.92 982.856   2
 -23   5  -7 4347.31 1059.32   2
  -5  23  -4 6512.41 925.926   1
 -23   5  -4 5248.31 719.602   3
 -18  -5  -4 5553.80 721.782   3
 -23   5  -4 3618.34 851.072   4
 -18  -5  -4 5087.07 955.768   4
 -18  -5  -4 4986.88 962.046   2
 -23   5  -4 4420.59 941.870   2
   5  18  -4 5127.62 952.923   1
  -5  23  -4 5273.52 1090.15   3
   5  18  -4 4950.41 969.014   3
   5  18  -1 10938.1 1208.35   1
  -5  23  -1 9687.45 1151.08   1
 -23   5  -1 9649.97 1053.03   4
 -18  -5  -1 9718.87 1070.73   4
 -23   5  -1 9424.75 1071.32   2
 -18  -5  -1 10148.6 1134.77   2
  -5  23  -1 11079.1 807.511   2
 -18  -5   2 433.038 750.193   2
   5  18   2 649.261 710.546   1
 -18  -5   2 836.603 688.422   4
 -23   5   2 1108.51 665.848   4
  -5  23   2 1768.44 731.974   1
 -23   5   2 565.933 705.602   2
 -18  -5   5 14490.9 1768.40   2
  -5  23   5 12125.5 1464.12   1
 -18  -5   5 10407.1 1493.71   4
 -23   5   5 9543.59 1423.53   4
   5  18   5 12257.9 1435.75   1
 -23   5   5 10529.6 1526.41   2
  -6  23  -8 3516.82 1242.92   3
   6  17  -8 1316.07 1087.35   3
 -23   6  -8 5010.68 1093.96   3
 -17  -6  -8 3099.95 1029.14   3
 -23   6  -8 1780.41 1035.48   4
 -17  -6  -8 4776.17 1141.12   4
 -23   6  -8 3286.99 1144.97   2
 -17  -6  -8 4049.78 1050.40   2
  -6  23  -5 5319.39 1103.34   3
   6  17  -5 4720.44 1021.10   3
 -23   6  -5 6482.46 909.686   3
  -6  23  -5 5526.28 883.067   1
 -17  -6  -5 5731.45 795.488   3
 -23   6  -5 4788.57 896.964   4
 -17  -6  -5 5175.75 1040.03   4
 -23   6  -5 6643.28 1080.13   2
 -17  -6  -5 6727.78 1045.10   2
   6  17  -5 6438.81 1094.88   1
 -23   6  -2 9666.80 574.190   3
  -6  23  -2 9238.98 673.320   4
   6  17  -2 9659.91 1183.79   1
 -17  -6  -2 8876.73 1061.37   4
 -23   6  -2 9141.56 1014.49   4
 -23   6  -2 9965.25 1096.87   2
  -6  23  -2 9311.32 1052.21   1
 -17  -6  -2 10317.1 1085.45   2
  -6  23  -2 10125.6 985.107   2
 -17  -6   1 4024.83 907.707   2
 -17  -6   1 4544.76 875.102   4
 -23   6   1 4169.38 820.444   4
  -6  23   1 3561.17 872.143   1
 -23   6   1 3367.56 837.243   2
   6  17   1 3616.03 853.486   1
 -23   6   4 4112.80 1025.34   2
 -17  -6   4 4979.13 1295.56   2
   6  17   4 3341.34 935.595   1
  -6  23   4 4348.57 1067.30   1
 -17  -6   4 2866.81 970.290   4
 -23   6   4 4744.18 1040.72   4
 -23   6   7 5416.42 1387.02   2
  -6  23   7 9095.85 1506.52   1
 -17  -6   7 6632.76 1560.03   2
 -23   6   7 7421.76 1464.36   4
   6  17   7 8788.82 1310.69   1
 -17  -6   7 7990.14 1527.55   4
  -7  23  -6 17576.3 1728.53   3
   7  16  -6 17230.7 1571.58   3
 -23   7  -6 23914.7 1659.84   3
 -16  -7  -6 21456.4 1466.42   3
 -23   7  -6 21016.5 1583.84   4
 -16  -7  -6 21745.1 1717.26   4
 -23   7  -6 17308.5 1527.97   2
 -16  -7  -6 21911.2 1561.16   2
  -7  23  -6 20511.3 1281.31   1
   7  16  -3 5111.50 979.321   1
  -7  23  -3 3387.76 833.219   3
   7  16  -3 4019.82 763.233   3
 -23   7  -3 5313.84 664.779   3
  -7  23  -3 4192.12 553.352   4
 -16  -7  -3 6522.47 944.478   4
 -23   7  -3 5234.75 881.960   4
 -23   7  -3 4673.30 857.760   2
 -16  -7  -3 4613.91 837.059   2
  -7  23  -3 6533.54 896.771   1
 -23   7   0 5034.30 808.733   4
   7  16   0 6333.73 1021.51   1
  -7  23   0 7174.29 998.136   1
 -16  -7   0 5245.63 874.101   4
 -23   7   0 5667.03 936.375   2
  -7  23   0 6023.21 418.527   2
 -16  -7   0 6480.79 1012.77   2
 -23   7   3-99.1322 694.372   2
 -16  -7   3 2407.03 907.170   2
  -7  23   3 2081.46 944.231   1
 -16  -7   3 687.114 707.050   4
   7  16   3 2207.84 854.267   1
 -23   7   3 1456.45 834.397   4
 -16  -7   6 6886.32 1515.02   2
 -23   7   6 6442.94 1327.03   2
  -7  23   6 7455.74 1316.96   1
 -16  -7   6 6309.18 1332.59   4
 -23   7   6 5671.64 1208.09   4
   7  16   6 6564.00 1138.85   1
  -8  23  -7 11403.3 1573.07   3
   8  15  -7 11226.4 1357.75   3
 -23   8  -7 9319.37 1314.76   3
 -15  -8  -7 10001.2 1192.45   3
 -23   8  -7 9111.98 1237.39   4
 -15  -8  -7 12220.5 1476.89   4
 -23   8  -7 9171.35 1272.91   2
 -15  -8  -7 10968.8 1223.70   2
  -8  23  -4 4760.43 997.257   3
   8  15  -4 4258.13 845.561   3
 -23   8  -4 5575.54 786.619   3
  -8  23  -4 3789.53 755.559   1
   8  15  -4 3358.96 865.845   1
 -23   8  -4 4336.85 866.266   4
 -15  -8  -4 4243.86 882.707   4
 -15  -8  -4 4678.63 853.202   2
 -23   8  -4 2696.42 819.320   2
 -23   8  -1 7449.57 386.569   3
  -8  23  -1 9970.20 1101.18   1
   8  15  -1 7943.26 1086.52   1
 -15  -8  -1 8698.85 1045.37   4
 -23   8  -1 7707.46 895.702   4
 -23   8  -1 9462.46 1074.52   2
 -15  -8  -1 8223.27 1025.62   2
  -8  23  -1 8610.34 754.599   2
   8  15   2 777.303 715.573   1
 -15  -8   2 1675.53 831.800   2
  -8  23   2 1541.53 780.191   1
 -15  -8   2 1945.00 771.142   4
 -23   8   2 1742.76 718.467   4
 -23   8   2 1475.00 726.720   2
   8  15   5 12313.0 1393.30   1
 -15  -8   5 11196.2 1637.57   2
  -8  23   5 9817.71 1419.40   1
 -15  -8   5 10809.8 1487.92   4
 -23   8   5 11330.5 1418.16   4
 -23   8   5 9008.94 1354.37   2
 -23   8   8 2269.86 1226.37   2
 -15  -8   8 5751.64 1522.42   2
  -8  23   8 4977.26 1276.82   1
   8  15   8 3542.25 1074.17   1
 -15  -8   8 4013.43 1458.31   4
 -23   8   8 3865.41 1421.78   4
  -9  23  -8 1935.06 1252.79   3
   9  14  -8 2775.75 1189.88   3
 -23   9  -8 4289.29 1094.90   3
 -14  -9  -8 4679.86 1024.09   3
 -23   9  -8 2952.99 967.166   4
 -14  -9  -8 1926.33 1025.30   4
 -23   9  -8 1321.61 1053.42   2
 -14  -9  -8 2023.18 891.422   2
  -9  23  -5 6129.44 1168.31   3
   9  14  -5 5294.33 914.052   3
  -9  23  -5 7938.32 873.787   1
 -23   9  -5 8640.61 1080.01   3
 -14  -9  -5 8588.48 977.346   3
 -23   9  -5 6876.92 945.798   4
 -14  -9  -5 6999.41 1067.50   4
 -23   9  -5 6236.19 989.715   2
 -14  -9  -5 6048.71 931.990   2
   9  14  -5 7880.59 1154.09   1
  -9  23  -2 1550.55 682.898   3
  -9  23  -2 1773.15 716.102   2
 -23   9  -2 2091.17 489.181   3
  -9  23  -2 1599.58 276.184   4
   9  14  -2 2108.61 761.572   1
 -14  -9  -2 3528.47 758.653   4
 -23   9  -2 2867.50 686.689   4
 -23   9  -2 1658.87 633.894   2
 -14  -9  -2 872.047 594.194   2
  -9  23  -2 2023.39 694.029   1
  -9  23   1 7959.39 1076.64   1
   9  14   1 5357.01 938.734   1
 -14  -9   1 4457.09 852.299   4
 -23   9   1 6185.30 877.766   4
 -23   9   1 6534.78 928.259   2
 -14  -9   1 6346.14 995.055   2
 -23   9   4 1822.55 875.612   2
 -14  -9   4 855.164 974.234   2
  -9  23   4 2383.10 914.610   1
 -14  -9   4 1163.10 864.426   4
 -23   9   4 720.551 744.949   4
   9  14   4 1537.73 815.662   1
 -23   9   7 2390.25 1085.72   2
 -14  -9   7 4567.68 1310.94   2
  -9  23   7 4795.31 1284.38   1
   9  14   7 5006.58 1124.61   1
 -14  -9   7 5047.28 1326.82   4
 -23   9   7 4366.56 1231.76   4
 -10  23  -6 13669.4 1585.38   3
  10  13  -6 14248.3 1343.62   3
 -23  10  -6 17337.9 1521.83   3
 -10  23  -6 12645.6 933.501   1
 -13 -10  -6 16177.2 1306.46   3
 -23  10  -6 13665.4 1308.40   4
 -23  10  -6 14170.6 1382.68   2
 -13 -10  -6 15855.2 1486.79   4
 -13 -10  -6 13056.6 1207.79   2
 -10  23  -3 897.702 635.093   1
 -10  23  -3-259.656 693.423   3
  10  13  -3-569.789 551.070   3
 -23  10  -3 252.158 487.971   3
  10  13  -3 479.357 752.773   1
  13 -23  -3 93.7412 143.987   4
 -10  23  -3 232.189 286.325   4
 -23  10  -3-9.69450 554.876   4
 -13 -10  -3 1272.27 784.724   4
 -23  10  -3 396.814 603.875   2
  13 -23  -3 280.193 180.705   4
 -13 -10  -3 711.866 601.450   2
  10  13   0 17239.4 1393.15   1
 -10  23   0 16647.4 1378.07   1
 -13 -10   0 15860.5 1255.28   4
 -23  10   0 17623.6 1219.91   4
 -23  10   0 15965.2 1268.10   2
 -13 -10   0 16382.2 1347.82   2
 -10  23   0 15268.1 714.377   2
 -13 -10   3 1801.47 914.231   2
  10  13   3 2202.57 818.836   1
 -10  23   3 2453.09 917.380   1
 -13 -10   3 2791.04 860.258   4
 -23  10   3 1960.46 763.054   4
 -23  10   3 2018.74 819.996   2
 -10  23   6 9537.86 1451.00   1
  10  13   6 8224.36 1186.91   1
 -23  10   6 7556.06 1312.94   2
 -13 -10   6 6020.86 1365.62   2
 -13 -10   6 6349.60 1239.60   4
 -23  10   6 5877.78 1160.34   4
 -11  23  -7 8469.49 1435.38   3
  11  12  -7 7541.62 1116.51   3
 -23  11  -7 10204.0 1385.84   3
 -12 -11  -7 9367.29 1170.87   3
 -23  11  -7 9736.53 1340.16   2
 -23  11  -7 6924.86 1095.68   4
 -12 -11  -7 9624.48 1318.74   4
 -12 -11  -7 6844.27 969.851   2
 -11  23  -4 1045.28 714.352   3
  11  12  -4 1106.40 571.898   3
 -11  23  -4 1566.00 604.983   1
 -23  11  -4 1303.00 658.225   3
  11  12  -4 288.503 694.908   1
  12 -23  -4 540.352 327.304   4
 -23  11  -4 1363.01 622.998   4
 -12 -11  -4 1170.34 663.138   4
 -23  11  -4 280.833 704.720   2
 -12 -11  -4 443.603 536.789   2
  12 -23  -4 611.521 510.919   4
 -11  23  -1 16872.2 1054.94   2
 -23  11  -1 16305.5 818.609   3
 -11  23  -1 20803.9 1466.79   1
 -12 -11  -1 17191.2 1267.27   4
 -23  11  -1 18866.7 1158.81   4
 -23  11  -1 17097.2 1276.98   2
 -12 -11  -1 17093.5 1249.24   2
  11  12  -1 18342.1 1469.00   1
 -11  23   2 7506.20 1172.13   1
  11  12   2 6774.42 1022.23   1
 -23  11   2 5416.89 847.467   4
 -12 -11   2 3968.71 880.091   4
 -23  11   2 6590.12 1033.41   2
 -12 -11   2 7740.48 1163.38   2
 -11  23   5 12614.1 1525.42   1
 -12 -11   5 17803.7 1793.95   2
  11  12   5 13911.5 1385.67   1
 -12 -11   5 12355.8 1465.88   4
 -23  11   5 14125.4 1463.89   4
 -23  11   5 11330.9 1396.14   2
  11  12   8 4131.49 1054.73   1
 -23  11   8 1480.13 1122.45   2
 -12 -11   8 5204.59 1615.65   2
 -11  23   8 3774.22 1209.04   1
 -12 -11   8 3879.30 1351.18   4
 -23  11   8 5412.76 1321.52   4
 -12  23  -8 3776.22 1316.95   3
  12  11  -8 5157.80 1058.76   3
 -23  12  -8 4311.90 1194.84   3
 -11 -12  -8 6540.04 1152.28   3
 -23  12  -8 5403.74 1081.85   4
 -11 -12  -8 2131.90 1065.24   4
 -11 -12  -8 4078.71 848.895   2
 -12  23  -5 16662.5 1555.27   3
  12  11  -5 16010.6 1218.07   3
 -23  12  -5 18452.5 1448.64   3
 -23  12  -5 14910.6 1355.43   2
 -23  12  -5 15225.9 1228.62   4
 -11 -12  -5 18939.6 1489.61   4
 -11 -12  -5 16307.5 1176.07   2
 -12  23  -5 16784.9 1095.27   1
 -23  12  -2 5825.84 709.889   3
 -12  23  -2 5292.05 803.798   1
 -12  23  -2 4378.33 834.313   2
  12  11  -2 6687.65 1055.07   1
 -11 -12  -2 4901.72 854.695   4
 -23  12  -2 5513.03 747.846   4
 -23  12  -2 5718.28 837.999   2
 -11 -12  -2 4915.58 784.266   2
 -12  23  -2 4335.44 844.605   3
  12  11  -2 5453.40 674.152   3
 -12  23   1 21698.8 1601.75   1
 -11 -12   1 18666.4 1337.46   4
 -23  12   1 18439.5 1214.44   4
 -23  12   1 16315.6 1268.91   2
  12  11   1 18009.9 1439.18   1
 -11 -12   1 20391.1 1518.01   2
 -23  12   4 1263.02 747.488   2
 -11 -12   4 1304.00 899.881   2
 -12  23   4 1784.09 811.266   1
  12  11   4 1373.90 828.958   1
 -11 -12   4 1607.84 800.924   4
 -23  12   4 702.498 736.505   4
 -23  12   7 7817.25 1515.77   2
 -12  23   7 8501.22 1507.91   1
 -11 -12   7 10574.1 1721.25   2
  12  11   7 6563.20 1118.48   1
 -11 -12   7 8088.11 1451.36   4
 -23  12   7 8547.46 1441.77   4
  13  10  -6 7494.80 978.091   3
 -13  23  -6 7312.50 1258.43   3
 -23  13  -6 11195.7 1285.26   3
 -23  13  -6 8989.03 1220.29   2
 -23  13  -6 8406.87 1040.18   4
 -10 -13  -6 7592.02 1135.63   4
 -10 -13  -6 7009.98 919.542   2
 -13  23  -3 1307.25 609.241   3
  13  10  -3 1758.80 538.000   3
  13  10  -3 1220.00 765.956   1
 -23  13  -3 2903.52 651.028   3
  10 -23  -3 2092.57 358.141   4
 -13  23  -3 1576.22 204.520   4
 -23  13  -3 2883.45 645.471   4
 -23  13  -3 2636.79 702.468   2
 -13  23  -3 3189.32 672.802   1
 -10 -13  -3 1906.06 627.050   2
  10 -23  -3 1782.13 468.220   4
 -10 -13  -3 1894.88 724.436   4
  13  10   0 16176.1 1407.86   1
 -13  23   0 19918.4 1486.97   1
 -23  13   0 15053.4 788.332   3
 -13  23   0 15801.7 914.519   2
 -13  23   0 17966.1 713.893   2
 -10 -13   0 15904.4 1223.43   4
 -23  13   0 15977.6 1063.90   4
 -23  13   0 16581.6 1242.27   2
 -10 -13   0 15946.9 1355.56   2
 -23  13   3 439.744 244.687   3
 -10 -13   3-605.617 851.218   2
 -13  23   3 1477.36 853.527   1
 -23  13   3 356.292 304.202   3
 -10 -13   3-580.509 620.129   4
 -23  13   3 478.003 622.580   4
  13  10   3 1684.90 817.713   1
 -23  13   3 85.4765 671.180   2
 -13  23   6 14569.4 1726.90   1
 -10 -13   6 12827.7 1756.42   2
  13  10   6 10431.4 1256.66   1
 -10 -13   6 12574.6 1571.91   4
 -23  13   6 13659.6 1574.59   4
 -23  13   6 14144.5 1624.46   2
 -14  23  -7 5204.02 1214.48   3
  14   9  -7 3553.57 849.778   3
 -23  14  -7 3522.63 1046.06   3
  -9 -14  -7 4648.79 1009.03   3
 -23  14  -7 2477.68 856.314   4
  -9 -14  -7 3907.15 1059.26   4
  -9 -14  -7 4091.73 756.948   2
 -14  23  -4 329.204 695.154   3
  14   9  -4 1910.85 561.089   3
 -23  14  -4 2960.59 706.064   3
   9 -23  -4 2186.17 438.456   4
 -23  14  -4 2104.96 630.895   4
  -9 -14  -4 2777.19 769.370   4
 -23  14  -4 1985.82 681.099   2
 -14  23  -4 1347.83 549.885   1
  -9 -14  -4 2193.30 621.540   2
 -14  23  -1 5079.16 866.136   1
 -23  14  -1 5120.06 623.868   3
 -14  23  -1 4855.99 755.163   2
  14   9  -1 3771.51 540.515   3
  14   9  -1 5587.61 1007.55   1
  -9 -14  -1 5320.83 828.323   4
 -23  14  -1 5506.73 789.993   2
 -23  14  -1 6338.12 710.503   4
  -9 -14  -1 6225.53 880.707   2
 -23  14   2 1143.46 320.701   3
  -9 -14   2 1577.03 843.521   2
 -14  23   2 1438.02 839.176   1
  14   9   2 1485.07 759.746   1
 -23  14   2 937.849 317.642   3
  -9 -14   2 1198.25 670.120   4
 -23  14   2 1776.30 611.897   4
 -23  14   2 1553.35 660.174   2
   9 -23   2 1143.33 321.220   4
 -23  14   5 4923.25 1078.45   2
 -14  23   5 5035.51 1181.50   1
  -9 -14   5 5511.33 1274.52   2
  14   9   5 6555.84 1067.61   1
  -9 -14   5 6624.70 1185.09   4
 -23  14   5 6808.08 1110.43   4
 -23  14   8 70.9331 980.828   2
 -14  23   8 4082.68 1314.43   1
  -9 -14   8 3195.83 1437.15   2
  14   9   8 1905.01 917.163   1
 -23  14   8 4048.10 1341.56   1
  -9 -14   8 2506.39 1266.11   4
 -23  14   8 2434.20 1164.17   4
 -15  23  -8 3670.29 1278.50   3
  15   8  -8 4853.56 965.525   3
 -23  15  -8 3755.54 1208.28   3
  -8 -15  -8 4013.38 1005.90   3
 -23  15  -8 3331.49 997.240   4
  -8 -15  -8 1372.84 688.221   2
 -15  23  -5 7853.31 1200.93   3
  15   8  -5 11284.4 951.358   3
 -23  15  -5 12017.6 1292.30   3
 -15  23  -5 12748.4 944.751   1
   8 -23  -5 12219.1 909.222   4
 -23  15  -5 13569.8 1263.27   2
 -23  15  -5 12097.0 1071.84   4
  -8 -15  -5 9713.04 1176.09   4
  -8 -15  -5 9143.47 862.295   2
  -8 -15  -2 695.652 549.846   2
 -15  23  -2 1055.26 673.054   3
  15   8  -2 362.332 395.254   3
 -23  15  -2 1235.08 563.811   3
  15   8  -2 1064.04 736.293   1
 -15  23  -2 1911.24 669.265   1
  15   8  -2 646.900 391.627   3
  -8 -15  -2-415.845 580.659   4
 -23  15  -2 181.574 435.642   4
   8 -23  -2 1156.76 296.513   4
 -23  15  -2 1040.19 567.818   2
  15   8   1 9159.21 1139.45   1
  15   8   1 6492.01 728.098   3
 -15  23   1 5836.83 577.179   2
 -23  15   1 6372.72 520.170   3
  -8 -15   1 9430.14 998.041   4
 -15  23   1 7215.77 503.027   2
 -23  15   1 8918.13 879.954   4
 -23  15   1 8234.54 962.470   2
   8 -23   1 6124.82 485.042   4
 -15  23   1 9941.62 1207.32   1
 -23  15   1 7434.98 627.642   3
  -8 -15   1 8081.23 1097.58   2
 -23  15   4 3235.74 837.581   2
  -8 -15   4 1204.10 1027.31   2
  15   8   4 3783.48 896.783   1
 -23  15   4 5120.89 936.391   4
  -8 -15   4 4111.71 981.314   4
 -15  23   4 6833.36 1307.06   1
   8 -23   4 2991.14 676.901   4
 -23  15   7 9873.86 1437.84   2
  -8 -15   7 8422.34 1602.46   2
 -23  15   7 9829.21 1542.75   1
  15   8   7 12380.5 1351.58   1
  -8 -15   7 10974.7 1621.34   4
 -23  15   7 10454.1 1465.31   4
 -15  23   7 13214.3 1709.50   1
 -16  23  -6 3699.11 1043.31   3
 -23  16  -6 5989.60 1133.56   3
  16   7  -6 4139.80 772.129   3
   7 -23  -6 5389.82 803.795   4
  -7 -16  -6 5046.43 999.966   4
 -23  16  -6 6181.79 731.343   1
  -7 -16  -6 4874.20 740.812   2
 -16  23  -3 198.369 661.237   3
  16   7  -3 763.454 401.348   3
 -23  16  -3 427.294 531.143   3
 -16  23  -3 1451.50 593.626   1
   7 -23  -3 1255.09 411.256   4
 -23  16  -3 1236.95 517.592   4
  -7 -16  -3 1177.62 588.800   4
 -23  16  -3 1574.03 632.375   2
  -7 -16  -3 1144.50 549.696   2
 -23  16   0 4664.77 611.517   3
  16   7   0 4880.86 600.880   3
 -16  23   0 6501.66 584.711   2
  16   7   0 6835.52 1107.35   1
  -7 -16   0 6350.14 839.304   4
 -23  16   0 6027.99 848.717   2
 -23  16   0 6360.29 700.545   4
   7 -23   0 4862.40 474.238   4
 -16  23   0 5804.07 1010.28   1
  -7 -16   0 6409.43 915.044   2
 -16  23   3 2689.85 331.821   2
  16   7   3 5931.36 995.155   1
  -7 -16   3 6651.44 1170.93   2
 -23  16   3 2772.55 512.879   3
  -7 -16   3 5177.32 934.247   4
 -23  16   3 5476.61 890.582   4
   7 -23   3 4874.78 677.750   4
 -16  23   3 6228.96 1160.52   1
  23  -7   3 4844.28 603.186   3
 -23  16   3 4929.20 850.468   2
 -23  16   6 19363.3 1742.08   2
  -7 -16   6 20752.8 2048.23   2
 -23  16   6 22409.4 2116.72   1
  -7 -16   6 17487.2 1772.89   4
  16   7   6 20003.5 1655.27   1
 -23  16   6 21183.1 1729.42   4
 -16  23   6 23630.3 2035.87   1
   7 -23   6 21627.3 1537.06   4
 -17  23  -7 6500.40 1326.48   3
 -23  17  -7 7179.72 1320.88   3
  17   6  -7 6559.47 1075.55   3
 -23  17  -7 9160.35 1135.42   4
  -6 -17  -7 7409.78 1194.77   4
  -6 -17  -7 5203.45 761.370   2
 -17  23  -4 4837.44 919.223   3
 -17  23  -4 3978.05 675.780   1
 -23  17  -4 4659.41 899.455   3
  17   6  -4 3297.51 503.777   3
 -17  23  -4 4173.41 415.932   4
 -23  17  -4 4967.90 813.514   1
   6 -23  -4 4179.43 643.919   4
 -23  17  -4 4510.96 703.565   4
  -6 -17  -4 4342.07 837.749   4
 -23  17  -4 3346.36 789.450   2
  -6 -17  -4 4386.55 695.326   2
 -23  17  -1 4274.55 697.600   3
  -6 -17  -1 4643.56 779.057   2
  17   6  -1 4361.18 963.605   1
  17   6  -1 2624.75 445.032   3
 -17  23  -1 5571.95 608.784   2
 -23  17  -1 5167.43 786.647   2
  -6 -17  -1 3558.78 763.300   4
 -23  17  -1 3133.01 540.522   4
   6 -23  -1 3656.03 455.982   4
 -17  23  -1 4992.16 910.922   1
  17   6  -1 3373.62 429.461   3
 -17  23  -1 3961.06 767.988   3
  -6 -17   2 13944.5 1438.63   2
  17   6   2 6721.74 836.723   3
  17   6   2 12153.3 1260.14   1
 -23  17   2 6987.12 645.369   3
 -23  17   2 13828.2 1504.96   1
  -6 -17   2 12043.5 1149.97   4
 -23  17   2 8738.36 900.312   4
 -23  17   2 10170.2 1038.58   2
   6 -23   2 8528.59 772.917   4
 -17  23   2 10987.8 698.122   2
 -17  23   2 13198.0 1396.57   1
 -23  17   5 4702.00 1042.02   2
 -17  23   5 5960.60 1230.44   1
 -17  23   5 3155.65 456.861   2
  -6 -17   5 4669.04 1215.00   2
  17   6   5 4342.36 986.605   1
 -23  17   5 3638.20 1077.25   1
  -6 -17   5 6854.18 1177.18   4
   6 -23   5 6449.20 986.052   4
 -23  17   5 4397.39 941.093   4
 -17  23   8 5382.50 1443.34   1
 -23  17   8 3940.66 1181.27   2
  -6 -17   8 1288.70 1152.82   2
  17   6   8 4364.70 1095.23   1
 -23  17   8 1682.97 1116.68   1
  -6 -17   8 3029.46 1318.10   4
 -23  17   8 2888.77 1133.73   4
 -18  23  -5 10842.1 1315.54   3
 -23  18  -5 9714.10 1228.69   3
  18   5  -5 9084.83 710.173   3
 -18  23  -5 13703.8 962.349   1
 -23  18  -5 10206.1 1202.02   2
   5 -23  -5 12865.0 1005.13   4
 -23  18  -5 11408.9 981.287   4
  -5 -18  -5 10690.0 1157.57   4
 -23  18  -5 11033.4 956.759   1
  -5 -18  -5 8161.73 740.380   2
 -18  23  -2 519.302 612.383   3
  -5 -18  -2 1794.93 620.819   2
  18   5  -2 718.650 258.324   3
 -23  18  -2 584.208 572.259   3
 -18  23  -2 1355.64 688.498   1
  18   5  -2 406.984 245.533   3
 -18  23  -2 1755.53 531.721   2
  -5 -18  -2 2349.01 628.842   4
 -23  18  -2 698.870 414.118   4
   5 -23  -2 645.193 383.129   4
 -23  18  -2 945.196 636.220   1
 -23  18  -2 2497.14 637.421   2
  -5 -18   1 11936.7 1250.97   2
  18   5   1 8745.56 757.651   3
 -23  18   1 10925.7 1351.75   1
  -5 -18   1 11809.8 1077.33   4
 -18  23   1 9493.05 718.664   2
 -23  18   1 9614.27 963.724   2
 -23  18   1 8612.52 805.495   4
   5 -23   1 7686.16 731.702   4
 -18  23   1 11479.0 1351.87   1
  18   5   1 10871.6 1247.24   1
 -23  18   1 8766.32 795.940   3
 -23  18   4 3808.12 890.374   2
 -18  23   4 4308.12 1051.14   1
  -5 -18   4 6307.21 1255.50   2
 -18  23   4 2969.45 507.568   2
  18   5   4 5971.23 1014.79   1
 -23  18   4 4689.52 1247.18   1
  -5 -18   4 5489.62 1061.60   4
 -23  18   4 3881.23 829.017   4
   5 -23   4 3827.08 784.725   4
 -18  23   7 4832.09 1384.79   1
 -23  18   7 2461.35 997.568   2
  -5 -18   7 5353.22 1467.02   2
  18   5   7 3084.37 952.960   1
 -23  18   7 5707.84 1476.12   1
  -5 -18   7 3087.59 1260.45   4
 -23  18   7 3269.50 1061.64   4
   5 -23   7 4308.20 1102.36   4
 -19  23  -6 3545.31 1055.25   3
 -23  19  -6 3928.65 1158.96   3
 -23  19  -6 4899.93 807.485   4
   4 -23  -6 4327.04 833.048   4
  -4 -19  -6 2933.63 915.603   4
 -23  19  -3 11133.2 1121.27   3
 -23  19  -3 11038.9 1089.51   2
 -23  19  -3 10142.1 1093.67   1
  -4 -19  -3 12579.5 1103.71   4
   4 -23  -3 11535.1 887.085   4
 -23  19  -3 11272.2 810.951   4
  -4 -19  -3 9161.12 820.055   2
 -19  23  -3 11192.5 1042.09   1
 -19  23  -3 10045.4 1139.32   3
  -4 -19   0 13424.6 1190.28   2
  19   4   0 8158.98 581.487   3
 -23  19   0 13662.0 1430.21   1
 -19  23   0 14359.1 904.963   2
  -4 -19   0 12498.6 1092.39   4
 -23  19   0 12135.1 1032.38   2
   4 -23   0 11264.2 806.315   4
 -23  19   0 11282.8 791.190   4
 -19  23   0 13107.7 1338.74   1
 -23  19   0 10873.5 895.419   3
  -4 -19   3 13139.5 1490.68   2
 -23  19   3 12338.9 1489.84   1
  19   4   3 12677.6 1322.98   1
  -4 -19   3 13095.2 1296.54   4
 -19  23   3 11504.7 1434.42   1
   4 -23   3 11453.7 1068.37   4
 -23  19   3 11742.9 1048.09   4
 -23  19   3 8521.78 1015.11   2
 -19  23   3 10024.0 803.455   2
 -23  19   6 5480.31 1106.62   2
  19   4   6 9253.59 1222.63   1
  -4 -19   6 4903.66 1325.89   2
 -23  19   6 8451.52 1550.00   1
   4 -23   6 8649.89 1248.76   4
  -4 -19   6 6087.06 1246.00   4
 -23  19   6 9145.51 1243.14   4
 -20  23  -7 449.276 942.258   3
 -23  20  -7 781.651 962.056   3
 -23  20  -7 1848.88 763.432   4
   3 -23  -7 560.000 763.720   4
  -3 -20  -7 176.207 780.791   4
  -3 -20  -4 1448.47 450.481   2
 -20  23  -4 1389.63 820.148   3
 -23  20  -4 2759.04 891.188   3
 -20  23  -4 2570.81 677.726   1
 -20  23  -4 2676.98 409.523   4
 -23  20  -4 3499.91 800.863   2
 -23  20  -4 3046.55 555.868   4
   3 -23  -4 1117.32 561.140   4
  -3 -20  -4 50.9942 605.037   4
 -23  20  -4 1921.50 668.138   1
 -20  23  -1 2692.54 682.537   3
 -20  23  -1 4205.67 904.905   1
  -3 -20  -1 6197.86 855.212   2
 -20  23  -1 4134.82 653.803   2
 -23  20  -1 5622.06 964.093   1
 -23  20  -1 4351.70 718.159   2
   3 -23  -1 4179.72 605.931   4
 -23  20  -1 3317.61 463.409   4
  -3 -20  -1 2725.63 671.024   4
 -23  20  -1 3668.78 711.302   3
  20   3   2 12716.7 1356.06   1
  -3 -20   2 12632.0 1358.09   2
 -23  20   2 14202.3 1554.53   1
  -3 -20   2 9763.78 1053.40   4
 -20  23   2 12124.2 1442.11   1
   3 -23   2 8652.58 921.499   4
 -23  20   2 10388.4 1016.97   2
 -20  23   2 11174.8 875.435   2
 -23  20   2 10271.3 862.705   4
 -20  23   5 1470.21 1039.18   1
 -23  20   5 1144.61 780.232   2
 -20  23   5 2247.52 714.345   2
  -3 -20   5 1461.59 984.101   2
 -23  20   5 2560.72 1150.95   1
  -3 -20   5 1058.76 812.086   4
  20   3   5 1709.37 864.354   1
   3 -23   5 1249.29 809.719   4
 -23  20   5 1243.87 732.997   4
 -21  23  -5 7161.14 775.625   1
 -21  23  -5 7387.69 1207.54   3
 -23  21  -5 7873.50 1214.45   3
 -21  23  -5 6337.43 653.476   4
 -23  21  -5 7544.25 756.010   4
   2 -23  -5 7389.96 946.964   4
  -2 -21  -5 7836.56 1079.50   4
 -23  21  -5 6932.57 840.864   1
 -21  23  -2 1375.78 637.710   3
 -21  23  -2 2647.74 781.729   1
 -23  21  -2 2599.12 692.920   3
  -2 -21  -2 1436.48 512.270   2
 -21  23  -2 3105.10 661.255   2
 -23  21  -2 2309.77 393.975   4
  -2 -21  -2 1853.80 590.759   4
 -23  21  -2 1454.02 548.311   2
   2 -23  -2 2450.69 574.843   4
 -23  21  -2 2231.20 759.128   1
 -23  21   1 1902.65 558.004   3
  -2 -21   1 3585.82 865.737   2
   2 -23   1 3541.62 700.875   2
   2 -23   1 3308.02 713.123   4
  -2 -21   1 1947.20 644.570   4
 -23  21   1 2496.41 984.161   1
 -21  23   1 2612.40 559.278   2
 -23  21   1 2724.01 627.599   2
 -23  21   1 1530.29 425.570   4
 -21  23   1 4913.95 1069.93   1
 -23  21   4 180.431 654.445   2
 -21  23   4 23.2000 594.772   2
  21   2   4-392.433 787.612   1
  -2 -21   4 1448.85 959.130   2
   2 -23   4 541.973 834.911   2
  -2 -21   4-728.172 753.488   4
 -23  21   4 273.274 877.506   1
   2 -23   4 1024.47 695.509   4
 -23  21   4 804.816 619.967   4
 -21  23   4 2257.18 1022.13   1
 -21  23   7 2808.91 1221.05   1
 -23  21   7 1536.21 908.716   2
  -2 -21   7 970.229 1139.63   2
  21   2   7 754.205 801.751   1
 -23  21   7 2074.53 1162.04   1
  -2 -21   7 1955.04 1074.87   4
   2 -23   7 3189.53 1104.07   4
 -22  23  -6 2514.31 1033.18   3
 -23  22  -6 2786.06 1067.86   3
 -22  23  -6 2579.29 632.523   4
 -23  22  -6 2108.00 596.790   4
   1 -23  -6 2145.19 763.534   4
  -1 -22  -6 1992.28 848.028   4
 -22  23  -3 8390.33 1057.67   3
 -23  22  -3 8292.13 1122.58   3
 -22  23  -3 10880.3 1045.94   2
 -23  22  -3 9291.56 1010.41   2
  -1 -22  -3 9279.42 981.350   4
   1 -23  -3 8685.84 943.095   4
 -23  22  -3 7682.31 587.650   4
 -23  22  -3 9525.49 1061.77   1
 -22  23  -3 12290.9 1152.59   1
  -1 -22   0 6297.24 868.890   2
   1 -23   0 6388.02 746.853   2
 -22  23   0 7223.58 807.757   2
 -23  22   0 7830.79 864.722   2
  -1 -22   0 6101.09 839.057   4
   1 -23   0 5059.49 704.623   4
 -22  23   0 8347.35 1189.28   1
 -23  22   0 3709.64 343.473   4
 -23  22   0 10468.9 1351.11   1
 -22  23   0 6872.54 859.498   3
 -23  22   0 6724.43 809.067   3
 -23  22   3 3733.13 778.239   2
 -22  23   3 3462.45 659.099   2
  -1 -22   3 6704.28 1141.28   2
   1 -23   3 5964.37 1054.77   2
 -23  22   3 7456.28 1277.51   1
   1 -23   3 5644.50 950.215   4
  -1 -22   3 3632.01 888.593   4
 -23  22   3 4478.94 676.599   4
 -22  23   3 5680.83 1235.21   1
  22   1   6 1539.21 875.003   1
 -23  22   6 1746.97 906.733   2
 -22  23   6 1907.68 796.428   2
  -1 -22   6 4860.24 1353.95   2
  -1 -22   6 3895.99 1172.92   4
   1 -23   6 3249.66 1057.64   4
 -23  22   6 2607.98 1218.57   1
 -22  23   6 3504.86 1246.04   1
 -23  23  -4 5552.98 1109.04   3
 -23  23  -4 6019.48 951.446   2
   0 -23  -4 5493.77 913.898   4
 -23  23  -4 7066.49 921.875   1
 -23  23  -1-85.5739 543.920   3
   0 -23  -1 598.213 421.696   2
   0 -23  -1-290.944 535.088   4
 -23  23  -1-296.090 517.621   2
 -23  23  -1-358.736 673.530   1
   0 -23   2 2613.25 862.256   2
   0 -23   2 3181.84 820.145   4
 -23  23   2 2525.18 653.607   2
 -23  23   5 180.370 670.192   2
   0 -23   5 1596.14 1064.31   2
   0 -23   5 329.559 869.294   4
 -23  23   5-138.152 977.893   1
   0  24  -6 3522.50 1191.38   3
   0  24  -6 5749.65 1150.09   1
 -24   0  -6 5606.08 930.649   3
 -24   0  -6 5221.20 1217.57   4
 -24   0  -6 5329.39 1238.36   2
   0  24  -3 671.783 741.425   3
   0  24  -3 1450.99 822.097   1
 -24   0  -3 162.171 761.965   4
 -24   0  -3 732.675 819.709   2
 -24   0   0 13544.3 1356.63   4
 -24   0   0 15815.8 1554.53   2
   0  24   0 14044.9 1439.33   1
 -24   0   3-325.410 909.004   2
   0  24   3-33.4321 846.453   1
 -24   0   3-248.973 771.543   4
 -24   0   6 7112.51 1757.08   2
   0  24   6 8471.17 1422.38   1
 -24   0   6 7948.78 1580.03   4
  -1  24  -4 45.0352 792.987   3
   1  23  -4 239.521 801.482   3
   1  23  -4 1411.56 774.065   1
 -24   1  -4 1268.85 496.599   3
 -23  -1  -4 943.388 456.902   3
 -23  -1  -4 444.542 756.305   4
 -24   1  -4 644.712 758.259   4
  -1  24  -4 1019.98 784.368   1
 -24   1  -4 409.736 859.506   2
 -23  -1  -4 1325.39 818.434   2
 -23  -1  -1 1209.05 735.058   4
  -1  24  -1 1109.81 748.469   1
 -24   1  -1 1156.92 676.197   4
   1  23  -1 1410.83 787.295   1
 -24   1  -1 265.636 754.450   2
 -23  -1  -1 921.648 812.471   2
 -24   1   2 2558.65 1048.21   2
 -23  -1   2 3918.24 1098.02   2
  -1  24   2 3088.16 973.038   1
   1  23   2 3408.06 1013.96   1
 -23  -1   2 1485.31 792.287   4
 -24   1   2 2922.04 1007.16   4
  -1  24   5 1850.22 1036.68   1
 -24   1   5 3098.12 1223.36   2
 -23  -1   5 2737.71 1232.68   2
   1  23   5 5995.54 1288.53   1
 -23  -1   5 789.131 1051.43   4
 -24   1   5 1624.45 1012.19   4
  -2  24  -5 1866.59 1020.30   3
   2  22  -5 949.600 878.957   3
  -2  24  -5 2046.61 824.857   1
 -24   2  -5 3445.26 708.155   3
 -22  -2  -5 2143.45 637.929   3
 -24   2  -5 1398.57 854.160   4
 -22  -2  -5 1391.65 885.078   4
 -24   2  -5 1829.16 940.073   2
 -22  -2  -5 2679.26 963.639   2
   2  22  -5 1383.89 850.127   1
   2  22  -2 1496.60 804.604   1
 -22  -2  -2 1558.81 767.024   4
 -24   2  -2 1491.33 680.739   4
  -2  24  -2 1730.67 790.052   1
 -24   2  -2 1631.48 908.289   2
 -22  -2  -2 2890.77 861.047   2
  -2  24   1 2658.08 896.326   1
   2  22   1 3138.74 894.801   1
 -22  -2   1 2483.30 927.994   4
 -24   2   1 2568.55 828.599   4
 -24   2   1 4028.93 1006.56   2
 -22  -2   1 3813.19 1054.09   2
  -2  24   4 918.715 843.239   1
 -24   2   4 589.184 1031.22   2
 -22  -2   4 1373.27 1026.08   2
   2  22   4 1946.47 958.494   1
 -22  -2   4 1041.89 960.888   4
 -24   2   4 996.275 1034.95   4
  -3  24  -6 12204.0 1598.06   3
   3  21  -6 12898.3 1582.61   3
  -3  24  -6 10352.6 1244.36   1
 -24   3  -6 13408.2 1222.00   3
 -21  -3  -6 13385.2 1215.28   3
 -24   3  -6 9612.35 1365.71   4
 -21  -3  -6 13080.7 1532.99   4
 -24   3  -6 10712.3 1408.74   2
 -21  -3  -6 10141.6 1339.79   2
   3  21  -6 11325.8 1368.90   1
  -3  24  -3 1449.85 758.761   3
   3  21  -3 1396.03 760.449   3
 -24   3  -3 1026.60 386.051   3
 -21  -3  -3 943.496 778.550   4
 -24   3  -3 1747.39 771.138   4
   3  21  -3 536.597 743.379   1
 -24   3  -3 1262.05 845.614   2
 -21  -3  -3 1240.93 775.583   2
  -3  24  -3 980.190 751.986   1
 -21  -3   0 7682.89 1104.67   4
 -24   3   0 9459.91 1116.81   4
  -3  24   0 9519.75 1228.00   1
 -24   3   0 11549.9 1289.36   2
 -21  -3   0 8240.90 1218.74   2
  -3  24   3 2229.73 947.226   1
 -24   3   3 2341.31 1006.13   2
 -21  -3   3 1113.71 976.712   2
   3  21   3 1541.64 836.167   1
 -21  -3   3 2835.14 951.491   4
 -24   3   3 1870.74 841.057   4
 -24   3   6 4844.42 1482.53   2
 -21  -3   6 6999.64 1528.22   2
   3  21   6 6979.93 1281.92   1
  -3  24   6 8110.63 1376.96   1
 -21  -3   6 5247.14 1412.80   4
 -24   3   6 3695.97 1298.44   4
  -4  24  -7 4464.16 1288.06   3
   4  20  -7 3987.31 1189.19   3
 -24   4  -7 4275.42 941.452   3
 -20  -4  -7 3912.90 897.572   3
 -24   4  -7 3863.18 1099.03   4
 -20  -4  -7 2783.36 1007.61   4
 -24   4  -7 1901.76 1115.87   2
 -20  -4  -7 2252.78 991.768   2
  -4  24  -4 101.723 805.805   3
   4  20  -4 1594.69 783.785   3
  -4  24  -4 2410.07 787.430   1
 -24   4  -4 3766.02 636.012   3
   4  20  -4 722.558 793.652   1
 -24   4  -4 2549.36 813.789   4
 -20  -4  -4 1149.35 725.103   4
 -24   4  -4 2609.39 838.771   2
 -20  -4  -4 1109.81 801.613   2
   4  20  -1 7867.06 1121.28   1
 -24   4  -1 5359.11 908.816   4
 -20  -4  -1 4217.65 843.377   4
 -24   4  -1 5638.53 1001.25   2
  -4  24  -1 7325.03 1110.16   1
 -20  -4  -1 4789.08 951.535   2
 -20  -4   2-800.980 803.323   2
   4  20   2-790.059 835.193   1
 -20  -4   2 486.392 659.356   4
 -24   4   2 965.533 714.185   4
 -24   4   2-1135.56 794.113   2
  -4  24   2 781.997 851.480   1
 -24   4   5 1545.53 1054.53   2
 -20  -4   5 4207.55 1234.16   2
   4  20   5 1643.74 993.962   1
 -20  -4   5 184.821 929.090   4
 -24   4   5 2503.17 1108.90   4
  -4  24   5 2730.49 1077.29   1
  -5  24  -5 2107.75 889.733   3
   5  19  -5 3724.23 1034.82   3
 -24   5  -5 4799.50 817.577   3
   5  19  -5 3354.03 997.560   1
 -19  -5  -5 3022.15 703.208   3
  -5  24  -5 2275.71 807.563   1
 -24   5  -5 4222.17 942.154   4
 -19  -5  -5 2027.32 864.994   4
 -24   5  -5 3077.50 985.835   2
 -19  -5  -5 3883.05 905.876   2
  -5  24  -2 4888.00 955.000   1
 -24   5  -2 3405.48 347.565   3
   5  19  -2 3738.36 960.415   1
 -19  -5  -2 1539.92 716.776   4
 -24   5  -2 2051.93 717.832   4
 -24   5  -2 1802.14 741.002   2
 -19  -5  -2 4131.19 882.175   2
  -5  24   1 5920.06 1097.26   1
 -24   5   1 5354.40 939.973   4
 -19  -5   1 3735.10 842.663   4
   5  19   1 4375.57 963.471   1
 -19  -5   1 6433.25 1146.75   2
 -24   5   1 4663.79 955.649   2
 -24   5   4 6408.52 1313.07   2
 -19  -5   4 5321.06 1204.77   2
   5  19   4 3969.38 1101.70   1
 -19  -5   4 2706.41 992.073   4
 -24   5   4 3718.51 1057.92   4
  -5  24   4 3630.61 1023.77   1
 -24   5   7 2147.47 1226.46   2
 -19  -5   7 4613.16 1458.68   2
   5  19   7 4046.16 1185.58   1
  -5  24   7 3890.02 1229.22   1
 -19  -5   7 4660.46 1374.29   4
 -24   5   7 3476.96 1361.63   4
  -6  24  -6 6724.24 1393.93   3
   6  18  -6 7392.62 1272.48   3
 -24   6  -6 11113.5 1188.78   3
 -18  -6  -6 9091.09 1039.53   3
 -24   6  -6 8251.66 1197.73   4
 -18  -6  -6 9158.93 1282.94   4
 -24   6  -6 12232.1 1353.62   2
 -18  -6  -6 5387.97 1046.93   2
  -6  24  -6 6573.29 974.992   1
  -6  24  -3 2041.69 825.415   3
   6  18  -3 2971.70 771.748   3
 -24   6  -3 3581.70 534.436   3
   6  18  -3 3112.92 864.655   1
 -18  -6  -3 2932.86 858.614   4
 -24   6  -3 2354.99 751.197   4
 -24   6  -3 3681.06 838.183   2
 -18  -6  -3 2741.68 797.954   2
  -6  24  -3 4828.25 915.779   1
   6  18   0 14154.9 1376.77   1
  -6  24   0 12575.1 1309.74   1
 -18  -6   0 10051.0 1117.38   4
 -24   6   0 9153.65 1040.18   4
  -6  24   0 10729.5 514.224   2
 -24   6   0 11013.6 1245.96   2
 -18  -6   0 9200.80 1151.64   2
 -24   6   3 880.775 848.312   2
 -18  -6   3 2466.65 1019.55   2
   6  18   3 2973.14 918.238   1
 -18  -6   3 3678.85 965.139   4
  -6  24   3 4953.16 1097.22   1
 -24   6   3 2283.17 882.823   4
 -18  -6   6 12723.6 1794.55   2
  -6  24   6 10915.0 1545.25   1
 -18  -6   6 11264.2 1647.90   4
 -24   6   6 9948.95 1491.41   4
   6  18   6 10902.5 1422.02   1
 -24   6   6 12569.4 1778.23   2
  -7  24  -7 1459.35 1060.38   3
   7  17  -7 487.815 913.534   3
 -24   7  -7 1981.89 897.543   3
 -17  -7  -7 1745.99 772.502   3
 -24   7  -7 392.724 818.916   4
 -17  -7  -7 1663.77 944.728   4
 -24   7  -7 627.385 887.852   2
 -17  -7  -7 1974.00 837.475   2
  -7  24  -4 668.773 766.109   3
   7  17  -4 2582.18 806.037   3
   7  17  -4 3921.71 934.348   1
 -24   7  -4 3379.33 676.323   3
 -24   7  -4 2331.79 750.467   4
 -17  -7  -4 1829.02 784.317   4
  -7  24  -4 2824.72 719.548   1
 -24   7  -4 1175.99 783.716   2
 -17  -7  -4 4263.32 871.536   2
  -7  24  -1 1121.17 493.116   2
  -7  24  -1 19.8749 688.282   1
   7  17  -1 419.988 723.270   1
 -17  -7  -1 700.998 645.359   4
 -24   7  -1 853.553 592.011   4
 -24   7  -1 162.817 568.579   2
 -17  -7  -1 484.291 651.445   2
 -17  -7   2 2574.13 1010.32   2
  -7  24   2 2083.14 827.330   1
 -17  -7   2 1650.79 758.133   4
 -24   7   2 2415.10 755.675   4
   7  17   2 817.792 697.196   1
 -24   7   2 811.991 693.293   2
 -24   7   5 2810.84 1100.83   2
 -17  -7   5 3259.71 1270.11   2
   7  17   5 4391.84 1079.12   1
  -7  24   5 2320.74 1041.62   1
 -17  -7   5 2316.97 1116.62   4
 -24   7   5 1547.21 938.102   4
 -24   8  -5 1971.69 768.998   4
  -8  24  -5 4379.00 1112.00   3
  -8  24  -5 3629.60 777.926   1
   8  16  -5 2407.30 830.963   3
 -24   8  -5 4380.68 832.061   3
 -16  -8  -5 2404.65 646.394   3
 -16  -8  -5 3438.76 941.648   4
 -24   8  -5 4450.30 1010.17   2
 -16  -8  -5 4606.24 832.577   2
   8  16  -5 3589.36 983.523   1
 -24   8  -2 8312.02 594.465   3
  -8  24  -2 10257.9 1122.75   1
 -16  -8  -2 9741.22 1128.16   4
 -24   8  -2 8360.45 951.295   4
 -24   8  -2 6646.08 980.411   2
 -16  -8  -2 9650.43 1090.87   2
   8  16  -2 10079.1 1151.64   1
 -16  -8   1 6327.41 1042.24   2
   8  16   1 5835.73 988.837   1
  -8  24   1 7065.56 1091.43   1
 -16  -8   1 7196.70 1051.94   4
 -24   8   1 6989.27 936.332   4
 -24   8   1 6803.85 1026.97   2
   8  16   4 8515.29 1194.92   1
 -16  -8   4 6855.72 1262.04   2
  -8  24   4 9439.83 1341.82   1
 -16  -8   4 5989.73 1220.19   4
 -24   8   4 8086.88 1220.57   4
 -24   8   4 8141.17 1255.91   2
 -24   8   7 1387.12 1125.21   2
 -16  -8   7 3189.28 1371.36   2
  -8  24   7 4786.12 1261.11   1
   8  16   7 2473.42 992.639   1
 -16  -8   7 618.525 1127.61   4
 -24   8   7 3644.28 1282.49   4
  -9  24  -6 10033.2 1457.03   3
   9  15  -6 11261.1 1275.76   3
 -24   9  -6 13027.7 1344.85   3
 -15  -9  -6 9775.42 1112.58   3
  -9  24  -6 10739.2 988.042   1
 -24   9  -6 12151.1 1302.45   4
 -15  -9  -6 12003.1 1388.67   4
 -24   9  -6 12214.8 1355.44   2
 -15  -9  -6 11379.0 1217.73   2
   9  15  -3 9940.82 1265.99   1
 -24   9  -3 11447.2 885.239   3
 -24   9  -3 9890.19 1116.09   2
 -15  -9  -3 8859.83 1119.05   4
 -24   9  -3 8285.35 994.275   4
  -9  24  -3 11828.3 1123.99   1
 -15  -9  -3 8175.90 1035.07   2
  -9  24  -3 8840.64 1125.54   3
   9  15  -3 9604.35 988.091   3
  -9  24   0 9576.44 1155.53   1
   9  15   0 8400.43 1136.48   1
 -15  -9   0 6242.45 952.473   4
 -24   9   0 8532.93 964.322   4
 -24   9   0 8625.91 1079.56   2
  -9  24   0 6901.81 443.462   2
 -15  -9   0 7193.05 1030.69   2
   9  15   3 2450.52 850.380   1
 -15  -9   3 1219.56 927.758   2
  -9  24   3 787.291 752.163   1
 -15  -9   3 1156.94 872.950   4
 -24   9   3 1916.24 858.733   4
 -24   9   3 1610.92 811.094   2
 -24   9   6 2814.83 1154.59   2
 -15  -9   6 304.968 1134.40   2
  -9  24   6 2459.19 1040.47   1
   9  15   6 2939.26 943.335   1
 -15  -9   6 1803.36 1126.64   4
 -24   9   6 1847.60 1046.54   4
 -10  24  -7 1923.06 1052.71   3
  10  14  -7 1530.11 919.439   3
 -24  10  -7 3380.06 1014.80   3
 -14 -10  -7 1839.35 822.310   3
 -24  10  -7 4346.72 1070.70   4
 -14 -10  -7 1787.25 934.564   4
 -24  10  -7 901.254 889.662   2
 -14 -10  -7 1304.39 776.894   2
 -10  24  -4 1515.62 791.884   3
  10  14  -4 2078.43 674.588   3
 -24  10  -4 2124.87 668.385   3
 -10  24  -4 2150.44 664.719   1
  10  14  -4 2841.68 879.964   1
  14 -24  -4 2000.78 331.832   4
 -24  10  -4 2889.15 775.693   4
 -14 -10  -4 1163.72 727.657   4
 -24  10  -4 2683.73 835.778   2
 -14 -10  -4 2415.88 687.156   2
 -10  24  -1 3114.52 621.726   2
 -24  10  -1 2111.42 336.565   3
  10  14  -1 2944.89 836.978   1
 -14 -10  -1 1843.74 768.683   4
 -24  10  -1 2602.61 648.650   4
 -10  24  -1 3397.99 822.647   1
 -24  10  -1 3242.82 800.532   2
 -14 -10  -1 4367.90 881.354   2
 -10  24   2 7497.94 1166.22   1
  10  14   2 6253.46 1020.81   1
 -24  10   2 6326.31 924.927   4
 -14 -10   2 4640.02 925.906   4
 -24  10   2 6889.26 1073.04   2
 -14 -10   2 7722.31 1241.20   2
 -24  10   5 2197.31 1044.56   2
 -14 -10   5 1740.04 1070.49   2
 -10  24   5 3553.06 1069.90   1
 -14 -10   5 2838.59 1028.46   4
 -24  10   5 2604.93 1011.13   4
  10  14   5 3155.30 950.651   1
 -24  10   8 1729.22 1165.34   2
 -14 -10   8 3709.11 1447.23   2
 -14 -10   8 1336.70 1180.01   4
  10  14   8 2641.94 978.668   1
 -24  10   8 3216.37 1315.50   4
 -11  24  -8 4265.38 1237.76   3
  11  13  -8 5198.04 1176.85   3
 -24  11  -8 7456.06 1373.16   3
 -13 -11  -8 5247.59 1085.41   3
 -13 -11  -8 4185.77 1159.78   4
 -24  11  -8 4730.80 1275.31   2
 -13 -11  -8 4562.64 976.062   2
 -11  24  -5 755.090 762.735   3
  11  13  -5-138.561 660.399   3
 -24  11  -5 3416.68 881.060   3
 -24  11  -5 1196.67 606.075   4
 -11  24  -5 3122.68 695.334   1
 -13 -11  -5 1358.39 755.762   4
 -24  11  -5 1441.66 733.401   2
 -13 -11  -5 2885.65 781.565   2
 -24  11  -2 5866.63 660.065   3
  11  13  -2 6394.29 1074.02   1
 -11  24  -2 7303.94 1031.85   1
 -13 -11  -2 5964.84 918.812   4
 -24  11  -2 5621.52 771.240   4
 -24  11  -2 5684.92 876.130   2
 -13 -11  -2 5415.50 895.587   2
 -11  24  -2 5489.58 896.787   3
  11  13  -2 5739.21 734.648   3
 -13 -11   1 4296.50 947.011   2
 -11  24   1 3614.75 902.267   1
 -13 -11   1 2687.96 750.076   4
 -24  11   1 1581.97 634.080   4
  11  13   1 2579.73 883.415   1
 -24  11   1 2201.59 674.507   2
 -24  11   4 2190.72 910.926   2
 -13 -11   4 7535.49 1351.47   2
  11  13   4 6017.96 1041.58   1
 -11  24   4 5376.93 1120.06   1
 -13 -11   4 6744.47 1133.61   4
 -24  11   4 5693.88 1078.54   4
  11  13   7-103.509 811.862   1
 -24  11   7 178.495 1111.21   2
 -11  24   7 2591.67 1231.45   1
 -13 -11   7 1419.65 1194.61   4
 -24  11   7 322.204 937.711   4
 -12  24  -6 5033.33 1201.34   3
  12  12  -6 2321.40 774.498   3
 -24  12  -6 4711.73 1082.39   3
 -24  12  -6 3715.59 845.817   4
 -12 -12  -6 1711.43 812.182   4
 -24  12  -6 4127.36 983.871   2
 -12 -12  -6 1536.16 759.215   2
 -24  12  -3 6269.70 800.436   3
 -12  24  -3 7677.75 919.090   1
 -12 -12  -3 6791.45 964.784   4
 -24  12  -3 6938.10 876.768   4
  12 -24  -3 5968.91 345.678   4
 -24  12  -3 6298.41 935.136   2
  12 -24  -3 4197.81 375.853   4
 -12 -12  -3 7306.00 899.663   2
  12  12  -3 9193.59 1243.16   1
 -12  24  -3 7303.26 1067.17   3
  12  12  -3 6593.11 830.623   3
 -12 -12   0 1783.26 729.086   2
 -12  24   0 1405.69 414.325   2
 -24  12   0 1772.60 333.058   3
  12  12   0 1637.36 789.218   1
 -12  24   0 3294.13 819.849   1
 -12  24   0 2264.48 317.313   2
 -12 -12   0 1900.34 702.015   4
 -24  12   0 3386.65 671.311   4
 -24  12   0 1719.45 652.117   2
 -12  24   3 5143.59 1127.80   1
 -12 -12   3 5682.35 1184.88   2
  12  12   3 6654.65 1051.45   1
 -12 -12   3 6060.25 1064.64   4
 -24  12   3 5733.85 953.806   4
 -24  12   3 7058.02 1099.90   2
 -24  12   6 3555.99 1131.99   2
  12  12   6 3569.83 983.169   1
 -12 -12   6 2053.52 1204.99   2
 -12  24   6 4665.21 1139.08   1
 -12 -12   6 2266.91 1051.85   4
 -24  12   6 4120.70 1164.45   4
 -13  24  -7 1302.55 996.448   3
  13  11  -7 1197.18 797.554   3
 -24  13  -7 66.5797 844.558   3
 -11 -13  -7 2494.28 865.365   3
 -24  13  -7 2779.96 908.246   4
 -11 -13  -7 535.944 788.361   4
 -24  13  -7 3900.02 1137.02   2
 -11 -13  -7 1021.06 705.509   2
  13  11  -4 6488.53 841.793   3
 -24  13  -4 7062.49 962.401   3
 -13  24  -4 7957.09 924.874   1
  11 -24  -4 7033.34 568.638   4
 -24  13  -4 8482.35 960.138   4
 -24  13  -4 6634.69 974.565   2
 -11 -13  -4 7775.37 1061.48   4
 -11 -13  -4 7328.22 900.316   2
 -13  24  -4 7128.80 1130.25   3
 -11 -13  -1 1963.53 718.399   2
  13  11  -1 2654.19 790.538   1
 -24  13  -1 2855.50 533.052   3
 -13  24  -1 2598.37 641.442   2
 -13  24  -1 2940.69 777.305   1
 -11 -13  -1 1484.83 613.838   4
 -24  13  -1 1764.58 557.096   4
 -24  13  -1 2434.84 715.223   2
 -24  13   2 4053.97 321.048   3
 -13  24   2 8206.49 1183.40   1
 -11 -13   2 7027.90 1021.23   4
  13  11   2 6179.97 1012.55   1
 -24  13   2 6319.29 915.146   4
 -24  13   2 5063.66 879.049   2
 -11 -13   2 7607.69 1217.08   2
 -24  13   5 3819.76 1078.56   2
 -11 -13   5 2296.66 1094.85   2
 -13  24   5 1805.77 940.604   1
  13  11   5 2644.07 909.443   1
 -11 -13   5 1393.76 922.153   4
 -24  13   5 2873.37 888.260   4
 -24  13   8 6136.44 1389.35   2
  13  11   8 6163.15 1215.95   1
 -13  24   8 8037.45 1493.45   1
 -11 -13   8 4723.06 1567.70   2
 -24  13   8 6095.91 1489.67   1
 -11 -13   8 4760.88 1391.55   4
 -24  13   8 5329.66 1452.64   4
 -14  24  -8 2501.65 1131.28   3
 -24  14  -8 5364.74 1210.76   3
 -10 -14  -8 3164.31 968.366   3
 -10 -14  -8 2596.22 819.187   2
 -14  24  -5 1817.79 872.697   3
  14  10  -5 1912.12 665.574   3
 -14  24  -5 2380.21 643.893   1
 -24  14  -5 2943.94 903.877   3
 -24  14  -5 4207.31 794.565   4
  10 -24  -5 3058.39 573.114   4
 -10 -14  -5 4623.26 953.986   4
 -24  14  -5 3542.81 840.226   2
 -10 -14  -5 3051.95 709.207   2
 -14  24  -2 4514.79 847.861   3
 -24  14  -2 7532.17 817.644   3
 -14  24  -2 7458.32 957.900   1
 -10 -14  -2 7686.37 958.531   4
 -24  14  -2 6204.31 869.594   2
 -24  14  -2 6221.98 761.423   4
  10 -24  -2 4090.56 278.336   4
  14  10  -2 8040.85 1171.89   1
 -10 -14  -2 6016.25 880.011   2
  10 -24  -2 3053.20 322.781   4
  14  10  -2 6289.10 676.795   3
 -24  14   1 2121.89 389.069   3
 -10 -14   1 1961.56 854.264   2
 -14  24   1 4102.29 938.552   1
 -14  24   1 1722.53 324.571   2
 -24  14   1 2054.57 318.025   3
  14  10   1 1926.43 771.167   1
 -14  24   1 1947.28 257.334   2
 -10 -14   1 3410.90 784.361   4
 -24  14   1 2781.76 652.514   4
 -24  14   1 2509.08 721.000   2
 -24  14   4 3256.80 935.311   2
 -14  24   4 613.820 838.835   1
 -10 -14   4 3477.43 1074.05   2
 -10 -14   4 1275.13 799.914   4
 -24  14   4 905.411 791.861   4
  14  10   4 1647.50 746.048   1
 -24  14   7 3568.10 1233.88   2
 -14  24   7 2892.08 1167.83   1
 -10 -14   7 3867.89 1423.02   2
  14  10   7 2544.84 967.587   1
 -24  14   7 3483.66 1280.67   1
 -10 -14   7 2020.88 1250.33   4
 -24  14   7 2953.89 1140.11   4
 -15  24  -6 3631.79 1084.47   3
  15   9  -6 1490.73 690.394   3
 -24  15  -6 1996.31 961.781   3
 -24  15  -6 2182.21 788.728   4
  -9 -15  -6 1831.97 883.038   4
 -24  15  -6 2925.47 913.280   2
  -9 -15  -6 611.070 597.522   2
 -15  24  -3 2135.07 759.512   3
  15   9  -3 1880.37 519.101   3
 -24  15  -3 2357.55 709.059   3
 -15  24  -3 2184.19 690.819   1
  -9 -15  -3 560.966 656.499   4
 -24  15  -3 1036.50 552.041   4
   9 -24  -3 1867.82 383.344   4
 -24  15  -3 1886.35 651.049   2
  -9 -15  -3 1531.82 589.708   2
 -15  24   0 7674.38 1059.89   1
 -24  15   0 5719.99 616.075   3
  -9 -15   0 6609.58 906.370   4
 -15  24   0 6921.98 754.262   2
  15   9   0 7492.77 1083.91   1
  15   9   0 4713.49 649.424   3
 -15  24   0 9580.68 615.067   2
 -24  15   0 6793.32 776.013   4
 -24  15   0 7818.69 937.940   2
  -9 -15   0 8418.17 1050.40   2
  -9 -15   3 10007.9 1446.52   2
  -9 -15   3 9525.02 1181.64   4
 -24  15   3 9454.52 1094.53   4
 -24  15   3 8317.66 1102.49   2
  15   9   3 8279.72 1130.48   1
 -15  24   3 11725.2 1421.50   1
  -9 -15   6 10097.4 1643.08   2
 -24  15   6 11829.7 1639.92   1
  15   9   6 6488.57 1140.42   1
  -9 -15   6 7233.70 1327.62   4
 -24  15   6 11715.7 1469.41   4
 -15  24   6 10184.6 1514.62   1
 -24  15   6 7317.09 1318.75   2
 -16  24  -7 3549.10 1154.27   3
  16   8  -7 1533.81 721.697   3
 -24  16  -7 4188.13 1160.24   3
 -24  16  -7 1805.80 737.956   4
  -8 -16  -7 1384.35 910.671   4
  -8 -16  -7 2554.06 728.973   2
  16   8  -4 8465.51 763.531   3
 -24  16  -4 10226.5 1137.90   3
 -16  24  -4 8786.96 930.248   1
   8 -24  -4 6788.96 700.837   4
 -24  16  -4 8381.70 1060.28   2
 -24  16  -4 9935.67 945.894   4
  -8 -16  -4 8529.91 1078.19   4
  -8 -16  -4 8224.12 856.074   2
 -16  24  -4 8506.29 1153.30   3
 -16  24  -1 6529.14 1004.61   1
 -24  16  -1 5227.96 690.405   3
  16   8  -1 3801.34 543.137   3
 -16  24  -1 4809.60 822.590   2
 -16  24  -1 6120.63 608.323   2
  -8 -16  -1 6189.89 878.786   4
 -24  16  -1 5376.93 860.591   2
 -24  16  -1 5694.24 675.096   4
   8 -24  -1 3433.05 361.610   4
  16   8  -1 6425.46 1022.14   1
  -8 -16  -1 6325.01 883.283   2
  -8 -16   2 7589.73 1223.36   2
  16   8   2 8283.55 1152.97   1
 -16  24   2 4371.71 424.094   2
 -24  16   2 6427.59 562.883   3
  -8 -16   2 6369.45 967.269   4
 -24  16   2 7700.03 921.359   4
 -24  16   2 7934.79 1014.66   2
   8 -24   2 7094.40 625.016   4
 -16  24   2 6025.13 419.258   2
 -16  24   2 10693.8 1313.72   1
 -24  16   2 5843.17 564.855   3
 -24  16   5 3714.75 952.265   2
 -16  24   5 3779.16 1047.22   1
  -8 -16   5 4094.09 1247.16   2
  16   8   5 4809.04 997.583   1
 -24  16   5 5394.81 1267.33   1
  -8 -16   5 3031.05 1141.42   4
 -24  16   5 2990.18 869.633   4
   8 -24   5 3650.85 796.420   4
 -17  24  -5 3236.51 945.414   3
 -24  17  -5 3226.77 948.197   3
  17   7  -5 1760.28 545.036   3
 -24  17  -5 3520.29 754.847   4
   7 -24  -5 3152.83 615.899   4
  -7 -17  -5 1475.52 722.875   4
 -24  17  -5 854.157 614.133   1
 -24  17  -5 2342.76 830.740   2
 -17  24  -5 2672.71 636.179   1
  -7 -17  -5 2350.78 604.268   2
 -17  24  -2 716.162 656.696   3
  -7 -17  -2 968.107 649.446   2
  17   7  -2 1225.74 387.360   3
 -24  17  -2 2433.95 603.621   3
 -17  24  -2 2505.49 693.341   1
  17   7  -2 684.237 369.534   3
  -7 -17  -2 1565.79 674.456   4
 -24  17  -2 777.079 438.434   4
   7 -24  -2 1536.58 386.755   4
 -24  17  -2 2632.01 703.097   2
 -24  17   1 213.562 427.988   3
 -17  24   1 187.074 722.661   1
  -7 -17   1-16.0311 750.226   2
  17   7   1 93.4627 491.013   3
  17   7   1 627.422 660.116   1
 -24  17   1-134.268 350.264   3
  -7 -17   1 279.201 541.672   4
 -24  17   1 1308.30 517.772   4
 -17  24   1 399.057 362.618   2
 -24  17   1 364.318 526.968   2
   7 -24   1 743.957 405.507   4
 -24  17   4 2629.36 831.233   2
 -17  24   4 4028.42 1115.81   1
  -7 -17   4 2107.53 1019.36   2
 -24  17   4 2474.58 994.414   1
  17   7   4 2395.98 917.833   1
  -7 -17   4 2253.50 886.021   4
 -24  17   4 1985.10 759.466   4
   7 -24   4 2774.95 720.874   4
 -17  24   7 2635.59 1294.78   1
 -24  17   7 2069.29 1043.04   2
  -7 -17   7 3101.42 1303.53   2
  17   7   7 1281.39 874.849   1
 -24  17   7 1658.50 1109.97   1
  -7 -17   7 914.703 1022.97   4
 -24  17   7 2620.77 969.635   4
 -18  24  -6 11866.8 1553.90   3
 -24  18  -6 10420.4 1404.75   3
 -24  18  -6 12282.2 1408.82   2
   6 -24  -6 10040.2 1008.23   4
 -24  18  -6 10101.5 1064.90   4
  -6 -18  -6 10541.8 1245.14   4
  -6 -18  -6 6233.93 762.945   2
  -6 -18  -3 3340.48 690.422   2
 -18  24  -3 2236.27 766.912   3
  18   6  -3 2244.08 403.301   3
 -24  18  -3 2843.26 749.200   3
 -18  24  -3 2211.60 678.122   1
 -24  18  -3 4264.58 897.522   1
  -6 -18  -3 4085.33 846.936   4
 -24  18  -3 3948.47 646.211   4
   6 -24  -3 2486.56 530.840   4
 -24  18  -3 2306.01 729.578   2
  -6 -18   0 13158.8 1240.36   2
  18   6   0 12212.5 1399.18   1
  18   6   0 8138.44 671.890   3
 -24  18   0 11194.5 1323.51   1
 -18  24   0 10596.6 770.616   2
  -6 -18   0 9982.92 1032.33   4
 -24  18   0 8888.09 951.685   2
 -24  18   0 9853.33 837.969   4
   6 -24   0 8141.15 670.812   4
 -18  24   0 12948.2 1390.09   1
 -24  18   0 11154.0 890.126   3
 -18  24   3 2938.92 964.925   1
 -18  24   3 1440.73 383.649   2
  18   6   3 3724.81 937.078   1
  -6 -18   3 2983.08 1008.27   2
 -24  18   3 4027.83 1198.22   1
  -6 -18   3 2829.70 785.231   4
 -24  18   3 2064.61 706.869   4
   6 -24   3 2329.51 658.551   4
 -24  18   3 2231.73 754.744   2
 -24  18   6 10898.6 1403.03   2
  18   6   6 11541.5 1332.09   1
  -6 -18   6 11683.9 1719.62   2
 -24  18   6 10323.4 1609.36   1
  -6 -18   6 8234.01 1387.73   4
 -18  24   6 10929.8 1611.71   1
 -24  18   6 7903.21 1242.25   4
   6 -24   6 8992.70 1223.84   4
 -19  24  -7 2586.55 1131.30   3
 -24  19  -7 3462.87 1206.30   3
   5 -24  -7 5039.99 922.997   4
 -24  19  -7 3632.92 872.782   4
  -5 -19  -7 4020.76 1013.74   4
 -19  24  -4 6586.49 828.053   1
 -19  24  -4 3505.14 888.445   3
 -24  19  -4 4405.12 908.198   3
  19   5  -4 2186.69 342.100   3
 -24  19  -4 5609.76 912.222   2
   5 -24  -4 4394.04 682.361   4
 -24  19  -4 4842.83 731.165   4
  -5 -19  -4 4307.15 886.012   4
 -24  19  -4 4175.24 758.986   1
  -5 -19  -4 4287.78 663.966   2
 -24  19  -1 5843.07 803.023   3
 -19  24  -1 4143.57 796.745   3
  -5 -19  -1 6012.99 920.282   2
 -19  24  -1 5514.81 659.691   2
 -24  19  -1 6245.10 859.577   2
  -5 -19  -1 5479.88 852.955   4
 -24  19  -1 4289.25 580.581   4
   5 -24  -1 3350.58 518.468   4
 -19  24  -1 5830.42 1037.24   1
  19   5  -1 3266.30 341.765   3
 -19  24   2 4416.80 1102.72   1
  19   5   2 3105.29 919.723   1
  -5 -19   2 4347.44 1017.08   2
 -24  19   2 4175.36 1100.81   1
  -5 -19   2 2292.62 755.180   4
 -19  24   2 3264.15 573.109   2
 -24  19   2 2840.72 683.053   4
   5 -24   2 3436.81 674.166   4
 -24  19   2 2230.90 699.094   2
 -19  24   5 5337.68 1298.52   1
 -24  19   5 3837.84 987.824   2
  19   5   5 3570.83 987.611   1
  -5 -19   5 3656.11 1204.24   2
 -24  19   5 4394.76 1244.26   1
  -5 -19   5 2966.29 1029.63   4
 -24  19   5 3416.34 909.675   4
   5 -24   5 1167.06 775.553   4
 -20  24  -5 3957.27 1043.00   3
 -24  20  -5 2194.99 898.415   3
 -20  24  -5 2181.84 573.882   1
 -24  20  -5 3271.81 681.169   4
 -24  20  -5 4474.91 1007.39   2
   4 -24  -5 2312.01 692.321   4
  -4 -20  -5 4570.76 935.268   4
 -24  20  -5 5127.53 776.826   1
 -20  24  -2 720.138 630.507   3
 -24  20  -2 1430.82 565.737   3
 -20  24  -2 1592.20 709.543   1
  -4 -20  -2 550.097 613.455   2
  -4 -20  -2 610.324 558.197   4
   4 -24  -2 1210.90 460.930   4
 -24  20  -2 470.855 375.043   4
 -20  24  -2 576.749 472.447   2
 -24  20  -2 1439.04 708.664   1
  -4 -20   1 6694.30 1081.42   2
  20   4   1 6360.68 1101.09   1
 -20  24   1 4218.10 602.650   2
 -24  20   1 5672.27 820.047   2
 -24  20   1 3808.16 998.456   1
  -4 -20   1 4640.17 819.920   4
 -24  20   1 4506.76 665.948   4
 -20  24   1 7156.46 1215.99   1
   4 -24   1 3821.50 675.132   4
 -24  20   1 5062.23 730.771   3
 -20  24   4 2828.55 1001.23   1
 -24  20   4 2255.24 842.743   2
 -20  24   4 2568.84 607.231   2
  -4 -20   4 3119.08 1051.76   2
 -24  20   4 1263.66 1107.26   1
  -4 -20   4 996.691 904.848   4
  20   4   4 2647.19 922.646   1
   4 -24   4 2138.89 788.869   4
 -24  20   4 1650.09 721.330   4
 -20  24   7 4306.37 1388.48   1
 -24  20   7 1110.71 910.682   2
  20   4   7 2290.71 964.439   1
  -4 -20   7 5692.20 1420.32   2
 -24  20   7 4225.88 1426.78   1
  -4 -20   7 2109.40 1178.20   4
   4 -24   7 3852.45 1139.55   4
 -24  20   7 3325.94 1026.90   4
 -24  21  -6 7893.18 1319.01   3
 -21  24  -6 5441.38 1233.20   3
 -24  21  -6 7187.96 906.012   4
   3 -24  -6 7920.55 996.572   4
  -3 -21  -6 5872.59 1082.09   4
 -21  24  -3 2178.02 810.012   3
 -24  21  -3 1651.93 701.976   3
 -21  24  -3 1813.42 660.929   1
  -3 -21  -3 1654.78 523.771   2
 -21  24  -3 2596.71 718.299   2
 -24  21  -3 2851.78 745.195   2
  -3 -21  -3 1979.05 686.393   4
   3 -24  -3 2029.37 570.414   4
 -24  21  -3 702.602 383.848   4
  -3 -21   0 11064.8 1119.64   2
 -24  21   0 12902.8 1416.30   1
 -21  24   0 11301.7 887.280   2
 -24  21   0 12038.7 1033.34   2
  -3 -21   0 9883.67 1012.60   4
   3 -24   0 10064.1 868.458   4
 -24  21   0 8064.30 657.730   4
 -21  24   0 14578.1 1474.70   1
 -21  24   0 11551.2 1072.29   3
 -24  21   0 9901.69 923.563   3
 -21  24   3 820.739 809.359   1
 -21  24   3 1321.51 550.963   2
  21   3   3 2503.14 952.411   1
  -3 -21   3 3126.74 1017.47   2
 -24  21   3 936.479 904.757   1
  -3 -21   3 709.244 724.596   4
   3 -24   3 822.409 664.292   4
 -24  21   3 720.858 590.605   4
 -24  21   3 1564.46 691.556   2
 -24  21   6 9924.32 1253.96   2
  -3 -21   6 11849.5 1780.93   2
 -24  21   6 16653.0 1968.44   1
  21   3   6 12002.9 1444.16   1
 -21  24   6 14691.3 1873.26   1
  -3 -21   6 10829.0 1533.95   4
   3 -24   6 10889.7 1375.02   4
 -24  21   6 9370.68 1260.90   4
 -22  24  -4 2485.94 895.121   3
 -24  22  -4 1720.76 745.424   3
 -22  24  -4 1000.79 637.385   1
 -22  24  -4 1543.00 706.730   2
 -24  22  -4 1627.95 702.672   2
 -24  22  -4 1314.23 489.956   4
   2 -24  -4 1687.23 625.646   4
  -2 -22  -4 2183.94 723.369   4
 -24  22  -4 1912.24 679.496   1
 -22  24  -1 4188.78 955.002   1
 -22  24  -1 2440.83 724.886   3
 -24  22  -1 2960.99 669.391   3
  -2 -22  -1 2721.63 662.507   2
  -2 -22  -1 4036.17 733.936   4
 -22  24  -1 1755.57 548.731   2
   2 -24  -1 2454.84 602.410   4
 -24  22  -1 3082.39 697.763   2
 -24  22  -1 2574.09 382.215   4
 -24  22  -1 4684.48 978.686   1
  -2 -22   2 1900.41 888.902   2
  -2 -22   2 1031.78 691.738   4
   2 -24   2 2016.81 730.445   4
 -24  22   2 2757.90 1069.44   1
 -24  22   2 2464.82 668.225   2
 -24  22   2 1132.59 475.408   4
 -22  24   2 721.381 537.216   2
 -22  24   2 795.392 852.242   1
 -22  24   5 828.644 984.172   1
 -24  22   5 2627.65 883.495   2
 -22  24   5 1292.33 682.353   2
  22   2   5 1140.58 825.110   1
  -2 -22   5-2.30866 1059.97   2
  -2 -22   5 3377.61 1092.78   4
 -24  22   5 1433.64 1136.34   1
   2 -24   5 662.548 820.655   4
 -24  22   5 1968.16 737.551   4
 -23  24  -5 2346.96 913.149   3
 -24  23  -5 2307.83 987.957   3
 -24  23  -5 2341.16 878.303   2
   1 -24  -5 2354.59 748.610   4
  -1 -23  -5 1594.69 750.677   4
 -23  24  -2 2729.78 760.548   1
 -23  24  -2 2392.11 802.943   3
 -24  23  -2 2488.36 826.958   3
 -23  24  -2 1516.97 586.098   2
  -1 -23  -2 1790.66 625.220   4
 -24  23  -2 2442.95 694.133   2
   1 -24  -2 1606.17 589.997   4
 -24  23  -2 3117.66 836.843   1
 -24  23   1 718.447 563.083   3
  -1 -23   1 1689.31 716.026   2
   1 -24   1 2079.57 735.915   2
  -1 -23   1 1457.56 617.346   4
   1 -24   1 907.246 640.260   4
 -23  24   1 897.737 527.035   2
 -24  23   1 60.6099 520.772   2
 -24  23   1 373.607 846.545   1
 -23  24   1 2643.50 980.747   1
 -24  23   4 274.564 693.087   2
 -23  24   4 408.892 630.718   2
  -1 -23   4-259.394 916.742   2
   1 -24   4 2764.95 1054.55   2
  -1 -23   4 424.177 813.326   4
   1 -24   4-71.3406 793.785   4
 -24  23   4-293.653 931.876   1
 -23  24   4-259.865 1014.67   1
 -24  24  -6 8622.52 1406.63   3
   0 -24  -6 9658.13 1228.50   4
 -24  24  -3 1226.59 704.941   1
 -24  24  -3 1030.69 801.286   3
 -24  24  -3 68.3221 531.213   2
   0 -24  -3 482.992 560.489   4
   0 -24   0 13521.6 1034.03   2
 -24  24   0 14930.4 1161.63   2
 -24  24   0 16344.4 1596.22   1
   0 -24   0 12805.8 1082.68   4
 -24  24   0 12285.5 1059.96   3
 -24  24   3 645.378 572.966   2
   0 -24   3-162.613 887.777   2
   0 -24   3 28.6711 748.035   4
 -24  24   3-464.211 942.181   1
   0 -24   6 5691.45 1410.66   2
 -24  24   6 6746.48 1628.73   1
   0 -24   6 3894.20 1145.62   4
   0  25  -4 1591.18 1002.32   3
 -25   0  -4 1491.81 924.517   4
 -25   0  -4 1679.11 938.683   2
   0  25  -4 3536.55 958.390   1
 -25   0  -1-309.973 727.723   4
   0  25  -1-160.456 756.002   1
 -25   0  -1-657.285 813.523   2
 -25   0   2 2928.17 1125.90   2
   0  25   2 4184.95 1081.07   1
 -25   0   2 2200.24 964.969   4
 -25   0   5-116.473 1204.86   2
   0  25   5 1383.90 949.973   1
 -25   0   5-1100.34 1045.01   4
  -1  25  -5 1479.09 996.342   3
   1  24  -5 2544.05 935.998   3
  -1  25  -5 4337.40 1031.87   1
 -24  -1  -5 3649.41 738.955   3
 -25   1  -5 3347.89 693.524   3
 -25   1  -5 3869.40 1055.53   4
 -24  -1  -5 3156.10 1029.98   4
   1  24  -5 2356.42 931.663   1
 -25   1  -5 2591.97 1078.16   2
 -24  -1  -5 1663.79 935.742   2
   1  24  -2 3960.12 1000.63   1
 -24  -1  -2 4297.67 968.650   4
 -25   1  -2 3245.85 873.873   4
 -25   1  -2 5500.13 1084.55   2
 -24  -1  -2 4839.22 1053.47   2
  -1  25  -2 4912.67 1050.38   1
  -1  25   1 3815.02 988.402   1
   1  24   1 4802.76 1120.32   1
 -24  -1   1 3779.76 988.356   4
 -25   1   1 3296.99 942.667   4
 -25   1   1 3751.35 1072.85   2
 -24  -1   1 4733.86 1121.04   2
 -25   1   4-2492.55 1303.36   2
 -24  -1   4-1978.89 1088.90   2
  -1  25   4 1127.19 1011.63   1
   1  24   4 1578.54 920.480   1
 -24  -1   4 329.716 1065.69   4
 -25   1   4 1247.13 980.223   4
  -2  25  -6-318.671 1022.07   3
   2  23  -6-959.191 987.976   3
 -25   2  -6 409.163 671.062   3
 -23  -2  -6 57.5298 625.158   3
 -25   2  -6 322.945 858.638   4
 -23  -2  -6 2108.72 999.256   4
 -25   2  -6 784.631 813.578   2
 -23  -2  -6 167.277 922.042   2
   2  23  -6-280.875 888.195   1
  -2  25  -6 266.084 807.684   1
  -2  25  -3 7073.05 1090.59   3
  -2  25  -3 11465.6 1336.26   1
   2  23  -3 11726.3 1363.15   1
 -23  -2  -3 8664.16 1242.57   4
 -25   2  -3 8490.40 1201.64   4
 -25   2  -3 9251.33 1267.95   2
 -23  -2  -3 7747.40 1133.20   2
   2  23  -3 10803.0 1251.03   3
  -2  25   0 3387.99 1045.08   1
 -23  -2   0 2208.67 880.327   4
 -25   2   0 4416.99 960.855   4
   2  23   0 3219.34 922.137   1
 -25   2   0 2806.16 1007.65   2
 -23  -2   0 1865.88 933.938   2
  -2  25   3 11888.7 1489.69   1
 -25   2   3 10503.8 1411.25   4
 -23  -2   3 6979.34 1259.07   4
   2  23   3 10948.8 1455.13   1
 -25   2   3 7562.78 1406.26   2
 -23  -2   3 7335.31 1503.64   2
  -2  25   6 5107.74 1298.73   1
 -25   2   6-489.523 1110.84   2
 -23  -2   6 3834.70 1440.97   2
   2  23   6 2217.36 1154.17   1
 -23  -2   6 1076.98 1215.37   4
 -25   2   6 755.395 1273.40   4
  -3  25  -4 1818.86 915.794   3
   3  22  -4 1990.90 898.052   3
  -3  25  -4 3759.34 1008.55   1
 -25   3  -4 3241.94 610.926   3
   3  22  -4 3536.53 974.046   1
 -22  -3  -4 2345.62 905.700   4
 -25   3  -4 4132.66 1006.07   4
 -25   3  -4 3111.30 952.283   2
 -22  -3  -4 2374.93 864.442   2
   3  22  -1 659.408 807.568   1
  -3  25  -1 1430.27 815.170   1
 -22  -3  -1 3086.19 891.274   4
 -25   3  -1 1570.66 763.923   4
 -25   3  -1 1207.95 886.604   2
 -22  -3  -1 1155.47 815.054   2
 -22  -3   2 3031.72 1089.79   2
  -3  25   2 2501.46 977.033   1
   3  22   2 1491.46 856.717   1
 -22  -3   2 2020.19 891.438   4
 -25   3   2 2618.32 896.154   4
 -25   3   2 4402.40 1088.37   2
 -25   3   5 2585.90 1210.13   2
 -22  -3   5 416.471 1111.23   2
   3  22   5 1638.55 975.025   1
 -22  -3   5 2354.81 1137.16   4
 -25   3   5 2741.16 1251.48   4
  -3  25   5 1744.29 1052.72   1
  -4  25  -5 273.464 921.026   3
   4  21  -5 1531.42 960.171   3
   4  21  -5 3530.11 1015.74   1
 -25   4  -5 4123.52 749.473   3
 -21  -4  -5 3489.26 723.231   3
 -25   4  -5 4829.67 1080.76   4
 -21  -4  -5 1349.58 802.435   4
 -25   4  -5 2678.19 924.477   2
 -21  -4  -5 2121.63 936.217   2
  -4  25  -5 3382.58 901.425   1
  -4  25  -2 3638.99 897.676   1
   4  21  -2 2228.63 894.040   1
 -21  -4  -2 2022.67 759.757   4
 -25   4  -2 957.993 693.951   4
 -25   4  -2 1783.02 793.591   2
 -21  -4  -2 3585.04 987.278   2
  -4  25   1 4622.02 1076.83   1
 -21  -4   1 3866.42 952.592   4
 -25   4   1 2262.76 846.934   4
   4  21   1 3530.69 936.409   1
 -25   4   1 6035.42 1150.87   2
 -21  -4   1 3677.31 1069.13   2
 -25   4   4 3216.68 1180.21   2
 -21  -4   4 4793.22 1371.69   2
   4  21   4 3985.73 1048.86   1
 -21  -4   4 3232.10 1014.52   4
 -25   4   4 4562.24 1210.21   4
  -4  25   4 5345.38 1201.88   1
   5  20  -6 2891.85 984.980   1
  -5  25  -6 2265.29 1020.42   3
   5  20  -6 3042.15 1008.82   3
 -25   5  -6 3858.72 873.310   3
  -5  25  -6 3426.05 902.142   1
 -20  -5  -6 3063.81 785.614   3
 -25   5  -6 2813.35 947.931   4
 -20  -5  -6 1268.25 924.580   4
 -25   5  -6 1880.37 941.156   2
 -20  -5  -6 3003.45 1004.56   2
 -25   5  -3 14521.7 795.560   3
 -20  -5  -3 13214.4 1396.72   4
 -25   5  -3 11814.0 1238.03   4
 -25   5  -3 14602.6 1416.25   2
 -20  -5  -3 11098.8 1269.68   2
   5  20  -3 15563.6 1504.23   1
  -5  25  -3 9895.05 1245.92   3
   5  20  -3 14613.1 1335.26   3
  -5  25  -3 15979.0 1362.25   1
   5  20   0 1503.23 811.939   1
  -5  25   0 3047.61 882.452   1
 -20  -5   0 1591.91 735.589   4
 -25   5   0 559.287 642.507   4
 -25   5   0 716.629 712.497   2
 -20  -5   0 2621.64 939.654   2
  -5  25   3 12353.7 1474.65   1
 -20  -5   3 13519.5 1478.02   4
 -25   5   3 11210.3 1380.47   4
 -25   5   3 12507.8 1554.47   2
 -20  -5   3 10650.0 1553.59   2
   5  20   3 12226.4 1448.28   1
 -25   5   6 5062.82 1432.04   2
 -20  -5   6 5045.74 1558.67   2
   5  20   6 4039.03 1131.50   1
  -5  25   6 5328.70 1303.33   1
 -20  -5   6 2971.84 1249.58   4
 -25   5   6 5217.62 1359.50   4
  -6  25  -7 1316.62 1107.73   3
   6  19  -7 565.606 1014.94   3
 -25   6  -7 431.108 771.969   3
 -19  -6  -7 371.319 715.197   3
 -25   6  -7 291.550 826.592   4
 -19  -6  -7 854.863 908.206   4
 -25   6  -7 716.122 1025.39   2
 -19  -6  -7 778.072 904.827   2
  -6  25  -4 2116.76 945.050   3
   6  19  -4 3487.03 912.537   3
 -25   6  -4 3869.84 679.692   3
 -25   6  -4 2863.54 820.948   4
 -19  -6  -4 2145.77 928.385   4
 -25   6  -4 2376.21 839.758   2
 -19  -6  -4 3860.45 897.068   2
  -6  25  -4 2773.13 834.150   1
   6  19  -4 3765.90 949.932   1
  -6  25  -1 2899.38 836.005   1
   6  19  -1 3044.85 898.297   1
 -19  -6  -1 163.917 633.974   4
 -25   6  -1 1240.09 675.075   4
 -25   6  -1 2011.61 793.778   2
 -19  -6  -1 1229.59 728.560   2
 -19  -6   2 810.914 949.464   2
 -19  -6   2 1038.88 806.550   4
 -25   6   2 1470.38 756.745   4
   6  19   2 1296.77 765.702   1
  -6  25   2 2042.22 940.943   1
 -25   6   2-1501.80 868.576   2
 -25   6   5 336.519 980.454   2
 -19  -6   5 2143.49 1189.52   2
   6  19   5 1509.34 909.982   1
  -6  25   5 3784.03 1157.88   1
 -19  -6   5 793.012 1022.61   4
 -25   6   5 356.717 980.335   4
  -7  25  -5 5941.52 1124.03   3
   7  18  -5 2704.96 1010.15   3
 -25   7  -5 6535.57 906.602   3
  -7  25  -5 5464.41 929.136   1
 -25   7  -5 6975.79 1089.78   4
 -25   7  -5 5954.94 1090.53   2
 -18  -7  -5 4542.13 1042.50   4
   7  18  -5 6148.44 1161.99   1
 -18  -7  -5 4340.09 971.527   2
 -25   7  -2 5909.36 438.293   3
 -18  -7  -2 5934.42 1001.02   4
 -25   7  -2 6295.38 945.002   4
 -25   7  -2 6525.35 1042.97   2
  -7  25  -2 7231.45 1006.88   1
   7  18  -2 6126.69 1082.06   1
 -18  -7  -2 5817.62 990.369   2
   7  18   1 16986.5 1513.72   1
  -7  25   1 18403.8 1600.00   1
 -18  -7   1 13285.1 1317.11   4
 -25   7   1 15330.7 1348.02   4
 -25   7   1 15994.5 1468.15   2
 -18  -7   1 17534.7 1580.63   2
 -25   7   4 1759.47 1006.88   2
 -18  -7   4 2168.65 1032.06   2
  -7  25   4 2719.70 997.163   1
   7  18   4 2297.97 923.158   1
 -18  -7   4 1986.56 946.193   4
 -25   7   4 1774.45 948.617   4
 -25   7   7 5345.25 1525.77   2
 -18  -7   7 5370.51 1527.82   2
  -7  25   7 8741.21 1549.50   1
 -25   7   7 7713.20 1582.66   4
 -18  -7   7 5844.62 1475.62   4
   7  18   7 9174.62 1411.05   1
  -8  25  -6-1131.04 1033.66   3
   8  17  -6 630.979 807.233   3
 -25   8  -6 1424.21 754.854   3
 -17  -8  -6 1451.00 728.169   3
 -25   8  -6 608.921 782.812   4
 -17  -8  -6 1184.36 914.867   4
 -25   8  -6 2114.75 978.652   2
 -17  -8  -6-20.5330 785.712   2
  -8  25  -6 735.296 678.058   1
   8  17  -3 17558.9 1535.96   1
 -25   8  -3 19606.9 1029.94   3
 -17  -8  -3 21095.0 1596.06   4
 -25   8  -3 17894.5 1408.96   4
 -25   8  -3 18543.6 1523.90   2
 -17  -8  -3 16822.8 1375.73   2
  -8  25  -3 21520.3 1495.59   1
  -8  25  -3 17778.8 1524.85   3
   8  17  -3 16363.1 1324.79   3
   8  17   0 1128.58 774.885   1
 -17  -8   0 1377.79 683.183   4
 -25   8   0 1701.38 707.856   4
 -25   8   0 469.413 681.265   2
  -8  25   0 1355.86 719.583   1
 -17  -8   0 869.170 753.316   2
   8  17   3 7471.73 1143.83   1
  -8  25   3 7794.36 1291.01   1
 -25   8   3 6435.05 1166.73   4
 -17  -8   3 5543.09 1114.15   4
 -25   8   3 5730.55 1184.63   2
 -17  -8   3 8905.60 1393.18   2
 -25   8   6 1604.13 1093.76   2
 -17  -8   6 3040.72 1356.66   2
  -8  25   6 4062.77 1247.52   1
   8  17   6 2709.41 977.743   1
 -17  -8   6 1237.11 1019.37   4
 -25   8   6 2355.50 1156.56   4
  -9  25  -7 1502.10 1118.40   3
   9  16  -7-211.130 890.491   3
 -25   9  -7 3476.07 980.447   3
 -16  -9  -7 2743.20 841.683   3
 -25   9  -7 1673.09 893.618   4
 -16  -9  -7 1556.02 953.380   4
 -25   9  -7 1061.62 916.334   2
 -16  -9  -7 538.764 756.279   2
  -9  25  -4 933.614 774.599   3
   9  16  -4 1390.84 719.910   3
 -25   9  -4 870.471 540.442   3
  -9  25  -4 1047.13 638.705   1
 -25   9  -4 2130.60 732.098   4
 -16  -9  -4 1884.61 881.352   4
   9  16  -4 731.766 768.138   1
 -25   9  -4 1704.04 747.436   2
 -16  -9  -4 1266.37 676.959   2
   9  16  -1 1163.69 763.389   1
 -25   9  -1 923.011 152.646   3
 -16  -9  -1 1521.00 766.165   4
 -25   9  -1 2337.35 657.876   4
 -25   9  -1 2181.93 755.026   2
  -9  25  -1 430.342 643.165   1
 -16  -9  -1 1499.20 766.789   2
 -16  -9   2 2942.27 1081.29   2
   9  16   2 3193.16 940.394   1
  -9  25   2 1794.09 850.407   1
 -16  -9   2 1655.02 846.374   4
 -25   9   2 2051.85 769.603   4
 -25   9   2 1936.11 806.309   2
 -25   9   5 1822.05 913.809   2
 -16  -9   5 3248.48 1211.09   2
  -9  25   5 3861.62 1216.38   1
 -16  -9   5 680.543 955.434   4
 -25   9   5 1578.15 941.436   4
   9  16   5 2251.72 951.097   1
  10  15  -5 5317.80 986.041   3
 -10  25  -5 8245.87 961.042   1
 -25  10  -5 7236.02 1008.98   3
 -25  10  -5 7273.56 1059.34   4
 -15 -10  -5 8273.12 1203.88   4
 -25  10  -5 5858.70 1034.82   2
 -15 -10  -5 6431.39 990.888   2
 -10  25  -5 8793.62 1310.28   3
  10  15  -2 3804.37 718.626   3
 -10  25  -2 3983.77 863.385   3
 -25  10  -2 4151.03 544.137   3
 -15 -10  -2 4608.52 865.595   4
 -25  10  -2 3112.08 713.419   4
  10  15  -2 5395.20 1020.24   1
 -25  10  -2 4591.66 863.501   2
 -15 -10  -2 4750.19 890.783   2
 -10  25  -2 5052.80 898.856   1
 -15 -10   1 4424.66 1067.64   2
 -10  25   1 5256.04 1075.80   1
  10  15   1 3717.98 896.683   1
 -15 -10   1 2722.03 787.069   4
 -25  10   1 3452.39 748.669   4
 -25  10   1 3758.33 854.343   2
 -25  10   4 4346.53 1112.69   2
  10  15   4 5308.52 1065.06   1
 -10  25   4 6147.49 1206.54   1
 -15 -10   4 4942.06 1274.85   2
 -15 -10   4 4117.92 1015.75   4
 -25  10   4 4641.04 1031.81   4
  10  15   7 9047.68 1357.60   1
 -10  25   7 8326.31 1520.77   1
 -25  10   7 3100.27 1266.67   2
 -15 -10   7 5272.55 1505.21   2
 -15 -10   7 5227.53 1414.93   4
 -25  10   7 4927.98 1411.17   4
 -11  25  -6 733.421 893.597   3
  11  14  -6 1518.35 806.174   3
 -25  11  -6 1736.40 872.301   3
 -25  11  -6 3750.78 959.537   4
 -14 -11  -6 1384.19 809.928   4
 -25  11  -6 2037.89 871.079   2
 -14 -11  -6 1201.75 774.183   2
 -11  25  -3 4048.13 936.728   3
 -25  11  -3 5608.50 766.718   3
 -11  25  -3 4622.58 869.547   1
  11  14  -3 4947.94 1022.86   1
 -25  11  -3 5122.63 883.542   4
 -14 -11  -3 4063.29 941.184   4
 -25  11  -3 2217.26 763.129   2
 -14 -11  -3 5731.89 929.584   2
  11  14  -3 5519.67 819.361   3
 -14 -11   0 2429.14 841.914   2
  11  14   0 2386.06 836.836   1
 -11  25   0 2943.31 295.219   2
 -11  25   0 3367.22 918.566   1
 -25  11   0 4358.65 783.598   4
 -14 -11   0 2111.06 727.494   4
 -25  11   0 2327.08 707.269   2
 -14 -11   3 4094.20 1049.98   2
  11  14   3 3187.99 929.614   1
 -11  25   3 3951.81 1075.99   1
 -14 -11   3 3707.15 961.211   4
 -25  11   3 881.483 771.274   4
 -25  11   3 1469.57 773.322   2
  11  14   6 4029.52 1110.39   1
 -25  11   6 3970.27 1215.26   2
 -14 -11   6 4994.31 1391.38   2
 -11  25   6 4672.29 1244.84   1
 -14 -11   6 4237.84 1254.87   4
 -25  11   6 3788.21 1268.36   4
 -12  25  -7 2206.69 1051.17   3
  12  13  -7 2307.51 949.534   3
 -25  12  -7 5193.88 1201.33   3
 -13 -12  -7 3418.14 909.952   3
 -25  12  -7 3422.65 954.697   4
 -13 -12  -7 2699.90 991.851   4
 -25  12  -7 2362.53 1051.88   2
 -13 -12  -7 1669.97 727.971   2
 -12  25  -4 2022.56 815.527   3
  12  13  -4 1912.82 670.922   3
 -12  25  -4 2183.32 704.130   1
 -25  12  -4 2414.59 727.926   3
  13 -25  -4 1220.98 315.018   4
 -25  12  -4 1005.52 654.907   4
 -13 -12  -4 2252.12 878.827   4
 -25  12  -4 1202.97 776.352   2
  12  13  -4 1050.79 833.013   1
 -13 -12  -4 1402.05 649.835   2
  12  13  -1 4272.78 989.080   1
 -25  12  -1 3350.11 458.155   3
 -25  12  -1 4553.64 737.442   4
 -12  25  -1 2653.27 764.094   1
 -13 -12  -1 3010.22 789.513   4
 -25  12  -1 3262.00 807.237   2
 -13 -12  -1 3297.17 830.752   2
 -12  25   2 7428.16 1220.41   1
  12  13   2 8782.53 1225.40   1
 -13 -12   2 9210.34 1152.88   4
 -25  12   2 7405.82 1007.52   4
 -25  12   2 6610.98 1017.84   2
 -13 -12   2 8362.46 1264.33   2
 -25  12   5 2227.31 994.391   2
 -13 -12   5 1544.82 1128.24   2
  12  13   5 2429.21 943.687   1
 -12  25   5 5254.97 1240.61   1
 -13 -12   5 2908.73 1042.30   4
 -25  12   5 3356.31 1070.38   4
 -13  25  -5 2019.72 918.427   3
  13  12  -5 1917.42 697.830   3
 -25  13  -5 2602.74 863.665   3
 -13  25  -5 3151.43 676.731   1
  12 -25  -5 2582.76 505.368   4
 -25  13  -5 2341.24 762.864   4
 -12 -13  -5 2195.54 841.311   4
 -25  13  -5 1579.29 782.959   2
 -12 -13  -5 1782.94 702.670   2
 -25  13  -2 6810.67 736.681   3
 -13  25  -2 10486.0 1145.71   1
  13  12  -2 9170.82 1236.52   1
 -12 -13  -2 8359.88 1003.16   4
 -25  13  -2 8888.76 901.328   4
 -25  13  -2 7653.60 1073.20   2
 -12 -13  -2 5986.24 895.910   2
 -13  25  -2 7315.00 1023.53   3
  13  12  -2 6361.91 760.405   3
 -12 -13   1 2635.81 911.866   2
 -25  13   1 1815.56 249.576   3
 -25  13   1 1711.52 194.555   3
  13  12   1 4036.80 966.322   1
 -13  25   1 3950.40 976.445   1
 -12 -13   1 4717.31 927.838   4
 -25  13   1 5609.46 938.027   2
 -25  13   1 2510.56 661.408   4
 -25  13   4 867.519 773.979   2
 -12 -13   4 1967.90 1095.78   2
 -13  25   4-1531.46 975.172   1
  13  12   4 306.562 758.690   1
 -12 -13   4 2128.33 942.312   4
 -25  13   4 1315.82 844.579   4
 -25  13   7 1782.85 1175.64   2
  13  12   7 2237.97 952.564   1
 -12 -13   7 3924.21 1501.68   2
 -13  25   7 3082.98 1229.29   1
 -12 -13   7 3284.19 1313.68   4
 -25  13   7 2790.10 1255.70   4
 -14  25  -6 1376.86 934.388   3
  14  11  -6 3622.49 845.220   3
 -25  14  -6 6086.92 1113.78   3
 -25  14  -6 5224.49 925.730   4
 -11 -14  -6 4535.16 1085.35   4
 -25  14  -6 4791.52 1016.83   2
 -11 -14  -6 3928.59 799.280   2
 -14  25  -3 2883.04 810.327   3
  14  11  -3 2066.37 585.018   3
 -25  14  -3 4257.36 757.793   3
 -14  25  -3 4050.78 837.076   1
  14  11  -3 2862.32 978.782   1
 -25  14  -3 3785.95 737.301   4
  11 -25  -3 2844.99 321.349   4
 -11 -14  -3 3955.54 848.492   4
 -25  14  -3 3713.75 848.786   2
 -11 -14  -3 3546.92 785.257   2
 -11 -14   0 2125.96 808.415   2
 -25  14   0 2617.10 474.472   3
 -14  25   0 3864.56 938.046   1
 -14  25   0 3300.51 403.537   2
 -25  14   0 3939.37 715.016   4
 -11 -14   0 3745.76 799.865   4
 -25  14   0 3306.88 800.138   2
 -11 -14   3 4128.00 1155.87   2
 -14  25   3 5721.34 1116.12   1
  14  11   3 5761.20 1107.92   1
 -11 -14   3 4736.13 959.549   4
 -25  14   3 5212.59 961.655   4
 -25  14   3 7028.79 1141.40   2
 -25  14   3 3642.98 336.709   3
 -25  14   6 2889.33 1240.83   2
 -14  25   6 3799.15 1334.22   1
 -11 -14   6 3474.69 1350.26   2
  14  11   6 2177.47 891.110   1
 -11 -14   6 4396.22 1291.74   4
 -25  14   6 1326.43 1042.30   4
 -15  25  -7 6572.61 1318.92   3
  15  10  -7 6843.39 1068.94   3
 -25  15  -7 5951.03 1270.69   3
 -25  15  -7 8162.48 1375.01   2
 -25  15  -7 7193.58 1116.96   4
 -10 -15  -7 4804.40 1118.63   4
 -10 -15  -7 5523.25 926.765   2
  15  10  -4 4586.46 717.515   3
 -25  15  -4 7717.44 1040.65   3
 -15  25  -4 7377.00 919.883   1
  10 -25  -4 5944.07 584.409   4
 -25  15  -4 6006.82 846.164   4
 -10 -15  -4 4996.59 944.270   4
 -25  15  -4 4142.76 899.710   2
 -10 -15  -4 4268.76 776.858   2
 -15  25  -4 6393.45 1100.24   3
 -10 -15  -1 3833.58 824.012   2
 -25  15  -1 2490.07 548.827   3
 -15  25  -1 3241.98 835.765   1
 -15  25  -1 3834.69 523.092   2
  15  10  -1 4046.61 1041.25   1
 -25  15  -1 3762.55 649.893   4
 -10 -15  -1 3249.45 773.403   4
 -25  15  -1 2780.43 797.999   2
 -10 -15   2 4168.57 1086.41   2
 -15  25   2 4345.68 1033.05   1
 -10 -15   2 4896.63 893.179   4
 -25  15   2 4952.53 845.641   4
 -25  15   2 3391.79 828.807   2
  15  10   2 5597.46 1057.49   1
 -25  15   2 3555.54 441.934   3
 -25  15   5 5155.67 1084.71   2
 -10 -15   5 8269.65 1517.31   2
  15  10   5 7105.60 1161.83   1
 -25  15   5 8156.43 1207.74   4
 -10 -15   5 6148.93 1317.33   4
 -15  25   5 7714.90 1383.22   1
 -16  25  -5 2430.78 653.724   1
 -16  25  -5 1536.12 822.890   3
  16   9  -5 1755.71 617.926   3
 -25  16  -5 2307.40 865.772   3
   9 -25  -5 2991.88 614.831   4
 -25  16  -5 2366.01 724.452   4
  -9 -16  -5 2978.55 936.311   4
 -25  16  -5 2101.47 912.280   2
  -9 -16  -5 1529.75 621.967   2
 -16  25  -2 2277.01 744.409   3
  -9 -16  -2 2686.48 720.257   2
  16   9  -2 1257.79 459.424   3
 -25  16  -2 1359.57 569.757   3
 -16  25  -2 1558.27 683.173   1
  16   9  -2 1338.18 804.007   1
  -9 -16  -2 900.911 581.272   4
 -25  16  -2 1823.49 578.975   4
   9 -25  -2 1076.14 270.043   4
 -25  16  -2 2050.37 697.253   2
  16   9   1 1632.10 727.975   1
 -25  16   1 1701.98 456.672   3
  -9 -16   1 485.981 774.694   2
 -16  25   1 1165.49 717.343   1
  -9 -16   1 3031.63 791.525   4
 -25  16   1 762.293 580.532   4
 -16  25   1 814.737 292.670   2
 -25  16   1-219.008 643.311   2
 -25  16   4 58.2278 745.260   2
 -16  25   4 1690.62 994.890   1
  -9 -16   4 817.811 944.248   2
  16   9   4 1830.94 896.239   1
  -9 -16   4 1432.80 855.559   4
 -25  16   4-188.509 707.741   4
  16   9   7 2879.44 1039.54   1
 -25  16   7 604.554 1034.54   2
 -16  25   7 2121.57 1145.58   1
  -9 -16   7 2135.98 1263.89   2
 -25  16   7 2267.82 1206.97   1
  -9 -16   7 593.262 1108.10   4
 -25  16   7 2779.35 1130.34   4
 -17  25  -6 2992.10 1071.72   3
  17   8  -6 1255.32 644.887   3
   8 -25  -6 2514.01 673.559   4
 -25  17  -6 1809.03 731.028   4
  -8 -17  -6 2289.20 874.453   4
 -25  17  -6 1124.92 839.976   2
  -8 -17  -6 2948.81 716.340   2
  17   8  -3 5270.93 610.196   3
 -25  17  -3 6252.67 891.451   3
 -17  25  -3 9346.27 1026.72   1
 -25  17  -3 6906.01 1017.68   2
  -8 -17  -3 6707.90 969.066   4
 -25  17  -3 9274.60 885.693   4
   8 -25  -3 6977.27 586.381   4
  -8 -17  -3 7298.57 911.330   2
 -17  25  -3 6206.66 1044.75   3
 -25  17   0 1075.10 504.678   3
  -8 -17   0 3030.81 920.053   2
 -17  25   0 2690.97 860.206   1
  -8 -17   0 2227.16 710.900   4
 -17  25   0 1602.76 418.042   2
 -25  17   0 1301.58 543.284   4
 -25  17   0 1066.33 621.808   2
   8 -25   0 1183.05 321.392   4
  17   8   0 1849.80 866.663   1
  17   8   3 21113.4 1675.95   1
  -8 -17   3 19570.3 1816.19   2
  -8 -17   3 15337.7 1437.34   4
 -25  17   3 16874.4 1368.48   4
 -25  17   3 17190.7 1435.58   2
   8 -25   3 16921.0 1043.32   4
 -17  25   3 21256.8 1858.84   1
 -25  17   6 2422.51 1060.50   2
 -17  25   6 1984.76 1054.57   1
  -8 -17   6 1071.51 1167.63   2
  17   8   6 1444.82 878.349   1
 -25  17   6 426.344 1056.36   1
  -8 -17   6-1001.63 1038.00   4
 -25  17   6 705.544 874.939   4
 -18  25  -7 7351.02 1476.86   3
 -25  18  -7 8268.52 1469.64   3
 -25  18  -7 8180.72 1143.48   4
  -7 -18  -7 5815.06 1210.15   4
   7 -25  -7 4767.45 926.427   4
 -25  18  -7 6255.10 1296.91   2
 -18  25  -4 3507.87 917.542   3
  18   7  -4 2096.01 479.781   3
 -25  18  -4 4329.37 953.690   3
 -18  25  -4 2084.74 646.849   1
  -7 -18  -4 5359.30 957.862   4
   7 -25  -4 3023.40 589.298   4
 -25  18  -4 3432.92 675.419   4
 -25  18  -4 2923.23 847.395   2
 -25  18  -4 2795.83 799.612   1
  -7 -18  -4 2495.96 674.446   2
 -25  18  -1 15359.5 1081.88   3
  18   7  -1 18503.3 1654.25   1
 -18  25  -1 18436.7 1015.51   2
  -7 -18  -1 16215.4 1225.28   4
 -25  18  -1 16999.8 1277.48   2
 -25  18  -1 14925.7 971.806   4
   7 -25  -1 12003.4 695.728   4
 -18  25  -1 16361.9 1322.43   3
  18   7  -1 12769.0 715.857   3
  -7 -18  -1 15433.8 1301.03   2
 -18  25  -1 18434.0 1488.21   1
 -25  18   2 3557.68 524.279   3
  -7 -18   2 7614.84 1234.32   2
  18   7   2 6288.79 1113.02   1
 -25  18   2 8266.13 1329.89   1
 -25  18   2 6660.78 926.345   4
  -7 -18   2 4763.57 905.248   4
   7 -25   2 5421.98 679.945   4
 -18  25   2 4127.49 498.902   2
 -18  25   2 8612.31 1303.04   1
 -25  18   2 6231.27 900.543   2
 -25  18   5 4252.63 1072.78   2
 -18  25   5 5790.58 1286.94   1
  -7 -18   5 4526.44 1314.40   2
 -25  18   5 4425.67 1210.53   1
  18   7   5 3953.46 996.786   1
  -7 -18   5 4036.21 1067.25   4
 -25  18   5 4084.73 949.797   4
   7 -25   5 4188.19 863.747   4
 -19  25  -5 2731.67 932.117   3
 -25  19  -5 1027.12 880.963   3
 -19  25  -5 3151.71 701.119   1
   6 -25  -5 3312.57 674.646   4
 -25  19  -5 2497.20 672.172   4
  -6 -19  -5 3158.92 922.673   4
 -25  19  -5 2877.62 868.159   2
 -25  19  -5 3160.11 731.042   1
  -6 -19  -5 3077.81 682.498   2
 -19  25  -2 1703.74 737.428   3
  19   6  -2 277.165 266.770   3
  -6 -19  -2 328.219 588.306   2
 -25  19  -2 1112.11 599.094   3
 -19  25  -2 1324.76 673.186   1
 -19  25  -2 479.781 449.123   2
  -6 -19  -2-341.551 553.056   4
 -25  19  -2 874.156 712.607   1
 -25  19  -2 745.023 454.238   4
   6 -25  -2 813.210 395.267   4
 -25  19  -2 1121.13 589.387   2
 -25  19   1 342.262 436.295   3
 -19  25   1 1118.55 855.894   1
  -6 -19   1 1925.49 865.203   2
  19   6   1 288.480 771.286   1
 -25  19   1 1677.75 992.423   1
  -6 -19   1 815.944 620.784   4
 -25  19   1 712.285 559.899   4
   6 -25   1 1454.81 498.952   4
 -19  25   1 859.353 435.202   2
 -25  19   1 852.781 610.176   2
 -25  19   4 346.461 742.809   2
 -19  25   4 5035.59 1247.97   1
  19   6   4 4425.15 1055.86   1
  -6 -19   4 3861.70 1201.18   2
 -25  19   4 4407.69 1206.87   1
  -6 -19   4 1159.31 819.037   4
 -25  19   4 2425.60 818.111   4
   6 -25   4 2315.79 761.297   4
 -19  25   7 868.628 1177.41   1
 -25  19   7-442.689 1055.20   2
  -6 -19   7 349.432 1229.13   2
 -25  19   7 2234.91 1292.57   1
  -6 -19   7-157.067 1064.09   4
 -25  19   7 693.184 994.414   4
   6 -25   7-216.084 879.372   4
  19   6   7-3.88403 852.049   1
 -20  25  -6 6515.91 1254.22   3
 -25  20  -6 6352.42 1232.05   3
   5 -25  -6 5092.57 870.538   4
 -25  20  -6 5052.97 863.732   4
 -25  20  -6 4610.51 1084.15   2
  -5 -20  -6 4600.99 1024.37   4
 -20  25  -3 16628.1 1313.00   1
 -25  20  -3 12705.3 1187.00   3
 -20  25  -3 14915.6 1130.97   2
 -25  20  -3 11874.4 1219.44   2
 -25  20  -3 15058.1 1365.87   1
  -5 -20  -3 14040.4 1239.05   4
   5 -25  -3 11900.6 870.291   4
 -25  20  -3 13688.8 931.013   4
  -5 -20  -3 11755.4 983.820   2
 -20  25  -3 11718.9 1291.72   3
 -25  20   0 1442.28 575.103   3
 -20  25   0 2178.96 914.796   1
  -5 -20   0 1873.62 808.502   2
 -25  20   0 3510.50 986.607   1
  -5 -20   0 3203.33 769.060   4
 -20  25   0 2066.02 518.891   2
   5 -25   0 1531.93 492.428   4
 -25  20   0 1516.09 550.085   4
 -25  20   0 1104.46 597.266   2
  -5 -20   3 15350.5 1667.51   2
 -25  20   3 15637.4 1808.07   1
  20   5   3 15024.6 1530.64   1
  -5 -20   3 13302.0 1376.87   4
 -20  25   3 16279.1 1719.56   1
 -25  20   3 13378.9 1166.60   4
   5 -25   3 10697.5 1042.94   4
 -25  20   3 11448.5 1226.14   2
 -20  25   3 8410.73 738.373   2
 -20  25   6 3886.98 1309.72   1
 -25  20   6 1396.52 894.934   2
  20   5   6 2641.28 994.594   1
  -5 -20   6 4839.54 1331.03   2
 -25  20   6 3564.34 1290.43   1
  -5 -20   6 3049.69 1152.80   4
 -25  20   6 3367.92 993.301   4
   5 -25   6 524.881 870.894   4
 -21  25  -4 5536.56 851.282   1
 -25  21  -4 7133.66 1097.74   3
 -21  25  -4 3642.20 961.807   3
 -25  21  -4 5094.96 943.642   2
 -25  21  -4 4989.86 687.704   4
   4 -25  -4 4104.91 727.225   4
  -4 -21  -4 2845.60 846.433   4
 -25  21  -4 4749.77 858.624   1
 -25  21  -1 3139.15 727.150   3
  -4 -21  -1 4812.52 880.030   2
 -25  21  -1 6576.54 1142.67   1
 -21  25  -1 4493.98 713.326   2
 -25  21  -1 4714.71 815.050   2
  -4 -21  -1 3678.74 736.023   4
   4 -25  -1 3122.35 596.123   4
 -25  21  -1 3147.02 518.296   4
 -21  25  -1 6893.20 1148.16   1
 -21  25  -1 4980.59 909.632   3
 -21  25   2 734.867 841.763   1
  -4 -21   2 396.377 856.095   2
 -25  21   2 1300.81 1002.84   1
  -4 -21   2 1484.49 740.215   4
   4 -25   2 1596.42 628.070   4
  21   4   2 2467.08 919.938   1
 -25  21   2 1910.63 634.907   4
 -25  21   2 1409.37 786.354   2
 -21  25   2 1387.00 528.554   2
  21   4   5 4079.18 1090.40   1
 -25  21   5 1611.33 884.350   2
  -4 -21   5 4859.86 1311.10   2
 -25  21   5 3879.46 1160.84   1
  -4 -21   5 2199.23 978.594   4
   4 -25   5 1949.84 848.773   4
 -25  21   5 2919.06 886.715   4
 -22  25  -5 935.159 848.044   3
 -25  22  -5 1839.40 934.835   3
 -25  22  -5 1369.32 805.168   2
 -25  22  -5 694.486 539.493   4
   3 -25  -5 736.182 631.842   4
  -3 -22  -5 981.806 745.657   4
 -22  25  -2 3829.95 871.814   3
 -25  22  -2 2752.27 719.171   3
 -22  25  -2 3268.95 851.135   1
  -3 -22  -2 1466.50 589.561   2
 -22  25  -2 2565.31 654.925   2
  -3 -22  -2 2328.27 695.949   4
   3 -25  -2 3031.11 611.652   4
 -25  22  -2 2928.94 712.148   2
 -25  22  -2 1984.82 430.890   4
 -25  22  -2 2578.50 827.674   1
 -25  22   1 1025.35 566.181   3
 -22  25   1 1824.88 957.881   1
  -3 -22   1 2204.10 885.917   2
  -3 -22   1 881.555 638.766   4
   3 -25   1 985.489 586.458   4
 -25  22   1-30.0852 837.193   1
 -22  25   1 609.070 485.938   2
 -25  22   1 923.138 534.697   2
 -25  22   1 1504.91 469.505   4
 -22  25   4 4162.96 1250.41   1
 -25  22   4 2766.58 836.797   2
  22   3   4 1999.57 907.409   1
  -3 -22   4 2846.02 1162.87   2
 -25  22   4 3408.97 1172.21   1
  -3 -22   4 3395.21 1088.25   4
   3 -25   4 3486.83 925.615   4
 -25  22   4 1835.04 693.570   4
 -23  25  -6 2279.01 1117.63   3
 -25  23  -6 5001.90 1255.30   3
 -25  23  -6 2356.34 970.023   2
   2 -25  -6 3866.29 949.205   4
  -2 -23  -6 2187.28 883.149   4
 -23  25  -3 9183.50 1244.28   3
 -25  23  -3 9675.74 1172.00   3
 -23  25  -3 12200.6 1121.84   2
 -25  23  -3 11909.6 1159.73   2
  -2 -23  -3 8987.64 1023.81   4
   2 -25  -3 10334.4 943.237   4
 -25  23  -3 13613.3 1296.03   1
 -23  25  -3 11099.7 1189.11   1
 -23  25   0 2482.33 694.350   3
 -23  25   0 4174.45 1039.23   1
 -25  23   0 3196.95 706.245   3
  -2 -23   0 3627.74 835.142   2
  -2 -23   0 2060.31 671.721   4
   2 -25   0 2740.59 613.218   4
 -23  25   0 3612.39 685.708   2
 -25  23   0 2441.99 656.856   2
 -25  23   0 4404.95 1104.26   1
  -2 -23   3 11780.5 1450.05   2
 -25  23   3 10088.9 1559.14   1
 -23  25   3 13403.0 1656.07   1
  -2 -23   3 11511.0 1310.93   4
   2 -25   3 7300.00 1038.08   4
 -25  23   3 8324.58 1003.58   2
 -23  25   3 7594.89 877.915   2
 -23  25   6 156.385 1049.13   1
 -25  23   6 364.695 933.732   2
  23   2   6 2647.83 1032.50   1
  -2 -23   6 3711.21 1363.23   2
  -2 -23   6 423.936 990.733   4
 -25  23   6 557.405 1119.96   1
   2 -25   6 761.698 956.668   4
 -25  24  -4 720.809 698.821   1
 -24  25  -4 877.867 867.894   3
 -25  24  -4 251.290 798.347   3
 -24  25  -4-186.560 620.775   1
 -24  25  -4 1131.82 642.130   2
 -25  24  -4 1999.58 749.155   2
  -1 -24  -4 687.896 706.973   4
   1 -25  -4 814.497 633.585   4
 -24  25  -1 4428.05 871.638   3
 -25  24  -1 7777.93 1212.44   1
   1 -25  -1 3941.04 735.216   4
  -1 -24  -1 2562.07 718.712   4
 -24  25  -1 6610.17 1114.12   1
 -24  25  -1 3987.65 748.404   2
 -25  24  -1 3894.54 743.115   2
 -25  24  -1 4816.47 845.584   3
  -1 -24   2 3231.50 955.123   2
   1 -25   2 5266.76 974.065   2
  -1 -24   2 3256.22 868.120   4
   1 -25   2 2755.29 807.259   4
 -25  24   2 2930.76 1123.54   1
 -25  24   2 1957.95 634.180   2
 -24  25   2 3579.48 726.613   2
 -24  25   2 4340.90 1197.21   1
 -25  24   5 2882.94 920.363   2
  -1 -24   5 2533.71 1258.67   2
  -1 -24   5 1595.00 1020.15   4
   1 -25   5 3529.78 1092.83   4
 -25  24   5 2923.16 1254.92   1
 -24  25   5 5586.90 1465.96   1
 -25  25  -5-350.451 863.150   3
 -25  25  -5 111.265 658.437   2
   0 -25  -5-434.546 718.701   4
 -25  25  -2 5096.93 994.491   3
 -25  25  -2 4879.18 818.942   2
   0 -25  -2 2937.75 723.519   4
 -25  25   1 266.492 590.714   3
   0 -25   1-107.123 674.245   2
   0 -25   1-229.708 606.326   4
 -25  25   1 302.728 553.049   2
 -25  25   1-92.1944 873.000   1
 -25  25   4 1171.86 730.006   2
   0 -25   4 2197.99 1045.52   2
   0 -25   4 3056.71 1018.70   4
 -25  25   4 3672.80 1268.06   1
   0  26  -2 8453.41 1328.09   1
 -26   0  -2 6429.79 1164.40   4
 -26   0  -2 9382.43 1378.84   2
   0  26  -2 7825.96 1158.91   3
   0  26   1-477.427 853.547   1
 -26   0   1-110.334 722.117   4
 -26   0   1-1217.39 970.192   2
 -26   0   4 3903.25 1470.35   2
   0  26   4 2086.73 969.747   1
  -1  26  -3 10776.1 1401.11   1
   1  25  -3 11588.7 1444.60   1
 -25  -1  -3 8589.46 1226.69   4
 -26   1  -3 5896.81 1048.98   4
 -26   1  -3 9287.66 1317.21   2
 -25  -1  -3 7922.57 1278.88   2
  -1  26  -3 9130.45 1295.74   3
   1  25  -3 6951.18 1165.47   3
  -1  26   0 440.975 767.761   1
 -25  -1   0-607.981 785.892   4
 -26   1   0-113.427 774.880   4
   1  25   0 899.693 821.362   1
 -26   1   0 418.139 918.522   2
 -25  -1   0 871.666 923.029   2
 -26   1   3 6364.09 1445.04   2
 -25  -1   3 4848.91 1276.24   2
  -1  26   3 6594.91 1263.00   1
   1  25   3 5527.17 1280.71   1
 -25  -1   3 5460.86 1337.54   4
 -26   1   3 5351.28 1172.42   4
  -2  26  -4-98.6761 870.943   3
   2  24  -4 1781.91 922.569   3
   2  24  -4 1132.00 866.532   1
  -2  26  -4 2544.50 964.970   1
 -24  -2  -4 1061.37 910.787   4
 -26   2  -4 258.234 804.424   4
 -26   2  -4 892.925 925.885   2
 -24  -2  -4 164.884 814.104   2
   2  24  -1 591.920 807.364   1
  -2  26  -1 1141.28 888.662   1
 -24  -2  -1 555.541 739.089   4
 -26   2  -1 1441.06 782.234   4
 -26   2  -1-354.635 806.796   2
 -24  -2  -1 1021.05 886.523   2
 -26   2   2 1586.43 1013.79   2
 -24  -2   2 1168.08 975.693   2
  -2  26   2 3844.63 1140.62   1
   2  24   2 2277.38 998.004   1
 -24  -2   2 2477.59 1047.09   4
 -26   2   2 2999.71 923.156   4
  -2  26   5-497.270 1022.56   1
 -26   2   5 1333.15 1129.63   2
 -24  -2   5 1891.03 1280.18   2
   2  24   5 3106.71 1222.26   1
 -24  -2   5-1712.03 1083.88   4
 -26   2   5-930.424 1012.30   4
   3  23  -5 685.804 946.578   1
  -3  26  -5 1053.66 957.247   3
   3  23  -5-175.351 891.359   3
  -3  26  -5-284.844 792.852   1
 -26   3  -5-178.474 534.216   3
 -26   3  -5 1196.07 967.257   4
 -23  -3  -5-265.684 890.460   4
 -26   3  -5 622.438 870.507   2
 -23  -3  -5 1909.94 924.255   2
  -3  26  -2 12380.5 1396.46   1
   3  23  -2 12563.6 1492.75   1
 -23  -3  -2 9793.88 1214.71   4
 -26   3  -2 8843.94 1134.05   4
 -26   3  -2 11332.3 1348.36   2
 -23  -3  -2 11927.1 1377.65   2
  -3  26   1 3128.37 1050.61   1
   3  23   1 1463.76 897.618   1
 -23  -3   1 2561.88 991.051   4
 -26   3   1 2423.16 950.932   4
 -26   3   1 2811.02 1052.55   2
 -23  -3   1-375.831 1008.51   2
 -26   3   4 4721.47 1276.97   2
 -23  -3   4 4644.10 1436.29   2
   3  23   4 3707.25 1127.20   1
  -3  26   4 8705.84 1409.27   1
 -23  -3   4 6326.45 1321.71   4
 -26   3   4 4601.09 1222.80   4
  -4  26  -3 5637.16 1099.10   3
  -4  26  -3 6991.08 1104.46   1
 -22  -4  -3 6038.16 1111.33   4
 -26   4  -3 5976.17 1032.27   4
 -26   4  -3 7620.57 1183.47   2
   4  22  -3 6177.97 1158.74   1
 -22  -4  -3 6953.14 1175.84   2
   4  22  -3 5846.61 1057.15   3
   4  22   0 1760.17 901.429   1
  -4  26   0 1283.96 801.905   1
 -22  -4   0 1024.83 721.975   4
 -26   4   0 1280.73 765.102   4
 -26   4   0 232.933 782.923   2
 -22  -4   0 2212.56 972.340   2
  -4  26   3 6995.09 1247.89   1
 -26   4   3 7454.46 1243.57   4
 -22  -4   3 6523.16 1266.25   4
 -26   4   3 6520.08 1295.57   2
 -22  -4   3 8187.45 1558.88   2
   4  22   3 7352.05 1285.23   1
  -5  26  -4-378.295 821.151   3
   5  21  -4 2004.41 948.687   3
  -5  26  -4 613.817 767.191   1
 -26   5  -4 1367.86 524.961   3
 -21  -5  -4 429.194 750.306   4
 -26   5  -4 971.146 696.189   4
   5  21  -4 753.044 890.763   1
 -26   5  -4 1467.38 798.542   2
 -21  -5  -4-228.663 785.092   2
  -5  26  -1 1533.71 815.509   1
   5  21  -1 1770.37 881.594   1
 -21  -5  -1 406.511 671.555   4
 -26   5  -1 2974.07 788.291   4
 -26   5  -1 1114.16 783.212   2
 -21  -5  -1-248.191 747.431   2
  -5  26   2 1834.81 893.743   1
 -21  -5   2 3669.99 1097.77   2
 -21  -5   2 1790.59 863.698   4
   5  21   2 2774.90 946.957   1
 -26   5   2 597.753 912.874   2
 -26   5   5 2188.96 1159.68   2
 -21  -5   5 1725.72 1231.60   2
   5  21   5 2665.72 1048.89   1
 -21  -5   5 885.125 1006.21   4
 -26   5   5 3360.99 1219.79   4
  -5  26   5 764.652 982.905   1
  -6  26  -5 3192.61 1084.42   3
   6  20  -5 1160.46 834.221   3
 -26   6  -5 2169.46 699.936   3
  -6  26  -5 3360.61 927.221   1
 -26   6  -5 4234.31 1009.27   4
 -20  -6  -5 3711.03 1085.68   4
   6  20  -5 2816.35 978.227   1
 -26   6  -5 3804.82 1038.73   2
 -20  -6  -5 2903.22 954.982   2
  -6  26  -2 4889.59 992.179   1
 -20  -6  -2 5684.64 1017.56   4
 -26   6  -2 4427.96 886.371   4
 -26   6  -2 3449.36 918.073   2
   6  20  -2 5382.25 1072.85   1
 -20  -6  -2 5086.03 966.480   2
 -20  -6   1 4999.41 1196.19   2
   6  20   1 5799.22 1131.87   1
 -20  -6   1 4543.01 1009.53   4
 -26   6   1 3494.50 910.001   4
 -26   6   1 4698.32 1039.02   2
  -6  26   1 4625.64 1088.27   1
  -6  26   4 10204.4 1432.84   1
 -20  -6   4 8971.05 1412.06   4
 -26   6   4 10867.5 1502.26   4
 -26   6   4 10541.3 1550.45   2
 -20  -6   4 10947.2 1633.78   2
   6  20   4 10413.7 1498.04   1
  -7  26  -6 3016.28 1091.21   3
   7  19  -6 1990.88 1014.83   3
  -7  26  -6 2897.11 819.263   1
 -26   7  -6 2320.57 853.113   3
 -19  -7  -6 4497.63 871.872   3
 -26   7  -6 4127.75 1037.29   4
 -19  -7  -6 4125.84 1192.06   4
 -26   7  -6 2747.45 1027.86   2
 -19  -7  -6 1151.88 869.908   2
  -7  26  -3 2371.41 863.537   3
   7  19  -3 2758.84 829.108   3
 -26   7  -3 4470.57 551.805   3
  -7  26  -3 3575.67 851.696   1
   7  19  -3 5981.26 1070.61   1
 -19  -7  -3 3558.02 910.563   4
 -26   7  -3 5014.93 894.338   4
 -26   7  -3 4108.00 1012.51   2
 -19  -7  -3 3678.41 900.831   2
   7  19   0 11005.7 1386.13   1
  -7  26   0 13207.2 1416.67   1
 -19  -7   0 10052.0 1211.07   4
 -26   7   0 10747.1 1154.07   4
 -26   7   0 10979.4 1319.51   2
 -19  -7   0 12358.4 1355.49   2
   7  19   3 7216.54 1196.76   1
 -19  -7   3 5358.42 1194.82   2
  -7  26   3 9376.33 1437.52   1
 -19  -7   3 4991.31 1125.11   4
 -26   7   3 5201.36 1094.59   4
 -26   7   3 7626.18 1276.60   2
 -26   7   6 2266.38 1218.64   2
 -19  -7   6 3506.39 1317.78   2
   7  19   6 3819.92 1181.00   1
  -7  26   6 6321.81 1354.13   1
 -19  -7   6 3610.22 1316.55   4
 -26   7   6 6140.67 1362.31   4
  -8  26  -4 1465.73 843.864   3
   8  18  -4 635.740 708.645   3
   8  18  -4 126.569 825.908   1
 -26   8  -4 1376.77 587.611   3
 -18  -8  -4 1512.00 861.949   4
 -26   8  -4 1939.77 743.690   4
  -8  26  -4 1961.82 820.816   1
 -26   8  -4 601.474 689.076   2
 -18  -8  -4 1090.97 778.767   2
  -8  26  -1 5789.33 1066.74   1
 -18  -8  -1 4524.45 923.702   4
 -26   8  -1 3644.30 778.408   4
 -18  -8  -1 5630.79 1026.15   2
 -26   8  -1 4574.51 1000.13   2
   8  18  -1 4367.92 999.353   1
 -18  -8   2 783.822 847.912   2
   8  18   2 306.982 744.081   1
 -18  -8   2 676.143 814.901   4
 -26   8   2 321.785 726.319   4
  -8  26   2 1455.60 838.703   1
 -26   8   2 1596.42 916.205   2
 -26   8   5 2120.75 1080.54   2
 -18  -8   5 1734.47 1220.40   2
  -8  26   5 3307.36 1118.67   1
   8  18   5 3003.42 1006.99   1
 -18  -8   5 1287.37 988.878   4
 -26   8   5 1777.51 1103.78   4
   9  17  -5 6668.88 1169.32   3
   9  17  -5 7793.07 1241.22   1
  -9  26  -5 5691.21 1232.94   3
  -9  26  -5 6319.77 962.842   1
 -26   9  -5 8335.07 1014.02   3
 -26   9  -5 6728.49 1089.11   4
 -17  -9  -5 6297.13 1138.68   4
 -26   9  -5 6452.41 1176.62   2
 -17  -9  -5 7809.46 1100.77   2
 -26   9  -2 5346.26 477.550   3
  -9  26  -2 6808.29 1056.26   1
 -17  -9  -2 7411.70 1073.30   4
 -26   9  -2 5955.04 894.910   4
 -26   9  -2 7602.19 1105.54   2
 -17  -9  -2 7851.66 1092.29   2
   9  17  -2 7614.13 1180.26   1
   9  17  -2 6781.80 952.680   3
  -9  26  -2 6101.72 1079.06   3
 -17  -9   1 6510.56 1117.67   2
  -9  26   1 9180.64 1271.45   1
   9  17   1 7371.31 1097.65   1
 -17  -9   1 6323.94 1086.59   4
 -26   9   1 5783.70 928.830   4
 -26   9   1 6492.88 1069.29   2
 -26   9   4 911.583 988.276   2
 -17  -9   4 2366.48 1201.94   2
  -9  26   4 1642.00 958.523   1
 -17  -9   4 935.576 916.220   4
 -26   9   4 915.486 880.375   4
   9  17   4-154.873 806.210   1
 -10  26  -6 8717.07 1432.87   3
  10  16  -6 8844.77 1219.10   3
 -26  10  -6 9661.13 1193.79   3
 -26  10  -6 8328.57 1185.15   4
 -16 -10  -6 9279.28 1349.70   4
 -26  10  -6 8559.38 1273.20   2
 -16 -10  -6 7116.84 1100.07   2
 -10  26  -3 3976.43 935.543   3
  10  16  -3 3847.23 844.861   3
  10  16  -3 2782.19 939.631   1
 -26  10  -3 4333.87 667.443   3
 -10  26  -3 5245.27 937.576   1
 -16 -10  -3 4013.20 951.404   4
 -26  10  -3 4470.04 838.276   4
 -26  10  -3 4196.29 937.318   2
 -16 -10  -3 3512.47 853.212   2
 -10  26   0 9003.32 1168.18   1
 -10  26   0 5950.45 320.061   2
  10  16   0 9048.44 1231.72   1
 -16 -10   0 8030.38 1081.57   4
 -26  10   0 8146.68 1025.97   4
 -26  10   0 7506.85 1095.73   2
 -16 -10   0 7922.01 1189.26   2
 -26  10   3 2499.16 922.386   2
 -16 -10   3 2704.93 1105.03   2
  10  16   3 4039.43 1012.75   1
 -10  26   3 3633.31 1093.64   1
 -16 -10   3 2472.11 901.955   4
 -26  10   3 2783.39 910.926   4
 -16 -10   6 11807.8 1861.91   2
  10  16   6 9654.81 1417.93   1
 -10  26   6 15218.5 1797.83   1
 -16 -10   6 14517.0 1823.28   4
 -26  10   6 14656.6 1784.62   4
 -26  10   6 10969.0 1704.56   2
 -11  26  -7 2421.56 1179.92   3
  11  15  -7 1882.55 992.498   3
 -26  11  -7 4408.52 1068.46   3
 -15 -11  -7 2603.74 915.765   3
 -26  11  -7 3671.55 1005.19   4
 -15 -11  -7 3587.18 1075.72   4
 -26  11  -7 2949.16 1110.25   2
 -15 -11  -7 2420.18 861.682   2
 -11  26  -4-443.868 766.778   3
  11  15  -4 223.178 672.549   3
 -26  11  -4 371.372 632.169   3
 -11  26  -4 453.304 622.289   1
  11  15  -4 657.928 802.393   1
 -26  11  -4-1087.16 757.153   4
 -15 -11  -4 845.244 851.204   4
 -26  11  -4 775.763 759.920   2
 -15 -11  -4 1105.85 712.789   2
 -26  11  -1 5435.34 388.406   3
 -11  26  -1 8471.83 1131.06   1
 -15 -11  -1 6989.11 991.998   4
 -26  11  -1 7664.63 945.810   4
 -26  11  -1 6826.87 1023.24   2
 -15 -11  -1 6095.81 1029.79   2
  11  15  -1 8874.77 1239.04   1
 -15 -11   2 736.664 866.686   2
  11  15   2 1481.33 816.851   1
 -11  26   2 1908.01 906.195   1
 -15 -11   2 1159.03 741.465   4
 -26  11   2 2021.12 779.717   4
 -26  11   2 482.202 767.208   2
 -26  11   5 3561.48 1097.72   2
  11  15   5 2905.03 972.006   1
 -15 -11   5 4437.52 1413.12   2
 -11  26   5 2953.27 1035.81   1
 -15 -11   5 1759.47 1015.20   4
 -26  11   5 3043.64 1126.63   4
  12  14  -5 6734.68 985.612   3
 -12  26  -5 7672.65 1271.90   3
 -26  12  -5 10310.4 1172.64   3
 -26  12  -5 10987.4 1196.18   4
 -14 -12  -5 8215.43 1258.69   4
 -26  12  -5 9161.28 1230.31   2
 -14 -12  -5 9345.18 1121.36   2
 -12  26  -5 11591.5 1087.70   1
 -12  26  -2 2117.40 786.177   3
  12  14  -2 1228.63 583.774   3
  12  14  -2 2068.83 875.568   1
 -26  12  -2 1814.70 518.486   3
 -14 -12  -2 2716.05 800.954   4
 -26  12  -2 1798.89 603.623   4
 -26  12  -2 3117.75 845.870   2
 -12  26  -2 2381.41 810.104   1
 -14 -12  -2 1861.53 755.721   2
 -14 -12   1 4234.57 1023.35   2
  12  14   1 3904.61 945.692   1
 -12  26   1 6908.39 1165.37   1
 -14 -12   1 5699.94 979.021   4
 -26  12   1 7027.35 963.755   4
 -26  12   1 5839.42 1049.10   2
 -26  12   4 65.4353 818.003   2
 -14 -12   4-555.979 1023.84   2
  12  14   4-437.858 825.827   1
 -12  26   4 40.1218 854.047   1
 -14 -12   4 122.276 846.591   4
 -26  12   4 31.2452 821.117   4
 -26  12   7 3429.28 1392.88   2
  12  14   7 5324.83 1199.03   1
 -14 -12   7 2688.51 1339.74   2
 -12  26   7 3959.06 1322.69   1
 -14 -12   7 4800.76 1499.76   4
 -26  12   7 5554.14 1399.32   4
 -13  26  -6 9699.21 1515.60   3
  13  13  -6 8644.64 1100.49   3
 -26  13  -6 12418.2 1433.28   3
 -26  13  -6 12275.1 1311.85   4
 -26  13  -6 11630.2 1431.65   2
 -13 -13  -6 8187.95 1312.74   4
 -13 -13  -6 9622.40 1135.54   2
 -13  26  -3 1311.68 742.665   3
  13  13  -3 1003.93 607.488   3
 -26  13  -3 2393.83 661.955   3
  13  13  -3 2225.30 909.762   1
 -13 -13  -3 2569.96 907.042   4
 -26  13  -3 550.921 574.495   4
 -26  13  -3 1162.98 714.821   2
 -13  26  -3 3199.56 784.265   1
 -13 -13  -3 1490.36 705.062   2
 -26  13   0 5194.67 394.956   3
 -13  26   0 12724.0 1335.13   1
 -13  26   0 9444.30 498.492   2
 -13 -13   0 10508.4 1148.38   4
 -26  13   0 8454.24 966.186   4
 -26  13   0 8288.04 1048.57   2
 -13 -13   0 11398.0 1316.37   2
  13  13   0 9323.21 1194.95   1
 -13 -13   3 2429.80 1061.61   2
 -13  26   3 1479.97 984.993   1
  13  13   3 676.705 824.416   1
 -13 -13   3 329.613 755.439   4
 -26  13   3 589.592 751.165   4
 -26  13   3 249.614 756.924   2
 -13  26   6 10868.0 1676.33   1
 -26  13   6 6832.87 1377.66   2
 -13 -13   6 9259.56 1723.83   2
  13  13   6 8679.42 1293.18   1
 -26  13   6 8123.39 1415.65   4
 -13 -13   6 7517.31 1412.10   4
 -14  26  -7 3314.76 1260.56   3
  14  12  -7 5050.62 1068.72   3
 -26  14  -7 5025.40 1213.07   3
 -26  14  -7 6476.90 1093.12   4
 -12 -14  -7 4657.42 1197.75   4
 -26  14  -7 4082.69 1188.64   2
 -12 -14  -7 5169.80 937.866   2
 -14  26  -4 572.840 588.633   1
 -14  26  -4 1471.67 926.946   3
  14  12  -4 889.027 605.147   3
 -26  14  -4-271.934 674.901   3
  12 -26  -4 733.114 334.301   4
 -26  14  -4 293.999 605.367   4
 -12 -14  -4 890.457 786.774   4
 -26  14  -4 717.505 764.201   2
 -12 -14  -4 514.572 574.248   2
 -12 -14  -1 5154.30 950.345   2
 -26  14  -1 4622.62 638.971   3
 -14  26  -1 6076.30 1016.87   1
  14  12  -1 7429.44 1110.99   1
 -12 -14  -1 6372.45 936.230   4
 -26  14  -1 5016.15 775.091   4
 -26  14  -1 4097.73 877.145   2
 -12 -14   2 2786.72 1005.02   2
  14  12   2 3491.15 939.396   1
 -14  26   2 3849.11 957.730   1
 -12 -14   2 4086.60 992.943   4
 -26  14   2 2677.20 809.076   4
 -26  14   2 1628.88 809.456   2
 -14  26   5 10422.3 1580.82   1
 -26  14   5 6822.55 1234.32   2
 -12 -14   5 11596.6 1686.28   2
  14  12   5 9669.07 1317.58   1
 -12 -14   5 7117.86 1321.63   4
 -26  14   5 7893.82 1292.17   4
 -15  26  -5 3480.39 1039.06   3
  15  11  -5 3386.85 764.737   3
 -15  26  -5 2513.06 696.441   1
 -26  15  -5 4532.09 980.890   3
  11 -26  -5 2746.61 551.722   4
 -26  15  -5 4144.13 839.191   4
 -11 -15  -5 4697.95 1019.75   4
 -26  15  -5 2156.12 803.715   2
 -11 -15  -5 2064.52 681.267   2
 -11 -15  -2 1874.04 747.430   2
 -15  26  -2 2778.02 813.552   3
  15  11  -2 1257.45 497.352   3
 -26  15  -2 1762.59 587.908   3
  15  11  -2 1715.05 869.381   1
 -15  26  -2 2555.67 796.826   1
 -11 -15  -2 915.819 688.652   4
 -26  15  -2 2017.41 595.748   4
 -26  15  -2 745.132 642.196   2
  15  11   1 8629.46 1217.04   1
 -26  15   1 6376.10 532.798   3
 -15  26   1 8872.92 1245.26   1
 -26  15   1 8391.92 970.990   4
 -26  15   1 9009.77 1119.12   2
 -15  26   1 5156.49 301.217   2
 -11 -15   1 7255.28 1159.62   2
 -26  15   4 1387.82 922.025   2
  15  11   4 519.096 796.149   1
 -11 -15   4 611.638 925.223   2
 -15  26   4-413.182 902.063   1
 -11 -15   4-224.847 832.428   4
 -26  15   4-168.743 768.300   4
 -26  15   7 3877.35 1217.98   2
 -15  26   7 2865.04 1200.84   1
 -26  15   7 2538.05 1211.50   1
  15  11   7 2329.17 1055.25   1
 -11 -15   7 1407.98 1133.69   4
 -26  15   7 2761.65 1176.45   4
 -16  26  -6 12781.0 1570.29   3
  16  10  -6 11227.5 1075.26   3
  10 -26  -6 10358.2 937.760   4
 -26  16  -6 11855.6 1448.14   2
 -26  16  -6 11645.1 1209.75   4
 -10 -16  -6 11718.3 1487.04   4
 -10 -16  -6 9259.08 1024.04   2
 -16  26  -3 2456.92 866.002   3
  16  10  -3 1654.64 523.579   3
 -26  16  -3 3930.80 786.511   3
 -16  26  -3 4804.95 890.064   1
  10 -26  -3 2805.59 358.178   4
 -10 -16  -3 3556.84 815.895   4
 -26  16  -3 3420.90 670.514   4
 -26  16  -3 3146.68 820.460   2
 -10 -16  -3 3650.13 841.453   2
 -16  26   0 11288.7 1287.73   1
 -26  16   0 9190.56 754.681   3
  16  10   0 10640.8 1309.12   1
 -16  26   0 8938.58 616.959   2
 -10 -16   0 9356.55 1092.89   4
 -26  16   0 9811.08 958.577   4
 -26  16   0 9318.60 1066.99   2
 -10 -16   0 12635.7 1319.51   2
 -26  16   3 2824.80 410.930   3
 -10 -16   3 3212.59 1083.79   2
 -16  26   3 3382.40 1039.96   1
  16  10   3 2918.08 948.099   1
 -10 -16   3 4057.68 1040.21   4
 -26  16   3 2939.73 860.271   4
 -26  16   3 4184.41 1027.37   2
 -16  26   6 11890.4 1712.99   1
 -26  16   6 5941.29 1291.74   2
 -10 -16   6 9420.37 1665.32   2
 -26  16   6 10902.4 1741.65   1
  16  10   6 8254.92 1307.63   1
 -26  16   6 9037.87 1429.01   4
 -10 -16   6 4120.24 1321.31   4
 -17  26  -4 1138.54 850.429   3
  17   9  -4 1052.51 513.397   3
 -26  17  -4 1990.21 830.102   3
   9 -26  -4 1244.90 445.159   4
 -26  17  -4 923.962 623.818   4
  -9 -17  -4 1942.35 825.052   4
 -26  17  -4 831.816 679.472   2
 -17  26  -4 393.753 616.003   1
  -9 -17  -4 1498.12 648.169   2
 -17  26  -1 7391.52 1096.05   1
 -26  17  -1 6422.19 797.868   3
 -17  26  -1 9366.37 733.769   2
  -9 -17  -1 7456.47 977.550   4
 -26  17  -1 7405.77 1003.91   2
 -26  17  -1 7360.51 813.248   4
  -9 -17  -1 7184.57 1042.32   2
  17   9  -1 9289.28 1293.52   1
  17   9  -1 6702.95 681.818   3
 -17  26  -1 6375.06 916.949   3
  17   9   2 6240.64 1110.73   1
  -9 -17   2 6874.22 1200.98   2
 -17  26   2 3942.52 1051.59   1
 -26  17   2 5144.17 902.635   4
  -9 -17   2 5102.20 985.605   4
   9 -26   2 3381.25 444.800   4
 -26  17   2 4352.17 920.268   2
 -26  17   2 4449.43 550.730   3
 -26  17   5 6139.80 1209.81   2
  -9 -17   5 6314.16 1460.00   2
  17   9   5 4092.68 1062.21   1
 -26  17   5 8364.37 1575.71   1
 -26  17   5 7543.27 1197.57   4
  -9 -17   5 3658.04 1166.61   4
 -17  26   5 8875.39 1461.12   1
 -18  26  -5 3134.16 1008.49   3
 -26  18  -5 5097.45 1082.17   3
 -26  18  -5 4973.99 1014.54   2
   8 -26  -5 2693.89 627.639   4
 -26  18  -5 2264.81 706.795   4
  -8 -18  -5 3881.31 979.626   4
 -26  18  -5 2541.34 716.753   1
 -18  26  -5 3827.27 725.355   1
  -8 -18  -5 1197.36 664.597   2
 -18  26  -2 1489.84 734.595   3
  18   8  -2 1435.67 448.026   3
  -8 -18  -2 2035.07 739.767   2
 -26  18  -2 1829.56 667.484   3
 -18  26  -2 1616.19 768.205   1
 -18  26  -2 3315.39 619.638   2
  -8 -18  -2 1119.65 672.755   4
 -26  18  -2 1625.14 527.910   4
   8 -26  -2 1500.27 347.604   4
 -26  18  -2 1393.67 630.784   2
  -8 -18   1 6256.31 1117.83   2
  18   8   1 4372.02 1020.77   1
 -26  18   1 4517.01 772.910   4
 -18  26   1 3792.30 485.849   2
  -8 -18   1 4081.51 882.535   4
   8 -26   1 3121.87 453.090   4
 -26  18   1 3310.81 773.402   2
 -18  26   1 6023.06 1143.75   1
 -26  18   1 4394.08 615.904   3
 -26  18   4-325.650 765.157   2
 -18  26   4 1293.24 965.757   1
  -8 -18   4 580.060 985.555   2
 -26  18   4 2880.44 1144.21   1
  -8 -18   4 491.750 843.164   4
  18   8   4 1688.57 887.745   1
 -26  18   4 1379.47 807.770   4
   8 -26   4 381.927 603.229   4
 -19  26  -6 5906.68 1270.43   3
 -26  19  -6 3589.05 1123.30   3
   7 -26  -6 2055.26 657.747   4
 -26  19  -6 4123.66 843.319   4
  -7 -19  -6 1382.53 887.953   4
 -26  19  -6 3979.19 1079.45   2
 -26  19  -3 5339.95 909.437   3
 -19  26  -3 6110.01 991.591   1
  19   7  -3 3369.53 430.412   3
 -26  19  -3 7065.20 1042.59   2
  -7 -19  -3 7600.78 1002.47   4
 -26  19  -3 6700.31 772.872   4
   7 -26  -3 4473.10 561.074   4
 -26  19  -3 4252.41 927.476   1
  -7 -19  -3 5159.92 863.355   2
 -19  26  -3 7417.23 1098.73   3
 -26  19   0 9754.15 892.698   3
  -7 -19   0 12576.6 1330.81   2
  19   7   0 11665.3 1430.76   1
 -26  19   0 13269.0 1466.24   1
 -19  26   0 11846.9 816.981   2
  -7 -19   0 9027.44 1099.98   4
 -26  19   0 12225.4 1169.01   2
 -26  19   0 10579.1 914.039   4
   7 -26   0 6779.18 598.108   4
 -19  26   0 13249.4 1458.60   1
 -19  26   3 4943.43 1228.57   1
  -7 -19   3 4196.69 1066.21   2
  19   7   3 5208.07 1051.10   1
 -26  19   3 3631.94 1208.46   1
  -7 -19   3 4674.61 1108.80   4
 -26  19   3 3419.61 878.477   4
   7 -26   3 3174.25 662.009   4
 -26  19   3 4209.89 937.865   2
 -26  19   6 2483.94 1042.14   2
 -19  26   6 2668.68 1310.87   1
  -7 -19   6 2880.29 1358.53   2
 -26  19   6 1768.83 1195.30   1
  -7 -19   6 1612.02 1092.73   4
  19   7   6 2383.32 1038.87   1
 -26  19   6 2677.19 1018.66   4
   7 -26   6 2821.63 972.717   4
 -20  26  -4 10453.9 1353.33   3
 -26  20  -4 12264.3 1339.53   3
 -20  26  -4 11284.3 1082.44   1
 -26  20  -4 8770.65 1172.27   2
   6 -26  -4 9375.00 858.555   4
  -6 -20  -4 10006.4 1192.25   4
 -26  20  -4 10506.1 939.886   4
 -26  20  -4 11175.4 1196.00   1
 -20  26  -1 1958.58 717.739   3
 -26  20  -1 3627.92 771.335   3
  -6 -20  -1 6345.08 1009.88   2
  20   6  -1 2591.04 340.719   3
 -26  20  -1 5899.32 1099.78   1
 -20  26  -1 4875.11 690.946   2
 -26  20  -1 5023.09 848.917   2
 -26  20  -1 3270.26 604.025   4
  -6 -20  -1 3583.94 806.918   4
   6 -26  -1 2552.48 516.445   4
 -20  26  -1 5925.24 1063.80   1
 -26  20   2 3243.57 609.485   3
  -6 -20   2 7668.05 1238.59   2
  20   6   2 5957.51 1126.18   1
 -26  20   2 5213.60 1273.12   1
  -6 -20   2 3761.32 906.292   4
 -26  20   2 4200.74 817.015   4
 -20  26   2 7515.49 1286.20   1
   6 -26   2 3857.16 687.336   4
 -26  20   2 5251.78 902.566   2
 -20  26   2 2832.10 540.909   2
 -26  20   5 2614.27 1013.47   2
 -20  26   5 4973.70 1254.74   1
  20   6   5 2414.70 1001.84   1
  -6 -20   5 3736.85 1311.13   2
 -26  20   5 5420.67 1439.71   1
  -6 -20   5 1869.59 1162.82   4
 -26  20   5 3695.60 941.122   4
   6 -26   5 3427.38 903.274   4
 -21  26  -5 2542.67 1014.72   3
 -26  21  -5 629.334 810.771   3
   5 -26  -5 1310.12 652.029   4
 -26  21  -5 2724.58 682.736   4
 -26  21  -5 2538.36 901.077   2
  -5 -21  -5 1250.02 809.995   4
 -21  26  -2 685.592 699.006   3
 -26  21  -2 798.685 631.636   3
  -5 -21  -2 1568.05 733.944   2
 -21  26  -2 2211.42 821.608   1
 -21  26  -2 1332.11 545.423   2
  -5 -21  -2 695.076 586.746   4
   5 -26  -2 242.720 451.978   4
 -26  21  -2 1192.99 490.798   4
 -26  21  -2 1212.27 676.429   2
 -26  21  -2 1871.55 804.445   1
 -26  21   1 1364.91 553.954   3
 -21  26   1 2539.81 951.335   1
  -5 -21   1 855.150 792.738   2
 -26  21   1 1406.62 945.491   1
  -5 -21   1 1834.64 717.203   4
   5 -26   1 778.594 522.643   4
 -26  21   1 1221.03 581.174   4
 -21  26   1 1859.88 522.263   2
 -26  21   1 1764.96 677.104   2
  21   5   1 2465.29 937.332   1
 -26  21   4 1654.70 861.709   2
 -21  26   4 156.363 913.949   1
  21   5   4 1499.50 837.876   1
  -5 -21   4 1678.10 992.579   2
 -26  21   4 521.530 1038.78   1
  -5 -21   4-405.593 830.734   4
   5 -26   4 1029.44 747.688   4
 -26  21   4 1837.85 744.401   4
 -26  22  -3 4933.26 943.578   3
 -22  26  -3 7578.00 937.263   2
 -26  22  -3 5361.52 912.778   2
  -4 -22  -3 6416.63 899.361   4
   4 -26  -3 5146.98 705.114   4
 -26  22  -3 7788.67 1115.81   1
 -26  22  -3 5543.21 629.601   4
 -22  26  -3 7950.11 1046.98   1
 -22  26  -3 5810.14 1083.75   3
 -22  26   0 1012.70 651.879   3
 -26  22   0 2445.44 712.515   3
 -22  26   0 1369.28 938.966   1
  -4 -22   0 1234.23 792.125   2
  -4 -22   0 1228.69 658.457   4
 -22  26   0 994.946 498.034   2
   4 -26   0 1600.86 579.237   4
 -26  22   0 3006.52 993.472   1
 -26  22   0 2041.27 649.532   2
 -26  22   0 1573.07 495.624   4
  22   4   3 8982.12 1351.60   1
  -4 -22   3 8776.86 1391.50   2
 -26  22   3 9010.88 1564.61   1
 -22  26   3 11386.5 1588.05   1
  -4 -22   3 5708.50 1075.08   4
 -26  22   3 5513.45 973.786   2
   4 -26   3 4318.13 872.242   4
 -26  22   3 5228.12 804.404   4
 -23  26  -4 5503.48 890.981   1
 -26  23  -4 7641.39 1207.81   3
 -23  26  -4 3144.83 1000.32   3
 -23  26  -4 6139.53 949.159   2
 -26  23  -4 6675.27 1038.02   2
   3 -26  -4 4582.49 806.699   4
  -3 -23  -4 4667.20 919.366   4
 -26  23  -4 6469.01 989.085   1
 -23  26  -1 1877.36 763.028   3
 -26  23  -1 1187.89 661.579   3
 -23  26  -1 4293.58 1036.79   1
  -3 -23  -1 287.870 663.538   2
  -3 -23  -1 1309.37 726.424   4
 -23  26  -1 2695.11 666.524   2
   3 -26  -1 2097.21 613.703   4
 -26  23  -1-292.742 557.880   2
 -26  23  -1 2645.25 922.921   1
  -3 -23   2 11184.2 1413.22   2
 -26  23   2 12450.0 1685.43   1
  -3 -23   2 8491.48 1102.57   4
 -23  26   2 13633.4 1662.54   1
   3 -26   2 9650.11 1089.89   4
 -26  23   2 11221.4 1162.23   2
 -23  26   2 9353.20 926.323   2
 -26  23   2 10343.8 995.223   3
 -23  26   5 966.738 1206.23   1
 -26  23   5 1847.77 873.961   2
  -3 -23   5 2127.07 1216.92   2
  23   3   5 2047.68 985.679   1
  -3 -23   5 1627.86 1076.95   4
 -26  23   5 1101.13 1086.45   1
   3 -26   5 1243.14 897.523   4
 -24  26  -5 82.0942 925.136   3
 -26  24  -5-113.960 844.068   3
 -24  26  -5 1675.01 858.045   2
 -26  24  -5 1428.61 772.326   2
   2 -26  -5-683.112 652.220   4
  -2 -24  -5-108.794 742.439   4
 -26  24  -2 3134.01 814.971   3
 -24  26  -2 3709.22 904.616   1
 -24  26  -2 2469.90 686.735   2
  -2 -24  -2 3239.48 751.092   4
   2 -26  -2 1758.07 641.868   4
 -26  24  -2 1172.35 643.413   2
 -26  24  -2 2838.83 853.495   1
 -24  26  -2 3111.04 965.839   3
 -24  26   1 907.638 883.046   1
 -26  24   1 483.485 594.880   3
  -2 -24   1 598.713 781.346   2
  -2 -24   1-254.667 655.866   4
   2 -26   1 877.561 668.377   4
 -24  26   1 840.772 537.294   2
 -26  24   1 1184.74 544.652   2
 -26  24   1 1624.51 989.226   1
 -24  26   4 2270.78 1139.21   1
 -26  24   4 803.119 806.611   2
  -2 -24   4 1970.40 1099.33   2
  -2 -24   4 1067.34 944.311   4
   2 -26   4 1969.70 922.060   4
 -26  24   4 3316.50 1314.30   1
 -25  26  -3 6901.54 1135.38   3
 -26  25  -3 4563.24 1031.18   3
 -25  26  -3 6643.62 942.637   2
 -26  25  -3 6832.54 938.807   2
  -1 -25  -3 8712.22 971.734   4
   1 -26  -3 3070.34 708.401   4
 -26  25  -3 8817.25 1150.76   1
 -25  26  -3 8433.60 1128.67   1
 -25  26   0 2088.91 964.987   1
 -25  26   0 383.863 609.651   3
 -26  25   0 786.219 625.214   3
  -1 -25   0 1528.12 708.212   2
  -1 -25   0-821.994 666.189   4
   1 -26   0 123.417 638.761   4
 -25  26   0 670.012 568.094   2
 -26  25   0 1234.89 611.299   2
 -26  25   0 1997.84 1014.85   1
  -1 -25   3 7549.40 1275.28   2
 -26  25   3 11190.5 1655.76   1
 -25  26   3 10299.5 1604.00   1
  -1 -25   3 6468.38 1105.38   4
   1 -26   3 5759.12 1056.54   4
 -26  25   3 6696.80 1021.11   2
 -25  26   3 8992.11 1007.83   2
 -26  26  -4 38.6995 819.373   3
 -26  26  -4 482.330 686.328   1
 -26  26  -4 1792.39 766.104   2
   0 -26  -4 230.314 697.286   4
 -26  26  -1 161.878 618.965   3
   0 -26  -1 407.432 637.708   4
 -26  26  -1 402.313 618.717   2
 -26  26  -1 323.962 815.594   1
   0 -26   2 8671.99 1189.36   2
   0 -26   2 8309.26 1160.72   4
 -26  26   2 4661.02 828.086   2
 -26  26   2 6933.89 1364.65   1
   0  27  -3 362.789 870.536   3
   0  27  -3 1046.29 928.292   1
 -27   0  -3-893.150 969.678   2
   0  27   0 3968.52 1050.31   1
 -27   0   0 5324.66 1153.00   4
 -27   0   0 2955.22 1111.60   2
 -27   0   3 54.9245 1124.35   2
   0  27   3 202.090 966.594   1
 -27   0   3-1516.93 1054.10   4
   1  26  -1 3960.93 1106.05   1
 -26  -1  -1 1482.27 871.020   4
 -27   1  -1 3314.31 940.465   4
  -1  27  -1 3647.78 1050.67   1
 -27   1  -1 907.095 947.243   2
 -26  -1  -1 3584.42 1064.38   2
 -27   1   2 412.732 1118.36   2
 -26  -1   2 2889.67 1169.21   2
  -1  27   2 2786.11 1111.33   1
   1  26   2 1125.62 974.393   1
 -26  -1   2 305.000 923.039   4
 -27   1   2-811.362 921.719   4
   2  25  -2 1681.81 910.779   3
  -2  27  -2 1301.35 816.964   3
   2  25  -2 1294.56 993.618   1
 -25  -2  -2 1320.12 803.706   4
 -27   2  -2-871.896 769.330   4
 -27   2  -2 1608.48 914.440   2
 -25  -2  -2 217.340 849.424   2
  -2  27  -2 1424.00 870.574   1
  -2  27   1 2915.32 1062.40   1
   2  25   1 3388.40 1083.60   1
 -25  -2   1 1495.49 895.031   4
 -27   2   1 3120.05 1045.11   4
 -27   2   1 1446.98 1060.96   2
 -25  -2   1 4033.17 1277.44   2
 -27   2   4 1725.06 1205.37   2
 -25  -2   4 1009.25 1127.74   2
  -2  27   4 1097.98 997.774   1
   2  25   4 720.993 999.626   1
 -25  -2   4-618.419 1004.17   4
 -27   2   4 1204.74 1077.88   4
  -3  27  -3 348.838 830.294   3
   3  24  -3 1613.69 1013.46   3
  -3  27  -3 539.381 775.831   1
 -24  -3  -3 933.006 822.567   4
 -27   3  -3 1653.65 796.885   4
 -27   3  -3 707.579 912.920   2
 -24  -3  -3 1153.44 877.138   2
   3  24  -3 1237.98 892.255   1
   3  24   0 9204.86 1321.54   1
 -24  -3   0 6637.86 1155.74   4
 -27   3   0 5456.10 1096.21   4
  -3  27   0 7514.63 1220.09   1
 -24  -3   0 8270.44 1384.74   2
 -27   3   0 6503.80 1227.39   2
 -27   3   3 2481.36 1216.76   2
 -24  -3   3 1102.41 1032.55   2
  -3  27   3 1986.31 1067.80   1
   3  24   3 1619.07 1031.57   1
 -24  -3   3 2150.98 1031.98   4
 -27   3   3 702.591 987.646   4
  -4  27  -4 857.727 920.412   3
   4  23  -4 10.7388 861.318   3
  -4  27  -4 612.163 812.661   1
   4  23  -4 1028.80 833.992   1
 -23  -4  -4 1416.72 901.191   4
 -27   4  -4 568.854 782.134   4
 -27   4  -4-247.715 770.174   2
 -23  -4  -4 269.330 865.950   2
   4  23  -1 1768.64 900.931   1
  -4  27  -1 2377.58 875.278   1
 -23  -4  -1 1215.53 819.509   4
 -27   4  -1 1495.38 763.906   4
 -27   4  -1 2148.06 944.986   2
 -23  -4  -1 1187.97 890.428   2
 -23  -4   2 135.488 934.438   2
  -4  27   2-192.667 822.633   1
   4  23   2 748.921 922.110   1
 -23  -4   2 1205.14 850.747   4
 -27   4   2 1738.44 919.053   4
 -27   4   2 2290.52 1031.75   2
  -4  27   5 2797.34 1241.47   1
 -27   4   5 1941.83 1249.08   2
 -23  -4   5 1666.83 1379.31   2
   4  23   5 3102.10 1130.57   1
 -23  -4   5 2619.13 1107.80   4
 -27   4   5 1859.97 1085.92   4
  -5  27  -5 945.726 984.758   3
   5  22  -5 1747.66 1049.28   3
   5  22  -5 2279.77 981.318   1
 -27   5  -5 3140.19 1020.04   4
 -22  -5  -5 1504.60 924.692   4
  -5  27  -5 4117.53 988.765   1
 -27   5  -5 1944.11 988.742   2
 -22  -5  -5 723.602 866.057   2
   5  22  -2 3927.07 846.125   3
  -5  27  -2 4297.58 955.930   3
 -22  -5  -2 3433.98 919.061   4
 -27   5  -2 1967.32 736.747   4
   5  22  -2 4759.81 1081.02   1
 -27   5  -2 2923.61 1017.05   2
 -22  -5  -2 5301.00 1090.62   2
  -5  27  -2 5801.28 1058.36   1
  -5  27   1 5493.43 1143.83   1
   5  22   1 10085.5 1396.68   1
 -22  -5   1 6625.64 1221.53   4
 -27   5   1 6442.81 1162.15   4
 -27   5   1 6800.67 1212.02   2
 -22  -5   1 8583.16 1344.21   2
 -27   5   4 1780.74 1070.68   2
 -22  -5   4 2671.68 1237.81   2
   5  22   4 2158.70 1021.12   1
 -22  -5   4 2996.46 1101.55   4
 -27   5   4 692.564 983.900   4
  -5  27   4 301.283 902.236   1
  -6  27  -3 1493.87 846.713   3
   6  21  -3 1829.77 814.717   3
   6  21  -3 3372.51 998.897   1
  -6  27  -3 3505.49 1031.57   1
 -21  -6  -3 1371.42 800.833   4
 -27   6  -3 2772.46 841.974   4
 -27   6  -3 1802.05 866.519   2
 -21  -6  -3 2380.12 957.937   2
   6  21   0 18751.9 1698.02   1
  -6  27   0 19957.3 1731.34   1
 -21  -6   0 11115.0 1325.73   4
 -27   6   0 9901.90 1195.90   4
 -27   6   0 13503.7 1431.36   2
 -21  -6   0 14182.9 1557.26   2
 -27   6   3 2161.85 1042.04   2
 -21  -6   3 2492.28 1067.95   2
 -21  -6   3 1773.69 993.520   4
 -27   6   3 709.697 864.001   4
   6  21   3 1363.82 941.346   1
  -6  27   3 779.930 957.554   1
  -7  27  -4-10.2765 795.928   3
   7  20  -4-190.945 768.348   3
   7  20  -4 991.160 879.872   1
 -20  -7  -4 1757.57 904.104   4
 -27   7  -4 2128.98 758.048   4
 -27   7  -4 542.160 817.310   2
 -20  -7  -4-305.730 768.202   2
  -7  27  -4 1300.57 857.798   1
  -7  27  -1 2673.69 902.055   1
 -20  -7  -1 1474.47 758.605   4
 -27   7  -1 646.695 667.147   4
   7  20  -1 1116.81 872.158   1
 -27   7  -1 266.773 687.089   2
 -20  -7  -1 1422.37 863.900   2
   7  20   2 1179.58 918.025   1
 -20  -7   2 2715.61 1007.79   2
 -20  -7   2 1140.59 772.996   4
 -27   7   2 1522.43 837.911   4
  -7  27   2 2407.05 1046.68   1
 -27   7   2 1386.91 931.874   2
 -27   7   5 230.482 1099.88   2
 -20  -7   5 2942.23 1335.54   2
   7  20   5 1470.89 1044.60   1
  -7  27   5 2698.63 1063.30   1
 -20  -7   5 885.647 1193.89   4
 -27   7   5 2400.81 1115.85   4
  -8  27  -5 206.535 965.179   3
   8  19  -5 1825.60 951.196   3
  -8  27  -5 1076.89 748.701   1
 -27   8  -5 4288.92 839.588   3
   8  19  -5 1697.13 1039.07   1
 -27   8  -5 3298.30 918.823   4
 -19  -8  -5-126.323 837.045   4
 -27   8  -5 2840.68 1028.61   2
 -19  -8  -5 2406.60 911.769   2
   8  19  -2 2949.45 827.140   3
  -8  27  -2 1421.78 860.491   3
  -8  27  -2 2672.49 810.414   1
   8  19  -2 1765.41 824.390   1
 -19  -8  -2 1693.79 790.435   4
 -27   8  -2 2130.65 801.454   4
 -27   8  -2 2531.09 868.384   2
 -19  -8  -2 751.277 800.455   2
 -19  -8   1 3424.59 992.899   2
   8  19   1 3038.82 984.514   1
 -19  -8   1 3705.32 968.900   4
 -27   8   1 4724.81 954.024   4
  -8  27   1 4949.25 1104.50   1
 -27   8   1 5173.35 1140.92   2
 -27   8   4 4261.75 1217.07   2
 -19  -8   4 5094.18 1346.91   2
  -8  27   4 4803.38 1160.08   1
 -19  -8   4 4476.23 1175.98   4
 -27   8   4 5012.12 1175.05   4
   8  19   4 5111.29 1137.11   1
  -9  27  -6 3404.29 1229.97   3
   9  18  -6 5759.64 1233.83   3
 -27   9  -6 8478.70 1150.98   3
 -27   9  -6 4984.44 1086.98   4
 -18  -9  -6 4645.39 1237.23   4
 -27   9  -6 5720.16 1233.40   2
 -18  -9  -6 4203.03 1050.46   2
   9  18  -3 7681.16 1271.22   1
 -27   9  -3 6530.01 687.164   3
 -18  -9  -3 8185.89 1179.40   4
 -27   9  -3 7220.83 1031.19   4
 -18  -9  -3 6872.27 1108.33   2
  -9  27  -3 7658.10 1095.44   1
 -27   9  -3 5105.82 1042.10   2
  -9  27  -3 6376.41 1127.50   3
   9  18  -3 6387.63 1027.57   3
 -18  -9   0 2888.52 1006.94   2
   9  18   0 5748.34 1110.54   1
 -18  -9   0 2775.80 945.895   4
 -27   9   0 2621.24 788.645   4
 -27   9   0 2500.97 877.073   2
  -9  27   0 4868.72 1064.81   1
 -27   9   3 5383.28 1163.37   2
   9  18   3 4567.85 1089.51   1
 -18  -9   3 3280.34 1169.51   2
  -9  27   3 7615.41 1286.86   1
 -18  -9   3 2807.64 1088.38   4
 -27   9   3 1520.30 901.111   4
 -27   9   6 2154.87 1336.09   2
 -18  -9   6 3032.69 1336.38   2
  -9  27   6 2640.43 1174.62   1
 -18  -9   6 2423.67 1271.86   4
 -27   9   6 2851.19 1253.89   4
   9  18   6 2866.37 1106.26   1
 -10  27  -4 3064.94 1047.25   3
  10  17  -4 2768.27 863.475   3
 -27  10  -4 2860.82 710.219   3
 -17 -10  -4 3506.90 1002.99   4
 -27  10  -4 4185.20 941.938   4
 -27  10  -4 3708.58 968.767   2
 -17 -10  -4 3029.07 893.310   2
 -10  27  -4 4627.77 924.302   1
  10  17  -4 4103.35 1083.58   1
  10  17  -1 2072.63 858.675   1
 -17 -10  -1 818.688 719.684   4
 -27  10  -1 1748.02 724.630   4
 -27  10  -1 1542.94 778.631   2
 -10  27  -1 3857.69 977.980   1
 -17 -10  -1 3462.95 972.729   2
 -17 -10   2 1381.03 856.396   2
  10  17   2 104.627 743.737   1
 -10  27   2 249.663 778.284   1
 -17 -10   2 321.913 737.433   4
 -27  10   2 321.003 820.030   4
 -27  10   2 2568.86 959.990   2
  10  17   5 478.445 832.099   1
 -27  10   5-560.440 1018.33   2
 -17 -10   5 251.541 1190.61   2
 -10  27   5 306.321 970.305   1
 -17 -10   5 1163.59 1119.16   4
 -27  10   5 341.163 951.798   4
 -11  27  -5 2690.04 1027.29   3
  11  16  -5 619.072 759.383   3
 -27  11  -5 2320.47 795.322   3
 -27  11  -5 1827.18 859.020   4
 -16 -11  -5 5146.83 1094.63   4
 -27  11  -5 1677.88 847.027   2
 -11  27  -5 2683.46 832.204   1
 -16 -11  -5 2310.83 808.752   2
 -11  27  -2 1202.64 759.502   3
 -27  11  -2 2961.04 476.809   3
 -16 -11  -2 1068.00 750.403   4
 -27  11  -2 1936.44 665.136   4
 -27  11  -2 2384.82 820.732   2
  11  16  -2 4339.06 1067.42   1
 -16 -11  -2 3326.23 910.890   2
  11  16  -2 4157.75 802.867   3
 -11  27  -2 3406.27 881.285   1
 -16 -11   1 3060.04 1062.54   2
 -11  27   1 820.182 765.304   1
 -16 -11   1 1512.69 817.195   4
 -27  11   1 2137.92 841.274   4
  11  16   1 1309.25 869.437   1
 -27  11   1 1694.39 788.897   2
 -27  11   4 1466.55 933.800   2
 -16 -11   4 3462.64 1251.04   2
  11  16   4 4466.63 1125.29   1
 -11  27   4 3384.40 1168.33   1
 -16 -11   4 3603.47 1141.75   4
 -27  11   4 3431.09 1053.44   4
 -12  27  -6-400.656 1079.53   3
  12  15  -6 1055.72 790.807   3
 -27  12  -6 384.061 881.039   3
 -27  12  -6 2274.99 912.083   4
 -15 -12  -6 2053.93 1025.38   4
 -27  12  -6-206.550 840.387   2
 -15 -12  -6 523.815 754.807   2
 -12  27  -3 1859.53 841.913   3
  12  15  -3 3410.39 789.113   3
 -12  27  -3 4167.40 886.434   1
 -27  12  -3 4657.00 746.072   3
 -15 -12  -3 3235.78 923.223   4
 -27  12  -3 1933.89 711.492   4
 -27  12  -3 3717.96 920.532   2
  12  15  -3 4653.04 1079.61   1
 -15 -12  -3 2797.17 856.735   2
 -15 -12   0 2140.37 857.742   2
  12  15   0 1291.58 835.842   1
 -12  27   0-16.2271 708.963   1
 -15 -12   0 443.580 685.425   4
 -27  12   0 2008.17 730.741   4
 -27  12   0 975.996 835.887   2
 -15 -12   3 2840.90 1188.83   2
 -12  27   3 3185.44 1079.90   1
  12  15   3 1614.76 899.790   1
 -15 -12   3 855.441 880.453   4
 -27  12   3 1110.00 885.860   4
 -27  12   3 1379.84 946.882   2
 -27  12   6 909.035 1099.42   2
  12  15   6 2327.86 954.932   1
 -15 -12   6 101.003 1155.98   2
 -12  27   6 3721.67 1282.43   1
 -15 -12   6 4187.42 1326.72   4
 -27  12   6 5206.13 1370.83   4
 -13  27  -4 4360.57 1047.56   3
  13  14  -4 2940.72 775.000   3
  13  14  -4 6194.52 1182.12   1
 -27  13  -4 4982.72 865.587   3
 -13  27  -4 6293.03 936.750   1
 -14 -13  -4 4265.53 1038.61   4
 -27  13  -4 3060.29 819.794   4
 -27  13  -4 5896.76 1068.35   2
 -14 -13  -4 5298.68 960.280   2
 -27  13  -1 3672.65 448.455   3
 -27  13  -1 5398.73 842.857   4
 -27  13  -1 5400.09 963.111   2
 -14 -13  -1 3958.80 903.210   4
 -14 -13  -1 4946.30 1056.69   2
  13  14  -1 3776.60 1018.93   1
  13  14   2 4236.67 959.918   1
 -14 -13   2 5649.40 1208.44   2
 -13  27   2 6756.95 1236.75   1
 -14 -13   2 3693.02 923.332   4
 -27  13   2 2622.48 852.090   4
 -27  13   2 3400.37 971.098   2
 -27  13   5 710.377 927.730   2
 -14 -13   5 1960.31 1249.01   2
 -13  27   5 2444.20 1098.57   1
  13  14   5 2212.21 973.676   1
 -14 -13   5 3263.45 1181.95   4
 -27  13   5 2467.27 1125.38   4
 -14  27  -5 2329.95 998.421   3
  14  13  -5 1605.69 706.348   3
 -27  14  -5 3692.64 892.588   3
 -27  14  -5 4008.12 902.885   4
 -13 -14  -5 3201.21 960.209   4
 -27  14  -5 3813.55 972.359   2
 -14  27  -5 4678.16 809.988   1
 -13 -14  -5 3402.99 845.542   2
 -14  27  -2 2322.52 841.167   3
  14  13  -2 3798.93 705.281   3
 -27  14  -2 4793.87 679.376   3
  14  13  -2 6158.15 1155.73   1
 -13 -14  -2 4226.48 971.330   4
 -27  14  -2 5088.88 821.282   4
 -27  14  -2 5091.91 943.944   2
 -14  27  -2 4914.71 957.529   1
 -13 -14  -2 3419.04 851.289   2
 -13 -14   1 5159.32 1090.86   2
 -14  27   1 6741.32 1156.52   1
 -13 -14   1 5214.40 1022.12   4
 -27  14   1 6894.61 1039.82   2
 -27  14   1 4707.62 856.045   4
  14  13   1 7799.21 1246.28   1
 -27  14   4 4286.51 1139.02   2
 -13 -14   4 3809.41 1195.17   2
 -14  27   4 4357.77 1175.50   1
  14  13   4 6246.51 1177.63   1
 -13 -14   4 4102.13 1132.21   4
 -27  14   4 3605.73 1074.19   4
 -15  27  -6 4825.02 1237.71   3
  15  12  -6 3878.74 933.846   3
 -27  15  -6 4318.55 1075.31   3
 -27  15  -6 5697.22 1243.77   2
 -27  15  -6 5205.05 1001.36   4
 -12 -15  -6 2473.79 896.868   4
 -12 -15  -6 4004.61 902.419   2
 -15  27  -3 2412.89 859.139   3
  15  12  -3 1530.99 598.397   3
 -27  15  -3 2333.74 697.895   3
 -12 -15  -3 1091.18 780.840   4
 -27  15  -3 1259.46 569.939   4
 -27  15  -3 1268.07 770.290   2
 -15  27  -3 3741.76 872.623   1
  15  12  -3 2988.20 1072.78   1
 -12 -15  -3 2453.99 800.875   2
  15  12   0 1484.80 845.413   1
 -12 -15   0 1099.22 785.386   2
 -27  15   0 668.015 385.498   3
 -15  27   0 792.160 766.710   1
 -12 -15   0 504.499 727.949   4
 -15  27   0 1005.48 313.191   2
 -27  15   0 722.121 610.948   4
 -27  15   0 574.380 673.295   2
 -12 -15   3 2580.90 1153.47   2
  15  12   3 5527.92 1107.07   1
 -15  27   3 5140.99 1201.87   1
 -12 -15   3 1055.97 844.316   4
 -27  15   3 2195.16 858.515   4
 -27  15   3 3401.75 1062.29   2
 -27  15   6 638.767 1092.48   2
 -12 -15   6 1041.68 1233.38   2
 -15  27   6 521.015 1055.33   1
 -12 -15   6-640.557 1089.20   4
  15  12   6 585.805 896.973   1
 -27  15   6 1433.54 1054.60   4
 -16  27  -4 3394.34 1024.42   3
  16  11  -4 2796.49 690.993   3
 -27  16  -4 5781.98 958.263   3
 -16  27  -4 5942.00 904.539   1
 -11 -16  -4 3028.21 911.057   4
 -27  16  -4 2737.74 715.806   4
 -27  16  -4 3667.19 895.120   2
 -11 -16  -4 3518.13 843.138   2
 -11 -16  -1 1911.97 823.752   2
 -27  16  -1 2563.75 647.437   3
 -16  27  -1 1390.91 832.698   1
 -16  27  -1 1658.74 465.246   2
 -11 -16  -1 525.653 598.819   4
 -27  16  -1 1307.12 609.633   4
 -27  16  -1-63.4894 646.200   2
  16  11  -1 1081.81 820.978   1
 -11 -16   2 3067.10 1111.31   2
 -16  27   2 4888.76 1144.53   1
  16  11   2 4192.18 1018.93   1
 -11 -16   2 2981.47 863.844   4
 -27  16   2 2054.07 735.989   4
 -27  16   2 4227.28 980.656   2
 -27  16   5 2380.55 1019.15   2
  16  11   5 1905.93 972.437   1
 -16  27   5 2591.93 1067.66   1
 -11 -16   5 2906.97 1270.74   2
 -11 -16   5 599.528 983.994   4
 -27  16   5 1768.05 980.691   4
 -17  27  -5-481.200 850.824   3
  17  10  -5-471.376 589.568   3
 -27  17  -5-114.245 835.002   3
 -27  17  -5 1291.39 709.174   4
 -10 -17  -5 1021.31 830.805   4
 -27  17  -5 314.851 844.869   2
 -10 -17  -5-530.988 681.378   2
  17  10  -2 1582.91 904.513   1
 -17  27  -2 3112.11 877.597   3
  17  10  -2 422.943 441.085   3
 -10 -17  -2 1312.50 768.757   2
 -27  17  -2 716.816 574.868   3
 -17  27  -2 1968.94 804.126   1
 -10 -17  -2 1789.41 752.798   4
 -27  17  -2 573.946 498.791   4
 -27  17  -2 890.233 668.104   2
 -27  17   1 1558.12 466.530   3
 -10 -17   1 2719.42 1010.35   2
  17  10   1 1554.80 907.167   1
 -17  27   1 688.199 783.007   1
 -10 -17   1 1352.63 779.201   4
 -27  17   1 1467.66 673.301   4
 -27  17   1 1782.34 764.609   2
 -27  17   4 4656.83 1059.49   2
 -17  27   4 4678.38 1205.10   1
 -10 -17   4 3204.35 1179.14   2
  17  10   4 5425.99 1121.04   1
 -10 -17   4 1969.51 1007.51   4
 -27  17   4 3515.45 981.939   4
 -18  27  -6 2707.74 1062.58   3
 -27  18  -6 2474.78 1111.86   3
 -27  18  -6 3435.36 880.461   4
  -9 -18  -6 1849.58 986.003   4
 -27  18  -6 2379.08 915.344   2
  -9 -18  -3 1275.45 720.254   2
 -18  27  -3 3905.07 976.582   3
  18   9  -3 2819.50 564.633   3
 -27  18  -3 2781.15 778.323   3
 -18  27  -3 4096.97 873.265   1
 -27  18  -3 4687.96 744.962   4
  -9 -18  -3 3941.51 924.102   4
 -27  18  -3 4470.68 955.444   2
 -27  18   0 3185.04 635.954   3
  -9 -18   0 3341.53 1021.33   2
  18   9   0 3821.51 1039.53   1
 -18  27   0 3245.53 1036.60   1
 -18  27   0 3437.82 525.675   2
  -9 -18   0 3578.82 873.633   4
 -27  18   0 3768.10 733.724   4
 -27  18   0 3024.25 826.201   2
  -9 -18   3 9537.04 1476.81   2
  -9 -18   3 7104.86 1221.06   4
 -27  18   3 7838.07 1123.59   4
 -18  27   3 9345.93 1506.17   1
 -27  18   3 4414.55 590.481   3
  18   9   3 4764.60 1088.92   1
 -27  18   3 5240.28 1106.67   2
 -27  18   6 2914.42 1184.12   2
  -9 -18   6 4483.14 1491.39   2
 -27  18   6 4498.40 1426.20   1
  -9 -18   6 4963.11 1420.11   4
 -27  18   6 4758.62 1172.30   4
 -18  27   6 8607.40 1596.57   1
  18   9   6 7677.98 1328.33   1
  -8 -19  -4 4336.24 844.443   2
 -19  27  -4 3634.73 999.474   3
 -27  19  -4 6865.26 1136.58   3
 -19  27  -4 7223.32 998.748   1
   8 -27  -4 5151.49 682.148   4
  -8 -19  -4 3306.05 893.317   4
 -27  19  -4 3404.10 740.716   4
 -27  19  -4 6340.75 994.839   2
 -27  19  -4 4006.21 919.489   1
 -19  27  -1 2883.34 828.493   3
  19   8  -1 2842.50 479.161   3
 -27  19  -1 2948.94 694.132   3
  -8 -19  -1 3274.80 889.217   2
 -19  27  -1 4346.18 930.624   1
 -19  27  -1 3143.42 573.278   2
  -8 -19  -1 1989.62 722.417   4
 -27  19  -1 3225.57 674.068   4
 -27  19  -1 3043.77 885.724   2
  19   8  -1 4247.18 1050.88   1
 -27  19   2 1826.64 525.850   3
 -19  27   2 2246.55 966.655   1
  -8 -19   2 4144.71 1142.42   2
  19   8   2 1947.21 974.898   1
 -27  19   2 2041.60 1077.80   1
  -8 -19   2 1762.89 800.156   4
 -27  19   2 1212.12 679.096   4
 -27  19   2 1377.97 781.086   2
 -27  19   5 2339.75 971.510   2
 -19  27   5 3593.93 1244.77   1
  -8 -19   5 3903.52 1332.95   2
 -27  19   5 1851.60 1205.57   1
  -8 -19   5 1941.87 1066.42   4
 -27  19   5 2780.13 932.740   4
  19   8   5 875.068 876.255   1
   8 -27   5 1623.30 789.365   4
 -20  27  -5 1002.82 871.197   3
 -27  20  -5 914.636 919.009   3
   7 -27  -5 1707.78 621.068   4
 -27  20  -5 2329.60 719.359   4
  -7 -20  -5 920.438 813.025   4
 -27  20  -5 2227.56 903.698   2
 -27  20  -5 2705.54 802.605   1
 -20  27  -2 774.104 688.852   3
  -7 -20  -2 1258.02 763.420   2
 -27  20  -2 864.393 589.462   3
 -20  27  -2 2271.72 809.821   1
 -20  27  -2 2316.37 603.150   2
  -7 -20  -2 495.116 650.584   4
 -27  20  -2 877.451 790.847   1
 -27  20  -2 624.892 510.257   4
   7 -27  -2 452.366 393.607   4
 -27  20  -2 1039.92 713.277   2
 -27  20   1 1211.33 556.114   3
 -20  27   1 1500.84 896.088   1
  -7 -20   1 3920.41 1116.10   2
  20   7   1 1760.43 976.147   1
 -27  20   1 3362.26 1107.03   1
  -7 -20   1 2228.17 773.586   4
 -27  20   1 489.149 570.985   4
   7 -27   1 1654.61 502.884   4
 -20  27   1 944.748 448.054   2
 -27  20   1 1026.76 649.305   2
 -27  20   4 761.231 839.100   2
 -20  27   4 299.703 1013.16   1
  -7 -20   4-343.223 1022.53   2
  20   7   4 1024.91 881.714   1
 -27  20   4 456.396 1095.21   1
  -7 -20   4 1217.73 983.274   4
 -27  20   4 2142.79 879.300   4
   7 -27   4 789.704 715.169   4
 -21  27  -3 2063.08 877.656   3
  -6 -21  -3 2343.84 769.263   2
 -27  21  -3 650.503 687.889   3
 -21  27  -3 1990.78 739.415   1
 -21  27  -3 1767.25 651.302   2
  -6 -21  -3 2922.17 826.331   4
 -27  21  -3 1707.65 543.593   4
   6 -27  -3 754.244 476.374   4
 -27  21  -3 1777.51 692.806   2
 -27  21  -3 2316.94 823.389   1
 -27  21   0 14727.3 1135.51   3
  -6 -21   0 16933.2 1490.45   2
 -27  21   0 18374.7 1799.08   1
 -21  27   0 16431.3 1000.43   2
  -6 -21   0 14183.1 1294.10   4
 -27  21   0 15571.6 1332.98   2
 -27  21   0 11135.6 918.732   4
   6 -27   0 12738.6 895.475   4
 -21  27   0 22087.0 1816.33   1
 -21  27   0 13149.5 1238.03   3
 -21  27   3 2536.95 1066.49   1
  21   6   3 3502.20 1149.38   1
  -6 -21   3 5473.20 1279.78   2
 -27  21   3 4320.37 1252.51   1
  -6 -21   3 3373.39 1000.72   4
 -27  21   3 4669.74 934.968   4
   6 -27   3 1986.05 712.104   4
 -27  21   3 2894.75 923.085   2
 -22  27  -4 2206.28 992.604   3
 -27  22  -4 1026.27 821.770   3
 -22  27  -4 1736.62 710.112   1
  -5 -22  -4 2912.58 870.436   4
   5 -27  -4 1820.62 660.054   4
 -27  22  -4 1773.26 819.983   2
 -27  22  -4 1143.44 757.602   1
 -27  22  -1 7215.80 975.279   3
 -22  27  -1 5230.44 948.020   3
  -5 -22  -1 5732.43 979.641   2
 -27  22  -1 10049.8 1332.02   1
 -22  27  -1 9309.23 872.795   2
 -27  22  -1 7392.66 1001.81   2
  -5 -22  -1 6821.00 996.124   4
   5 -27  -1 4582.73 669.763   4
 -22  27  -1 9785.02 1280.47   1
 -27  22   2 3226.01 696.642   3
  22   5   2 6632.06 1256.82   1
  -5 -22   2 3064.66 1081.90   2
 -27  22   2 5457.07 1326.02   1
  -5 -22   2 4710.10 989.216   4
 -22  27   2 5718.50 1323.12   1
   5 -27   2 3339.31 762.103   4
 -27  22   2 2498.00 671.845   4
 -27  22   2 3671.98 857.749   2
 -22  27   5 2790.53 1192.69   1
 -27  22   5 3945.77 1091.14   2
  22   5   5 3420.71 1108.99   1
  -5 -22   5 3020.01 1224.76   2
 -27  22   5 5086.87 1364.33   1
  -5 -22   5 3598.48 1105.12   4
   5 -27   5 2736.49 933.358   4
 -23  27  -5 2725.56 1059.08   3
 -27  23  -5 2569.38 1010.18   3
 -27  23  -5 867.185 835.531   2
   4 -27  -5 858.768 716.169   4
  -4 -23  -5 938.479 771.612   4
 -23  27  -2 237.697 715.292   3
 -27  23  -2-337.705 602.240   3
 -23  27  -2 810.216 802.485   1
 -23  27  -2 1176.53 597.241   2
  -4 -23  -2 2107.06 737.322   4
   4 -27  -2-4.96442 486.030   4
 -27  23  -2 684.480 668.808   2
 -27  23  -2 449.192 807.804   1
 -27  23   1 1030.88 571.764   3
 -23  27   1 4316.46 1129.98   1
  -4 -23   1 4183.54 1035.94   2
  -4 -23   1 2010.68 759.255   4
 -27  23   1 3094.95 1093.04   1
   4 -27   1 1305.85 613.321   4
 -23  27   1 913.628 534.012   2
 -27  23   1 1565.78 723.899   2
 -27  23   4 1131.07 817.950   2
 -23  27   4-165.080 1033.41   1
  -4 -23   4 1014.17 1064.31   2
  23   4   4-67.8727 908.757   1
 -27  23   4-859.940 1048.76   1
  -4 -23   4-46.2225 852.627   4
   4 -27   4 1504.77 868.879   4
 -24  27  -3 628.490 831.215   3
 -27  24  -3 689.582 782.433   3
 -24  27  -3 2745.47 869.435   1
 -24  27  -3 1462.14 677.314   2
  -3 -24  -3 967.575 706.638   4
   3 -27  -3 1321.29 595.564   4
 -27  24  -3 1473.31 764.580   2
 -27  24  -3 1830.15 826.525   1
 -27  24   0 4428.63 812.211   3
  -3 -24   0 3884.93 921.245   2
 -27  24   0 5721.85 1249.12   1
 -24  27   0 5888.90 829.893   2
  -3 -24   0 8596.32 1059.71   4
 -27  24   0 6750.69 926.112   2
   3 -27   0 4098.40 751.044   4
 -24  27   0 8454.29 1315.51   1
 -24  27   0 6887.34 1026.51   3
 -27  24   3 2283.59 859.496   2
 -24  27   3 2194.68 1256.27   1
  -3 -24   3 2119.48 1112.58   2
  -3 -24   3 1146.24 946.789   4
 -27  24   3 2645.41 1239.33   1
   3 -27   3-963.462 811.050   4
 -27  25  -4 262.833 719.021   1
 -25  27  -4-155.621 888.801   3
 -27  25  -4-600.595 847.916   3
 -25  27  -4 1036.22 732.940   1
 -25  27  -4 253.517 637.733   2
 -27  25  -4 1689.16 728.998   2
  -2 -25  -4 180.029 686.262   4
   2 -27  -4 285.968 599.367   4
 -25  27  -1 1426.39 743.195   3
 -25  27  -1 2579.88 996.529   1
 -27  25  -1 3249.81 771.740   3
  -2 -25  -1 1622.81 765.938   4
   2 -27  -1 1057.15 664.059   4
 -25  27  -1 1009.94 599.490   2
 -27  25  -1 2879.58 741.502   2
 -27  25  -1 3208.61 994.206   1
 -27  25   2 463.852 627.935   3
 -25  27   2 2499.05 1124.49   1
  -2 -25   2 1059.24 868.774   2
  -2 -25   2 450.013 819.870   4
   2 -27   2 1191.75 715.248   4
 -27  25   2 1113.04 1019.76   1
 -27  25   2 700.211 690.450   2
 -25  27   2 816.083 607.990   2
 -26  27  -2 980.088 807.595   1
 -26  27  -2-276.631 763.109   3
 -27  26  -2 1224.74 764.568   3
  -1 -26  -2 685.092 644.109   4
 -26  27  -2 351.935 610.974   2
   1 -27  -2 675.937 638.504   4
 -27  26  -2 501.333 634.881   2
 -27  26  -2 1449.47 782.609   1
 -26  27   1 3259.76 1114.59   1
 -26  27   1 2695.07 759.882   3
 -27  26   1 2557.93 765.927   3
  -1 -26   1 1990.05 816.882   4
   1 -27   1 1860.17 765.856   4
 -27  26   1 2142.25 732.783   2
 -26  27   1 1317.08 677.585   2
 -27  26   1 4098.61 1232.50   1
 -27  27  -3 215.630 781.832   1
 -27  27  -3 719.513 839.487   3
   0 -27  -3-293.908 633.293   4
 -27  27   0 2759.91 835.859   3
   0 -27   0 2734.65 793.868   4
 -27  27   0 4050.87 776.790   2
   0 -27   3-170.022 939.494   2
   0 -27   3-299.124 904.111   4
 -27  27   3 415.112 1153.60   1
  -1  28   1 1152.96 954.996   1
   1  27   1 1101.98 998.176   1
 -27  -1   1 479.819 830.662   4
 -28   1   1 3095.21 1082.33   4
 -28   1   1 1684.56 1102.83   2
 -27  -1   1 2121.09 1099.37   2
  -2  28   0 5152.45 1185.86   1
 -26  -2   0 2404.65 986.286   4
 -28   2   0 3768.95 1025.83   4
 -28   2   0 3359.06 1198.01   2
   2  26   0 5079.31 1177.78   1
 -26  -2   0 2275.10 1144.47   2
   3  25  -1 1202.07 937.454   1
  -3  28  -1 1013.48 853.982   1
 -25  -3  -1 574.615 785.359   4
 -28   3  -1 1178.61 743.861   4
 -28   3  -1 500.797 808.735   2
 -25  -3  -1 847.256 944.190   2
 -28   3   2 1206.69 984.551   2
 -25  -3   2 1291.81 1130.85   2
  -3  28   2 1295.42 1006.90   1
   3  25   2 3452.80 1114.68   1
 -25  -3   2 1095.53 882.524   4
 -28   3   2-408.147 861.955   4
   4  24  -2 1192.04 863.083   3
  -4  28  -2 1226.07 896.224   3
   4  24  -2 1281.81 937.095   1
 -24  -4  -2 760.561 855.972   4
 -28   4  -2 1451.80 777.057   4
  -4  28  -2 2686.17 935.600   1
 -28   4  -2 3209.00 1086.87   2
 -24  -4  -2-6.20385 830.318   2
 -24  -4   1 1945.50 1043.14   2
  -4  28   1 5017.51 1135.15   1
 -24  -4   1 2479.29 1018.97   4
 -28   4   1 3920.60 1066.63   4
   4  24   1 4941.02 1161.18   1
 -28   4   1 590.953 877.082   2
 -28   4   4 4697.68 1356.12   2
  -4  28   4 5729.96 1332.97   1
 -24  -4   4 2683.53 1217.24   2
   4  24   4 5677.33 1279.32   1
 -24  -4   4 1762.24 1245.48   4
 -28   4   4 5930.16 1415.14   4
  -5  28  -3 6022.39 1200.70   3
   5  23  -3 5973.75 1117.09   3
  -5  28  -3 7255.11 1266.58   1
 -28   5  -3 6896.31 1184.16   4
 -23  -5  -3 4523.48 1056.35   4
   5  23  -3 7914.91 1298.38   1
 -28   5  -3 4347.92 1170.23   2
 -23  -5  -3 6808.99 1215.63   2
   5  23   0 5613.53 1176.92   1
  -5  28   0 3165.68 1053.60   1
 -23  -5   0 3912.87 1042.09   4
 -28   5   0 1864.32 825.191   4
 -28   5   0 2379.56 983.143   2
 -23  -5   0 3746.88 1129.92   2
 -28   5   3 7205.42 1457.81   2
   5  23   3 11489.0 1568.87   1
  -5  28   3 8830.53 1464.86   1
 -23  -5   3 8458.80 1410.68   4
 -28   5   3 10752.9 1540.30   4
 -23  -5   3 10116.9 1700.26   2
  -6  28  -4 14.1104 882.784   3
   6  22  -4 304.654 870.288   3
  -6  28  -4 1085.33 908.805   1
 -22  -6  -4 1312.80 965.729   4
 -28   6  -4 776.458 774.992   4
 -28   6  -4-100.934 804.036   2
 -22  -6  -4 1419.47 907.941   2
   6  22  -4-290.212 903.633   1
  -6  28  -1 1814.16 874.959   1
   6  22  -1 3578.54 1060.62   1
 -22  -6  -1 2230.56 879.963   4
 -28   6  -1 1342.08 710.617   4
 -28   6  -1 2716.12 1021.29   2
 -22  -6  -1 1347.45 854.775   2
  -6  28   2 4059.21 1145.00   1
 -22  -6   2 1735.30 1151.25   2
 -22  -6   2 1799.75 990.035   4
 -28   6   2 274.149 858.640   4
   6  22   2 1875.34 960.455   1
 -28   6   2 3698.73 1121.25   2
  -7  28  -5 2940.64 1131.20   3
   7  21  -5 2155.22 1002.83   3
  -7  28  -5 2095.69 868.782   1
 -21  -7  -5 2630.92 1049.42   4
 -28   7  -5 4529.17 1132.70   4
 -28   7  -5 858.703 921.123   2
 -21  -7  -5 2007.19 977.843   2
   7  21  -5 4405.44 1181.52   1
   7  21  -2 3925.88 886.233   3
  -7  28  -2 5458.74 1067.08   3
 -21  -7  -2 4884.16 1142.60   4
 -28   7  -2 4441.40 935.343   4
   7  21  -2 7839.90 1254.76   1
 -21  -7  -2 6682.73 1159.51   2
  -7  28  -2 7396.30 1186.62   1
 -28   7  -2 4792.00 1046.77   2
 -21  -7   1 3489.15 1214.88   2
   7  21   1 4081.61 1113.54   1
  -7  28   1 5841.95 1218.41   1
 -21  -7   1 1817.71 901.398   4
 -28   7   1 1527.96 824.557   4
 -28   7   1 3775.32 1065.69   2
 -28   7   4 3855.53 1280.92   2
 -21  -7   4 1908.02 1214.88   2
 -21  -7   4 1945.28 1127.45   4
 -28   7   4 5382.97 1259.30   4
   7  21   4 4804.66 1111.50   1
  -7  28   4 5933.97 1251.82   1
   8  20  -3 13001.3 1536.68   1
 -20  -8  -3 10578.7 1382.86   4
 -28   8  -3 8437.50 1174.95   4
 -28   8  -3 9723.54 1377.80   2
 -20  -8  -3 7884.22 1171.13   2
  -8  28  -3 10285.1 1285.78   1
  -8  28  -3 9253.50 1281.65   3
   8  20  -3 9457.95 1163.75   3
 -20  -8   0 3688.90 1122.31   2
  -8  28   0 5307.80 1164.56   1
   8  20   0 4658.12 1043.51   1
 -20  -8   0 4731.56 1024.01   4
 -28   8   0 3558.25 946.747   4
 -28   8   0 3176.39 1002.00   2
 -28   8   3 5954.79 1267.61   2
 -20  -8   3 5235.41 1293.97   2
   8  20   3 9072.49 1328.34   1
  -8  28   3 7355.15 1334.56   1
 -28   8   3 6518.05 1282.35   4
 -20  -8   3 4967.72 1214.35   4
  -9  28  -4 983.626 869.118   3
   9  19  -4 2089.29 886.607   3
   9  19  -4 2126.78 1047.93   1
 -19  -9  -4 2427.51 951.353   4
 -28   9  -4 1398.06 808.105   4
  -9  28  -4 2114.83 853.676   1
 -28   9  -4 566.685 783.776   2
 -19  -9  -4 1258.24 781.057   2
  -9  28  -1 1466.62 853.865   1
   9  19  -1 1499.68 884.366   1
 -19  -9  -1 38.8836 681.737   4
 -28   9  -1 2497.60 808.205   4
 -28   9  -1 608.683 756.055   2
 -19  -9  -1 360.871 809.879   2
 -19  -9   2 2031.35 1092.00   2
   9  19   2 133.029 850.263   1
 -19  -9   2 896.703 848.130   4
 -28   9   2 4046.88 937.587   4
  -9  28   2 1664.47 900.845   1
 -28   9   2 1662.22 964.394   2
 -28   9   5 1239.47 1146.75   2
 -19  -9   5 3628.98 1389.66   2
  -9  28   5 1764.67 995.406   1
 -19  -9   5 152.074 978.763   4
 -28   9   5 358.627 1003.08   4
   9  19   5 1208.42 967.129   1
  10  18  -5 6047.23 1130.92   3
 -10  28  -5 1699.83 1062.80   3
 -10  28  -5 6001.74 1013.67   1
 -28  10  -5 5648.91 924.709   3
 -28  10  -5 6274.73 1116.59   4
 -18 -10  -5 4221.45 1079.92   4
  10  18  -5 4980.11 1207.17   1
 -28  10  -5 5274.91 1119.86   2
 -18 -10  -5 4672.30 1071.49   2
 -10  28  -2 2041.52 813.590   3
  10  18  -2 4756.41 855.759   3
 -10  28  -2 7242.64 1171.80   1
  10  18  -2 5377.82 1146.78   1
 -18 -10  -2 5531.46 1032.11   4
 -28  10  -2 4043.88 856.005   4
 -28  10  -2 3942.23 1007.85   2
 -18 -10  -2 4421.54 1063.09   2
 -18 -10   1 5146.52 1199.23   2
  10  18   1 4324.54 1138.54   1
 -28  10   1 6777.67 1095.17   4
 -18 -10   1 4430.15 1029.64   4
 -28  10   1 4134.86 1127.26   2
 -28  10   4 3724.51 1179.86   2
  10  18   4 5829.75 1216.01   1
 -18 -10   4 4738.88 1355.05   2
 -10  28   4 6514.85 1314.27   1
 -18 -10   4 3836.32 1140.37   4
 -28  10   4 3858.19 1122.13   4
 -11  28  -3 6291.30 1132.36   3
  11  17  -3 6891.53 1289.22   1
 -17 -11  -3 8923.83 1242.78   4
 -28  11  -3 7626.77 1062.74   4
 -28  11  -3 7025.93 1140.98   2
 -11  28  -3 10068.5 1195.79   1
 -17 -11  -3 7656.59 1187.20   2
  11  17  -3 6596.96 992.466   3
 -17 -11   0 2467.93 1011.62   2
  11  17   0 2971.10 984.699   1
 -17 -11   0 3242.94 959.265   4
 -28  11   0 2949.98 777.103   4
 -11  28   0 4157.14 1051.84   1
 -28  11   0 2828.47 901.022   2
 -28  11   3 2311.88 1041.30   2
 -17 -11   3 1912.26 996.149   2
  11  17   3 2933.87 1043.44   1
 -11  28   3 2027.45 975.841   1
 -17 -11   3 3905.50 1135.40   4
 -28  11   3 2597.78 986.576   4
 -12  28  -4 4712.20 1101.21   3
  12  16  -4 1534.23 754.416   3
 -12  28  -4 4164.14 889.968   1
 -28  12  -4 3623.97 750.195   3
 -28  12  -4 5301.37 967.718   4
 -28  12  -4 6235.76 1160.91   2
 -16 -12  -4 4602.63 1090.99   4
  12  16  -4 4264.87 1152.07   1
 -16 -12  -4 3838.88 923.052   2
 -16 -12  -1-52.6822 842.749   2
  12  16  -1 1125.51 781.156   1
 -16 -12  -1-390.243 750.224   4
 -28  12  -1-1207.53 673.092   4
 -12  28  -1 780.417 721.875   1
 -28  12  -1-135.816 711.043   2
 -16 -12   2 3397.97 1161.99   2
 -12  28   2 3860.13 1071.63   1
 -16 -12   2 3169.03 1007.55   4
  12  16   2 4209.74 1040.07   1
 -28  12   2 2730.58 848.566   4
 -28  12   2 1659.81 882.991   2
 -28  12   5 785.240 924.999   2
 -16 -12   5 661.672 1149.28   2
  12  16   5 1308.52 911.985   1
 -12  28   5 2696.07 1193.21   1
 -16 -12   5-497.996 951.533   4
 -28  12   5 1206.69 954.617   4
 -13  28  -5 3355.97 1172.41   3
  13  15  -5 597.581 741.350   3
 -28  13  -5 2277.31 895.902   3
 -13  28  -5 1943.70 723.868   1
 -28  13  -5 152.583 727.534   4
 -15 -13  -5 238.811 884.060   4
 -28  13  -5 291.092 782.875   2
 -15 -13  -5 1315.05 788.563   2
 -13  28  -2 5105.35 981.391   3
  13  15  -2 5527.40 1139.55   1
 -13  28  -2 7623.25 1107.78   1
 -15 -13  -2 5768.73 1037.12   4
 -28  13  -2 6157.84 890.671   4
 -28  13  -2 6524.95 1089.91   2
 -15 -13  -2 9083.30 1180.35   2
  13  15  -2 4660.98 801.406   3
 -15 -13   1 2408.34 980.342   2
  13  15   1 4098.81 1034.76   1
 -13  28   1 3377.14 1089.20   1
 -15 -13   1 1371.68 859.986   4
 -28  13   1 2284.06 763.772   4
 -28  13   1 1505.19 810.190   2
 -15 -13   4 6708.27 1600.89   2
 -13  28   4 8184.33 1438.37   1
  13  15   4 8495.16 1300.66   1
 -15 -13   4 11080.9 1535.38   4
 -28  13   4 6615.46 1204.06   4
 -28  13   4 8016.02 1349.33   2
 -14  28  -3 3084.69 947.839   3
  14  14  -3 974.365 625.073   3
 -28  14  -3 962.725 608.204   3
  14  14  -3 2275.66 1005.21   1
 -14 -14  -3 1796.07 818.035   4
 -28  14  -3 1433.21 666.310   4
 -28  14  -3 2252.58 862.152   2
 -14  28  -3 2998.54 815.292   1
 -14 -14  -3 1390.01 746.121   2
 -14 -14   0 2807.04 1004.95   2
 -14  28   0 2404.87 965.053   1
 -14 -14   0 2863.55 900.646   4
 -28  14   0 2324.67 737.706   4
  14  14   0 2492.28 921.966   1
 -28  14   0 3057.52 869.821   2
  14  14   3 3802.99 1053.82   1
 -14 -14   3 1563.34 1018.42   2
 -14  28   3 2637.96 1106.60   1
 -14 -14   3 1947.08 1036.91   4
 -28  14   3 2991.12 947.926   4
 -28  14   3 765.844 887.172   2
  15  13  -4 7656.61 961.168   3
 -28  15  -4 9106.40 1116.35   3
 -15  28  -4 10764.2 1155.75   1
 -28  15  -4 9084.37 1092.46   4
 -28  15  -4 8783.67 1193.26   2
 -13 -15  -4 5338.02 1076.70   4
 -13 -15  -4 8917.39 1131.41   2
 -15  28  -4 7074.45 1289.77   3
 -13 -15  -1 3144.16 932.881   2
 -28  15  -1 2160.96 499.748   3
  15  13  -1 2988.81 1011.35   1
 -15  28  -1 4562.94 1048.19   1
 -15  28  -1 2256.43 434.549   2
 -13 -15  -1 2192.09 854.396   4
 -28  15  -1 2488.86 716.010   4
 -28  15  -1 3085.10 844.539   2
 -15  28   2 8527.77 1365.07   1
 -13 -15   2 7323.06 1335.17   2
 -28  15   2 5470.08 1008.14   4
 -13 -15   2 5066.59 1078.96   4
  15  13   2 8560.03 1266.71   1
 -28  15   2 6452.25 1086.34   2
 -28  15   5 2316.55 1093.81   2
 -13 -15   5 991.981 1266.50   2
 -15  28   5 2058.76 1131.37   1
 -13 -15   5 1398.62 1078.22   4
 -28  15   5 1041.23 966.563   4
  15  13   5 3965.88 1080.00   1
 -16  28  -5 2131.08 1065.90   3
  16  12  -5 1058.51 688.876   3
 -28  16  -5 1437.03 880.068   3
 -28  16  -5 1003.50 702.355   4
 -12 -16  -5 1260.97 1011.71   4
 -28  16  -5-738.254 900.536   2
 -12 -16  -5 966.303 716.373   2
 -16  28  -2 3823.88 937.073   3
 -12 -16  -2 3124.72 903.836   2
  16  12  -2 3317.78 656.799   3
 -28  16  -2 4679.91 743.262   3
  16  12  -2 4567.20 1160.96   1
 -16  28  -2 4482.21 956.578   1
 -12 -16  -2 3845.95 916.923   4
 -28  16  -2 2630.32 711.295   4
 -28  16  -2 4193.19 964.058   2
 -12 -16   1-134.610 863.383   2
 -16  28   1 261.219 873.914   1
 -12 -16   1 867.462 787.251   4
 -28  16   1 8.98832 623.865   4
 -28  16   1-207.372 698.502   2
  16  12   1-734.822 822.569   1
 -28  16   4 2867.45 1049.44   2
 -12 -16   4 3919.67 1369.74   2
 -16  28   4 5200.12 1309.00   1
 -12 -16   4 3672.49 1065.48   4
  16  12   4 5101.88 1210.82   1
 -28  16   4 3673.44 1011.95   4
 -11 -17  -3 1751.92 743.333   2
 -17  28  -3 3122.25 910.017   3
  17  11  -3 874.686 568.107   3
 -28  17  -3 2566.30 758.714   3
 -11 -17  -3 2874.66 882.904   4
 -28  17  -3 2227.18 709.900   4
 -17  28  -3 4903.57 934.969   1
 -28  17  -3 131.219 688.738   2
 -11 -17   0 2981.27 965.901   2
 -28  17   0 2567.89 570.934   3
 -17  28   0 3785.23 1024.61   1
  17  11   0 4941.47 1166.00   1
 -11 -17   0 2248.10 897.130   4
 -28  17   0 1721.93 618.133   4
 -28  17   0 2446.16 820.090   2
 -17  28   3 7598.51 1389.15   1
  17  11   3 10444.2 1384.03   1
 -11 -17   3 6707.25 1412.08   2
 -11 -17   3 7090.59 1265.27   4
 -28  17   3 5833.99 1064.52   4
 -28  17   3 8071.06 1202.59   2
 -28  18  -4 5725.17 1002.21   3
 -18  28  -4 6105.17 958.448   1
 -28  18  -4 5513.55 913.873   4
 -10 -18  -4 4779.19 1011.30   4
 -28  18  -4 4599.08 945.652   2
 -10 -18  -4 5066.20 930.742   2
 -18  28  -4 6962.04 1216.25   3
  18  10  -1 7015.11 1335.80   1
 -18  28  -1 8382.08 1240.33   1
 -10 -18  -1 5860.79 1048.95   2
 -28  18  -1 4399.19 696.472   3
 -18  28  -1 6354.25 655.079   2
 -10 -18  -1 5967.77 966.395   4
 -28  18  -1 7886.65 1091.02   2
 -28  18  -1 6959.56 855.910   4
 -18  28  -1 7224.04 1039.45   3
  18  10  -1 6010.90 658.454   3
 -10 -18   2 3468.51 1177.76   2
  18  10   2 7446.90 1293.34   1
 -18  28   2 5924.96 1261.38   1
 -10 -18   2 3146.18 997.965   4
 -28  18   2 3955.57 864.203   4
 -28  18   2 2365.08 859.940   2
 -18  28   5 5925.02 1468.94   1
 -28  18   5 4628.44 1162.85   2
 -10 -18   5 5618.31 1445.98   2
  18  10   5 4352.53 1151.91   1
 -28  18   5 3727.12 1240.03   1
 -10 -18   5 5341.88 1329.27   4
 -28  18   5 4083.36 1121.02   4
 -19  28  -5 777.081 916.159   3
 -28  19  -5 2167.37 922.236   3
 -28  19  -5 2392.75 752.348   4
  -9 -19  -5 2108.83 920.661   4
 -28  19  -5 3296.20 970.069   2
 -28  19  -5 1338.71 753.575   1
 -19  28  -2 1905.73 798.291   3
  -9 -19  -2 897.849 773.985   2
 -28  19  -2 1978.82 688.992   3
 -19  28  -2 1352.15 778.684   1
 -19  28  -2 1447.17 556.425   2
  -9 -19  -2 1275.10 762.414   4
 -28  19  -2 534.735 526.333   4
 -28  19  -2 455.046 696.545   2
 -28  19   1 470.087 502.809   3
  -9 -19   1 2519.50 995.461   2
 -19  28   1 3271.06 989.082   1
  -9 -19   1 2759.17 867.963   4
 -28  19   1 1659.93 666.854   4
 -28  19   1 941.762 736.405   2
  19   9   1 3849.19 1012.15   1
  19   9   4 854.939 925.120   1
 -28  19   4 1296.43 876.324   2
 -19  28   4 1680.08 1094.77   1
  -9 -19   4 2056.84 1202.10   2
 -28  19   4 857.019 1145.98   1
  -9 -19   4 1485.24 1024.76   4
 -28  19   4 1813.93 939.165   4
 -28  20  -3 6989.00 1011.23   3
 -20  28  -3 9005.70 1160.61   1
 -20  28  -3 8640.20 981.462   2
 -28  20  -3 9189.74 1265.33   1
 -28  20  -3 5853.16 1056.39   2
  -8 -20  -3 7778.38 1098.33   4
 -28  20  -3 6995.39 849.970   4
  -8 -20  -3 6251.74 962.413   2
 -20  28  -3 7494.57 1198.23   3
 -28  20   0 2691.32 674.075   3
  -8 -20   0 2902.04 997.211   2
 -20  28   0 3490.71 1043.27   1
  20   8   0 3036.92 1032.71   1
 -28  20   0 4413.95 1168.38   1
  -8 -20   0 1613.03 774.177   4
 -20  28   0 1631.77 473.624   2
 -28  20   0 2344.58 697.945   4
 -28  20   0 3595.27 845.090   2
  -8 -20   3 12309.7 1639.98   2
  20   8   3 9483.50 1388.10   1
 -28  20   3 12076.7 1780.78   1
  -8 -20   3 10435.8 1367.68   4
 -28  20   3 7806.37 1129.03   4
 -28  20   3 11406.1 1341.94   2
 -20  28   3 12672.5 1682.11   1
 -21  28  -4 2609.08 945.065   3
 -28  21  -4 3169.87 1027.31   3
 -21  28  -4 2980.88 829.924   1
 -28  21  -4 5316.67 1012.00   1
  -7 -21  -4 955.903 784.508   4
 -28  21  -4 2261.68 672.873   4
 -28  21  -4 4159.48 936.610   2
 -21  28  -1 2589.58 830.473   3
 -28  21  -1 2079.35 684.361   3
  -7 -21  -1 3739.04 968.195   2
 -21  28  -1 2117.05 568.953   2
  -7 -21  -1 3800.75 901.643   4
 -28  21  -1 3223.43 1050.75   1
 -28  21  -1 1614.87 574.521   4
 -28  21  -1 3169.73 844.158   2
 -21  28  -1 5420.06 1096.84   1
  -7 -21   2 5252.09 1216.04   2
 -28  21   2 9704.50 1546.73   1
  -7 -21   2 5684.15 1078.15   4
 -28  21   2 5554.40 933.876   4
 -28  21   2 6778.74 1096.80   2
 -21  28   2 7611.28 1364.03   1
  21   7   2 6660.39 1290.30   1
 -28  21   2 3619.03 688.070   3
 -28  21   5 3883.52 1192.01   2
 -21  28   5 2507.53 1240.88   1
  -7 -21   5 6751.57 1531.22   2
  21   7   5 4093.58 1146.77   1
 -28  21   5 4231.49 1414.93   1
  -7 -21   5 2593.90 1112.22   4
 -28  21   5 3569.45 1057.34   4
 -22  28  -2 1267.27 873.903   3
 -28  22  -2 1418.32 664.403   3
  -6 -22  -2 1678.10 796.661   2
 -22  28  -2 2979.24 911.389   1
 -22  28  -2 1210.46 580.970   2
  -6 -22  -2 1267.99 703.852   4
 -28  22  -2 1699.81 721.198   2
 -28  22  -2 2216.01 877.986   1
 -28  22   1 751.642 523.799   3
 -22  28   1 1981.45 944.148   1
  -6 -22   1 3328.86 1073.71   2
  22   6   1 1768.03 965.256   1
 -28  22   1 1831.82 1043.98   1
  -6 -22   1 1952.82 807.041   4
 -28  22   1 1581.21 695.939   2
 -28  22   4 477.343 823.626   2
 -22  28   4 1952.30 1170.21   1
  22   6   4-465.586 931.276   1
  -6 -22   4 1232.26 1092.69   2
 -28  22   4 2604.20 1247.20   1
  -6 -22   4 2021.92 1033.38   4
 -23  28  -3 12480.9 1282.31   1
 -28  23  -3 10547.7 1338.03   3
 -23  28  -3 11873.2 1133.52   2
 -28  23  -3 12562.2 1319.24   2
  -5 -23  -3 10542.6 1189.42   4
 -28  23  -3 10736.4 1311.23   1
 -23  28  -3 8673.35 1227.00   3
 -23  28   0 3128.06 839.847   3
 -28  23   0 2438.27 708.396   3
 -23  28   0 3809.09 1089.04   1
  -5 -23   0 3337.80 951.554   2
  -5 -23   0 3919.62 875.417   4
 -28  23   0 4169.19 1145.68   1
 -23  28   0 3376.00 672.911   2
 -28  23   0 3943.33 831.562   2
  23   5   3 8211.76 1408.48   1
  -5 -23   3 8696.64 1534.96   2
 -28  23   3 10892.4 1632.83   1
  -5 -23   3 6807.99 1281.01   4
 -28  23   3 6775.15 1117.07   2
 -23  28   3 10115.8 1594.55   1
 -24  28  -4 6046.63 1177.28   3
 -28  24  -4 4955.00 1123.21   3
 -24  28  -4 5605.49 936.101   2
  -4 -24  -4 1644.60 862.366   4
 -28  24  -4 4212.84 1044.04   2
 -28  24  -4 4364.85 951.067   1
 -24  28  -1 1644.70 821.675   3
 -28  24  -1 2652.70 789.759   3
 -24  28  -1 3836.22 1037.18   1
  -4 -24  -1 2991.02 846.546   4
 -24  28  -1 3344.76 724.345   2
   4 -28  -1 1506.83 607.584   4
 -28  24  -1 2441.81 774.239   2
 -28  24  -1 2932.62 1021.16   1
 -28  24   2 2096.89 679.242   3
 -24  28   2 4079.81 1227.97   1
  -4 -24   2 1685.40 1053.34   2
  -4 -24   2 2742.77 955.209   4
 -28  24   2 2235.18 1183.76   1
   4 -28   2 1664.50 769.491   4
 -28  24   2 780.927 701.886   2
 -25  28  -2 2084.80 911.995   3
 -28  25  -2 805.533 680.414   3
 -25  28  -2 2893.66 937.349   1
  -3 -25  -2 580.468 701.795   4
 -25  28  -2 1733.34 705.058   2
   3 -28  -2 1583.35 653.076   4
 -28  25  -2 1489.42 665.020   2
 -28  25  -2 3108.74 985.031   1
 -25  28   1 20.3421 637.739   3
 -28  25   1 443.789 642.882   3
 -25  28   1-598.765 956.136   1
  -3 -25   1-47.0141 852.858   2
  -3 -25   1 303.477 718.562   4
   3 -28   1 592.103 690.611   4
 -28  25   1-227.180 910.124   1
 -28  25   1-284.742 635.502   2
 -25  28   1 16.5993 555.306   2
 -26  28   0 2072.21 773.190   3
 -28  26   0 1581.51 763.647   3
 -26  28   0 4737.21 1220.09   1
  -2 -26   0 2421.20 799.283   4
   2 -28   0 2062.73 745.702   4
 -26  28   0 2159.70 715.634   2
 -28  26   0 2694.29 773.990   2
 -28  26   0 5112.73 1194.53   1
 -27  28  -1 675.806 724.807   3
 -27  28  -1 969.426 1007.62   1
 -28  27  -1 745.672 757.130   3
  -1 -27  -1 963.706 672.296   4
   1 -28  -1 222.689 641.408   4
 -27  28  -1 1464.95 728.017   2
 -28  27  -1 851.962 650.492   2
 -28  27  -1 391.585 835.981   1
 -26  -3   1 790.190 1173.47   2
  -3  29   1 728.971 885.366   1
 -26  -3   1 1538.76 883.420   4
 -29   3   1 1318.59 904.177   4
   3  26   1-512.385 991.100   1
 -29   3   1 2184.19 1112.82   2
   4  25   0 137.337 880.394   1
  -4  29   0 1749.95 1029.27   1
 -25  -4   0 612.648 891.283   4
 -29   4   0 99.8303 797.120   4
 -29   4   0 721.006 926.356   2
 -25  -4   0 265.796 1075.73   2
  -5  29  -1 1410.73 904.542   1
   5  24  -1 1635.01 965.590   1
 -24  -5  -1-519.497 815.680   4
 -29   5  -1 988.045 879.330   4
 -29   5  -1 1413.99 918.587   2
 -24  -5  -1 826.535 891.335   2
 -24  -5   2 2967.26 1309.54   2
  -5  29   2 1298.28 967.746   1
 -24  -5   2 3311.83 1040.32   4
 -29   5   2 2482.86 1105.21   4
   5  24   2 2596.26 986.885   1
 -29   5   2 383.876 1033.92   2
   6  23  -2 3686.89 949.006   3
   6  23  -2 3712.66 1091.52   1
 -23  -6  -2 2881.47 900.322   4
 -29   6  -2 2438.24 842.950   4
 -29   6  -2 4357.27 1155.24   2
  -6  29  -2 6488.10 1199.79   1
 -23  -6  -2 3161.15 1104.69   2
  -6  29  -2 6053.64 1158.29   3
 -23  -6   1 1837.88 1064.50   2
  -6  29   1 1816.15 1034.85   1
   6  23   1 3291.82 1151.92   1
 -23  -6   1 3857.44 1059.43   4
 -29   6   1 2295.16 994.591   4
 -29   6   1 1218.54 881.174   2
  -7  29  -3 4878.97 1153.41   3
   7  22  -3 4493.16 1089.62   3
   7  22  -3 5716.16 1253.14   1
 -22  -7  -3 2391.82 1000.32   4
 -29   7  -3 4337.34 1009.62   4
 -29   7  -3 4631.18 1163.47   2
 -22  -7  -3 4491.25 1053.17   2
  -7  29  -3 7409.26 1180.33   1
  -7  29   0 3946.78 1112.99   1
   7  22   0 3342.76 1061.05   1
 -22  -7   0 2811.65 1038.56   4
 -29   7   0 1097.87 788.196   4
 -29   7   0 2914.37 994.838   2
 -22  -7   0 3834.55 1116.49   2
 -29   7   3 4832.73 1337.36   2
 -22  -7   3 4170.39 1396.28   2
   7  22   3 6702.95 1334.18   1
 -22  -7   3 6469.17 1363.52   4
 -29   7   3 3639.58 1128.93   4
  -7  29   3 6467.69 1308.91   1
  -8  29  -4 2242.20 962.326   3
   8  21  -4-453.138 805.895   3
   8  21  -4 1193.43 977.875   1
 -21  -8  -4 1659.24 914.678   4
 -29   8  -4 97.1143 752.968   4
 -29   8  -4 1464.75 1018.02   2
 -21  -8  -4 925.401 927.924   2
  -8  29  -4 1185.18 831.058   1
  -8  29  -1 932.273 848.808   1
 -21  -8  -1 441.428 805.616   4
 -29   8  -1 212.322 694.788   4
 -29   8  -1 1323.91 966.840   2
 -21  -8  -1 2173.44 1116.27   2
   8  21  -1 1370.76 916.964   1
 -21  -8   2 1822.14 1106.46   2
   8  21   2 636.465 983.391   1
 -21  -8   2 538.038 894.377   4
 -29   8   2 1489.97 821.664   4
  -8  29   2 716.537 883.540   1
 -29   8   2 2119.62 1000.26   2
  -9  29  -2 5912.75 1057.68   1
 -20  -9  -2 9081.92 1234.63   4
 -29   9  -2 6847.37 1038.10   4
 -29   9  -2 5388.60 1098.57   2
   9  20  -2 7815.33 1327.84   1
 -20  -9  -2 5799.79 1139.29   2
  -9  29  -2 7729.58 1197.69   3
   9  20  -2 6069.32 1030.21   3
 -20  -9   1 3289.83 1103.88   2
   9  20   1 4229.07 1070.63   1
 -20  -9   1 2870.81 914.754   4
 -29   9   1 3444.45 1003.06   4
  -9  29   1 5684.29 1181.23   1
 -29   9   1 1935.05 974.081   2
 -29   9   4 2832.37 1179.46   2
   9  20   4 406.866 943.232   1
 -20  -9   4 1373.01 1212.85   2
  -9  29   4 2584.34 1088.38   1
 -20  -9   4 2177.59 1196.60   4
 -29   9   4 3464.63 1117.63   4
 -10  29  -3 3890.35 1085.70   3
  10  19  -3 1642.67 829.470   3
  10  19  -3 3379.99 1039.24   1
 -10  29  -3 3613.26 949.652   1
 -19 -10  -3 4747.44 1104.90   4
 -29  10  -3 2106.55 806.470   4
 -29  10  -3 3744.37 1006.93   2
 -19 -10  -3 1211.20 895.554   2
 -19 -10   0 2019.04 1094.35   2
 -19 -10   0 3675.78 997.118   4
 -29  10   0 3885.18 904.095   4
 -29  10   0 4245.25 1103.93   2
 -10  29   0 4691.18 1142.91   1
  10  19   0 3370.15 992.106   1
 -29  10   3 4961.04 1317.67   2
 -19 -10   3 3164.02 1210.45   2
  10  19   3 2119.93 1084.30   1
 -10  29   3 3205.86 1139.39   1
 -19 -10   3 2260.33 1108.24   4
 -29  10   3 1268.63 886.182   4
 -11  29  -4 848.676 859.955   3
  11  18  -4 333.389 786.532   3
  11  18  -4 376.875 1017.86   1
 -11  29  -4 982.517 771.947   1
 -18 -11  -4 1122.27 890.009   4
 -29  11  -4-22.2384 729.800   4
 -29  11  -4 2150.45 923.949   2
 -18 -11  -4-227.399 786.318   2
  11  18  -1 1424.14 899.893   1
 -18 -11  -1 1295.00 825.090   4
 -29  11  -1 110.070 663.150   4
 -29  11  -1 43.2035 767.009   2
 -11  29  -1 569.234 775.842   1
 -18 -11  -1 73.5376 804.010   2
 -18 -11   2-791.379 1038.27   2
  11  18   2 960.397 988.755   1
 -11  29   2-357.249 873.223   1
 -18 -11   2 716.567 819.864   4
 -29  11   2 1049.03 779.241   4
 -29  11   2 1453.84 906.512   2
 -29  11   5 120.138 980.371   2
  11  18   5 176.733 871.836   1
 -18 -11   5 279.409 1247.13   2
 -11  29   5 2360.86 1266.42   1
 -18 -11   5 2723.31 1305.18   4
 -29  11   5 3361.18 1227.09   4
 -12  29  -5 3984.19 1148.84   3
  12  17  -5 3401.20 1018.37   3
 -17 -12  -5 3040.83 1084.59   4
 -29  12  -5 4651.72 1052.99   4
 -29  12  -5 4898.90 1110.17   2
 -12  29  -5 4432.08 916.225   1
 -17 -12  -5 4965.67 1066.91   2
 -12  29  -2 2165.93 853.365   1
 -12  29  -2 8.31194 691.508   3
  12  17  -2 505.404 641.779   3
  12  17  -2-355.326 862.467   1
 -17 -12  -2 1429.15 782.751   4
 -29  12  -2 2579.01 766.502   4
 -29  12  -2-460.937 713.308   2
 -17 -12  -2 430.617 886.272   2
 -17 -12   1 4854.59 1237.71   2
  12  17   1 4152.51 1102.83   1
 -12  29   1 6597.29 1226.89   1
 -17 -12   1 2133.39 917.455   4
 -29  12   1 5469.16 1008.82   4
 -29  12   1 3597.63 999.845   2
 -29  12   4 372.163 981.165   2
 -17 -12   4 3518.71 1491.48   2
  12  17   4 2045.57 1051.83   1
 -12  29   4 1651.84 1028.57   1
 -17 -12   4 1846.70 1190.74   4
 -29  12   4 654.367 1020.56   4
 -13  29  -3 867.446 816.361   3
  13  16  -3 1307.43 692.278   3
  13  16  -3 848.595 889.014   1
 -13  29  -3 1062.64 794.557   1
 -16 -13  -3 664.740 737.722   4
 -29  13  -3 983.844 663.039   4
 -29  13  -3 70.1814 713.683   2
 -16 -13  -3 1050.23 829.168   2
 -16 -13   0 6643.94 1255.66   2
 -13  29   0 11206.8 1739.72   1
 -16 -13   0 7289.00 1184.26   4
 -29  13   0 6506.85 1020.52   4
 -29  13   0 6929.83 1136.65   2
  13  16   0 7312.39 1269.58   1
 -16 -13   3-739.773 1069.13   2
 -13  29   3 793.016 1021.95   1
  13  16   3-685.904 918.503   1
 -16 -13   3 614.180 903.006   4
 -29  13   3 16.7148 819.168   4
 -29  13   3 566.921 898.366   2
 -14  29  -4 634.348 913.292   3
  14  15  -4 173.402 685.479   3
 -14  29  -4 1104.87 752.508   1
 -29  14  -4 336.211 699.546   3
  14  15  -4 619.799 923.700   1
 -15 -14  -4-325.269 804.902   4
 -29  14  -4 1787.65 764.353   4
 -29  14  -4 827.947 796.219   2
 -15 -14  -4 39.7715 809.406   2
  14  15  -1 9357.68 1336.61   1
 -14  29  -1 10324.4 1308.74   1
 -15 -14  -1 6873.43 1088.04   4
 -29  14  -1 9182.10 1065.26   4
 -29  14  -1 8366.12 1185.28   2
 -15 -14  -1 7275.25 1186.51   2
 -15 -14   2 1480.45 1058.25   2
  14  15   2 1259.53 983.907   1
 -14  29   2 497.147 898.694   1
 -15 -14   2 1627.48 829.226   4
 -29  14   2-62.8954 745.745   4
 -29  14   2 785.891 784.801   2
 -29  14   5 1050.91 1074.52   2
 -15 -14   5-140.725 1112.04   2
 -14  29   5 2770.04 1220.40   1
  14  15   5 440.149 939.549   1
 -15 -14   5 1192.31 1173.29   4
 -29  14   5 1159.23 1019.25   4
 -15  29  -5 370.524 978.247   3
  15  14  -5 912.854 723.690   3
 -29  15  -5 1590.25 891.667   3
 -29  15  -5 2574.78 911.549   4
 -14 -15  -5 639.753 861.722   4
 -29  15  -5 2620.69 944.363   2
 -14 -15  -5 2161.18 905.900   2
 -14 -15  -2 416.603 790.320   2
 -15  29  -2 641.637 751.660   3
  15  14  -2 348.837 925.001   1
  15  14  -2-73.6991 553.339   3
 -14 -15  -2-27.1781 690.165   4
 -29  15  -2 498.480 604.294   4
 -15  29  -2 827.047 738.180   1
 -29  15  -2 150.899 746.414   2
  15  14   1 7407.68 1259.53   1
 -15  29   1 9674.28 1385.58   1
 -14 -15   1 6490.84 1145.10   4
 -29  15   1 7247.03 1078.17   4
 -29  15   1 8693.00 1230.76   2
 -14 -15   1 6706.04 1287.76   2
 -29  15   4-272.006 934.261   2
  15  14   4 394.347 883.039   1
 -14 -15   4 2634.68 1297.18   2
 -15  29   4 568.196 970.025   1
 -14 -15   4-600.246 997.549   4
 -29  15   4 294.633 853.346   4
 -16  29  -3 2271.26 916.145   3
  16  13  -3 201.333 577.562   3
 -29  16  -3-474.192 653.575   3
  16  13  -3 709.435 948.480   1
 -13 -16  -3 524.368 774.018   4
 -29  16  -3 9.15891 579.239   4
 -29  16  -3 222.081 781.940   2
 -16  29  -3 151.256 698.642   1
 -13 -16  -3-318.710 752.296   2
 -16  29   0 7569.11 1265.35   1
  16  13   0 8760.39 1377.37   1
 -29  16   0 6749.20 994.091   4
 -13 -16   0 5906.56 1052.95   4
 -29  16   0 4132.67 939.496   2
 -13 -16   0 7178.30 1272.63   2
 -13 -16   3 2239.83 1111.75   2
 -16  29   3 1190.26 969.043   1
  16  13   3 531.482 856.695   1
 -13 -16   3-809.347 919.094   4
 -29  16   3 2672.77 952.866   4
 -29  16   3 2277.41 1048.62   2
 -17  29  -4 4005.96 1063.94   3
 -29  17  -4 1044.53 738.321   3
 -12 -17  -4 1283.34 838.980   4
 -29  17  -4 1710.81 751.816   4
 -29  17  -4 3689.99 949.781   2
 -17  29  -4 1715.69 803.312   1
 -12 -17  -4 379.427 768.158   2
  17  12  -1 3326.53 669.233   3
 -17  29  -1 3170.64 878.882   3
 -12 -17  -1 3772.66 1001.87   2
  17  12  -1 4552.20 1140.99   1
 -17  29  -1 3157.93 987.665   1
 -12 -17  -1 6362.14 1084.58   4
 -29  17  -1 2682.53 710.182   4
 -29  17  -1 2872.13 942.480   2
 -12 -17   2 421.190 1079.34   2
 -17  29   2 1852.25 1015.90   1
 -12 -17   2 1924.09 988.365   4
 -29  17   2 1011.59 717.813   4
  17  12   2 2918.59 983.231   1
 -29  17   2-366.425 795.186   2
 -17  29   5 7726.14 1526.30   1
 -29  17   5 4630.43 1301.03   2
 -12 -17   5 8076.76 1642.55   2
  17  12   5 6723.32 1272.83   1
 -12 -17   5 3992.70 1284.15   4
 -29  17   5 4212.38 1146.14   4
 -18  29  -5 1579.87 982.769   3
 -29  18  -5 547.960 884.290   3
 -11 -18  -5 337.624 920.699   4
 -11 -18  -5 1429.47 844.337   2
 -18  29  -2 92.8347 716.892   3
  18  11  -2 570.343 499.181   3
 -11 -18  -2 669.039 841.325   2
 -29  18  -2 1802.83 682.070   3
  18  11  -2-110.235 880.380   1
 -18  29  -2 551.929 762.262   1
 -18  29  -2 901.240 514.687   2
 -11 -18  -2 1787.45 820.508   4
 -29  18  -2 754.987 603.326   4
 -29  18  -2 736.003 752.137   2
 -11 -18   1 633.220 995.058   2
 -18  29   1 1664.53 954.406   1
  18  11   1 585.534 843.094   1
 -11 -18   1 1994.02 858.601   4
 -29  18   1 1842.29 747.350   4
 -29  18   1 1705.64 858.075   2
 -29  18   4-267.019 856.797   2
 -11 -18   4 1527.49 1196.03   2
 -18  29   4 687.751 1125.21   1
  18  11   4-195.523 933.789   1
 -11 -18   4-123.446 977.268   4
 -29  18   4 1287.83 955.039   4
 -19  29  -3 2649.22 966.801   3
 -10 -19  -3 1823.08 833.460   2
 -29  19  -3 2658.79 850.248   3
 -19  29  -3 1990.54 819.204   1
 -10 -19  -3 1966.97 907.777   4
 -29  19  -3 2972.00 758.121   4
 -29  19  -3 2980.12 902.027   2
 -10 -19   0 2691.30 997.604   2
 -19  29   0 5530.27 1140.76   1
  19  10   0 4636.54 1169.69   1
 -10 -19   0 4152.02 952.027   4
 -29  19   0 2931.54 766.611   4
 -29  19   0 2318.43 860.025   2
  19  10   3 2086.79 963.257   1
 -19  29   3 5638.43 1334.26   1
 -10 -19   3 3112.40 1206.16   2
 -29  19   3 4146.18 1337.42   1
 -10 -19   3 2322.56 962.907   4
 -29  19   3 4560.82 975.121   4
 -29  19   3 4985.90 1082.69   2
 -20  29  -4 3300.58 1089.15   3
 -29  20  -4 1583.08 860.881   3
  -9 -20  -4 498.148 807.363   4
 -29  20  -4 833.819 660.360   4
 -29  20  -4 1758.33 891.903   2
 -20  29  -4 1526.82 822.220   1
 -29  20  -4 1892.33 901.396   1
 -20  29  -1 3986.96 869.585   3
 -29  20  -1 3280.46 763.763   3
  -9 -20  -1 1053.68 887.449   2
 -20  29  -1 5619.93 1091.30   1
 -29  20  -1 5796.78 1247.98   1
 -20  29  -1 3694.91 598.597   2
  -9 -20  -1 918.099 736.390   4
 -29  20  -1 3489.46 729.484   4
  20   9  -1 5682.82 1284.64   1
 -29  20  -1 2766.56 836.259   2
  -9 -20   2 10806.7 1538.62   2
 -29  20   2 9271.09 1562.51   1
  20   9   2 7710.72 1324.63   1
 -29  20   2 7111.04 1052.94   4
  -9 -20   2 3994.62 1064.44   4
 -29  20   2 7068.20 1160.42   2
 -20  29   2 9043.88 1463.47   1
 -21  29  -2 1374.86 888.847   3
  -8 -21  -2 475.024 838.678   2
 -29  21  -2 1475.48 730.506   3
 -21  29  -2 1235.87 825.856   1
 -21  29  -2 1245.89 590.478   2
  -8 -21  -2 1403.22 760.049   4
 -29  21  -2 1723.87 851.696   1
 -29  21  -2 939.531 591.186   4
 -29  21  -2 1712.19 811.111   2
  21   8   1-112.883 875.757   1
 -29  21   1 600.115 570.691   3
 -21  29   1 1682.40 914.475   1
  -8 -21   1-350.900 947.392   2
 -29  21   1 1740.60 1085.68   1
  -8 -21   1 946.379 895.018   4
 -29  21   1 1017.06 681.995   4
 -29  21   1 1622.11 720.501   2
 -29  21   4 2927.05 1040.75   2
 -21  29   4 623.152 1097.86   1
  -8 -21   4-910.609 1167.97   2
  21   8   4 1435.49 1006.31   1
 -29  21   4-535.479 1075.45   1
  -8 -21   4 1652.16 1062.59   4
 -29  21   4 466.025 836.151   4
 -29  22  -3 7458.49 1136.11   3
 -22  29  -3 5627.01 1039.80   1
 -22  29  -3 8031.07 988.919   2
 -29  22  -3 7248.92 1161.60   1
  -7 -22  -3 5452.60 1023.10   4
 -29  22  -3 4723.52 966.998   2
 -22  29  -3 6367.34 1188.63   3
 -22  29   0 3510.97 956.158   3
 -29  22   0 2272.76 693.384   3
 -22  29   0 4263.20 1116.83   1
  -7 -22   0 2408.26 994.776   2
 -29  22   0 4973.17 1407.99   1
  -7 -22   0 2995.48 908.614   4
 -29  22   0 4103.07 957.458   2
  -7 -22   3 5085.70 1363.15   2
  22   7   3 6788.85 1320.39   1
 -29  22   3 8106.08 1617.91   1
  -7 -22   3 5682.74 1172.81   4
 -22  29   3 7537.66 1516.36   1
 -29  22   3 4164.30 1003.06   2
 -23  29  -1 1848.31 776.697   3
 -29  23  -1 1918.15 736.716   3
 -23  29  -1 2884.58 1032.67   1
  -6 -23  -1 1878.92 871.322   2
  -6 -23  -1 3316.29 915.739   4
 -23  29  -1 3075.40 669.296   2
 -29  23  -1 4259.72 924.302   2
 -29  23  -1 3582.35 1057.43   1
 -29  23   2 2109.59 640.581   3
  23   6   2 2334.37 1037.40   1
 -23  29   2 4332.78 1238.14   1
  -6 -23   2 4184.95 1200.98   2
  -6 -23   2 2020.51 944.445   4
 -29  23   2 4506.76 998.417   2
 -24  29  -2 2283.46 1000.12   3
 -29  24  -2 4004.26 918.168   3
 -24  29  -2 4827.08 1086.08   1
 -24  29  -2 1921.07 669.654   2
  -5 -24  -2 1742.89 805.871   4
 -29  24  -2 2073.63 806.049   2
 -29  24  -2 3342.23 1004.99   1
 -29  24   1 176.687 604.853   3
 -24  29   1 253.798 943.204   1
  -5 -24   1-6.37777 931.513   2
  -5 -24   1 562.501 829.137   4
 -29  24   1 1109.28 1076.72   1
 -29  24   1 602.298 752.778   2
 -25  29   0 1059.78 811.990   3
 -29  25   0 226.821 635.848   3
 -25  29   0 70.6621 883.132   1
  -4 -25   0-532.309 732.391   4
 -25  29   0 31.4628 575.039   2
 -29  25   0 418.266 633.996   2
 -29  25   0 1724.72 1054.97   1
 -26  29  -1 1286.24 852.450   3
 -29  26  -1-81.6505 701.620   3
 -26  29  -1 1716.65 1017.37   1
  -3 -26  -1 324.797 704.363   4
 -26  29  -1 1707.53 700.612   2
 -29  26  -1 537.896 641.661   2
 -29  26  -1-233.966 836.211   1
  -6  30   0 2241.38 1042.23   1
   6  24   0 3717.28 1180.76   1
 -24  -6   0 2753.11 1024.14   4
 -30   6   0 2045.44 933.743   4
 -30   6   0 3580.49 1172.63   2
 -24  -6   0 3984.17 1223.88   2
  -7  30  -1 113.274 825.525   1
 -23  -7  -1 1138.03 951.378   4
 -30   7  -1 1513.60 835.152   4
   7  23  -1 525.535 888.162   1
 -30   7  -1-7.68546 835.778   2
 -23  -7  -1-677.970 971.763   2
  -7  30   2 446.745 955.474   1
 -23  -7   2 1745.30 1176.62   2
   7  23   2 360.679 940.229   1
 -23  -7   2 985.009 977.201   4
 -30   7   2-1296.48 935.903   4
 -30   7   2-1154.80 1140.65   2
  -8  30  -2 129.419 798.301   3
   8  22  -2 926.843 827.554   3
  -8  30  -2-67.0800 847.590   1
   8  22  -2 3004.27 1162.21   1
 -22  -8  -2 1774.98 968.419   4
 -30   8  -2 1076.73 817.354   4
 -30   8  -2 590.125 873.969   2
 -22  -8  -2 1457.68 947.674   2
 -22  -8   1 2606.48 1180.42   2
  -8  30   1 4112.42 1194.03   1
   8  22   1 1842.56 981.730   1
 -22  -8   1 3951.04 1087.95   4
 -30   8   1 4911.66 1101.92   4
 -30   8   1 1395.67 964.907   2
  -9  30  -3-95.7890 957.984   3
   9  21  -3 1809.04 879.503   3
  -9  30  -3 3345.74 1000.40   1
 -21  -9  -3 3214.08 1006.80   4
 -30   9  -3 486.955 727.204   4
 -30   9  -3 1621.50 1001.00   2
 -21  -9  -3 567.565 869.692   2
   9  21  -3 2754.29 1039.03   1
 -21  -9   0 4676.06 1234.05   2
  -9  30   0 4741.73 1142.15   1
 -21  -9   0 5849.18 1151.66   4
 -30   9   0 4637.34 980.954   4
   9  21   0 1548.12 1050.54   1
 -30   9   0 2710.03 1065.82   2
 -30   9   3 3193.78 1299.93   2
 -21  -9   3 488.396 1248.54   2
   9  21   3 2017.05 1035.46   1
 -21  -9   3 2382.22 1205.64   4
 -30   9   3 1463.90 1088.92   4
  -9  30   3 317.901 954.035   1
 -10  30  -1-1127.64 849.715   1
  10  20  -1 2090.44 1050.27   1
 -20 -10  -1 378.543 753.828   4
 -30  10  -1 0.84119 652.975   4
 -30  10  -1 679.129 785.318   2
 -20 -10  -1-308.031 926.955   2
 -20 -10   2 613.440 1036.78   2
  10  20   2 837.764 903.424   1
 -20 -10   2 608.847 935.913   4
 -30  10   2 1557.10 955.810   4
 -10  30   2 1060.15 1006.29   1
 -30  10   2 374.018 956.087   2
 -11  30  -2 1584.37 829.659   3
  11  19  -2 604.285 721.682   3
 -11  30  -2 2548.59 1012.29   1
 -19 -11  -2 1208.95 861.102   4
 -30  11  -2 1889.57 821.004   4
 -30  11  -2 2558.45 1018.17   2
  11  19  -2 1098.99 966.031   1
 -19 -11  -2 1638.79 931.827   2
 -19 -11   1 5161.12 1241.86   2
  11  19   1 7168.27 1300.00   1
 -19 -11   1 7685.11 1288.84   4
 -30  11   1 5053.86 1027.32   4
 -30  11   1 5879.37 1224.81   2
 -30  11   4 4750.93 1253.37   2
 -19 -11   4 6837.28 1593.60   2
  11  19   4 2368.36 1116.01   1
 -11  30   4 7307.92 1455.24   1
 -19 -11   4 2721.80 1163.16   4
 -30  11   4 2953.26 1130.17   4
 -12  30  -3 4910.79 1151.97   3
  12  18  -3 1875.06 834.970   3
 -12  30  -3 4306.50 1010.47   1
  12  18  -3 5146.04 1229.78   1
 -18 -12  -3 4109.12 1053.61   4
 -30  12  -3 3681.44 908.612   4
 -30  12  -3 1835.44 988.506   2
 -18 -12  -3 2981.44 1004.22   2
 -18 -12   0 673.069 1014.45   2
  12  18   0 4301.31 1190.92   1
 -18 -12   0 2950.70 932.316   4
 -30  12   0 2441.19 838.661   4
 -12  30   0 2812.00 1014.13   1
 -30  12   0 3985.26 1027.27   2
 -30  12   3 3662.16 1163.40   2
 -18 -12   3 4953.99 1393.04   2
 -12  30   3 6759.96 1409.01   1
  12  18   3 3916.60 1201.42   1
 -18 -12   3 2374.32 1072.57   4
 -30  12   3 987.064 900.562   4
 -13  30  -4 2850.12 1007.68   3
  13  17  -4 1254.54 767.945   3
  13  17  -4 3079.72 1156.03   1
 -13  30  -4 2704.83 869.553   1
 -17 -13  -4 2919.36 1022.21   4
 -30  13  -4 1790.82 863.915   4
 -30  13  -4 4638.87 1071.98   2
 -17 -13  -4 2354.20 949.643   2
 -17 -13  -1 2194.38 989.787   2
 -17 -13  -1 3882.90 959.320   4
 -30  13  -1 5583.17 956.236   4
 -30  13  -1 3326.26 1027.10   2
  13  17  -1 4260.79 1112.12   1
 -13  30  -1 4337.23 1061.29   1
  13  17   2 5308.46 1200.22   1
 -17 -13   2 5668.85 1352.74   2
 -13  30   2 8426.01 1423.49   1
 -17 -13   2 5022.12 1174.08   4
 -30  13   2 4610.57 1031.92   4
 -30  13   2 3320.59 1078.72   2
 -16 -14  -2 4331.52 1083.04   2
 -14  30  -2 4062.33 956.919   3
  14  16  -2 1634.64 748.149   3
 -14  30  -2 5360.06 1112.34   1
  14  16  -2 5326.34 1206.94   1
 -16 -14  -2 2855.25 940.381   4
 -30  14  -2 3077.50 844.512   4
 -30  14  -2 2835.53 893.391   2
 -16 -14   1 1155.89 1001.16   2
  14  16   1 1097.79 909.785   1
 -14  30   1 1105.34 927.137   1
 -16 -14   1 684.912 876.557   4
 -30  14   1 1466.09 830.914   4
 -30  14   1-824.546 824.871   2
 -30  14   4 5267.61 1340.24   2
 -14  30   4 7094.16 1491.27   1
 -16 -14   4 6652.68 1612.02   2
 -16 -14   4 4433.98 1233.92   4
 -30  14   4 6442.84 1286.49   4
  14  16   4 5268.33 1292.00   1
 -15  30  -3 5865.33 1143.99   3
 -15  30  -3 10316.5 1265.76   1
 -15 -15  -3 6108.68 1185.95   4
 -30  15  -3 5911.61 955.535   4
 -30  15  -3 5475.04 1097.56   2
  15  15  -3 7059.80 1352.81   1
 -15 -15  -3 4349.05 1087.15   2
  15  15  -3 7133.34 983.979   3
 -15 -15   0 45.6599 956.869   2
 -15  30   0 1786.98 922.989   1
 -15 -15   0 1175.32 891.854   4
 -30  15   0 536.137 668.677   4
 -30  15   0 946.614 800.195   2
  15  15   0 161.663 883.509   1
 -15 -15   3 5252.37 1386.78   2
 -30  15   3 6747.56 1264.29   4
 -15 -15   3 4705.72 1153.81   4
  15  15   3 7409.97 1365.20   1
 -30  15   3 6733.73 1290.18   2
 -16  30  -4 5563.37 1211.37   3
  16  14  -4 3578.49 862.342   3
 -16  30  -4 6069.88 1057.72   1
 -30  16  -4 7253.29 1073.28   4
 -14 -16  -4 6491.88 1170.89   4
 -30  16  -4 6103.01 1166.76   2
 -14 -16  -4 5332.56 1039.82   2
 -16  30  -1-536.656 806.688   3
 -14 -16  -1 674.845 815.483   2
  16  14  -1 258.433 911.463   1
 -16  30  -1 1078.18 822.455   1
 -14 -16  -1 1102.40 790.738   4
 -30  16  -1 1586.19 728.292   4
 -30  16  -1 2052.27 907.039   2
 -14 -16   2 6128.17 1359.21   2
 -16  30   2 4346.50 1258.09   1
  16  14   2 4194.45 1147.64   1
 -14 -16   2 3016.33 1027.52   4
 -30  16   2 1844.80 835.153   4
 -30  16   2 4510.81 1070.72   2
 -13 -17  -2 4920.70 1115.84   2
 -17  30  -2 7764.95 1183.26   1
 -30  17  -2 5273.31 909.457   4
 -30  17  -2 7134.35 1166.69   2
 -13 -17  -2 3262.33 937.675   4
  17  13  -2 5600.34 1287.35   1
 -17  30  -2 6055.62 1163.76   3
  17  13  -2 4630.82 776.379   3
  17  13   1 4435.11 1121.91   1
 -13 -17   1 3766.06 1213.93   2
 -17  30   1 3826.08 1051.58   1
 -13 -17   1 2196.81 904.442   4
 -30  17   1 2936.90 835.451   4
 -30  17   1 1367.38 814.061   2
 -30  17   4 2615.27 1044.79   2
 -13 -17   4-347.518 1145.49   2
 -17  30   4 4017.24 1312.88   1
  17  13   4 1964.09 1044.66   1
 -13 -17   4 1691.33 1111.19   4
 -30  17   4 3500.90 1143.81   4
 -12 -18  -3 3842.01 965.315   2
 -18  30  -3 4076.40 1146.60   3
 -30  18  -3 4484.58 839.123   4
 -12 -18  -3 2765.46 905.795   4
 -30  18  -3 4445.22 1006.71   2
 -18  30  -3 5037.55 1024.13   1
 -12 -18   0 4229.23 1133.73   2
 -18  30   0 2469.39 980.416   1
 -12 -18   0 1880.32 865.334   4
 -30  18   0 3218.23 802.444   4
  18  12   0 6106.76 1302.32   1
 -30  18   0 3255.08 909.645   2
 -12 -18   3 5662.58 1480.59   2
 -18  30   3 6171.13 1384.87   1
 -12 -18   3 3157.28 1188.62   4
 -30  18   3 3534.35 996.342   4
  18  12   3 3923.46 1084.50   1
 -30  18   3 4090.73 1113.81   2
 -11 -19  -4 4424.27 1028.59   2
 -19  30  -4 4051.54 1092.20   3
 -30  19  -4 3919.81 1050.61   3
 -11 -19  -4 3855.22 1062.26   4
 -30  19  -4 3859.28 1037.74   2
 -19  30  -4 5197.78 990.666   1
 -19  30  -1 5191.83 978.912   3
 -19  30  -1 7357.17 1251.73   1
  19  11  -1 6682.01 1313.55   1
 -30  19  -1 4944.61 867.073   4
 -30  19  -1 8050.84 1166.38   2
 -11 -19  -1 3990.66 967.077   4
 -11 -19  -1 6677.31 1233.86   2
 -11 -19   2 1270.45 1095.71   2
  19  11   2 1320.28 991.755   1
 -19  30   2 2839.78 1110.82   1
 -11 -19   2 924.578 859.058   4
 -30  19   2 1616.69 809.376   4
 -30  19   2-20.3466 822.911   2
 -20  30  -2 210.047 809.307   3
 -10 -20  -2 16.4632 818.195   2
 -30  20  -2-741.794 692.247   3
 -20  30  -2 589.877 778.314   1
 -20  30  -2 705.319 573.295   2
 -10 -20  -2 648.408 777.750   4
 -30  20  -2 214.160 565.649   4
 -30  20  -2-513.118 735.661   2
  20  10   1 627.529 909.733   1
 -10 -20   1-510.739 973.666   2
 -20  30   1-22.2460 840.847   1
 -10 -20   1 682.747 860.952   4
 -30  20   1 539.519 710.034   4
 -30  20   1 390.627 696.725   2
 -21  30  -3 833.198 932.654   3
 -30  21  -3 1201.31 786.717   3
 -21  30  -3 2471.99 875.968   1
 -21  30  -3 2459.03 721.728   2
  -9 -21  -3 1005.37 776.668   4
 -30  21  -3 1613.91 842.124   1
 -30  21  -3 394.092 819.876   2
 -21  30   0 4854.33 1004.54   3
  -9 -21   0 4460.79 1144.41   2
  21   9   0 5570.21 1276.42   1
 -21  30   0 4983.43 1176.88   1
 -30  21   0 5559.48 1310.18   1
  -9 -21   0 3989.28 1031.25   4
 -30  21   0 2484.19 738.388   4
 -30  21   0 3272.74 957.583   2
 -21  30   3 3537.43 1164.14   1
  -9 -21   3 3639.08 1244.99   2
 -30  21   3 1056.14 1169.74   1
  21   9   3 2192.23 991.546   1
  -9 -21   3 1301.26 986.129   4
 -30  21   3 2345.49 979.848   2
 -22  30  -1 2960.09 929.490   3
 -30  22  -1 2044.37 745.285   3
  -8 -22  -1 3059.67 1037.19   2
 -22  30  -1 4404.30 1122.44   1
  -8 -22  -1 2533.61 892.847   4
 -30  22  -1 5313.82 1254.40   1
 -30  22  -1 4743.90 998.567   2
 -22  30   2 2400.46 1064.00   1
  -8 -22   2 677.232 1079.15   2
 -30  22   2 2118.67 1244.42   1
  -8 -22   2 1033.31 975.903   4
  22   8   2 2134.89 1087.36   1
 -30  22   2 1058.27 871.078   2
 -23  30  -2 1203.43 817.209   3
 -30  23  -2 499.344 689.268   3
 -23  30  -2 1037.27 876.298   1
 -23  30  -2 1011.55 611.709   2
  -7 -23  -2 201.902 735.154   4
 -30  23  -2 754.555 732.617   2
 -30  23  -2 1639.41 925.269   1
 -23  30   1 550.400 874.266   1
  -7 -23   1 1327.83 1033.68   2
 -30  23   1 3165.55 1198.42   1
  -7 -23   1 705.272 810.343   4
 -30  23   1 680.865 706.461   2
 -24  30   0 1641.02 810.334   3
 -30  24   0 2647.92 832.753   3
 -24  30   0 2314.60 1098.90   1
  -6 -24   0 3368.22 950.324   4
 -30  24   0 4195.94 1204.50   1
 -30  24   0 2759.75 867.729   2
 -23  -8   0 5168.77 1366.04   2
  -8  31   0 4548.71 1163.53   1
 -23  -8   0 2281.56 1032.43   4
 -31   8   0 3164.03 958.041   4
   8  23   0 2713.83 980.951   1
 -31   8   0 4346.62 1285.33   2
  -9  31  -1 677.267 899.567   1
   9  22  -1-1086.17 1065.80   1
 -22  -9  -1 664.919 918.589   4
 -31   9  -1-1090.14 770.989   4
 -31   9  -1-45.6718 802.497   2
 -22  -9  -1 291.664 916.747   2
 -10  31  -2 5490.65 1168.38   3
  10  21  -2 3232.49 960.312   3
 -21 -10  -2 5239.37 1200.77   4
  10  21  -2 4247.52 1204.02   1
 -31  10  -2 4313.08 959.003   4
 -10  31  -2 8506.08 1300.68   1
 -31  10  -2 2687.59 980.803   2
 -21 -10  -2 1306.68 968.170   2
 -21 -10   1 2424.07 1203.94   2
 -21 -10   1 851.397 912.114   4
  10  21   1 219.135 1004.33   1
 -31  10   1 2432.09 942.297   4
 -31  10   1 1756.51 1026.16   2
 -10  31   1 2405.69 1166.39   1
 -20 -11   0 2329.01 1158.47   2
  11  20   0 3092.98 1140.44   1
 -11  31   0 5838.19 1266.12   1
 -20 -11   0 1505.78 1058.87   4
 -31  11   0 3799.98 926.653   4
 -31  11   0 3736.61 1096.37   2
 -19 -12  -1 22.7221 939.777   2
  12  19  -1-934.320 891.710   1
 -19 -12  -1 1349.32 900.999   4
 -31  12  -1-647.597 726.281   4
 -31  12  -1-370.080 879.658   2
 -12  31  -1 1062.57 853.876   1
 -19 -12   2 1572.26 1141.25   2
 -19 -12   2 431.242 857.530   4
 -12  31   2 1188.43 1041.30   1
 -31  12   2 1108.54 897.353   4
  12  19   2 1717.24 1066.93   1
 -31  12   2 648.504 935.408   2
 -13  31  -2 5584.19 1082.73   3
 -13  31  -2 4946.98 1105.91   1
  13  18  -2 6118.54 1263.21   1
 -18 -13  -2 7393.77 1211.78   4
 -31  13  -2 6615.21 1234.77   2
 -31  13  -2 4162.81 946.080   4
  13  18  -2 5927.98 976.588   3
 -18 -13  -2 6050.76 1211.87   2
 -18 -13   1 3822.72 1258.10   2
  13  18   1 2074.66 1024.44   1
 -18 -13   1 1801.45 936.547   4
 -13  31   1 3687.21 1164.25   1
 -31  13   1 3841.79 995.936   4
 -31  13   1 1735.11 977.178   2
 -14  31  -3 2158.54 990.785   3
  14  17  -3 375.269 732.290   3
 -14  31  -3 2992.27 927.191   1
  14  17  -3 3292.01 1253.91   1
 -17 -14  -3 1412.77 903.075   4
 -31  14  -3 1936.98 779.973   4
 -31  14  -3 4467.80 1091.44   2
 -17 -14  -3 1539.04 950.345   2
 -17 -14   0 2793.93 1158.63   2
 -17 -14   0 4345.72 1073.84   4
  14  17   0 3816.42 1097.88   1
 -31  14   0 3359.25 956.865   4
 -14  31   0 2913.23 1048.31   1
 -31  14   0 1805.63 877.905   2
 -31  14   3 3809.24 1166.48   2
  14  17   3 3949.48 1286.13   1
 -17 -14   3 2687.80 1285.67   2
 -14  31   3 3257.64 1328.70   1
 -17 -14   3 4818.96 1227.04   4
 -31  14   3 3673.43 1155.13   4
 -15  31  -1 1149.72 810.167   3
 -16 -15  -1 165.091 954.570   2
  15  16  -1 1806.04 1061.62   1
 -16 -15  -1 1739.07 870.932   4
 -31  15  -1 103.090 661.152   4
 -15  31  -1 2140.35 929.026   1
 -31  15  -1 2883.58 997.579   2
 -16 -15   2 2510.76 1228.35   2
  15  16   2 5279.27 1235.93   1
 -15  31   2 5830.60 1358.22   1
 -16 -15   2 7111.09 1245.51   4
 -31  15   2 3925.87 1069.08   4
 -31  15   2 4558.71 1190.75   2
 -16  31  -2 5080.73 1074.24   3
 -15 -16  -2 4543.58 1163.76   2
  16  15  -2 3119.12 788.747   3
  16  15  -2 4596.49 1247.09   1
 -16  31  -2 7998.82 1191.88   1
 -31  16  -2 6983.36 1178.49   2
 -15 -16  -2 4365.42 1089.65   4
 -31  16  -2 4298.71 900.107   4
 -15 -16   1 727.218 1020.37   2
 -16  31   1 485.823 920.190   1
 -15 -16   1-961.919 888.694   4
 -31  16   1 209.011 732.681   4
  16  15   1 1777.79 1003.32   1
 -31  16   1 1036.30 871.166   2
 -14 -17  -3 2556.99 1019.23   2
 -17  31  -3 822.879 1086.75   3
  17  14  -3 1323.19 1042.53   1
 -14 -17  -3 4008.93 1062.60   4
 -31  17  -3 1353.11 747.615   4
 -31  17  -3 2763.59 972.979   2
 -17  31  -3 3509.52 986.279   1
 -14 -17   0 1926.94 1085.56   2
  17  14   0 3361.70 1128.55   1
 -17  31   0 3959.08 1070.61   1
 -14 -17   0 1176.91 884.967   4
 -31  17   0 2423.63 814.315   4
 -31  17   0 1668.06 869.940   2
 -14 -17   3 1063.19 1231.59   2
 -17  31   3 2175.59 1094.51   1
  17  14   3 2012.46 1072.43   1
 -14 -17   3 3053.20 1125.91   4
 -31  17   3 1242.01 995.945   4
 -31  17   3 649.866 929.744   2
 -18  31  -1 3223.23 1021.05   3
  18  13  -1 1939.49 650.031   3
 -13 -18  -1-123.978 922.426   2
  18  13  -1 3485.28 1143.23   1
 -18  31  -1 2659.49 962.614   1
 -13 -18  -1 2227.74 929.747   4
 -31  18  -1 861.885 658.384   4
 -31  18  -1 1987.24 920.094   2
  18  13   2 6830.45 1352.16   1
 -18  31   2 7308.85 1512.62   1
 -13 -18   2 7402.79 1489.78   2
 -13 -18   2 6098.22 1306.18   4
 -31  18   2 5433.80 1115.83   4
 -31  18   2 5137.57 1078.11   2
 -19  31  -2 1855.03 856.937   3
 -12 -19  -2 1582.65 990.922   2
  19  12  -2 2043.16 1047.73   1
 -19  31  -2 2409.61 976.074   1
 -12 -19  -2 683.484 814.943   4
 -31  19  -2 1077.42 722.702   4
 -31  19  -2 2187.50 893.598   2
 -12 -19   1 592.627 1033.13   2
 -19  31   1 1967.78 1073.19   1
  19  12   1 2127.55 1097.08   1
 -12 -19   1-256.835 786.544   4
 -31  19   1 293.542 705.747   4
 -31  19   1 1281.81 861.092   2
 -11 -20   0 1796.67 1012.59   2
 -20  31   0 4787.68 1154.12   1
 -11 -20   0 2807.10 933.773   4
  20  11   0 3276.12 1193.51   1
 -31  20   0 2569.45 815.799   4
 -31  20   0 2399.63 880.663   2
 -21  31  -1 2407.82 916.560   3
 -10 -21  -1 1785.68 1069.68   2
 -21  31  -1 2709.91 1091.04   1
 -31  21  -1 2007.93 1050.01   1
 -10 -21  -1 1722.17 965.877   4
 -31  21  -1 2622.06 951.302   2
  21  10   2 4365.79 1216.38   1
 -10 -21   2 3613.98 1282.27   2
 -21  31   2 4726.84 1293.64   1
 -31  21   2 7140.82 1523.06   1
 -10 -21   2 3347.99 1161.20   4
 -31  21   2 5885.39 1152.50   2
  -9 -22   1 233.011 1023.38   2
 -22  31   1 2504.14 1063.21   1
  22   9   1 103.065 945.294   1
 -31  22   1 830.161 1106.94   1
  -9 -22   1 697.453 923.069   4
 -31  22   1 1419.32 859.363   2
 -23  31   0 1979.64 884.271   3
  -8 -23   0 2974.39 1084.82   2
 -23  31   0 3706.80 1234.65   1
  -8 -23   0 2709.81 1012.60   4
 -31  23   0 3959.96 1311.89   1
 -31  23   0 3447.35 961.588   2
 -19 -13   0 4170.18 1257.96   2
  13  19   0 5751.16 1274.71   1
 -19 -13   0 1467.25 964.352   4
 -32  13   0 5825.75 1290.47   2
 -13  32   0 4594.58 1226.09   1
 -18 -14  -1 3248.94 1229.17   2
  14  18  -1 2374.59 1087.40   1
 -18 -14  -1 1831.81 906.945   4
 -32  14  -1 3833.83 1091.87   2
 -17 -15   1 4646.58 1339.21   2
  15  17   1 4473.64 1199.64   1
 -15  32   1 2985.36 1083.17   1
 -17 -15   1 3054.40 1094.90   4
 -32  15   1 4105.25 1054.52   4
 -32  15   1 3822.44 1170.26   2
 -16 -16   0 1088.23 1080.77   2
  16  16   0 712.670 944.340   1
 -16  32   0 3502.05 1136.80   1
 -16 -16   0 2560.85 1081.55   4
 -32  16   0 2285.38 862.708   4
 -32  16   0 1935.35 1016.33   2
 -17  32  -1 2887.55 964.513   3
  17  15  -1 1912.37 696.380   3
 -15 -17  -1 3770.91 1211.47   2
 -17  32  -1 5735.46 1247.19   1
 -15 -17  -1 2512.35 945.916   4
 -32  17  -1 3289.08 888.288   4
 -32  17  -1 2325.41 935.079   2
  17  15  -1 3791.90 1232.78   1
 -14 -18   1 971.689 1086.68   2
  18  14   1 1789.25 1180.93   1
 -18  32   1 2875.55 1157.23   1
 -14 -18   1 1911.22 1012.45   4
 -32  18   1 650.265 873.086   2
 -13 -19   0 2116.03 1125.24   2
  19  13   0 6474.30 1365.99   1
 -19  32   0 6880.80 1303.93   1
 -13 -19   0 2492.25 974.643   4
 -32  19   0 4108.13 1041.52   2
   0   0   0    0.00    0.00   0

TITL YY_Zn_Gly_Pyr_THF in R3c
REM R3c (#161 in standard setting)
CELL 0.71073  27.047101  27.047101  10.149466  90.0000  90.0000 120.0000
ZERR   18.00   0.001092   0.001092   0.000357   0.0000   0.0000   0.0000
LATT -3
SYMM -y, x-y, z
SYMM -x+y,-x, z
SYMM -y,-x, z+1/2
SYMM -x+y, y, z+1/2
SYMM  x, x-y, z+1/2
SFAC C H N O Zn
UNIT 108.00 144.00 54.00 54.00 18.00
TREF
HKLF 4
END
;
_shelx_hkl_checksum              5716
_olex2_submission_special_instructions 'No special instructions were received'
_oxdiff_exptl_absorpt_empirical_details
;
Empirical correction (ABSPACK) includes:
- Absorption correction using spherical harmonics
- Frame scaling
;
_oxdiff_exptl_absorpt_empirical_full_max 1.429
_oxdiff_exptl_absorpt_empirical_full_min 0.730
loop_
_space_group_symop_operation_xyz
'x, y, z'
'-y, x-y, z'
'-x+y, -x, z'
'-x+y, y, z+1/2'
'x, x-y, z+1/2'
'-y, -x, z+1/2'
'x+2/3, y+1/3, z+1/3'
'-y+2/3, x-y+1/3, z+1/3'
'-x+y+2/3, -x+1/3, z+1/3'
'-x+y+2/3, y+1/3, z+5/6'
'x+2/3, x-y+1/3, z+5/6'
'-y+2/3, -x+1/3, z+5/6'
'x+1/3, y+2/3, z+2/3'
'-y+1/3, x-y+2/3, z+2/3'
'-x+y+1/3, -x+2/3, z+2/3'
'-x+y+1/3, y+2/3, z+7/6'
'x+1/3, x-y+2/3, z+7/6'
'-y+1/3, -x+2/3, z+7/6'
loop_
_atom_site_label
_atom_site_type_symbol
_atom_site_fract_x
_atom_site_fract_y
_atom_site_fract_z
_atom_site_U_iso_or_equiv
_atom_site_adp_type
_atom_site_occupancy
_atom_site_site_symmetry_order
_atom_site_calc_flag
_atom_site_refinement_flags_posn
_atom_site_refinement_flags_adp
_atom_site_refinement_flags_occupancy
_atom_site_disorder_assembly
_atom_site_disorder_group
Zn1 Zn 0.64760(4) 0.67461(4) 0.51904(10) 0.0263(3) Uani 1 1 d . U . . .
N1 N 0.5952(4) 0.6448(4) 0.6706(7) 0.0308(8) Uani 1 1 d . . . . .
O2 O 0.5980(3) 0.6768(3) 0.3794(6) 0.0308(8) Uani 1 1 d . U . . .
O1 O 0.4460(3) 0.5543(3) 0.4554(6) 0.0359(14) Uani 1 1 d . U . . .
N3 N 0.4633(4) 0.5817(4) 0.2428(8) 0.0302(19) Uani 1 1 d . . . . .
H3 H 0.4529 0.5730 0.1600 0.036 Uiso 1 1 calc R . . . .
N2 N 0.6842(4) 0.6293(4) 0.4654(8) 0.0308(8) Uani 1 1 d . . . . .
O3 O 0.7062(3) 0.7550(3) 0.5412(6) 0.0308(8) Uani 1 1 d . . . . .
C4 C 0.4382(5) 0.5418(5) 0.3362(9) 0.0359(14) Uani 1 1 d . U . . .
C6 C 0.5642(4) 0.6443(4) 0.2898(9) 0.028(2) Uani 1 1 d . . . . .
C1 C 0.5398(4) 0.6150(4) 0.6666(9) 0.028(2) Uani 1 1 d . . . . .
H1 H 0.5176 0.6057 0.5883 0.034 Uiso 1 1 calc R . . . .
C5 C 0.5069(4) 0.6385(4) 0.2756(9) 0.032(2) Uani 1 1 d . . . . .
H5A H 0.4966 0.6499 0.3593 0.038 Uiso 1 1 calc R . . . .
H5B H 0.5086 0.6650 0.2061 0.038 Uiso 1 1 calc R . . . .
C3 C 0.4014(4) 0.4828(4) 0.2931(9) 0.029(2) Uani 1 1 d . . . . .
C2 C 0.7112(4) 0.6101(4) 0.5386(9) 0.030(2) Uani 1 1 d . . . . .
H2 H 0.7141 0.6128 0.6319 0.036 Uiso 1 1 calc R . . . .
O4 O 0.6007(5) 0.4895(6) 0.6998(11) 0.057(4) Uani 0.731(18) 1 d . . P . .
C8 C 0.5417(8) 0.4844(8) 0.523(2) 0.059(5) Uani 0.731(18) 1 d . . P . .
H8A H 0.5529 0.5232 0.4908 0.070 Uiso 0.731(18) 1 calc R . P . .
H8B H 0.5026 0.4572 0.4927 0.070 Uiso 0.731(18) 1 calc R . P . .
C9 C 0.5854(7) 0.4656(7) 0.4771(16) 0.047(4) Uani 0.731(18) 1 d . . P . .
H9A H 0.5659 0.4295 0.4263 0.057 Uiso 0.731(18) 1 calc R . P . .
H9B H 0.6159 0.4954 0.4220 0.057 Uiso 0.731(18) 1 calc R . P . .
C7 C 0.5463(10) 0.4834(10) 0.6683(18) 0.066(6) Uani 0.731(18) 1 d . . P . .
H7A H 0.5429 0.5151 0.7078 0.079 Uiso 0.731(18) 1 calc R . P . .
H7B H 0.5152 0.4470 0.7038 0.079 Uiso 0.731(18) 1 calc R . P . .
C10 C 0.6094(8) 0.4574(8) 0.605(2) 0.057(5) Uani 0.731(18) 1 d . . P . .
H10A H 0.5895 0.4166 0.6303 0.069 Uiso 0.731(18) 1 calc R . P . .
H10B H 0.6507 0.4709 0.5956 0.069 Uiso 0.731(18) 1 calc R . P . .
loop_
_atom_site_aniso_label
_atom_site_aniso_U_11
_atom_site_aniso_U_22
_atom_site_aniso_U_33
_atom_site_aniso_U_23
_atom_site_aniso_U_13
_atom_site_aniso_U_12
Zn1 0.0366(6) 0.0377(7) 0.0039(4) -0.0004(4) 0.0008(4) 0.0180(5)
N1 0.041(2) 0.041(2) 0.0089(16) -0.0015(14) -0.0005(15) 0.0199(17)
O2 0.041(2) 0.041(2) 0.0089(16) -0.0015(14) -0.0005(15) 0.0199(17)
O1 0.048(4) 0.044(3) 0.006(2) 0.001(2) -0.002(2) 0.016(3)
N3 0.042(5) 0.045(5) 0.006(4) -0.001(3) 0.000(3) 0.023(4)
N2 0.041(2) 0.041(2) 0.0089(16) -0.0015(14) -0.0005(15) 0.0199(17)
O3 0.041(2) 0.041(2) 0.0089(16) -0.0015(14) -0.0005(15) 0.0199(17)
C4 0.048(4) 0.044(3) 0.006(2) 0.001(2) -0.002(2) 0.016(3)
C6 0.045(6) 0.033(5) 0.006(4) 0.003(3) 0.003(4) 0.019(4)
C1 0.038(5) 0.036(5) 0.009(4) 0.000(4) 0.001(4) 0.018(4)
C5 0.048(6) 0.038(5) 0.010(4) -0.001(4) -0.004(4) 0.022(5)
C3 0.037(5) 0.044(6) 0.010(5) 0.001(4) 0.001(4) 0.023(5)
C2 0.037(5) 0.042(6) 0.011(5) 0.004(4) 0.001(4) 0.021(5)
O4 0.060(8) 0.066(8) 0.021(6) -0.010(5) -0.011(5) 0.013(6)
C8 0.054(11) 0.053(11) 0.057(12) 0.011(9) -0.010(9) 0.017(9)
C9 0.042(9) 0.041(9) 0.033(9) -0.004(7) -0.007(7) 0.001(7)
C7 0.105(16) 0.074(13) 0.043(11) -0.008(9) -0.006(10) 0.064(13)
C10 0.042(10) 0.054(10) 0.068(13) 0.019(9) -0.001(9) 0.018(8)
loop_
_atom_type_symbol
_atom_type_description
_atom_type_scat_dispersion_real
_atom_type_scat_dispersion_imag
_atom_type_scat_source
C C 0.0033 0.0016 'International Tables Vol C Tables 4.2.6.8 and 6.1.1.4'
H H 0.0000 0.0000 'International Tables Vol C Tables 4.2.6.8 and 6.1.1.4'
N N 0.0061 0.0033 'International Tables Vol C Tables 4.2.6.8 and 6.1.1.4'
O O 0.0106 0.0060 'International Tables Vol C Tables 4.2.6.8 and 6.1.1.4'
Zn Zn 0.2839 1.4301 'International Tables Vol C Tables 4.2.6.8 and 6.1.1.4'
loop_
_geom_angle_atom_site_label_1
_geom_angle_atom_site_label_2
_geom_angle_atom_site_label_3
_geom_angle
_geom_angle_site_symmetry_1
_geom_angle_site_symmetry_3
_geom_angle_publ_flag
N1 Zn1 O2 102.3(3) . . ?
N1 Zn1 N2 115.9(3) . . ?
O2 Zn1 N2 112.1(3) . . ?
O3 Zn1 N1 112.4(3) . . ?
O3 Zn1 O2 103.5(3) . . ?
O3 Zn1 N2 109.7(3) . . ?
N2 N1 Zn1 124.9(7) 9_565 . ?
C1 N1 Zn1 126.8(6) . . ?
C1 N1 N2 108.2(8) . 9_565 ?
C6 O2 Zn1 138.9(6) . . ?
C4 N3 C5 121.0(8) . . ?
N1 N2 Zn1 122.7(7) 14_654 . ?
C2 N2 Zn1 129.1(7) . . ?
C2 N2 N1 108.0(8) . 14_654 ?
C6 O3 Zn1 120.4(6) 9_565 . ?
O1 C4 N3 121.2(10) . . ?
O1 C4 C3 121.2(9) . . ?
N3 C4 C3 117.6(8) . . ?
O2 C6 C5 119.4(8) . . ?
O3 C6 O2 122.5(9) 14_654 . ?
O3 C6 C5 118.0(8) 14_654 . ?
N1 C1 C3 110.7(9) . 6_665 ?
N3 C5 C6 113.1(8) . . ?
C1 C3 C4 130.2(9) 6_664 . ?
C2 C3 C4 126.7(8) 11_454 . ?
C2 C3 C1 102.9(9) 11_454 6_664 ?
N2 C2 C3 110.2(8) . 17_554 ?
C10 O4 C7 105.0(13) . . ?
C7 C8 C9 102.0(16) . . ?
C10 C9 C8 103.8(14) . . ?
O4 C7 C8 108.0(17) . . ?
O4 C10 C9 106.4(15) . . ?
loop_
_geom_bond_atom_site_label_1
_geom_bond_atom_site_label_2
_geom_bond_distance
_geom_bond_site_symmetry_2
_geom_bond_publ_flag
Zn1 N1 1.970(8) . ?
Zn1 O2 1.973(7) . ?
Zn1 N2 1.996(9) . ?
Zn1 O3 1.960(7) . ?
N1 N2 1.361(11) 9_565 ?
N1 C1 1.302(13) . ?
O2 C6 1.279(12) . ?
O1 C4 1.246(12) . ?
N3 C4 1.340(14) . ?
N3 C5 1.431(13) . ?
N2 N1 1.361(11) 14_654 ?
N2 C2 1.319(13) . ?
O3 C6 1.273(12) 9_565 ?
C4 C3 1.463(16) . ?
C6 O3 1.274(12) 14_654 ?
C6 C5 1.484(14) . ?
C1 C3 1.395(13) 6_665 ?
C3 C1 1.395(13) 6_664 ?
C3 C2 1.386(14) 11_454 ?
C2 C3 1.386(14) 17_554 ?
O4 C7 1.43(2) . ?
O4 C10 1.39(3) . ?
C8 C9 1.57(3) . ?
C8 C7 1.48(3) . ?
C9 C10 1.52(2) . ?
