#------------------------------------------------------------------------------
#$Date: 2020-08-22 02:03:04 +0300 (Sat, 22 Aug 2020) $
#$Revision: 255549 $
#$URL: file:///home/coder/svn-repositories/cod/cif/4/13/51/4135196.cif $
#------------------------------------------------------------------------------
#
# This file is available in the Crystallography Open Database (COD),
# http://www.crystallography.net/
#
# All data on this site have been placed in the public domain by the
# contributors.
#
data_4135196
loop_
_publ_author_name
'Yan, Yong'
'Carrington, Elliot J.'
'P\'etuya, R\'emi'
'Whitehead, George F. S.'
'Verma, Ajay'
'Hylton, Rebecca K.'
'Tang, Chiu C.'
'Berry, Neil G.'
'Darling, George R.'
'Dyer, Matthew S.'
'Antypov, Dmytro'
'Katsoulidis, Alexandros P.'
'Rosseinsky, Matthew J.'
_publ_section_title
;
 Amino Acid Residues Determine the Response of Flexible Metal-Organic
 Frameworks to Guests.
;
_journal_name_full               'Journal of the American Chemical Society'
_journal_paper_doi               10.1021/jacs.0c03853
_journal_year                    2020
_chemical_formula_moiety         'C6 H5 N3 O3 Zn, 0.5(C7 H8)'
_chemical_formula_sum            'C9.5 H9 N3 O3 Zn'
_chemical_formula_weight         278.57
_space_group_crystal_system      trigonal
_space_group_IT_number           161
_space_group_name_Hall           'R 3 -2"c'
_space_group_name_H-M_alt        'R 3 c :H'
_atom_sites_solution_hydrogens   geom
_atom_sites_solution_primary     direct
_audit_creation_date             2018-06-20
_audit_creation_method
;
Olex2 1.2
(compiled 2018.05.29 svn.r3508 for OlexSys, GUI svn.r5506)
;
_cell_angle_alpha                90
_cell_angle_beta                 90
_cell_angle_gamma                120
_cell_formula_units_Z            18
_cell_length_a                   26.5867(14)
_cell_length_b                   26.5867(14)
_cell_length_c                   10.1323(4)
_cell_measurement_reflns_used    7516
_cell_measurement_temperature    100
_cell_measurement_theta_max      25.0280
_cell_measurement_theta_min      2.6220
_cell_volume                     6202.5(5)
_computing_cell_refinement       'CrysAlisPro 1.171.38.46 (Rigaku OD, 2015)'
_computing_data_collection       'CrysAlisPro 1.171.38.46 (Rigaku OD, 2015)'
_computing_data_reduction        'CrysAlisPro 1.171.38.46 (Rigaku OD, 2015)'
_computing_molecular_graphics    'Olex2 (Dolomanov et al., 2009)'
_computing_publication_material  'Olex2 (Dolomanov et al., 2009)'
_computing_structure_refinement  'ShelXL (Sheldrick, 2015)'
_computing_structure_solution    'ShelXS (Sheldrick, 2008)'
_diffrn_ambient_temperature      100.0
_diffrn_detector                 'CCD plate'
_diffrn_measured_fraction_theta_full 0.999
_diffrn_measured_fraction_theta_max 0.999
_diffrn_measurement_details
;
List of Runs (angles in degrees, time in seconds):

  # Type    Start    End  Width  t~exp~   \w     \q     \k     \f   Frames
--------------------------------------------------------------------------
  1  \w   -110.00  15.00   1.00   10.00    --  -20.00 -68.00   0.00  125
  2  \w   -110.00  15.00   1.00   10.00    --  -20.00 -68.00 120.00  125
  3  \w   -110.00  15.00   1.00   10.00    --  -20.00 -68.00 240.00  125
  4  \w   -110.00  15.00   1.00   10.00    --  -20.00 -30.00  90.00  125
;
_diffrn_measurement_device       'abstract diffractometer'
_diffrn_measurement_device_type
'Rigaku Mo Rotating Anode Source With Saturn Detector'
_diffrn_measurement_method       '\w scans'
_diffrn_orient_matrix_type
'CrysAlisPro convention (1999,Acta A55,543-557)'
_diffrn_orient_matrix_UB_11      0.0289371000
_diffrn_orient_matrix_UB_12      0.0186298000
_diffrn_orient_matrix_UB_13      -0.0213870000
_diffrn_orient_matrix_UB_21      0.0037790000
_diffrn_orient_matrix_UB_22      -0.0243764000
_diffrn_orient_matrix_UB_23      -0.0088805000
_diffrn_orient_matrix_UB_31      -0.0097810000
_diffrn_orient_matrix_UB_32      -0.0027554000
_diffrn_orient_matrix_UB_33      -0.0661209000
_diffrn_radiation_monochromator  graphite
_diffrn_radiation_probe          x-ray
_diffrn_radiation_type           MoK\a
_diffrn_radiation_wavelength     0.71073
_diffrn_reflns_av_R_equivalents  0.0876
_diffrn_reflns_av_unetI/netI     0.0472
_diffrn_reflns_Laue_measured_fraction_full 0.999
_diffrn_reflns_Laue_measured_fraction_max 0.999
_diffrn_reflns_limit_h_max       31
_diffrn_reflns_limit_h_min       -31
_diffrn_reflns_limit_k_max       31
_diffrn_reflns_limit_k_min       -31
_diffrn_reflns_limit_l_max       12
_diffrn_reflns_limit_l_min       -9
_diffrn_reflns_number            20633
_diffrn_reflns_point_group_measured_fraction_full 0.950
_diffrn_reflns_point_group_measured_fraction_max 0.950
_diffrn_reflns_theta_full        25.027
_diffrn_reflns_theta_max         25.027
_diffrn_reflns_theta_min         2.654
_diffrn_source                   'fine-focus sealed X-ray tube'
_diffrn_source_type              'Enhance (Mo) X-ray Source'
_exptl_absorpt_coefficient_mu    1.779
_exptl_absorpt_correction_T_max  1.00000
_exptl_absorpt_correction_T_min  0.67302
_exptl_absorpt_correction_type   multi-scan
_exptl_absorpt_process_details
;
CrysAlisPro 1.171.38.46 (Rigaku Oxford Diffraction, 2015)
Empirical absorption correction using spherical harmonics,
 implemented in SCALE3 ABSPACK scaling algorithm.
;
_exptl_crystal_colour            white
_exptl_crystal_colour_primary    white
_exptl_crystal_density_diffrn    1.342
_exptl_crystal_description       needle
_exptl_crystal_F_000             2538
_exptl_crystal_preparation       'Solvent Exchnage Toluene'
_exptl_crystal_size_max          0.268
_exptl_crystal_size_mid          0.033
_exptl_crystal_size_min          0.028
_refine_diff_density_max         0.775
_refine_diff_density_min         -0.469
_refine_diff_density_rms         0.149
_refine_ls_abs_structure_details
;
 Flack x determined using 870 quotients [(I+)-(I-)]/[(I+)+(I-)]
 (Parsons, Flack and Wagner, Acta Cryst. B69 (2013) 249-259).
;
_refine_ls_abs_structure_Flack   -0.029(16)
_refine_ls_extinction_method     none
_refine_ls_goodness_of_fit_ref   1.103
_refine_ls_hydrogen_treatment    constr
_refine_ls_matrix_type           full
_refine_ls_number_parameters     128
_refine_ls_number_reflns         2301
_refine_ls_number_restraints     25
_refine_ls_restrained_S_all      1.102
_refine_ls_R_factor_all          0.0638
_refine_ls_R_factor_gt           0.0586
_refine_ls_shift/su_max          0.001
_refine_ls_shift/su_mean         0.000
_refine_ls_structure_factor_coef Fsqd
_refine_ls_weighting_details
'w=1/[\s^2^(Fo^2^)+(0.1142P)^2^+0.9297P] where P=(Fo^2^+2Fc^2^)/3'
_refine_ls_weighting_scheme      calc
_refine_ls_wR_factor_gt          0.1564
_refine_ls_wR_factor_ref         0.1598
_reflns_Friedel_coverage         0.889
_reflns_Friedel_fraction_full    0.900
_reflns_Friedel_fraction_max     0.900
_reflns_number_gt                2132
_reflns_number_total             2301
_reflns_threshold_expression     'I > 2\s(I)'
_cod_data_source_file            ZnGlyPyr_Toluene_100K.cif
_cod_data_source_block           ZnGlyPyr_Toluene_100K
_cod_original_cell_volume        6202.5(7)
_cod_original_sg_symbol_H-M      'R 3 c'
_cod_original_formula_sum        'C9.50 H9 N3 O3 Zn'
_cod_database_code               4135196
_shelx_shelxl_version_number     2014/7
_chemical_oxdiff_formula         'Zn C6 H8 N3 O3'
_shelx_space_group_comment
;
The symmetry employed for this shelxl refinement is uniquely defined
by the following loop, which should always be used as a source of
symmetry information in preference to the above space-group names.
They are only intended as comments.
;
_reflns_odcompleteness_completeness 99.85
_reflns_odcompleteness_iscentric 1
_reflns_odcompleteness_theta     24.97
_olex2_refinement_description
;
1. Fixed Uiso
 At 1.2 times of:
  All C(H) groups, All C(H,H) groups, All N(H) groups
 At 1.5 times of:
  All C(H,H,H) groups
2. Restrained distances
 C8-C13 \\sim C13-C12
 with sigma of 0.02
3. Restrained planarity
 C13, C7, C8, C9, C10, C11, C12
 with sigma of 0.1
4. Rigid bond restraints
 O3, C4
 with sigma for 1-2 distances of 0.01 and sigma for 1-3 distances of 0.01
 N1, N2, C2, C1, C3
 with sigma for 1-2 distances of 0.01 and sigma for 1-3 distances of 0.01
5. Uiso/Uaniso restraints and constraints
O3 \\sim C4: within 2A with sigma of 0.04 and sigma for terminal atoms of 0.08
C10 \\sim C9 \\sim C8 \\sim C7 \\sim C12 \\sim C11 \\sim C13: within 2A with
sigma of 0.02 and sigma for terminal atoms of 0.04
Uanis(N2) = Uanis(N1)
6. Others
 Fixed Sof: C9(0.5) H9(0.5) C10(0.5) H10(0.5) C11(0.5) H11(0.5) C12(0.5)
 H12(0.5) C7(0.5) C8(0.5) H8(0.5) C13(0.5) H13A(0.5) H13B(0.5) H13C(0.5)
7.a Secondary CH2 refined with riding coordinates:
 C5(H5A,H5B)
7.b Me refined with riding coordinates:
 C13(H13A,H13B,H13C)
7.c Aromatic/amide H refined with riding coordinates:
 N3(H3), C1(H1), C3(H3A), C9(H9), C10(H10), C11(H11), C12(H12), C8(H8)
7.d Fitted hexagon refined as free rotating group:
 C9(C10,C11,C12,C7,C8)
;
_shelx_res_file
;
    yy_zn_gly_pyr_toluene.res created by SHELXL-2014/7

TITL YY_Zn_Gly_Pyr_toluene in R3c
REM R3c (#161 in standard setting)
CELL 0.71073 26.586687 26.586687 10.132287 90 90 120
ZERR 18 0.001374 0.001374 0.000407 0 0 0
LATT -3
SYMM -Y,+X-Y,+Z
SYMM +Y-X,-X,+Z
SYMM +Y-X,+Y,0.5+Z
SYMM +X,+X-Y,0.5+Z
SYMM -Y,-X,0.5+Z
SFAC C H N O Zn
UNIT 171 162 54 54 18
SADI C8 C13 C13 C12
FLAT C13 C7 C8 C9 C10 C11 C12
DELU O3 C4
DELU N1 N2 C2 C1 C3
SIMU O3 C4
SIMU 0.02 0.04 2 C10 C9 C8 C7 C12 C11 C13
EADP N2 N1

L.S. 16
PLAN  20
TEMP -173.15
BOND
fmap 2
acta
REM <olex2.extras>
REM <HklSrc "%.\\YY_Zn_Gly_Pyr_toluene.hkl">
REM </olex2.extras>

WGHT    0.114200    0.929700
FVAR       0.70802
ZN1   5    0.647937    0.676019    0.542970    11.00000    0.02192    0.02384 =
         0.00621   -0.00039   -0.00007    0.01069
O1    4    0.597860    0.680045    0.404463    11.00000    0.03079    0.02890 =
         0.00953    0.00378   -0.00119    0.01601
N1    3    0.595111    0.647163    0.695870    11.00000    0.02617    0.02911 =
         0.00436   -0.00005    0.00141    0.01462
N3    3    0.414852    0.539417    0.767831    11.00000    0.02484    0.02250 =
         0.00884    0.00266   -0.00063    0.01191
AFIX  43
H3    2    0.423584    0.550556    0.685166    11.00000   -1.20000
AFIX   0
O3    4    0.442598    0.555956    0.980076    11.00000    0.03419    0.04056 =
         0.01259    0.00342    0.00563    0.01634
N2    3    0.683370    0.628623    0.490282    11.00000    0.02617    0.02911 =
         0.00436   -0.00005    0.00141    0.01462
O2    4    0.711118    0.756901    0.563458    11.00000    0.02271    0.02735 =
         0.00989    0.00137   -0.00397    0.01086
C2    1    0.515536    0.601214    0.815928    11.00000    0.02745    0.03002 =
         0.01037   -0.00116   -0.00660    0.01704
C4    1    0.455467    0.564721    0.859767    11.00000    0.03744    0.02356 =
         0.01284   -0.00007    0.00193    0.01956
C5    1    0.356267    0.493744    0.800061    11.00000    0.01861    0.02205 =
         0.01866    0.00348    0.00289    0.00939
AFIX  23
H5A   2    0.329306    0.491809    0.730237    11.00000   -1.20000
H5B   2    0.344133    0.503442    0.884175    11.00000   -1.20000
AFIX   0
C1    1    0.538491    0.618438    0.690832    11.00000    0.02196    0.02864 =
         0.00811   -0.00595   -0.00138    0.00977
AFIX  43
H1    2    0.516222    0.610496    0.612347    11.00000   -1.20000
AFIX   0
C6    1    0.351993    0.435945    0.812692    11.00000    0.02002    0.02534 =
         0.00932   -0.00112   -0.00660    0.00570
C3    1    0.564640    0.623111    0.895987    11.00000    0.02671    0.02146 =
         0.00911    0.00654    0.00127    0.00125
AFIX  43
H3A   2    0.564058    0.619214    0.989259    11.00000   -1.20000
AFIX  66

PART -1
C9    1    0.538973    0.490885    0.422449    10.50000    0.16694
AFIX  43
H9    2    0.517073    0.509446    0.440278    10.50000   -1.20000
AFIX  65
C10   1    0.575394    0.489269    0.518695    10.50000    0.21667
AFIX  43
H10   2    0.578386    0.506726    0.602305    10.50000   -1.20000
AFIX  65
C11   1    0.607437    0.462112    0.492607    10.50000    0.16788
AFIX  43
H11   2    0.632330    0.461008    0.558388    10.50000   -1.20000
AFIX  65
C12   1    0.603060    0.436570    0.370273    10.50000    0.16456
AFIX  43
H12   2    0.624960    0.418009    0.352444    10.50000   -1.20000
AFIX  65
C7    1    0.566639    0.438185    0.274025    10.50000    0.16885
C8    1    0.534595    0.465342    0.300111    10.50000    0.14349
AFIX  43
H8    2    0.509703    0.466446    0.234330    10.50000   -1.20000
AFIX   0
C13   1    0.561019    0.410418    0.150036    10.50000    0.15445
AFIX  33
H13A  2    0.586504    0.393645    0.148364    10.50000   -1.50000
H13B  2    0.520651    0.379537    0.137697    10.50000   -1.50000
H13C  2    0.572040    0.438996    0.078875    10.50000   -1.50000
AFIX   0
HKLF 4

REM  YY_Zn_Gly_Pyr_toluene in R3c
REM R1 =  0.0586 for    2132 Fo > 4sig(Fo)  and  0.0638 for all    2301 data
REM    128 parameters refined using     25 restraints

END

WGHT      0.1142      0.8970

REM Highest difference peak  0.775,  deepest hole -0.469,  1-sigma level  0.149
Q1    1   0.5294  0.4809  0.6188  11.00000  0.05    0.77
Q2    1   0.5295  0.4888  0.5491  11.00000  0.05    0.75
Q3    1   0.5232  0.4567  0.1691  11.00000  0.05    0.73
Q4    1   0.5123  0.4404  0.2197  11.00000  0.05    0.71
Q5    1   0.5587  0.4726  0.3690  11.00000  0.05    0.68
Q6    1   0.6828  0.4074  0.2394  11.00000  0.05    0.64
Q7    1   0.6322  0.3858  0.2000  11.00000  0.05    0.56
Q8    1   0.6766  0.7191  0.5430  11.00000  0.05    0.56
Q9    1   0.5927  0.3133  0.2369  11.00000  0.05    0.48
Q10   1   0.4876  0.5692  1.0433  11.00000  0.05    0.48
Q11   1   0.6849  0.6832  0.5602  11.00000  0.05    0.47
Q12   1   0.6047  0.3437  0.2190  11.00000  0.05    0.46
Q13   1   0.6332  0.3189  0.1857  11.00000  0.05    0.44
Q14   1   0.6720  0.6564  0.5060  11.00000  0.05    0.44
Q15   1   0.5927  0.4176  0.2482  11.00000  0.05    0.44
Q16   1   0.4320  0.5359  0.6868  11.00000  0.05    0.44
Q17   1   0.6051  0.6304  0.5407  11.00000  0.05    0.43
Q18   1   0.6340  0.3779  0.3023  11.00000  0.05    0.41
Q19   1   0.6821  0.6088  0.5331  11.00000  0.05    0.40
Q20   1   0.6149  0.4197  0.2892  11.00000  0.05    0.40
;
_shelx_res_checksum              37913
_shelx_hkl_file
;
   0   0   3-14.0494 236.539   2
   0   0   3-175.249 324.965   1
   0   0   6 82767.0 1771.64   2
   0   0   6 83911.8 2236.04   1
   0   0   9 459.957 613.078   1
   0   0   9 257.576 419.979   2
   0   0  12 28255.1 2010.69   1
   0   1  -4 5289.37 563.792   1
  -1   0  -4 5403.60 258.537   4
   1  -1  -4 5752.81 292.726   4
   0   1  -1-29.2385 119.217   1
   0   1   2 9511.95 434.467   2
  -1   0   2 10257.8 512.960   1
   0   1   2 10642.6 335.330   4
   1  -1   2 10205.2 480.063   1
   0   1   5 147.535 305.993   2
  -1   0   5-146.152 424.980   1
   1  -1   5 3.55936 304.030   2
  -1   0   5 41.8609 278.070   2
   1  -1   5 53.9697 433.060   1
   0   1   5-200.331 464.379   1
   0   1   5-37.9061 162.217   4
   1  -1   8 866.852 426.677   2
  -1   0   8 1002.71 410.579   2
   0   1   8 464.637 608.146   1
   0   1   8 1188.78 500.758   2
  -1   0   8 1066.69 575.416   1
   1  -1   8 730.365 561.734   1
   0   1  11-1383.70 927.545   1
   0   1  11 135.175 546.142   2
   1  -1  11 245.272 799.740   1
   1  -1  11-110.365 543.782   2
  -1   0  11-195.087 814.983   1
   0  -1  -5-43.5911 141.253   4
  -1   1  -2 10102.0 465.113   1
   0  -1  -2 10606.6 437.985   2
   0  -1  -2 9865.07 322.943   4
   1   0  -2 10621.3 535.579   1
   0  -1   1 181.062 128.796   1
  -1   1   1 179.642 154.342   3
  -1   1   1 44.7863 142.147   1
  -1   1   4 6618.99 633.576   1
  -1   1   4 5699.43 282.301   4
   1   0   4 5533.19 475.440   2
  -1   1   4 5753.21 432.795   2
   0  -1   4 6391.31 440.864   2
   1   0   4 5592.44 255.348   4
   1   0   4 5974.97 614.549   1
   0  -1   4 5204.57 572.358   1
   0  -1   7 68.0895 546.179   1
   0  -1   7 275.664 344.769   2
   1   0   7 179.539 493.191   1
  -1   1   7 829.536 537.098   1
  -1   1   7 339.926 343.249   2
   1   0   7 271.957 419.646   2
  -1   1  10-537.400 537.455   2
   0  -1  10 747.869 646.731   1
   1   0  10 861.580 551.641   2
   0  -1  10 375.476 437.074   2
   1   0  10 802.496 765.103   1
  -1   1  10 1505.37 827.738   1
   2  -2  -5 68.3395 190.276   4
   0   2  -5 698.427 420.718   1
   2  -2  -2 27012.1 611.202   2
   0   2  -2 26784.7 746.925   1
   2  -2  -2 27525.5 603.503   4
  -2   0   1 20.4676 159.410   1
   2  -2   1 38.1864 122.809   4
   0   2   1-119.106 159.782   4
   2  -2   1 118.593 164.422   3
   0   2   1 66.2036 168.245   2
  -2   0   1-172.688 214.708   3
  -2   0   4 6878.55 375.474   2
   2  -2   4 6595.62 597.777   1
   0   2   4 6951.35 398.915   4
   0   2   4 6767.16 671.658   1
  -2   0   4 6485.91 630.773   1
   0   2   4 6953.48 533.585   2
   0   2   7-16.1177 178.608   4
  -2   0   7 27.7935 489.846   1
   0   2   7 227.492 555.488   1
   0   2   7-91.9469 428.295   2
   2  -2   7 212.620 396.192   2
   2  -2   7 463.794 488.844   1
  -2   0   7 153.668 296.775   2
   2  -2  10 1145.59 736.182   1
   0   2  10 2211.15 842.667   1
   2  -2  10 2309.67 637.144   2
  -2   0  10 1620.83 723.225   1
   0   2  10 2209.72 598.000   2
  -2   0  10 2230.01 474.813   2
   2  -1  -6 25041.4 536.395   4
   1  -2  -6 26848.2 687.876   4
   2  -1  -3 77603.0 1611.60   1
   1  -2  -3 75611.6 1277.01   2
   2  -1  -3 77464.5 1024.05   2
  -1  -1  -3 78846.4 1023.47   4
  -1   2  -3 80382.9 1478.19   1
   1  -2  -3 78711.1 1071.08   4
   2  -1  -3 78651.8 940.851   4
   1   1  -3 78397.1 1549.12   1
   1   1   3 77430.9 1442.96   2
   2  -1   3 75641.7 807.607   4
  -1   2   3 77360.3 1298.40   2
   1   1   3 78187.1 1027.40   4
  -2   1   3 77780.5 1033.06   2
  -1   2   3 75766.9 1618.23   1
  -1  -1   3 74576.2 1495.35   1
  -2   1   3 75927.2 1586.19   1
  -1   2   3 76459.4 1042.34   4
   1  -2   3 73903.7 1387.02   1
   2  -1   3 77633.6 1447.22   1
  -1  -1   3 77939.7 949.609   2
   2  -1   6 27741.3 1163.09   2
   1   1   6 25827.6 646.092   4
   1  -2   6 27004.9 1261.72   1
  -2   1   6 28617.5 957.050   2
   1   1   6 27986.6 1383.65   1
  -2   1   6 28936.9 1387.82   1
  -1   2   6 28463.5 1097.11   2
  -1  -1   6 27723.4 1335.70   1
   2  -1   6 25414.8 1241.83   1
  -1  -1   6 28453.1 925.495   2
   1   1   6 28067.7 1178.73   2
   1  -2   6 27411.8 1051.53   2
  -1   2   6 26269.0 687.465   4
  -1   2   6 28556.5 1426.76   1
   2  -1   9 22898.5 1281.04   2
  -1   2   9 20950.2 1172.08   2
   2  -1   9 21000.9 1456.37   1
   1  -2   9 24231.8 1512.70   1
  -2   1   9 21530.9 1078.46   2
  -1   2   9 20922.5 1539.43   1
  -1  -1   9 21700.9 1029.68   2
  -1  -1   9 22994.7 1549.09   1
  -2   1   9 22493.0 1544.15   1
   1   1   9 25230.2 1335.00   2
   1   1   9 22889.5 1592.79   1
   1  -2   9 23166.0 1186.19   2
  -2   1  12 6163.25 1324.10   1
   2  -1  12 4606.90 1039.09   1
  -1  -1  12 3312.66 937.826   1
  -1   2  12 5383.22 1170.41   1
   1   1  12 5357.62 1258.19   1
   1  -2  12 3816.09 1056.78   1
   0  -2  -7 176.073 186.024   4
   0  -2  -4 6297.94 527.014   2
   0  -2  -4 6705.02 387.422   4
   2   0  -4 6281.39 257.692   4
   2   0  -4 7610.67 671.652   1
   2   0  -1 5.18815 167.588   1
  -2   2  -1 234.013 169.938   3
   0  -2  -1-64.3618 173.175   2
   2   0  -1 184.862 196.088   3
   0  -2  -1-98.5035 158.497   4
   2   0   2 27276.2 584.957   4
   2   0   2 28265.2 797.375   2
  -2   2   2 30224.0 836.745   3
   0  -2   2 29432.7 749.355   1
  -2   2   2 28137.6 866.463   1
  -2   2   2 29555.3 621.559   4
  -2   2   2 28549.6 642.389   2
  -2   2   5 445.766 483.153   1
  -2   2   5 90.3260 194.470   4
  -2   2   5-198.598 273.539   2
   0  -2   5 269.831 401.533   1
   2   0   5-115.153 345.751   2
   2   0   5-194.470 418.307   1
   2   0   5-109.247 154.873   4
   0  -2   5 197.387 297.630   2
  -2   2   8 7126.04 699.564   2
  -2   2   8 6728.19 915.469   1
   0  -2   8 6081.34 634.439   2
   2   0   8 6639.48 910.510   1
   0  -2   8 6365.62 893.250   1
   2   0   8 6156.13 699.943   2
   2   0  11-11.2747 585.781   2
   2   0  11 398.583 622.458   3
  -2   2  11-109.048 823.968   1
   2   0  11 803.416 808.132   1
   0  -2  11 423.777 725.599   1
   3  -3  -6 115391. 1605.13   4
   3  -3  -3 51.3598 217.735   4
   0   3  -3-127.888 322.281   1
   3  -3  -3 107.831 229.294   2
   0   3   0 121171. 1311.43   4
   3  -3   0 119016. 1301.61   4
  -3   0   0 122374. 1177.78   3
   0   3   0 119330. 1307.53   2
   0   3   0 122456. 1027.29   1
  -3   0   0 122695. 999.300   1
   3  -3   0 120359. 1170.46   3
   3  -3   0 122361. 1338.91   2
   0   3   3 231.056 245.690   4
  -3   0   3 21.6916 351.117   1
   0   3   3-74.9265 293.016   2
   3  -3   3 367.881 254.016   1
   3  -3   3 241.782 136.891   4
   0   3   6 76497.7 1951.23   2
   3  -3   6 72935.5 1968.39   1
   3  -3   6 75158.2 1852.90   2
  -3   0   6 73299.2 1266.38   2
   0   3   6 74498.9 2286.32   1
  -3   0   6 74618.8 2197.78   1
   0   3   6 74090.3 1360.31   4
   0   3   9 723.399 781.564   1
  -3   0   9-145.539 608.140   1
   3  -3   9-17.8826 635.152   1
   0   3   9 64.0522 465.729   2
   3  -3   9 225.819 539.500   2
  -3   0   9 321.397 317.644   2
   2  -3  -7 13304.6 560.187   4
   3  -2  -7 12892.6 470.216   4
   2  -3  -4 1388.70 276.426   4
  -1   3  -4 1663.59 418.760   1
   3  -2  -4 1674.94 284.558   2
   2  -3  -4 1552.47 322.231   2
   3  -2  -4 1471.02 261.657   4
  -2  -1  -4 1559.23 274.269   4
   1   2  -4 1384.94 424.866   1
   3  -2  -1 10564.4 477.858   3
   1   2  -1 10862.8 401.458   1
   2  -3  -1 10093.7 424.880   4
  -2  -1  -1 10131.2 474.939   2
  -1   3  -1 11107.6 400.910   2
  -1   3  -1 10890.7 340.319   1
   3  -2  -1 11837.0 362.613   2
   1   2  -1 10442.1 355.325   4
  -3   1  -1 10829.6 365.968   3
   2  -3  -1 11171.7 389.608   3
  -1   3  -1 11189.1 357.002   4
   3  -2  -1 10726.8 413.356   4
   2  -3  -1 11067.8 424.391   2
  -2  -1  -1 10139.2 415.760   4
   3  -2  -1 10255.7 437.204   1
  -1   3   2 23487.0 729.316   2
  -3   1   2 24683.1 850.138   3
   3  -2   2 23271.6 608.455   1
   1   2   2 21683.0 754.776   2
  -2  -1   2 23826.6 745.863   1
  -1   3   2 23073.1 647.408   4
   2  -3   2 22966.9 599.297   1
   1   2   2 22214.7 642.045   4
   2  -3   2 23765.1 452.249   4
  -1   3   2 23356.7 633.251   3
   3  -2   2 23583.4 720.923   3
   1   2   5 467.106 247.924   4
  -1   3   5 373.320 490.716   1
  -3   1   5 334.935 439.350   1
   3  -2   5 389.124 106.633   4
  -1   3   5 676.305 346.102   2
   3  -2   5 600.927 411.992   1
  -2  -1   5 469.832 215.144   2
  -3   1   5 459.415 245.789   2
   3  -2   5 527.655 378.501   2
  -2  -1   5 175.216 454.958   1
   1   2   5 480.371 357.974   2
   1   2   5 447.163 482.363   1
  -1   3   5 460.959 239.264   4
   2  -3   5 40.7803 362.380   1
  -1   3   8 545.061 420.966   2
   2  -3   8 27.5195 402.505   2
   1   2   8-346.081 420.679   2
  -1   3   8 995.087 746.629   1
  -3   1   8 1148.48 679.698   1
  -3   1   8 201.494 336.595   2
  -2  -1   8 211.426 528.691   1
  -2  -1   8 121.242 305.468   2
   3  -2   8 459.429 563.613   1
   1   2   8 649.744 621.055   1
   1   2   8 132.939 175.953   4
   2  -3   8 544.408 560.983   1
  -1   3   8 254.101 208.952   4
   3  -2   8-262.917 490.748   2
   1   2  11-1423.69 1009.23   1
   3  -2  11 655.765 694.090   1
  -2  -1  11 218.825 801.226   1
  -1   3  11-228.312 494.909   2
  -3   1  11 621.360 821.228   1
  -1   3  11-1535.42 892.801   1
   3  -2  11-548.036 594.030   2
   3  -2  11 716.485 757.761   3
   2  -3  11-272.009 548.017   2
   2  -3  11 388.803 764.813   1
   1   2  11 267.924 537.190   2
   1  -3  -8 231.664 190.895   4
  -1  -2  -5 40.5064 228.714   4
   1  -3  -5 293.048 219.343   4
   3  -1  -5 534.272 190.221   4
   2   1  -5 733.193 479.080   1
   1  -3  -5 276.317 308.216   2
   3  -1  -5 240.212 465.283   1
   2   1  -2 25128.6 773.552   1
  -1  -2  -2 23246.5 638.125   4
   1  -3  -2 23091.3 665.711   4
  -2   3  -2 25004.6 647.844   1
  -1  -2  -2 22783.8 786.178   2
   3  -1  -2 23456.5 799.414   1
  -2   3  -2 24367.8 455.492   4
   1  -3  -2 22913.5 744.202   2
   3  -1  -2 23218.9 556.892   4
  -1  -2   1 10856.3 391.784   1
   2   1   1 10660.6 484.458   2
   1  -3   1 10965.7 365.158   4
  -1  -2   1 10016.6 372.726   4
   2   1   1 10117.1 413.437   4
  -2   3   1 10732.7 431.828   2
   1  -3   1 11456.8 415.760   2
  -3   2   1 11004.6 479.483   3
  -2   3   1 11298.4 385.091   3
  -3   2   1 10582.9 353.191   2
   3  -1   1 10814.7 364.904   3
  -3   2   1 10659.9 439.222   1
  -2   3   1 10588.1 423.384   4
   1  -3   1 11000.8 332.581   1
  -2   3   4 1323.21 280.081   4
  -3   2   4 1134.23 242.387   2
   2   1   4 1120.66 364.794   2
   2   1   4 1035.54 240.772   4
  -2   3   4 1119.28 308.761   2
  -3   2   4 849.608 422.472   1
   3  -1   4 1617.69 371.278   1
  -1  -2   4 1081.92 410.696   1
  -2   3   4 1549.56 505.689   1
   3  -1   4 1635.29 204.779   4
  -2   3   4 1203.13 403.105   3
  -3   2   4 1593.55 470.330   3
   1  -3   4 1221.66 399.723   1
   3  -1   4 873.508 341.554   2
  -1  -2   7 14305.0 724.025   2
   2   1   7 14660.9 542.107   4
   1  -3   7 15816.7 1064.19   1
  -2   3   7 16306.0 926.550   2
  -2   3   7 16227.1 1208.06   1
   2   1   7 16063.7 1009.00   2
  -2   3   7 16441.2 621.125   4
   2   1   7 15474.1 1150.73   1
   1  -3   7 16098.2 874.945   2
   3  -1   7 14687.4 1095.43   1
  -3   2   7 16582.4 818.199   2
   3  -1   7 15815.5 1010.48   2
  -3   2   7 17103.4 1217.59   1
  -1  -2   7 14859.4 1107.72   1
  -2   3  10-502.030 704.860   1
  -2   3  10-123.377 419.583   2
  -3   2  10 922.310 809.916   1
   2   1  10-418.371 765.846   1
   2   1  10 549.383 557.805   2
   3  -1  10-742.414 698.067   1
   1  -3  10 99.9120 623.785   1
   3  -1  10 432.425 536.089   2
  -1  -2  10-1278.50 764.888   1
   1  -3  10 53.5393 487.155   2
  -1  -2  10 114.770 429.547   2
   3  -1  10 128.825 524.579   3
  -3   2  10 524.583 487.924   2
   0  -3  -6 68507.7 1306.15   4
   3   0  -6 59211.5 776.159   4
   3   0  -3 12.9663 345.857   1
  -3   3  -3 9.56269 277.010   1
   0  -3  -3 119.062 232.679   4
   0  -3  -3 52.6690 317.545   2
   0  -3   0 128617. 1387.55   2
   3   0   0 127862. 1025.96   1
   3   0   0 128905. 1254.44   3
  -3   3   0 128602. 1208.39   3
  -3   3   0 128401. 1368.00   2
   0  -3   0 129545. 1361.46   4
  -3   3   0 128982. 1332.58   4
  -3   3   3 250.753 225.356   4
   3   0   3 118.243 286.721   2
  -3   3   3 39.5558 220.521   2
   3   0   3 35.6378 207.005   4
  -3   3   3-186.218 331.224   3
   0  -3   3 48.3936 199.232   2
   0  -3   3 554.351 329.166   1
  -3   3   3 310.367 415.626   1
   3   0   3 10.5844 217.831   3
  -3   3   6 118775. 2043.80   2
   3   0   6 108511. 1432.51   4
   0  -3   6 119550. 2534.74   1
   3   0   6 117182. 2654.55   1
   0  -3   6 119561. 1898.29   2
  -3   3   6 120851. 2830.17   3
   3   0   6 111622. 2443.41   2
  -3   3   6 117688. 2836.51   1
   3   0   9 48.1016 648.078   1
   3   0   9 850.709 584.034   2
  -3   3   9 324.021 439.003   2
   0  -3   9-91.7784 397.576   2
   0  -3   9-505.287 677.903   1
  -3   3   9-587.595 763.816   1
   4  -4  -7 52.9022 267.320   4
   4  -4  -4 3518.05 406.742   4
   0   4  -4 4386.05 540.525   1
   4  -4  -4 4331.76 409.869   2
   0   4  -1 29.2174 195.628   1
   4  -4  -1 222.815 241.223   2
  -4   0  -1 118.284 164.613   3
   4  -4  -1 202.231 238.737   3
   0   4  -1 95.1525 216.617   4
   0   4  -1-31.3875 223.694   2
   4  -4  -1 32.2079 245.297   4
  -4   0  -1-245.115 162.024   1
   0   4   2 22201.2 833.234   2
   0   4   2 25330.0 514.644   3
   0   4   2 24641.8 786.858   4
  -4   0   2 23123.0 910.271   3
   4  -4   2 24898.8 544.584   1
   4  -4   2 24923.9 648.365   4
  -4   0   2 23728.9 806.235   1
   4  -4   2 27360.3 890.260   3
   4  -4   5 147.268 363.159   1
  -4   0   5 459.443 438.311   1
  -4   0   5 90.7413 116.544   2
  -4   0   5-68.6061 503.840   3
   0   4   5 65.4267 360.794   2
   4  -4   5-40.6511 95.0815   4
   0   4   5 62.1852 264.632   4
   4  -4   5 55.7495 106.385   4
   0   4   8 22938.6 1541.97   1
   4  -4   8 21837.9 1243.21   2
   0   4   8 21769.6 831.577   4
  -4   0   8 20957.3 711.035   2
   0   4   8 22946.6 1254.62   2
  -4   0   8 23363.2 1454.19   1
   4  -4   8 22705.4 1322.22   1
   4  -4  11-33.2881 693.911   1
   0   4  11 271.204 612.070   2
  -4   0  11 914.386 827.682   1
   4  -4  11 171.111 602.997   2
   0   4  11 258.563 813.215   1
   4  -4  11-38.1935 703.475   3
   3  -4  -8 5399.52 428.282   4
   4  -3  -8 4792.82 340.111   4
   4  -3  -5 8346.88 513.882   2
  -1   4  -5 9448.34 760.726   1
   1   3  -5 8253.69 761.139   1
   3  -4  -5 9503.82 549.018   4
   3  -4  -5 8948.99 603.329   2
   4  -3  -5 8837.80 490.131   4
  -4   1  -2 6918.19 421.891   3
  -1   4  -2 5989.17 311.291   4
   3  -4  -2 5487.48 417.964   4
   4  -3  -2 5562.44 393.612   4
  -1   4  -2 6631.42 410.102   1
   3  -4  -2 7053.13 452.823   2
  -3  -1  -2 5616.64 421.536   4
   4  -3  -2 5955.23 498.511   1
   1   3  -2 6206.65 429.043   1
  -1   4  -2 5882.66 379.967   2
   1   3  -2 6346.39 296.859   2
   4  -3  -2 5885.60 351.956   2
   4  -3  -2 6125.89 495.590   3
   3  -4  -2 6547.87 451.188   3
   1   3  -2 6113.77 319.355   4
  -3  -1   1 1966.68 346.953   3
   4  -3   1 2022.36 266.835   3
   1   3   1 2286.70 264.227   1
  -4   1   1 2519.25 372.036   3
  -1   4   1 2452.98 314.961   4
   3  -4   1 2459.16 330.100   2
   1   3   1 2196.44 324.253   2
  -4   1   1 2359.88 282.004   1
   3  -4   1 2685.89 326.027   3
  -3  -1   1 2648.49 299.860   1
   1   3   1 2718.62 323.975   4
  -1   4   1 2328.91 344.191   2
   3  -4   1 2257.56 282.428   4
   4  -3   4 1292.29 399.032   3
  -4   1   4 1627.95 490.669   3
  -3  -1   4 2136.54 500.699   1
  -1   4   4 1376.50 317.058   4
  -1   4   4 1244.88 344.174   2
  -4   1   4 1437.83 440.965   1
   1   3   4 1793.93 391.507   2
   3  -4   4 1810.48 382.592   1
   4  -3   4 1685.24 349.284   1
   1   3   4 1644.29 330.221   4
  -4   1   4 1614.28 178.042   2
  -1   4   4 2434.91 392.270   3
   3  -4   4 1285.81 146.230   4
   3  -4   7 4296.01 635.958   1
  -1   4   7 3792.98 414.789   4
   1   3   7 2804.10 732.579   1
  -4   1   7 3119.38 726.443   1
  -4   1   7 4241.79 396.441   2
   1   3   7 3844.32 591.247   2
   1   3   7 4103.24 420.956   4
  -3  -1   7 3006.66 335.881   2
   4  -3   7 3657.07 613.076   2
  -1   4   7 4336.35 729.149   3
   3  -4   7 3130.10 545.752   2
  -3  -1   7 4402.20 714.033   1
   4  -3   7 3821.93 628.398   1
  -1   4   7 3454.17 545.492   2
  -1   4   7 4252.79 782.384   1
   1   3  10 4517.20 1004.88   1
   4  -3  10 5476.40 937.056   1
   3  -4  10 4193.76 715.526   2
  -3  -1  10 5535.25 987.054   1
  -4   1  10 3746.30 435.407   2
  -3  -1  10 4218.65 428.741   2
  -4   1  10 3726.91 903.074   1
  -1   4  10 5037.49 1039.64   1
   4  -3  10 5523.81 834.554   2
   3  -4  10 4803.65 874.476   1
   1   3  10 4859.14 789.811   2
   4  -3  10 4369.04 871.048   3
  -1   4  10 5011.41 768.647   2
   2  -4  -9 14874.1 603.144   4
  -2  -2  -6 13990.6 654.884   4
   2  -4  -6 14517.8 865.235   2
   2  -4  -6 15143.8 684.012   4
   4  -2  -6 15606.0 577.058   4
  -2   4  -6 15294.1 1019.56   1
  -2  -2  -3 81550.5 1361.12   4
   4  -2  -3 85783.7 1253.44   4
   2  -4  -3 84005.9 1530.75   2
   4  -2  -3 86015.3 1786.73   1
  -2   4  -3 82126.6 857.652   4
  -2   4  -3 86647.5 1491.67   1
   2   2  -3 87374.5 1705.75   1
   2  -4  -3 85170.0 1443.57   4
   4  -2  -3 84816.4 1025.05   2
   2   2  -3 85895.1 1014.12   4
  -2  -2  -3 85152.0 1703.94   2
   4  -2   0 54667.2 642.709   1
  -2  -2   0 55288.8 787.397   3
   2   2   0 53685.0 776.393   3
   2   2   0 57532.6 989.919   4
   4  -2   0 56231.2 924.863   3
  -4   2   0 55231.9 610.632   1
   2  -4   0 56598.0 954.045   4
  -2   4   0 56258.0 700.006   1
  -4   2   0 57437.7 912.413   3
  -2   4   0 55845.4 959.900   4
  -2   4   0 54542.5 779.663   3
  -2  -2   0 55461.5 945.160   2
   2  -4   0 55510.9 993.622   2
   2   2   0 56153.5 935.177   2
   2   2   0 57098.5 826.174   1
  -2  -2   0 56567.4 989.898   4
   2  -4   0 55382.9 768.344   3
  -2   4   3 77025.3 1316.13   4
   2   2   3 77520.1 1659.90   2
  -2   4   3 79723.8 1469.74   3
  -4   2   3 76923.1 1739.80   3
  -4   2   3 79722.5 993.885   2
  -4   2   3 72734.3 1623.65   1
   4  -2   3 77464.5 1373.16   1
   2   2   3 77223.9 1310.04   4
   4  -2   3 80796.4 1507.31   3
   2  -4   3 79869.9 868.227   4
   2  -4   3 80125.6 1363.18   1
  -2   4   3 78485.6 1485.86   2
  -2  -2   3 77413.8 1529.83   1
  -2  -2   6 13815.3 565.466   2
  -2   4   6 14587.5 863.144   2
  -4   2   6 15034.7 1056.68   1
   4  -2   6 12527.0 420.278   4
   2   2   6 15858.0 967.823   2
  -2   4   6 15165.8 1032.83   3
  -2   4   6 14108.3 1089.31   1
  -2  -2   6 16609.8 1037.40   1
  -2   4   6 15352.0 673.811   4
   4  -2   6 14179.9 931.252   2
  -4   2   6 15728.1 678.714   2
   2   2   6 14519.1 648.685   4
   4  -2   6 15234.2 969.652   1
   2  -4   6 15396.3 945.130   1
   2   2   6 13364.5 1008.29   1
  -4   2   9 22299.3 1636.84   1
   2   2   9 19367.5 1287.04   2
  -4   2   9 19562.1 903.246   2
   2   2   9 20529.7 1584.19   1
  -2  -2   9 20788.7 1465.40   1
   2  -4   9 21561.4 1402.24   1
  -2  -2   9 18726.3 831.158   2
  -2   4   9 19409.8 1156.29   2
   4  -2   9 21102.6 1457.84   1
   2  -4   9 21136.4 1177.02   2
   4  -2   9 22452.1 1372.40   2
  -2  -2   9 19982.3 837.477   2
  -2   4   9 21121.6 1624.57   1
   4  -2   9 22372.7 1444.89   3
  -1  -3  -7 3479.19 415.987   4
   4  -1  -7 2623.10 226.793   4
   1  -4  -7 3173.88 397.980   4
   3   1  -4 3508.48 561.751   1
   4  -1  -4 2489.42 288.486   4
   1  -4  -4 2255.19 411.139   2
  -1  -3  -4 2143.77 327.759   4
  -1  -3  -4 2352.20 432.784   2
  -3   4  -4 2699.76 451.548   1
   1  -4  -4 2518.73 362.399   4
   4  -1  -4 2545.75 468.500   1
   3   1  -1 2960.25 372.708   3
  -4   3  -1 2178.26 268.611   3
  -3   4  -1 2504.31 300.891   3
  -1  -3  -1 2508.38 315.146   4
  -1  -3  -1 2576.98 341.338   2
   4  -1  -1 3019.18 322.668   1
   3   1  -1 2429.08 208.441   2
   4  -1  -1 2575.59 351.481   3
  -3   4  -1 2350.78 271.271   4
   1  -4  -1 2461.28 335.060   2
   1  -4  -1 1861.96 304.553   4
   3   1  -1 2456.38 306.160   1
  -3   4  -1 2211.90 319.306   2
  -1  -3   2 5892.00 289.488   2
   3   1   2 5050.24 398.699   4
  -4   3   2 5811.68 477.993   3
  -3   4   2 6081.79 421.393   4
  -3   4   2 5164.30 410.890   3
   1  -4   2 5363.79 366.410   2
  -1  -3   2 5469.73 320.989   4
   3   1   2 5541.44 505.658   2
  -4   3   2 5611.97 353.618   2
  -4   3   2 5141.68 383.162   4
  -3   4   2 5296.69 416.219   2
   1  -4   2 4798.46 345.965   1
   3   1   2 5459.33 302.626   3
   4  -1   2 5096.85 373.668   3
   1  -4   2 5618.31 311.583   4
  -1  -3   2 5586.59 412.612   1
  -4   3   2 5372.41 500.552   1
   3   1   5 10366.7 773.996   2
  -3   4   5 10223.2 563.093   4
  -4   3   5 9849.28 850.562   3
   3   1   5 10239.7 542.643   4
  -1  -3   5 9715.00 472.506   2
  -1  -3   5 9386.34 736.280   1
   4  -1   5 10639.7 484.833   4
  -3   4   5 10073.3 902.072   1
   4  -1   5 10183.7 684.045   3
  -3   4   5 10542.0 652.909   2
  -4   3   5 9788.84 898.363   1
   1  -4   5 9485.54 734.880   1
  -3   4   5 9834.54 804.419   3
   4  -1   5 9703.67 737.335   2
   4  -1   5 10139.9 786.193   1
  -4   3   5 10553.6 575.581   2
  -4   3   8 5037.83 892.122   1
   3   1   8 6317.68 824.881   2
  -3   4   8 7464.67 1044.72   1
   3   1   8 6363.60 876.842   1
  -4   3   8 6060.01 589.326   2
  -1  -3   8 6224.88 845.091   1
   1  -4   8 6164.75 647.849   2
   4  -1   8 6958.09 784.289   3
  -3   4   8 5769.12 651.389   2
   4  -1   8 6644.82 790.942   2
  -1  -3   8 6176.23 544.480   2
   4  -1   8 6409.48 877.558   1
   1  -4   8 5627.10 783.927   1
   3   1   8 5469.73 367.592   4
  -1  -3   8 5318.46 507.733   2
   4  -1  11 313.665 647.468   2
   3   1  11 607.714 607.280   2
  -3   4  11 622.381 511.072   2
   4  -1  11 428.195 618.536   3
  -4   3  11-33.2274 829.522   1
   3   1  11 185.512 628.562   3
   1  -4  11 818.963 701.067   1
   4  -1  11-666.968 770.246   1
  -1  -3  11-222.583 778.509   1
   3   1  11 1385.26 832.767   1
  -3   4  11-346.911 792.050   1
   0  -4  -8 17138.6 772.682   4
   0  -4  -5-81.3527 281.446   4
   0  -4  -5 531.800 387.669   2
   4   0  -5 361.439 450.364   1
   4   0  -5 307.649 189.126   4
   0  -4  -2 20283.1 748.599   4
  -4   4  -2 21377.1 545.865   1
  -4   4  -2 22368.5 795.296   3
   4   0  -2 22323.1 802.743   1
   0  -4  -2 20927.8 817.679   2
   0  -4   1 236.532 205.212   1
   4   0   1 208.389 176.054   3
   0  -4   1 246.653 231.924   2
  -4   4   1 213.959 255.793   2
   4   0   1 65.5604 148.278   1
   0  -4   1 76.4295 221.474   4
  -4   4   1 2.79742 249.601   4
  -4   4   1 76.1497 233.491   3
   4   0   4 5237.25 479.610   3
  -4   4   4 5006.40 449.541   2
   4   0   4 4686.03 377.996   4
   0  -4   4 5292.42 538.772   1
   4   0   4 3920.96 508.410   2
   0  -4   4 5285.60 388.323   2
  -4   4   4 5087.59 432.660   4
  -4   4   4 5012.36 586.226   3
  -4   4   4 5714.10 652.429   1
   4   0   7-198.524 463.596   2
   0  -4   7 150.568 298.989   2
  -4   4   7-155.351 556.847   1
   4   0   7 240.710 528.962   1
   4   0   7 196.839 219.016   4
   4   0   7 165.400 353.460   3
   0  -4   7-217.108 329.936   2
   0  -4   7 58.5144 509.143   1
  -4   4   7 301.447 318.985   2
   4   0  10 8285.08 928.100   3
   4   0  10 8933.91 1063.39   2
  -4   4  10 9366.49 827.403   2
   0  -4  10 8278.90 717.040   2
   4   0  10 10069.6 1183.47   1
  -4   4  10 8818.60 1296.50   1
   0  -4  10 9588.63 1163.20   1
   5  -5  -8 2128.67 399.900   4
   0   5  -5-347.512 398.398   1
   5  -5  -5-127.516 269.400   4
   5  -5  -5 154.466 300.522   2
   0   5  -2 82536.5 1256.26   2
   5  -5  -2 82081.2 1399.29   2
   0   5  -2 80419.4 1248.56   4
   5  -5  -2 79567.1 1558.19   3
   5  -5  -2 82386.0 1501.00   4
   0   5  -2 81204.5 1349.28   1
  -5   0  -2 85526.8 1198.12   3
   5  -5   1 30.3604 310.905   2
  -5   0   1 72.8485 244.602   1
   0   5   1 39.3648 314.257   2
   5  -5   1 63.3016 248.975   4
   0   5   1 9.25385 299.513   4
  -5   0   1 118.810 309.573   3
   5  -5   1 34.0825 255.083   3
   0   5   1 257.965 239.102   1
   5  -5   4 16661.2 902.681   3
   5  -5   4 19460.2 597.354   4
   0   5   4 17855.1 957.690   2
  -5   0   4 19460.4 1132.11   3
  -5   0   4 17986.5 962.442   1
   0   5   4 18099.6 757.772   3
   0   5   4 18393.0 828.133   4
   5  -5   4 18147.6 740.538   1
   5  -5   7 1456.77 563.950   3
   0   5   7 683.408 490.072   2
  -5   0   7 964.104 562.565   1
   0   5   7-417.695 566.051   1
   0   5   7 466.012 484.002   3
   5  -5   7 330.013 474.243   1
   0   5   7 107.577 317.638   4
   5  -5  10 12756.8 1166.33   1
   5  -5  10 11156.7 1067.72   2
   0   5  10 10196.0 1361.39   1
   5  -5  10 10000.4 1195.89   3
   0   5  10 10335.1 1063.09   2
  -5   0  10 10267.6 1289.16   1
   4  -5  -9 10129.3 589.689   4
   5  -4  -9 9074.48 469.548   4
   4  -5  -6 15222.3 756.261   4
   5  -4  -6 15251.5 706.164   4
   5  -4  -6 15146.2 748.797   2
   4  -5  -6 15272.7 845.126   2
   5  -4  -3 33102.0 1169.11   3
   1   4  -3 34185.8 725.270   4
   5  -4  -3 34032.3 869.606   2
   4  -5  -3 31028.2 1042.58   3
   4  -5  -3 32322.7 986.329   4
   1   4  -3 34062.4 1056.45   1
  -4  -1  -3 32373.6 983.427   4
   5  -4  -3 33152.7 948.146   4
  -1   5  -3 33499.0 680.049   4
  -1   5  -3 33528.6 994.938   1
   4  -5  -3 33787.3 984.846   2
   4  -5   0 6267.77 376.218   3
   5  -4   0 6415.12 421.405   3
  -5   1   0 5833.19 400.841   3
   4  -5   0 6032.00 434.389   4
   1   4   0 6304.09 427.692   2
  -4  -1   0 6262.69 394.479   3
   1   4   0 5652.61 436.931   4
  -1   5   0 5490.24 445.879   4
   5  -4   0 4918.59 398.660   4
   4  -5   0 5892.73 450.577   2
  -4  -1   0 6047.59 342.929   1
  -1   5   0 6445.45 325.862   1
  -5   1   0 6328.11 317.769   1
  -1   5   0 6160.53 453.457   2
   5  -4   0 6047.24 447.026   2
   4  -5   3 72841.2 1195.32   1
  -5   1   3 73328.7 1833.76   3
   4  -5   3 75204.6 1092.73   4
   4  -5   3 73816.6 1644.11   3
   5  -4   3 74106.4 1228.68   1
  -5   1   3 71641.5 1611.83   1
  -1   5   3 71862.0 1443.36   4
  -4  -1   3 76851.1 1898.15   3
   1   4   3 73050.5 1445.99   4
   1   4   3 73057.1 1679.69   2
   5  -4   3 77077.0 1623.20   3
  -1   5   3 70653.5 1593.71   2
  -1   5   3 76910.9 1271.48   3
  -4  -1   3 72095.8 1574.46   1
   4  -5   6 7898.28 710.199   1
  -1   5   6 7571.92 889.072   1
  -1   5   6 8370.67 743.388   2
   5  -4   6 7652.82 707.639   1
   5  -4   6 8328.35 771.891   3
  -4  -1   6 7963.90 837.785   1
  -5   1   6 8701.78 901.098   1
   5  -4   6 6863.40 305.683   4
   5  -4   6 6740.61 300.137   4
  -1   5   6 7128.46 576.651   4
  -1   5   6 7898.12 766.921   3
   1   4   6 8151.24 600.173   4
  -5   1   6 7485.57 352.256   2
   1   4   6 7609.64 778.275   2
   5  -4   9 23789.6 1425.24   2
   1   4   9 21333.9 828.102   4
   5  -4   9 24053.6 1532.85   3
  -5   1   9 23746.8 1646.20   1
  -1   5   9 21216.9 857.013   4
   5  -4   9 24062.5 1477.08   1
  -4  -1   9 24332.4 1577.64   1
  -4  -1   9 17210.5 569.670   2
   4  -5   9 21290.2 1395.72   1
  -1   5   9 23248.2 1674.34   1
  -5   1   9 20103.8 679.643   2
  -4  -1   9 16533.9 531.748   2
   1   4   9 22457.8 1397.41   2
  -1   5   9 22674.8 1339.01   2
   4  -5   9 22181.3 1322.33   2
   4  -5   9 23994.6 1584.97   3
   1   4   9 18022.8 1536.64   1
   5  -3  -7 14683.1 638.596   4
   3  -5  -7 14399.4 906.926   2
   3  -5  -7 13188.1 728.143   4
   2   3  -4 3247.90 499.744   1
  -3  -2  -4 3446.88 380.972   4
   3  -5  -4 4264.50 472.687   2
   3  -5  -4 4489.51 443.989   4
   2   3  -4 4163.56 268.041   4
   5  -3  -4 3434.97 328.444   2
  -2   5  -4 5246.87 541.520   1
   5  -3  -4 3807.08 566.211   1
   5  -3  -4 3502.16 381.030   4
   3  -5  -1 16126.2 655.151   2
  -3  -2  -1 17193.7 369.604   3
  -2   5  -1 15640.9 566.741   4
   5  -3  -1 18185.0 633.061   1
  -3  -2  -1 15111.1 680.448   2
   2   3  -1 15882.5 517.202   2
   2   3  -1 16159.3 573.875   1
   5  -3  -1 17393.1 641.666   4
  -2   5  -1 17675.4 635.220   2
   2   3  -1 16285.7 592.927   4
  -5   2  -1 16789.6 564.609   3
  -3  -2  -1 16853.8 552.298   1
  -3  -2  -1 16693.4 668.064   4
   5  -3  -1 17735.3 582.622   2
  -5   2  -1 18224.0 362.056   1
  -2   5  -1 17709.8 466.390   1
   5  -3  -1 17169.3 705.498   3
   3  -5  -1 15890.9 649.932   4
   3  -5  -1 17224.8 526.827   3
  -5   2   2 18589.6 499.202   2
   2   3   2 16801.4 375.633   3
   3  -5   2 17344.0 556.762   4
  -5   2   2 18579.0 756.376   1
   3  -5   2 19128.1 724.665   2
   2   3   2 15222.5 687.517   4
  -2   5   2 19177.8 581.027   3
   3  -5   2 18065.0 514.609   1
  -2   5   2 18495.0 767.160   2
   2   3   2 16879.4 795.747   2
   5  -3   2 17311.1 672.397   3
  -2   5   2 17337.8 705.818   4
   3  -5   2 17715.4 768.872   3
  -5   2   2 19261.0 838.671   3
  -3  -2   2 18741.2 717.041   1
   2   3   5 4948.58 630.691   2
  -2   5   5 4280.90 437.422   4
   3  -5   5 4862.20 553.257   1
  -3  -2   5 3559.77 215.053   2
  -2   5   5 5134.31 747.319   1
   2   3   5 4314.81 453.097   4
  -2   5   5 4112.98 514.910   2
   5  -3   5 4133.16 509.282   1
  -5   2   5 4916.49 707.219   3
   5  -3   5 4985.57 574.609   3
  -5   2   5 4804.15 713.733   1
  -5   2   5 3974.70 300.591   2
  -2   5   5 5382.16 581.242   3
   5  -3   5 4590.85 347.806   4
  -3  -2   5 3866.63 588.752   1
   2   3   8 14308.6 700.335   4
   2   3   8 14143.1 1118.24   2
   3  -5   8 15257.9 1089.68   1
  -2   5   8 14991.6 1033.08   2
  -3  -2   8 14349.5 1173.59   1
  -5   2   8 12695.6 1176.45   1
   5  -3   8 13872.1 1086.57   2
   5  -3   8 15447.3 1142.34   1
  -3  -2   8 13673.4 564.551   2
  -2   5   8 14970.8 1309.55   1
  -3  -2   8 13186.9 572.992   2
   2   3   8 12680.3 1189.26   1
  -5   2   8 14425.8 678.853   2
   5  -3   8 14935.9 1127.74   3
   3  -5   8 14440.1 993.875   2
  -2   5   8 14413.3 727.064   4
  -2   5  11-311.414 823.974   1
   2   3  11 981.376 620.765   2
   5  -3  11 542.291 739.391   2
  -2   5  11 123.059 542.050   2
   5  -3  11 1786.59 772.481   3
   5  -3  11 921.580 732.806   1
   2   3  11 1028.56 661.550   3
  -5   2  11 1278.63 847.589   1
   3  -5  11 776.008 785.814   3
   3  -5  11 833.510 588.144   2
  -3  -2  11 550.538 795.136   1
   2   3  11 1262.80 866.787   1
   3  -5  11 417.244 727.053   1
   5  -2  -8 11252.0 448.068   4
   2  -5  -8 12235.0 694.728   4
   3   2  -5 4500.27 274.322   4
   5  -2  -5 5238.03 701.815   1
   5  -2  -5 5466.11 408.211   4
   3   2  -5 3992.65 626.819   1
   2  -5  -5 4916.34 473.065   4
   3   2  -5 4305.62 257.487   4
  -2  -3  -5 4531.81 436.078   4
   2  -5  -5 5902.11 575.841   2
  -3   5  -5 4835.13 590.214   1
  -2  -3  -2 16896.7 794.653   2
  -5   3  -2 17074.7 679.235   3
   3   2  -2 17952.7 729.391   1
   5  -2  -2 17061.3 466.114   2
   2  -5  -2 15907.2 713.364   2
  -2  -3  -2 16276.1 681.705   4
   5  -2  -2 15858.9 732.081   1
   3   2  -2 14866.2 579.787   4
   2  -5  -2 16249.8 558.391   3
  -3   5  -2 17153.4 560.249   4
  -3   5  -2 16903.5 523.746   1
   2  -5  -2 15797.6 706.936   4
   5  -2  -2 13870.0 766.159   3
   5  -2   1 17050.0 568.244   3
  -3   5   1 17050.7 506.675   3
  -3   5   1 16978.5 675.969   2
   2  -5   1 17052.5 602.438   4
   2  -5   1 16289.6 615.417   3
   3   2   1 16836.3 711.022   2
   3   2   1 15993.1 643.962   4
   3   2   1 17210.7 528.969   1
  -2  -3   1 16299.5 568.685   1
  -5   3   1 17092.1 584.851   2
   2  -5   1 17406.1 663.202   2
  -3   5   1 16865.7 660.911   4
   2  -5   1 16783.5 468.908   1
  -5   3   1 17429.6 605.992   1
  -2  -3   1 17525.6 539.471   2
  -2  -3   1 16726.1 610.764   4
  -5   3   1 15589.2 670.305   3
   3   2   1 17217.2 398.951   3
   5  -2   1 15253.0 331.409   1
   5  -2   4 3610.12 354.141   4
  -2  -3   4 3810.12 238.697   2
   5  -2   4 4671.84 492.476   1
  -5   3   4 3977.50 589.886   3
  -2  -3   4 3923.95 503.476   1
  -5   3   4 3839.77 347.544   2
   3   2   4 4464.58 402.654   3
   3   2   4 4323.80 555.490   2
   2  -5   4 4376.79 488.930   1
  -3   5   4 3849.95 414.112   4
  -3   5   4 4062.38 595.777   1
   3   2   4 4259.71 428.324   4
  -3   5   4 4159.00 464.961   2
   5  -2   4 4224.05 485.761   3
   2  -5   4 4416.22 432.620   2
  -3   5   4 3793.36 483.774   3
  -5   3   4 4022.18 583.315   1
   2  -5   4 3239.44 215.324   4
   5  -2   7 11844.9 463.078   4
   5  -2   7 12149.3 1024.41   1
   3   2   7 12531.5 971.544   2
   5  -2   7 14786.0 991.425   3
  -2  -3   7 12934.2 573.478   2
  -5   3   7 14835.6 1221.02   1
   2  -5   7 15118.0 1010.17   1
  -3   5   7 14072.8 713.574   4
   3   2   7 13856.8 1184.52   1
  -5   3   7 14656.6 701.924   2
  -3   5   7 14647.7 920.660   2
   5  -2   7 12561.8 977.402   2
  -2  -3   7 14377.3 609.270   2
   3   2   7 13378.6 668.733   4
  -3   5   7 13389.3 1193.05   1
  -2  -3   7 15336.9 1098.39   1
   5  -2  10 7144.60 932.501   2
   3   2  10 9087.87 1019.13   2
   5  -2  10 7108.48 1028.63   1
   5  -2  10 8195.43 964.922   3
  -3   5  10 6347.26 1116.58   1
  -2  -3  10 7352.01 1068.28   1
   3   2  10 10044.7 1035.76   3
  -5   3  10 6159.30 1095.69   1
  -3   5  10 7860.45 827.577   2
   2  -5  10 7369.17 1014.51   1
   3   2  10 6927.50 1137.14   1
  -5   3  10 7254.57 636.332   2
   2  -5  10 7036.49 799.026   2
   1  -5  -9 17687.9 810.153   4
   1  -5  -6 8778.12 754.812   2
   4   1  -6 8068.87 343.675   4
   5  -1  -6 8880.92 451.377   4
   4   1  -6 7266.61 345.789   4
  -1  -4  -6 6935.18 572.657   4
   1  -5  -6 7814.90 587.198   4
   1  -5  -3 81862.0 1708.40   2
  -1  -4  -3 75843.5 1494.31   4
  -1  -4  -3 79576.0 1739.46   2
   4   1  -3 79060.5 1709.71   1
  -4   5  -3 80749.8 1352.80   1
   5  -1  -3 79777.6 1771.80   1
   1  -5  -3 77518.2 1529.66   4
   5  -1   0 8439.97 350.638   1
   4   1   0 8372.79 521.151   4
  -1  -4   0 7989.09 495.699   2
  -5   4   0 8362.43 305.670   1
   4   1   0 8043.55 469.941   2
  -4   5   0 8018.55 410.186   3
   1  -5   0 7889.19 354.911   3
   5  -1   0 8314.43 480.384   3
   1  -5   0 9187.22 519.737   4
  -1  -4   0 10471.2 428.755   1
  -5   4   0 8585.38 511.223   2
   1  -5   0 8409.63 514.373   2
  -5   4   0 8296.09 438.307   3
   4   1   0 8894.27 472.122   3
  -4   5   0 8796.23 510.808   2
  -1  -4   0 8296.15 502.152   4
  -4   5   0 8181.09 489.511   4
   4   1   0 8075.28 380.755   1
   1  -5   0 9348.16 390.888   1
   1  -5   3 37534.9 735.491   4
   4   1   3 32704.6 956.101   4
  -4   5   3 35529.2 999.979   4
  -4   5   3 35710.7 1261.41   1
  -1  -4   3 36261.9 1059.67   1
  -4   5   3 34092.2 994.585   2
  -5   4   3 34383.6 962.944   4
  -1  -4   3 35935.8 785.132   4
   4   1   3 33161.1 1202.19   2
   1  -5   3 35437.5 903.838   2
   5  -1   3 33700.2 930.500   4
  -5   4   3 35348.8 1236.34   1
  -5   4   3 35525.6 873.438   2
   5  -1   3 34823.3 960.556   3
   1  -5   3 35503.7 974.559   1
  -4   5   3 35610.8 1125.47   3
   4   1   3 37530.3 872.958   3
  -1  -4   3 36872.0 744.918   2
  -5   4   3 35385.3 1213.58   3
   4   1   6 16714.0 1139.43   1
  -4   5   6 16258.1 770.306   4
   5  -1   6 16154.7 643.832   4
  -5   4   6 18245.8 1199.95   1
  -1  -4   6 16008.2 653.040   2
   5  -1   6 14866.3 999.757   2
  -5   4   6 17037.5 785.276   2
   4   1   6 16244.4 729.148   4
   5  -1   6 15259.5 910.572   3
  -4   5   6 14229.2 1049.03   3
   4   1   6 16630.5 890.867   3
   5  -1   6 15548.1 1021.09   1
   4   1   6 16738.7 1052.67   2
   1  -5   6 16351.1 968.690   1
  -1  -4   6 16431.0 1012.47   1
  -4   5   6 15800.8 1152.31   1
  -1  -4   6 14000.8 625.453   2
  -4   5   6 15985.2 873.904   2
   1  -5   6 17144.6 805.207   2
  -1  -4   9 9443.91 643.367   2
   4   1   9 11270.4 1244.04   1
  -5   4   9 11115.5 790.701   2
   4   1   9 8245.47 428.067   4
   5  -1   9 9803.29 1080.39   1
  -5   4   9 11464.5 1311.72   1
   1  -5   9 10198.7 774.994   2
   1  -5   9 10316.4 806.729   2
  -1  -4   9 12288.3 1198.31   1
   4   1   9 11068.5 1026.00   3
  -1  -4   9 9421.50 635.352   2
   5  -1   9 10495.2 1030.12   3
   1  -5   9 11057.4 1051.34   1
  -4   5   9 10043.5 865.069   2
  -4   5   9 11881.7 1327.70   1
   4   1   9 11090.0 1076.03   2
   5  -1   9 10391.2 1021.27   2
   5   0  -7 108.337 149.725   4
   0  -5  -7 247.132 331.642   4
   5   0  -7 174.152 163.005   4
   0  -5  -4 18747.9 828.560   4
   5   0  -4 20441.8 1064.76   1
   0  -5  -4 18508.7 958.909   2
   5   0  -1-91.9093 252.164   1
  -5   5  -1 205.143 248.761   4
   0  -5  -1 76.9928 291.598   4
   0  -5  -1 233.772 318.488   2
  -5   5  -1 64.4010 250.794   3
   5   0  -1 202.313 319.515   3
   5   0   2 77271.4 1160.32   1
   5   0   2 79296.9 1461.04   4
   0  -5   2 81824.8 1310.68   1
   5   0   2 82031.6 1174.93   3
  -5   5   2 82288.2 1408.50   2
   0  -5   2 81921.4 1257.29   4
  -5   5   2 78551.4 1461.39   4
   0  -5   2 80668.0 1264.63   2
  -5   5   2 80737.9 1521.21   3
  -5   5   2 83854.8 1605.91   1
  -5   5   5-207.520 520.467   1
  -5   5   5 71.9401 285.179   4
   5   0   5-92.9863 271.411   4
   5   0   5 219.765 321.163   3
   0  -5   5 129.410 243.506   2
  -5   5   5 122.801 429.065   3
  -5   5   5 265.135 328.375   2
   0  -5   5-245.728 404.956   1
   5   0   5-105.374 386.064   2
   5   0   8 1849.94 543.297   2
  -5   5   8 2292.31 752.454   1
   5   0   8 1575.24 522.707   3
   5   0   8 1489.14 307.152   4
   0  -5   8 1241.60 405.044   2
   0  -5   8 1229.34 613.915   1
  -5   5   8 1732.43 447.901   2
   5   0   8 752.093 555.954   1
   0  -5   8 1386.03 410.801   2
   0  -5  11-6.95062 653.271   1
   5   0  11-266.637 638.054   2
  -5   5  11 1176.38 849.333   1
   5   0  11 218.049 615.215   3
   5   0  11 190.200 744.907   1
   6  -6  -9 102.462 384.261   4
   6  -6  -6 20643.4 931.714   2
   6  -6  -6 20350.1 918.145   4
   6  -6  -3 240.983 396.875   3
   0   6  -3-125.035 240.158   4
   6  -6  -3-92.0469 286.587   2
   0   6  -3 174.813 258.883   2
   6  -6  -3 201.268 331.423   4
   0   6  -3 338.482 335.230   1
  -6   0  -3 5.90161 255.416   3
   6  -6   0 12588.9 610.085   3
   0   6   0 11323.6 646.931   2
   6  -6   0 12095.7 644.009   4
   0   6   0 12859.4 679.372   4
  -6   0   0 14166.0 527.554   1
  -6   0   0 11433.6 570.191   3
   6  -6   0 13477.2 708.569   2
   0   6   0 12673.3 525.583   1
   6  -6   3 152.001 355.283   3
   0   6   3 432.589 380.002   2
  -6   0   3 623.885 452.896   3
   6  -6   3 493.863 269.838   4
  -6   0   3 787.901 368.824   1
   0   6   3 18.4347 320.139   4
   0   6   3 8.35733 161.383   3
   6  -6   3 176.110 188.833   1
   0   6   6 20423.2 961.385   4
   6  -6   6 20317.2 571.192   4
   6  -6   6 20079.2 601.786   4
   0   6   6 20706.2 1175.97   2
   6  -6   6 23617.8 1057.16   1
  -6   0   6 22131.8 1270.27   1
   6  -6   6 21313.9 1209.85   3
   0   6   6 23571.7 1093.68   3
  -6   0   9 521.488 710.644   1
   6  -6   9-490.704 590.019   1
   0   6   9 1.69062 375.066   4
   0   6   9-169.350 799.785   1
   6  -6   9 302.400 594.347   3
   6  -6   9 797.590 620.826   2
   0   6   9 520.517 595.739   2
   5  -6  -7 15335.2 824.921   4
   6  -5  -7 14126.2 763.131   4
   6  -5  -7 15950.3 821.897   2
   5  -6  -7 16773.6 960.440   2
   5  -6  -4 999.708 313.961   2
  -1   6  -4 493.632 369.677   1
   5  -6  -4 543.417 327.960   4
   6  -5  -4 805.968 332.781   4
   6  -5  -4 692.349 308.664   2
   1   5  -4 379.168 205.005   4
   1   5  -4 910.344 407.972   1
  -1   6  -4 488.241 185.842   4
  -6   1  -1 59494.1 864.677   1
   6  -5  -1 65919.2 1335.70   3
  -1   6  -1 66160.9 1290.42   4
   6  -5  -1 64571.1 1351.74   4
  -6   1  -1 65356.2 1114.37   3
   5  -6  -1 63961.8 1346.73   2
  -5  -1  -1 65270.5 1028.04   1
   5  -6  -1 64771.8 1370.18   4
  -1   6  -1 70358.5 1094.42   1
   5  -6  -1 64235.9 1218.76   3
  -1   6  -1 66043.6 1298.32   2
   6  -5  -1 65384.6 1291.30   2
  -5  -1  -1 65878.5 982.150   3
   1   5  -1 62702.8 1256.75   4
   1   5  -1 65402.1 1166.05   1
   1   5  -1 66055.4 1210.21   2
  -5  -1   2 47.0632 297.971   1
  -1   6   2 284.347 348.910   2
   5  -6   2-117.900 322.605   2
   1   5   2 374.234 300.389   4
  -5  -1   2 36.7023 390.200   3
   5  -6   2 460.467 320.192   3
   1   5   2-0.57514 343.255   2
   6  -5   2 397.455 131.269   1
  -1   6   2 883.013 371.605   4
   5  -6   2 154.262 134.627   1
   5  -6   2 425.314 257.894   4
   6  -5   2 547.270 327.239   3
   6  -5   2 179.635 252.052   4
  -1   6   2 268.530 142.531   3
  -6   1   2 108.171 374.469   3
  -6   1   2 356.522 320.003   1
  -1   6   5 8454.77 755.049   2
   1   5   5 8711.33 639.219   4
  -6   1   5 9470.57 849.747   1
  -5  -1   5 8411.11 755.362   1
   1   5   5 6861.49 724.452   2
   5  -6   5 8743.91 395.474   4
   6  -5   5 8821.37 643.411   1
   5  -6   5 8679.64 624.767   1
  -1   6   5 8377.99 618.508   4
   6  -5   5 8649.23 449.376   4
   6  -5   5 9770.33 777.437   3
  -1   6   5 7934.21 617.813   3
   5  -6   5 8476.37 759.427   3
   1   5   8 1190.43 414.992   4
   6  -5   8 1075.54 536.411   2
   5  -6   8 2247.99 584.257   1
   6  -5   8 1230.84 526.974   1
   1   5   8 1681.21 559.833   2
   5  -6   8 2051.78 561.562   2
  -5  -1   8 1804.22 740.773   1
  -1   6   8 1744.01 600.491   2
  -1   6   8 2028.53 733.608   1
  -6   1   8 2382.17 765.302   1
   5  -6   8 828.735 675.545   3
   1   5   8 2132.12 774.549   1
   6  -5   8 1808.52 591.874   3
  -1   6   8 1345.28 394.338   4
   5  -6  11 3801.34 1033.35   3
   6  -5  11 2557.20 839.629   1
   5  -6  11 2052.74 782.060   2
   6  -5  11 1727.59 759.023   3
   5  -6  11 2790.40 789.610   1
  -5  -1  11 1237.26 821.913   1
   1   5  11 1700.89 734.802   3
  -1   6  11 1417.27 939.387   1
   6  -5  11 1385.31 730.958   2
  -1   6  11 1022.30 651.090   2
   1   5  11 1445.88 736.686   2
  -6   1  11 2059.93 905.416   1
   1   5  11 3000.15 1122.49   1
   6  -4  -8 46.0969 294.105   4
   4  -6  -8 159.623 350.672   4
   6  -4  -5 14384.8 703.956   4
  -4  -2  -5 13687.5 743.375   4
   2   4  -5 13042.8 436.169   4
   4  -6  -5 13899.8 814.767   2
  -2   6  -5 16385.7 922.427   1
   6  -4  -5 16107.7 648.922   2
   2   4  -5 13703.9 932.132   1
   4  -6  -5 14658.7 772.110   4
   6  -4  -2 20535.5 834.046   1
   4  -6  -2 20944.5 839.538   2
  -4  -2  -2 19881.9 829.364   4
  -4  -2  -2 19735.3 516.685   3
   6  -4  -2 20369.9 671.769   2
   6  -4  -2 19809.1 891.896   3
  -2   6  -2 19344.7 655.222   4
  -4  -2  -2 20177.9 903.541   2
   4  -6  -2 19768.9 732.175   3
  -6   2  -2 20146.1 703.813   3
   2   4  -2 21201.2 776.077   1
   2   4  -2 18747.0 552.157   2
   4  -6  -2 19729.3 797.946   4
   2   4  -2 18277.1 653.804   4
  -2   6  -2 20628.6 649.746   1
   6  -4  -2 20054.3 774.722   4
  -2   6  -2 19637.9 759.269   2
  -6   2   1 5939.59 426.495   1
   2   4   1 6805.63 527.760   4
   6  -4   1 6272.44 455.584   3
   4  -6   1 7268.13 273.011   1
  -4  -2   1 6529.66 392.640   2
  -6   2   1 5580.37 500.660   3
   2   4   1 5641.08 392.001   1
  -2   6   1 5199.32 500.206   2
   4  -6   1 6337.01 510.796   2
   4  -6   1 6039.56 459.673   3
  -2   6   1 5981.30 506.426   4
  -2   6   1 6375.50 298.142   3
  -4  -2   1 6729.95 438.849   1
   2   4   1 6356.03 520.695   2
  -4  -2   1 6037.41 530.419   3
   4  -6   1 5269.38 443.926   4
   2   4   4 6824.31 694.062   2
  -2   6   4 8249.78 596.820   3
  -4  -2   4 6766.28 647.706   1
   2   4   4 7715.12 588.247   4
  -6   2   4 7005.64 310.464   2
   4  -6   4 6994.87 519.738   1
  -6   2   4 6601.21 680.877   1
  -6   2   4 6228.97 754.748   3
   6  -4   4 7142.35 524.873   1
   6  -4   4 6864.73 632.990   3
   4  -6   4 6029.16 540.305   2
   4  -6   4 6781.78 673.700   3
  -2   6   4 8321.83 680.225   2
  -2   6   4 6164.12 549.748   4
   4  -6   4 7585.62 387.967   4
   2   4   7 17219.6 849.640   4
  -6   2   7 17134.8 569.043   2
   6  -4   7 20320.9 1217.09   2
  -2   6   7 18685.4 1114.73   2
   2   4   7 18583.8 1197.24   2
  -2   6   7 20062.3 924.537   4
  -2   6   7 17990.2 1381.26   1
   6  -4   7 16579.1 486.844   4
   2   4   7 17693.1 1269.60   1
  -6   2   7 20185.9 1336.57   1
  -4  -2   7 20608.9 1285.74   1
  -2   6   7 19389.7 1230.55   3
   6  -4   7 18747.8 1189.78   3
   6  -4   7 20320.6 1143.60   1
   4  -6   7 20518.4 1132.37   1
   6  -4   7 15693.7 482.474   4
   2   4  10 1009.43 607.546   2
   6  -4  10 1687.09 748.671   1
   2   4  10 879.203 602.340   3
  -4  -2  10 1109.25 717.369   1
   2   4  10 2275.98 961.267   1
  -6   2  10 2208.08 1184.76   1
   4  -6  10 690.096 648.300   2
  -2   6  10 749.629 556.315   2
   4  -6  10 788.323 616.873   1
  -2   6  10 354.073 779.282   1
   6  -4  10 1014.78 650.790   2
   4  -6  10 478.528 722.373   3
   6  -4  10 1215.98 649.523   3
   6  -3  -9 232.865 167.879   4
   3  -6  -9 686.605 385.290   4
   6  -3  -6 25407.4 864.306   4
  -3  -3  -6 24894.6 987.637   4
  -3   6  -6 27222.4 1278.26   1
   3  -6  -6 26878.8 1053.34   4
   3  -6  -6 28356.3 1215.23   2
  -3   6  -3 4481.69 418.458   1
   6  -3  -3 3217.54 523.945   3
  -3   6  -3 3668.63 316.100   4
  -3  -3  -3 3623.62 445.607   4
  -6   3  -3 3967.12 471.178   3
   3  -6  -3 3411.65 429.355   4
  -3  -3  -3 3923.92 498.958   2
   6  -3  -3 3865.92 518.252   1
   3  -6  -3 3448.99 408.948   3
   3   3  -3 3610.85 480.186   1
   3   3  -3 3560.80 337.041   4
   3  -6  -3 2690.77 440.274   2
   6  -3  -3 4132.82 311.814   2
   6  -3  -3 3010.22 378.259   4
   3  -6   0 292749. 2663.71   4
  -6   3   0 288436. 1694.82   1
  -3  -3   0 288745. 2568.99   2
  -3   6   0 292449. 2741.67   2
  -3   6   0 291574. 2185.63   3
  -3  -3   0 293809. 2192.49   3
   6  -3   0 291081. 1793.43   1
  -3   6   0 296595. 1951.78   1
  -3   6   0 292151. 2633.42   4
   3  -6   0 293399. 2743.30   2
   3   3   0 291958. 2562.62   2
  -3  -3   0 291857. 2716.86   4
   3   3   0 295129. 2270.38   1
   3   3   0 289333. 2667.89   4
  -6   3   0 294141. 2475.30   3
   3  -6   0 287284. 2140.60   3
   6  -3   0 289309. 2580.09   3
   3  -6   3 2977.81 308.846   4
   3   3   3 3156.93 425.789   4
  -6   3   3 3152.76 488.382   3
   3  -6   3 2759.79 338.907   1
  -3   6   3 3618.26 405.334   3
   3   3   3 3588.44 525.017   2
  -3   6   3 3510.95 497.215   2
   3   3   3 4232.66 307.638   3
  -6   3   3 4129.65 316.741   2
  -3   6   3 3345.33 419.381   4
   3  -6   3 4244.42 445.983   2
   6  -3   3 3982.58 440.434   3
  -6   3   3 3260.69 510.203   1
  -3  -3   3 4024.26 516.257   1
  -6   3   6 25349.5 762.404   2
   3  -6   6 25020.6 1139.89   1
  -3   6   6 24042.9 1457.84   1
  -3   6   6 24219.6 972.329   4
   3  -6   6 24724.4 1073.01   2
  -6   3   6 26146.6 1392.19   1
   6  -3   6 25100.0 763.284   4
   6  -3   6 24444.2 1172.24   1
   3   3   6 23561.2 1265.92   2
   3   3   6 23677.0 959.868   4
   6  -3   6 24154.3 1164.26   3
  -3   6   6 19270.1 1243.16   3
  -3  -3   6 20524.3 495.810   2
  -3  -3   6 25895.2 1288.61   1
  -3   6   6 24895.0 1164.52   2
   3   3   9 479.476 488.700   3
   3  -6   9-343.297 529.872   1
   6  -3   9 185.626 555.178   2
  -6   3   9 796.253 309.494   2
  -6   3   9-703.638 825.898   1
   6  -3   9 544.704 581.330   1
   3   3   9-168.657 509.137   2
   3  -6   9 253.613 487.004   2
  -3   6   9-324.598 721.420   1
  -3   6   9 223.816 361.826   4
   6  -3   9-295.429 547.826   3
  -3  -3   9 745.639 680.961   1
  -3  -3   9 62.4309 155.204   2
  -3  -3   9 138.098 131.504   2
   3   3   9 49.4845 284.885   4
  -3   6   9 743.417 567.136   2
   3   3   9 225.535 706.336   1
  -2  -4  -7 17117.0 878.577   4
   6  -2  -7 19351.5 702.750   4
   2  -6  -7 18123.1 896.311   4
   2  -6  -7 18610.7 1149.70   2
  -2  -4  -4 6407.03 668.372   2
   2  -6  -4 7379.51 646.520   2
   4   2  -4 7831.39 729.813   1
   2  -6  -4 8236.21 596.193   4
  -2  -4  -4 6935.68 539.473   4
   6  -2  -4 5576.10 287.125   2
   6  -2  -4 7332.18 717.612   1
   4   2  -4 6967.44 442.787   4
   6  -2  -4 6615.57 491.116   4
  -4   6  -4 7489.70 560.901   1
   6  -2  -1 7043.35 452.298   1
  -2  -4  -1 6172.44 521.974   2
  -4   6  -1 7257.13 545.817   2
  -4   6  -1 6920.72 460.472   4
   2  -6  -1 8186.45 561.578   4
   6  -2  -1 6235.82 542.028   3
  -2  -4  -1 6634.30 442.116   1
  -2  -4  -1 7270.19 528.729   4
   4   2  -1 6826.95 449.621   1
   4   2  -1 6966.17 399.021   2
   4   2  -1 6679.88 508.109   4
   2  -6  -1 7448.86 322.185   3
   2  -6  -1 7373.76 571.974   2
  -4   6  -1 7016.13 498.944   3
  -6   4  -1 6760.51 448.161   3
  -4   6  -1 7664.86 285.853   1
   4   2   2 18425.1 486.766   3
  -6   4   2 18589.8 866.781   3
   6  -2   2 21471.0 535.054   1
   6  -2   2 19340.0 692.274   3
  -6   4   2 18046.2 784.343   1
   4   2   2 17759.8 771.884   4
  -2  -4   2 18968.3 683.803   4
  -4   6   2 18089.3 781.914   2
  -6   4   2 18899.4 663.461   2
  -2  -4   2 18900.1 714.808   1
   2  -6   2 19240.3 751.582   2
  -2  -4   2 20287.0 590.835   2
   4   2   2 19636.0 689.063   1
   4   2   2 20177.7 937.024   2
   2  -6   2 19521.9 671.759   4
   2  -6   2 19332.2 598.430   1
  -4   6   2 17314.8 746.775   4
  -4   6   2 19683.1 711.278   3
   6  -2   5 14927.1 870.787   1
  -2  -4   5 16120.4 926.053   1
   6  -2   5 16381.4 895.126   3
  -4   6   5 15796.6 776.864   4
  -6   4   5 15030.8 638.428   2
  -6   4   5 16420.7 1079.81   1
  -2  -4   5 14959.3 490.221   2
  -4   6   5 16064.4 868.536   2
   6  -2   5 14910.5 656.012   4
  -4   6   5 15950.8 1092.71   1
   4   2   5 16599.8 1035.97   2
   4   2   5 16822.2 782.091   3
   2  -6   5 16611.6 875.685   1
   4   2   5 14630.2 760.217   4
  -6   4   5 14708.3 1048.21   3
  -4   6   5 15272.9 945.617   3
   2  -6   5 16306.7 794.591   2
  -4   6   8 419.035 434.958   2
  -6   4   8-206.204 701.813   1
  -2  -4   8-224.710 594.698   1
  -2  -4   8 393.607 231.763   2
   4   2   8 223.940 320.540   4
   4   2   8 105.148 405.644   3
   2  -6   8 75.9239 391.018   2
   2  -6   8-178.141 408.252   2
   2  -6   8-194.593 514.469   1
   6  -2   8 642.751 610.439   1
   4   2   8 290.854 468.539   2
  -4   6   8-466.007 638.358   1
   4   2   8 956.548 636.233   1
   6  -2   8 765.755 483.179   3
   6  -2   8-153.597 499.390   2
  -4   6   8-54.2041 354.162   4
   6  -2   8-64.0679 148.888   4
  -2  -4   8 201.345 202.987   2
  -6   4   8 290.508 334.264   2
  -4   6  11 2714.93 675.998   2
   6  -2  11 4192.43 919.502   2
   6  -2  11 3990.71 854.119   3
  -4   6  11 2621.53 1093.06   1
   4   2  11 3066.20 793.794   2
   2  -6  11 4899.05 964.822   1
  -2  -4  11 3364.80 850.999   1
  -6   4  11 3940.29 1108.22   1
   4   2  11 3534.13 810.158   3
   6  -2  11 3902.15 1018.68   1
   4   2  11 2073.06 914.545   1
   1  -6  -8 915.473 412.469   4
   6  -1  -8 830.791 192.968   4
   6  -1  -8 654.240 207.618   4
  -1  -5  -8 982.810 424.571   4
  -1  -5  -5 5978.69 560.598   4
  -1  -5  -5 6930.04 735.105   2
   6  -1  -5 7556.63 484.127   4
   1  -6  -5 6247.04 684.604   2
   1  -6  -5 7667.95 629.291   4
   5   1  -2 257.088 156.563   2
   1  -6  -2 111.794 355.646   2
   1  -6  -2-20.2324 333.341   4
  -1  -5  -2 614.290 367.164   4
  -5   6  -2 549.051 283.508   4
   5   1  -2 667.648 321.233   1
   6  -1  -2 193.284 413.332   3
  -1  -5  -2 493.406 350.811   2
  -6   5  -2 618.676 321.762   3
  -5   6  -2 606.918 185.092   1
   6  -1  -2 577.858 339.798   1
  -5   6  -2 904.921 373.074   3
   1  -6  -2 353.841 168.243   3
   1  -6   1 66039.9 1299.74   4
  -1  -5   1 66389.8 1254.91   2
   5   1   1 64765.7 995.242   1
  -6   5   1 63077.2 1332.25   4
  -6   5   1 65516.5 1183.37   1
   1  -6   1 67121.2 1312.02   2
  -5   6   1 63106.3 1356.28   2
  -1  -5   1 65458.6 1287.63   4
  -5   6   1 65827.7 1182.76   3
  -5   6   1 64543.0 1358.02   4
   6  -1   1 67043.5 1152.60   3
   5   1   1 62488.3 1372.19   4
   5   1   1 63618.5 1438.21   2
  -1  -5   1 63901.1 1141.14   1
  -6   5   1 64938.5 1312.61   2
  -6   5   1 64722.7 1310.61   3
   5   1   1 65362.7 1049.18   3
   6  -1   4 724.874 318.373   4
  -5   6   4 2007.28 555.274   1
   6  -1   4 316.070 393.882   2
  -6   5   4 311.629 461.055   3
   5   1   4 760.609 300.918   3
   1  -6   4 706.264 218.000   4
  -6   5   4 602.889 324.223   4
   5   1   4 656.459 317.871   4
  -5   6   4 579.135 384.548   3
  -1  -5   4 560.558 394.749   1
  -5   6   4 1054.33 367.123   4
   6  -1   4 527.430 252.180   3
  -1  -5   4 1048.95 263.963   2
   5   1   4 832.432 449.700   2
   1  -6   4 1216.20 297.681   2
   1  -6   4 1673.95 426.964   1
  -5   6   4 617.752 334.448   2
  -6   5   4 410.966 433.600   1
  -6   5   4 1314.54 341.434   2
   6  -1   7 16294.5 1020.25   3
  -5   6   7 17377.4 854.338   4
   5   1   7 17654.7 1194.56   2
  -5   6   7 15866.5 1296.76   1
   5   1   7 16418.5 788.137   4
   6  -1   7 16326.1 1144.52   2
  -1  -5   7 18067.6 1146.77   1
   5   1   7 17057.0 979.736   3
   5   1   7 15602.5 1186.18   1
   1  -6   7 16369.2 1079.96   1
  -1  -5   7 16036.3 695.483   2
  -1  -5   7 16699.5 706.003   2
  -6   5   7 16576.2 1287.14   1
   6  -1   7 16042.3 717.685   4
  -6   5   7 17421.6 867.822   2
   6  -1   7 16362.5 1141.63   1
  -5   6   7 17417.5 988.797   2
   1  -6   7 15793.3 824.611   2
   1  -6  10 588.884 687.409   1
   6  -1  10 591.375 525.860   3
   5   1  10 718.847 637.160   2
  -6   5  10 77.9463 792.041   1
  -5   6  10 308.357 501.373   2
   5   1  10 391.234 541.921   3
   6  -1  10-368.273 722.515   1
  -1  -5  10 641.232 699.069   1
  -5   6  10 887.678 816.327   1
   5   1  10-449.692 755.255   1
   1  -6  10 183.411 444.903   2
   6  -1  10 959.712 624.922   2
  -6   5  10-48.9186 435.538   2
   0  -6  -9 97.6935 407.376   4
   0  -6  -6 22806.8 1019.61   4
   6   0  -6 25152.6 780.149   4
   0  -6  -6 25608.0 1335.70   2
   0  -6  -3 627.421 404.952   2
   0  -6  -3 89.5756 320.688   4
   6   0  -3-42.2422 374.760   1
  -6   6   0 20483.4 819.533   4
  -6   6   0 20358.2 734.251   3
   0  -6   0 19108.4 817.630   2
  -6   6   0 16935.7 787.294   2
   0  -6   0 19730.5 813.007   4
   6   0   0 18957.4 614.759   1
   0  -6   0 19821.8 634.884   1
   6   0   0 18937.5 755.252   3
  -6   6   3 308.834 355.321   3
   0  -6   3 50.8630 248.649   2
  -6   6   3-16.7433 305.698   4
  -6   6   3 298.820 322.538   2
  -6   6   3 3.75044 395.542   1
   6   0   3 225.109 221.195   3
   6   0   3 519.845 406.399   2
   0  -6   3-135.120 231.041   4
   6   0   3 369.581 305.609   4
   0  -6   3 14.5376 295.848   1
   6   0   6 23500.4 943.894   4
  -6   6   6 24747.5 1438.30   1
   6   0   6 25456.8 1373.66   2
  -6   6   6 22823.3 1003.74   2
   6   0   6 25347.5 1117.91   3
  -6   6   6 20695.9 938.177   4
   0  -6   6 24691.7 1181.40   1
   0  -6   6 23324.4 866.316   2
  -6   6   9 120.745 808.207   1
   6   0   9 541.298 573.502   2
   0  -6   9 764.625 408.087   2
   0  -6   9-90.4504 551.380   1
   6   0   9-363.310 670.067   1
   6   0   9-60.1489 238.750   4
   6   0   9 142.269 480.799   3
  -6   6   9-74.7056 462.620   2
   7  -7  -7 447.102 421.402   2
   7  -7  -7 300.194 399.462   4
   7  -7  -4 5546.04 539.421   2
   0   7  -4 5607.08 411.460   4
   7  -7  -4 5673.84 599.529   4
   7  -7  -4 7424.19 745.073   3
   0   7  -4 7028.15 635.509   1
   0   7  -1 180.441 244.950   1
   0   7  -1 266.088 329.951   2
  -7   0  -1-207.214 245.399   3
   7  -7  -1-135.883 334.342   4
   7  -7  -1-26.4733 327.014   2
  -7   0  -1 197.977 194.459   1
   7  -7  -1 339.259 305.534   3
   0   7  -1 438.199 337.769   4
  -7   0   2 39719.4 1119.06   1
   7  -7   2 38507.3 1098.96   4
   7  -7   2 37074.8 1285.29   2
  -7   0   2 36462.3 1347.97   3
   0   7   2 36275.8 1274.97   2
   7  -7   2 36748.2 1158.55   3
   0   7   2 35240.6 1206.90   4
   7  -7   5-135.216 277.186   1
   7  -7   5 30.4925 245.632   4
   0   7   5 334.260 445.948   2
  -7   0   5-34.4390 477.256   1
   0   7   5-124.867 366.315   4
   7  -7   5-611.995 462.843   3
   0   7   5-75.9353 264.262   3
   0   7   8 28535.4 1460.64   3
  -7   0   8 34360.9 1813.09   1
   0   7   8 35141.2 2016.48   1
   7  -7   8 36507.0 1507.06   1
   0   7   8 33027.0 1308.72   4
   7  -7   8 35458.8 1796.13   3
   0   7   8 35585.5 1726.33   2
   0   7  11 37.4989 885.900   1
   7  -7  11 636.461 648.646   2
   7  -7  11 1124.58 738.719   1
  -7   0  11-709.663 789.524   1
   7  -7  11-42.0413 749.701   3
   0   7  11 343.597 666.012   2
   6  -7  -8 3170.20 592.729   2
   7  -6  -8 2502.31 446.675   4
   6  -7  -8 2065.67 486.810   4
   6  -7  -5 7580.30 638.224   4
  -1   7  -5 6642.73 347.645   4
   1   6  -5 8430.25 750.286   1
   7  -6  -5 6321.38 556.697   2
   7  -6  -5 7762.27 619.436   4
  -1   7  -5 8621.94 736.839   1
   6  -7  -5 6615.98 608.148   2
   1   6  -5 6171.76 366.668   4
   1   6  -2 4012.20 392.095   2
   7  -6  -2 3445.08 453.756   4
   1   6  -2 3064.41 395.866   4
   7  -6  -2 4647.75 456.120   2
   1   6  -2 4105.34 441.601   1
  -1   7  -2 4486.48 401.868   1
  -6  -1  -2 4497.71 308.961   3
  -7   1  -2 3721.04 375.262   3
   6  -7  -2 3338.23 441.014   3
  -1   7  -2 3327.11 401.338   4
   6  -7  -2 4616.73 491.946   2
   7  -6  -2 3680.05 505.731   3
  -1   7  -2 4228.99 451.996   2
   6  -7  -2 4247.86 500.557   4
   1   6   1 2780.84 468.232   4
  -6  -1   1 3070.29 446.181   3
   7  -6   1 3172.94 396.331   3
   6  -7   1 2864.20 397.889   4
   7  -6   1 2708.77 475.356   2
  -1   7   1 3236.28 476.791   4
  -7   1   1 2599.78 437.556   3
  -7   1   1 2970.25 377.426   1
  -1   7   1 3302.90 247.144   3
   6  -7   1 2995.56 385.067   3
  -1   7   1 3477.53 497.202   2
   1   6   1 2862.88 450.545   2
   6  -7   1 3151.53 460.092   2
  -1   7   1 3186.59 357.029   1
  -6  -1   1 3265.68 368.747   1
   7  -6   1 3289.49 401.914   4
   1   6   1 3043.68 356.791   1
   6  -7   4 12557.3 604.559   1
   7  -6   4 12852.9 610.403   4
  -1   7   4 11728.4 838.815   2
  -1   7   4 12633.0 607.751   3
   1   6   4 11013.0 736.858   4
   7  -6   4 12505.9 592.187   1
  -7   1   4 11767.3 995.487   3
  -6  -1   4 11426.9 803.096   1
   1   6   4 11493.2 547.942   3
   6  -7   4 12099.9 584.551   4
   6  -7   4 14355.3 874.694   2
   7  -6   4 11877.6 807.100   3
   6  -7   4 12000.2 874.295   3
  -1   7   4 11877.9 745.379   4
  -7   1   4 12471.1 867.093   1
   1   6   4 9803.03 818.340   2
  -6  -1   4 12949.7 1020.39   3
   1   6   7 6852.36 645.186   4
   7  -6   7 7821.83 823.706   3
  -1   7   7 6072.02 619.939   4
  -1   7   7 6528.03 968.516   1
   1   6   7 6951.33 850.774   2
  -1   7   7 5989.03 727.627   3
   7  -6   7 5931.94 322.515   4
  -6  -1   7 5304.79 780.758   1
  -1   7   7 6303.47 783.222   2
   1   6   7 5917.44 691.250   3
   7  -6   7 7358.80 728.879   1
   6  -7   7 6738.28 856.416   3
  -7   1   7 5810.35 890.600   1
   7  -6   7 5467.49 326.586   4
   6  -7   7 6498.68 687.941   1
   7  -6  10 1614.41 671.020   2
  -6  -1  10 338.574 736.896   1
   7  -6  10 1226.11 654.173   1
   7  -6  10 988.646 768.024   3
  -1   7  10 1448.52 659.764   2
   1   6  10 1214.43 646.634   2
   6  -7  10 819.146 674.211   3
   1   6  10-191.244 822.762   1
  -1   7  10 609.816 472.186   4
  -1   7  10 1403.73 925.853   1
   1   6  10 663.834 392.660   4
  -7   1  10 907.723 804.722   1
   6  -7  10 1539.38 704.715   2
   6  -7  10 354.371 589.475   1
   7  -5  -9 2722.28 424.484   4
   5  -7  -9 2815.46 522.704   4
   5  -7  -6 10210.1 732.154   4
   7  -5  -6 12165.2 715.204   4
   5  -7  -6 11555.3 803.699   2
   7  -5  -6 12279.3 646.814   2
  -2   7  -6 10114.5 864.736   1
   7  -5  -3 47563.3 1440.23   1
   7  -5  -3 50333.2 1142.93   2
  -7   2  -3 50376.9 1271.72   3
   5  -7  -3 47388.6 1328.56   4
  -5  -2  -3 49181.3 1367.32   4
   5  -7  -3 50565.3 1383.18   2
   5  -7  -3 46193.2 1285.00   3
  -2   7  -3 50234.2 1207.34   1
   2   5  -3 49891.8 1346.30   1
   2   5  -3 50324.1 936.979   2
   7  -5  -3 47439.8 1292.05   4
  -2   7  -3 48304.6 1232.78   2
   7  -5  -3 48486.6 1565.21   3
   2   5  -3 47831.2 1060.79   4
  -2   7  -3 48818.1 1042.31   4
  -2   7   0 72277.0 1526.59   2
  -5  -2   0 74447.5 1312.40   3
  -2   7   0 75056.4 1154.30   1
  -7   2   0 73188.1 1371.30   3
  -5  -2   0 75405.8 1462.18   2
  -2   7   0 69448.6 1148.37   3
   7  -5   0 73920.4 1527.31   2
  -2   7   0 74796.8 1526.21   4
   7  -5   0 71271.8 932.437   1
   5  -7   0 73539.4 1563.60   2
   7  -5   0 75709.4 1484.66   4
   5  -7   0 70296.4 1263.86   3
   2   5   0 71532.0 1464.51   4
   5  -7   0 75589.3 1525.12   4
   2   5   0 73234.0 1476.55   2
  -7   2   0 74774.0 1052.14   1
   2   5   0 77112.5 1317.82   1
   5  -7   3 63689.9 1640.43   3
  -2   7   3 63693.2 1133.19   3
  -2   7   3 59665.9 1501.73   4
  -7   2   3 63421.8 1604.09   1
  -2   7   3 60950.5 1626.60   2
   2   5   3 61315.0 1521.69   4
  -7   2   3 61842.0 1811.45   3
   5  -7   3 61470.4 1565.62   2
  -5  -2   3 65182.0 1895.60   3
   5  -7   3 61001.1 1224.54   4
   2   5   3 59390.6 769.620   3
   7  -5   3 59316.0 1016.55   1
   7  -5   3 63278.5 1507.16   3
  -5  -2   3 61119.3 1493.47   1
   2   5   3 60641.7 1706.86   2
   5  -7   3 64990.5 1076.56   1
   2   5   6 6042.93 736.087   2
  -5  -2   6 6407.13 770.865   1
   7  -5   6 6646.79 649.728   1
   7  -5   6 7756.44 763.760   3
  -2   7   6 5993.00 658.833   3
   7  -5   6 6616.56 436.675   4
   5  -7   6 4996.98 257.690   4
  -2   7   6 5449.86 559.368   4
  -2   7   6 5755.28 683.277   2
   7  -5   6 7231.18 438.349   4
   5  -7   6 6514.77 671.445   2
   5  -7   6 6042.84 737.555   3
   2   5   6 6747.08 631.158   4
  -7   2   6 6685.04 814.652   1
   5  -7   6 6997.29 640.970   1
  -5  -2   9 16892.6 1375.02   1
   7  -5   9 15662.4 1294.09   3
  -2   7   9 15068.5 1605.84   1
   2   5   9 14652.8 853.020   4
  -2   7   9 16379.5 1233.73   2
  -2   7   9 15818.1 913.983   4
   2   5   9 15421.6 1462.88   1
   2   5   9 17198.5 1310.99   2
   5  -7   9 16812.6 1213.27   2
   7  -5   9 17037.9 1234.97   1
   5  -7   9 17930.5 1420.19   3
   7  -5   9 19923.8 1403.73   2
  -7   2   9 16451.8 1453.18   1
   5  -7   9 16475.6 1169.36   1
   7  -4  -7 410.918 289.504   4
   4  -7  -7 352.587 375.426   4
   4  -7  -7 371.092 451.044   2
   4  -7  -4 17348.8 872.052   4
   7  -4  -4 16209.9 766.885   4
  -3   7  -4 17341.0 826.399   1
   3   4  -4 17157.7 945.307   1
   7  -4  -4 16147.2 1005.68   1
  -4  -3  -4 15496.7 806.152   4
   4  -7  -4 16921.3 887.709   2
  -3   7  -4 17395.7 583.416   4
   7  -4  -4 15983.1 610.945   2
   3   4  -4 16349.2 608.541   4
  -4  -3  -1 30077.7 809.802   1
   4  -7  -1 31630.5 1042.24   2
  -7   3  -1 35581.0 549.813   1
  -3   7  -1 32529.7 1005.93   2
   3   4  -1 31171.6 955.004   4
  -4  -3  -1 32723.9 608.765   3
  -7   3  -1 31372.3 884.348   3
   3   4  -1 30693.1 881.466   1
  -3   7  -1 30610.2 937.834   3
   3   4  -1 30452.2 838.034   2
   7  -4  -1 31613.3 914.551   2
  -4  -3  -1 31309.8 1046.41   4
   7  -4  -1 29839.6 843.002   1
   4  -7  -1 31718.8 784.317   3
  -4  -3  -1 30781.5 1077.72   2
  -3   7  -1 34013.3 718.609   1
   4  -7  -1 30101.6 1001.01   4
  -3   7  -1 30982.6 938.951   4
   7  -4  -1 31809.2 1068.41   3
   4  -7   2 7804.74 503.810   4
  -3   7   2 7960.34 619.929   2
  -3   7   2 8180.00 419.605   3
   4  -7   2 7968.78 628.947   3
  -7   3   2 6678.54 605.688   3
  -4  -3   2 8036.66 398.286   2
   7  -4   2 8764.80 270.120   1
  -4  -3   2 8063.34 541.509   1
   3   4   2 7857.95 597.039   4
   4  -7   2 8769.27 378.451   1
   3   4   2 7802.34 659.888   2
  -4  -3   2 6842.34 632.518   3
   3   4   2 7703.44 528.440   1
  -7   3   2 8204.91 591.678   1
   7  -4   2 8721.66 562.446   3
   4  -7   2 8139.07 603.597   2
  -3   7   2 7757.72 605.202   4
   3   4   5 2827.25 590.445   2
   4  -7   5 2885.53 470.181   1
  -3   7   5 4294.34 595.877   2
  -4  -3   5 2919.59 550.941   1
  -7   3   5 3121.01 282.813   2
   7  -4   5 3285.86 364.219   4
   4  -7   5 2854.70 249.787   4
   3   4   5 3343.29 381.316   3
   7  -4   5 2834.00 452.611   1
  -3   7   5 3682.66 501.843   4
   3   4   5 2718.05 452.993   4
   4  -7   5 3636.46 496.676   2
   7  -4   5 3296.83 555.371   3
  -7   3   5 3799.21 724.516   3
  -7   3   5 2275.97 592.743   1
  -3   7   5 3199.06 497.023   3
  -7   3   8 4876.74 905.166   1
   3   4   8 4229.09 626.962   3
   3   4   8 2329.58 635.008   2
   7  -4   8 3944.53 672.430   1
  -3   7   8 4512.34 706.339   2
   7  -4   8 2528.87 211.961   4
   3   4   8 3185.40 483.579   4
  -3   7   8 3426.56 530.065   4
   4  -7   8 3261.23 669.852   2
   7  -4   8 2702.61 214.366   4
   4  -7   8 3322.69 672.523   1
   7  -4   8 3861.90 729.630   2
   3   4   8 3619.83 870.362   1
   4  -7   8 4320.98 838.820   3
   7  -4   8 4505.14 692.913   3
  -4  -3   8 4097.20 782.324   1
  -3   7   8 4619.65 905.128   1
  -7   3   8 3696.09 336.963   2
   7  -4  11 3059.58 880.550   1
  -3   7  11 1481.92 669.431   2
  -3   7  11 1350.26 942.451   1
   3   4  11 2049.43 683.935   3
   7  -4  11 2122.69 782.261   3
   7  -4  11 2079.10 815.079   2
   3   4  11 1803.80 970.592   1
   4  -7  11 2126.16 896.444   3
   4  -7  11 2798.54 847.327   1
   3   4  11 2613.91 790.579   2
  -4  -3  11 3288.84 932.653   1
  -7   3  11 643.721 904.810   1
   7  -3  -8 3505.99 418.972   4
   3  -7  -8 2747.30 501.175   4
   4   3  -5 3239.57 327.351   4
   7  -3  -5 3714.05 410.451   4
   7  -3  -5 2780.12 256.439   2
  -3  -4  -5 3058.91 564.512   2
  -3  -4  -5 2423.74 423.696   4
   3  -7  -5 3579.10 553.857   2
  -4   7  -5 3468.80 489.648   1
   3  -7  -5 2931.62 448.230   4
   3  -7  -2 11337.9 695.689   2
  -4   7  -2 11878.5 680.493   2
   7  -3  -2 11558.4 501.978   2
   3  -7  -2 11488.0 707.518   4
  -3  -4  -2 10862.2 663.767   4
   7  -3  -2 11295.9 764.079   3
   7  -3  -2 11161.0 662.961   1
   4   3  -2 12757.1 681.567   1
   4   3  -2 10615.7 595.099   4
   4   3  -2 12672.8 461.404   2
   3  -7  -2 11425.7 518.976   3
  -3  -4  -2 11455.8 756.237   2
  -7   4  -2 10481.4 590.222   3
  -4   7  -2 11042.2 575.772   4
  -4   7  -2 13050.6 482.648   1
   4   3   1 30164.2 662.223   3
   7  -3   1 28439.8 875.568   3
   3  -7   1 31386.0 669.875   1
   3  -7   1 29395.4 919.705   4
  -3  -4   1 29131.5 852.445   2
  -3  -4   1 29239.3 843.894   1
  -3  -4   1 30701.6 977.214   4
   7  -3   1 29626.0 519.239   1
  -4   7   1 29245.8 1008.59   2
   3  -7   1 28704.4 938.609   3
   3  -7   1 28864.7 988.104   2
   4   3   1 27944.4 1036.01   2
  -7   4   1 28138.3 972.791   3
   4   3   1 27741.6 979.289   4
  -4   7   1 29702.5 745.082   3
  -4   7   1 28154.6 970.408   4
  -7   4   1 28437.2 796.164   1
  -4   7   4 15516.3 819.043   3
  -7   4   4 14572.0 577.556   2
  -3  -4   4 11811.9 393.735   2
  -7   4   4 13870.5 978.752   3
   4   3   4 13506.6 930.413   2
   3  -7   4 13592.4 703.940   1
  -4   7   4 14804.0 860.770   2
   7  -3   4 14279.0 781.063   3
   4   3   4 14918.8 798.087   4
  -3  -4   4 13471.2 818.698   1
  -7   4   4 12904.4 924.364   1
   4   3   4 15089.4 612.133   3
   3  -7   4 13991.6 543.473   4
  -4   7   4 14290.4 778.066   4
   3  -7   4 15697.3 815.703   2
  -4   7   7 606.973 574.908   1
   4   3   7 737.139 384.547   3
  -7   4   7 530.852 276.157   2
   3  -7   7 1022.14 494.359   1
  -3  -4   7 432.281 115.401   2
  -4   7   7-31.8776 494.538   2
   3  -7   7 584.596 420.276   2
   4   3   7 1184.58 383.164   4
   7  -3   7 113.870 413.836   1
  -7   4   7 1148.48 670.945   1
   7  -3   7 793.426 434.588   3
  -4   7   7 806.577 348.707   4
   7  -3   7 982.482 267.425   4
  -3  -4   7 1153.54 587.993   1
   7  -3   7 419.528 432.205   2
   4   3   7 458.892 462.356   2
  -4   7  10 2222.29 703.905   2
   7  -3  10 3108.07 790.784   3
   4   3  10 3388.98 711.188   3
   4   3  10 4236.60 849.024   2
   4   3  10 3538.08 1008.23   1
  -4   7  10 1931.44 948.751   1
   3  -7  10 3016.54 872.333   3
  -7   4  10 2300.23 876.898   1
   7  -3  10 2279.17 743.540   1
   3  -7  10 3709.36 677.519   2
   7  -3  10 3277.83 840.538   2
   3  -7  10 2175.19 682.336   1
  -3  -4  10 4013.58 867.981   1
   7  -2  -9 11287.3 452.949   4
   2  -7  -9 12265.9 855.621   4
   7  -2  -9 12552.5 487.640   4
   2  -7  -6 7182.46 645.367   4
   7  -2  -6 6967.64 506.977   4
   2  -7  -6 6886.25 735.172   2
  -5   7  -6 6456.11 701.021   1
   5   2  -6 6867.54 400.696   4
   5   2  -6 6670.90 416.832   4
  -2  -5  -6 6366.76 614.273   4
  -5   7  -3 61791.3 1214.75   4
   5   2  -3 63308.7 1597.55   1
   5   2  -3 62702.0 1343.87   4
   2  -7  -3 63797.9 1671.41   2
  -5   7  -3 66492.9 1187.45   1
  -2  -5  -3 63747.4 1551.84   4
  -7   5  -3 65943.5 1587.93   3
   7  -2  -3 65218.3 1685.91   1
   7  -2  -3 64528.1 1847.70   3
   2  -7  -3 64838.5 1576.46   4
   7  -2  -3 65977.3 918.207   2
  -2  -5  -3 65392.9 1746.47   2
  -7   5   0 78630.9 1448.88   3
   2  -7   0 74746.5 1221.29   1
   2  -7   0 81928.4 1606.90   2
  -2  -5   0 77043.8 1537.73   2
   5   2   0 80442.6 1399.48   3
   2  -7   0 81615.3 1583.39   4
   2  -7   0 77825.2 1162.92   3
  -5   7   0 77416.8 1578.35   2
  -5   7   0 76486.3 1315.84   3
   7  -2   0 74917.0 1103.98   1
   5   2   0 80571.5 1516.91   2
  -7   5   0 76826.1 938.680   1
  -5   7   0 78228.4 1520.04   4
  -2  -5   0 79839.5 1272.74   1
   5   2   0 77649.2 1566.76   4
   5   2   0 76541.5 1250.60   1
  -2  -5   0 80860.4 1588.30   4
   7  -2   0 79506.0 1495.48   3
   5   2   3 44895.5 1277.17   4
  -5   7   3 48113.7 1287.75   3
  -5   7   3 47591.6 1308.80   4
  -7   5   3 50042.1 1130.90   2
  -5   7   3 50205.7 1378.95   2
   2  -7   3 51208.0 1281.23   2
  -7   5   3 48940.5 1511.24   3
   7  -2   3 49857.0 1214.91   3
  -2  -5   3 49838.7 965.823   2
  -2  -5   3 47566.7 1272.20   1
   5   2   3 51158.0 960.113   3
   2  -7   3 51377.3 1100.07   4
  -7   5   3 46464.1 1440.91   1
  -2  -5   3 51936.9 1147.94   4
   2  -7   3 51042.0 1137.37   1
   5   2   3 47967.7 1553.98   2
  -5   7   6 9764.97 704.957   4
   7  -2   6 10746.9 634.226   4
   7  -2   6 11301.3 803.957   3
   7  -2   6 9510.40 892.947   2
  -7   5   6 11741.2 1075.05   1
   2  -7   6 10771.0 817.183   1
   5   2   6 10391.2 955.799   2
   5   2   6 9991.72 701.417   4
  -5   7   6 8476.92 882.865   3
  -5   7   6 9575.73 954.564   1
   7  -2   6 8810.28 791.031   1
  -5   7   6 10639.9 791.112   2
  -2  -5   6 10757.1 869.677   1
  -2  -5   6 9852.44 442.923   2
   2  -7   6 10940.4 715.308   2
   5   2   6 10934.5 714.472   3
  -7   5   6 10563.1 626.650   2
  -5   7   9 3480.59 949.478   1
  -7   5   9 2645.62 855.627   1
   7  -2   9 1792.87 226.912   4
   2  -7   9 2338.88 683.033   1
   7  -2   9 2522.25 732.298   2
   5   2   9 2966.45 635.031   3
   7  -2   9 2034.48 232.388   4
   5   2   9 2682.49 715.647   2
   2  -7   9 2561.71 566.295   2
   7  -2   9 2559.53 732.354   1
   5   2   9 3759.84 906.657   1
   7  -2   9 3203.69 693.342   3
   5   2   9 2564.40 423.564   4
  -2  -5   9 2579.89 775.435   1
  -2  -5   9 1499.47 238.754   2
  -5   7   9 2994.42 629.145   2
  -2  -5   9 1362.33 228.311   2
  -7   5   9 2942.64 515.365   2
   6   1  -7 6077.62 384.825   4
  -1  -6  -7 5717.67 630.699   4
   6   1  -7 6889.21 436.143   4
   1  -7  -7 6027.38 622.579   4
   7  -1  -7 5797.96 457.609   4
  -1  -6  -4 11544.8 772.343   4
   1  -7  -4 10214.6 800.744   2
   1  -7  -4 11369.1 766.068   4
   6   1  -4 10900.2 838.463   1
  -6   7  -4 10474.5 621.227   1
  -1  -6  -4 11272.0 840.435   2
   7  -1  -4 10649.3 880.607   1
   1  -7  -1 1615.10 392.433   2
   6   1  -1 2439.97 351.760   1
  -7   6  -1 2446.47 353.871   3
   6   1  -1 2151.91 326.469   2
  -6   7  -1 2484.66 454.854   2
  -1  -6  -1 2689.53 422.620   4
  -1  -6  -1 3439.99 483.665   2
   1  -7  -1 2658.09 206.825   3
  -6   7  -1 2775.83 401.141   4
   7  -1  -1 2868.77 370.913   1
   1  -7  -1 2786.56 468.790   4
  -6   7  -1 3145.30 214.164   1
  -6   7  -1 2076.12 375.534   3
   7  -1  -1 1934.39 423.095   3
   6   1  -1 2976.78 485.866   3
   1  -7   2 4724.75 449.714   4
  -7   6   2 4347.51 487.365   3
  -7   6   2 4645.79 503.897   4
  -1  -6   2 4517.31 448.294   4
   1  -7   2 3981.19 438.660   2
   6   1   2 4245.43 365.641   1
   6   1   2 4392.72 596.505   2
  -6   7   2 5153.03 519.838   4
  -1  -6   2 4258.09 421.958   1
   6   1   2 4680.94 506.281   4
   1  -7   2 4593.65 401.930   1
  -7   6   2 5235.10 526.335   1
  -6   7   2 4974.35 459.685   3
   7  -1   2 4615.25 395.047   3
  -1  -6   2 4567.44 409.093   2
  -7   6   2 4723.76 475.132   2
   7  -1   2 3758.93 300.496   1
   6   1   2 5019.32 346.971   3
  -6   7   2 4625.33 501.438   2
  -6   7   5 7850.13 627.212   4
   7  -1   5 8501.78 618.503   4
  -6   7   5 8122.89 778.188   3
  -7   6   5 7674.47 567.695   2
  -1  -6   5 7697.27 707.059   1
   7  -1   5 7402.38 607.765   3
  -7   6   5 8581.24 892.732   1
  -6   7   5 8426.74 853.619   1
   6   1   5 9096.74 612.586   3
   1  -7   5 8177.20 406.522   4
   7  -1   5 7477.18 763.098   2
  -7   6   5 9024.66 882.892   3
   6   1   5 6734.79 586.845   4
  -1  -6   5 7593.86 470.275   2
   6   1   5 9358.23 853.733   2
  -6   7   5 8319.04 664.478   2
   1  -7   5 8539.40 688.286   1
   1  -7   5 9233.07 601.498   2
  -1  -6   8 3151.38 397.077   2
  -1  -6   8 3161.37 404.881   2
  -7   6   8 3035.33 824.559   1
  -6   7   8 3157.28 859.071   1
   7  -1   8 3842.82 650.655   3
   6   1   8 2694.05 811.138   1
  -6   7   8 2023.55 510.605   2
   7  -1   8 3026.78 416.410   4
   7  -1   8 2799.29 718.557   1
   6   1   8 2740.06 461.725   4
   6   1   8 3662.10 725.221   2
   6   1   8 3093.34 612.191   3
   1  -7   8 3772.84 682.056   1
   1  -7   8 2471.20 465.635   2
  -1  -6   8 4528.13 735.698   1
   7  -1   8 3619.65 735.174   2
  -7   6   8 3559.97 525.611   2
  -1  -6  11 5173.59 1003.47   1
   6   1  11 4798.09 892.195   2
   6   1  11 5831.10 962.907   3
   1  -7  11 4840.93 915.597   1
   7  -1  11 4901.19 912.222   3
  -6   7  11 2862.25 1099.34   1
   7  -1  11 4568.57 913.886   2
   6   1  11 4523.25 1044.04   1
   7  -1  11 5657.18 1094.29   1
  -7   6  11 5880.25 1195.28   1
   0  -7  -8 29565.7 1291.11   4
   7   0  -8 29182.8 788.088   4
   7   0  -8 29932.1 823.324   4
   0  -7  -5 306.031 362.720   4
   0  -7  -5-536.176 460.322   2
   7   0  -2 34414.2 1293.62   3
   0  -7  -2 36808.7 1312.15   2
   7   0  -2 38262.3 1158.15   1
  -7   7  -2 37666.7 1213.81   3
   0  -7  -2 34906.7 1239.77   4
   0  -7   1 400.233 322.529   4
  -7   7   1-132.080 319.502   2
  -7   7   1-259.087 297.066   1
   0  -7   1-71.2510 256.079   1
  -7   7   1 268.369 356.193   4
   7   0   1 249.403 219.628   1
  -7   7   1 97.2990 275.079   3
   7   0   1-30.3980 274.225   3
   0  -7   1 138.477 303.263   2
   0  -7   4 7425.24 531.039   2
  -7   7   4 7323.40 701.732   3
   7   0   4 6350.31 740.138   2
  -7   7   4 8363.59 624.918   2
   0  -7   4 6920.22 471.403   4
   7   0   4 8403.39 563.470   3
   0  -7   4 7356.90 588.734   1
  -7   7   4 6365.89 603.430   4
  -7   7   4 6656.62 715.924   1
   7   0   4 7912.83 623.937   4
   7   0   7 213.595 364.967   4
   0  -7   7 133.209 293.586   2
   0  -7   7-245.777 486.428   1
  -7   7   7 380.305 391.927   2
  -7   7   7-694.251 693.460   1
   7   0   7 201.199 501.800   2
   7   0   7 152.956 377.340   3
   7   0   7 339.773 511.007   1
   7   0  10 26009.4 1731.54   2
  -7   7  10 21502.0 1160.69   2
   0  -7  10 20311.5 1468.79   1
  -7   7  10 20128.3 1774.05   1
   7   0  10 22635.2 1467.48   3
   7   0  10 22779.2 1690.86   1
   8  -8  -8 9444.46 813.984   4
   8  -8  -8 9308.88 824.561   2
   0   8  -5 557.154 445.144   1
   8  -8  -5 185.709 378.712   4
   8  -8  -5 277.360 346.363   2
   0   8  -5 233.401 231.354   4
   8  -8  -5 561.748 514.647   3
   8  -8  -2 55012.8 1449.35   2
   0   8  -2 57043.9 1320.25   1
   0   8  -2 50571.6 1335.31   4
   0   8  -2 53965.5 1357.15   2
   8  -8  -2 53319.0 1513.11   3
  -8   0  -2 55842.6 1167.69   3
   8  -8  -2 55796.6 1529.08   4
   0   8   1 13.6387 262.761   1
  -8   0   1 110.358 352.763   3
   0   8   1-213.141 383.281   4
   8  -8   1 259.400 332.421   3
  -8   0   1-53.4996 280.711   1
   8  -8   1-12.3374 308.834   4
   0   8   1 48.8425 377.826   2
   8  -8   1 351.299 412.795   2
   8  -8   4 19562.8 1033.91   3
  -8   0   4 20175.8 1081.96   1
   8  -8   4 18944.2 1079.92   2
   0   8   4 19450.4 605.059   3
   0   8   4 18843.1 1024.46   4
   8  -8   4 18979.3 827.211   4
   0   8   4 16142.5 1051.81   2
  -8   0   4 19047.0 1276.87   3
   8  -8   4 19916.0 663.132   1
   8  -8   7 394.239 360.792   1
  -8   0   7 572.506 587.455   1
   8  -8   7 257.269 216.489   4
   0   8   7-190.241 383.228   4
   8  -8   7 304.377 491.742   3
   8  -8   7 193.367 208.432   4
   0   8   7 414.589 563.731   2
   0   8   7-136.886 398.255   3
   0   8  10 9285.31 1322.81   1
  -8   0  10 10358.6 1273.26   1
   0   8  10 10067.3 1157.71   2
   8  -8  10 11726.3 1291.37   3
   0   8  10 8508.01 784.148   4
   8  -8  10 10636.5 1032.87   1
   8  -8  10 10207.4 1182.15   2
  -1   8  -6 145.184 130.834   4
   7  -8  -6 180.062 369.269   4
   8  -7  -6 685.797 338.774   2
   7  -8  -6 103.751 357.541   2
   1   7  -6 240.894 157.549   4
   8  -7  -6 537.193 388.945   4
   7  -8  -3 2899.16 495.674   3
   1   7  -3 3905.68 518.302   1
  -1   8  -3 2938.92 435.279   1
  -7  -1  -3 3536.27 393.894   3
   1   7  -3 3444.09 402.783   2
   7  -8  -3 3205.44 466.262   2
   8  -7  -3 3380.31 577.935   3
   8  -7  -3 3179.25 485.454   4
  -8   1  -3 3275.36 397.434   3
  -1   8  -3 3843.99 450.497   2
  -1   8  -3 2823.13 400.120   4
   7  -8  -3 3078.83 496.002   4
   1   7  -3 3015.60 395.230   4
   8  -7  -3 3760.20 468.309   2
  -1   8   0 1252.81 261.261   1
   1   7   0 1353.24 397.805   4
  -8   1   0 1506.60 342.757   3
  -1   8   0 1893.40 428.195   2
   8  -7   0 1323.36 414.659   2
  -7  -1   0 1897.43 333.013   3
   7  -8   0 1095.14 359.623   4
   7  -8   0 833.017 362.698   2
  -8   1   0 1164.45 262.333   1
   8  -7   0 1262.47 389.816   4
   1   7   0 1546.75 384.113   2
  -1   8   0 1249.24 381.705   4
   8  -7   0 1048.33 362.869   3
   1   7   0 1178.97 295.150   1
   7  -8   0 1278.86 345.474   3
  -7  -1   0 1756.69 314.559   1
   1   7   3 28319.3 1156.07   4
   7  -8   3 30753.9 1194.59   3
   8  -7   3 28107.3 594.565   1
   7  -8   3 30416.3 1240.84   2
  -8   1   3 27964.7 1109.91   1
  -1   8   3 29867.7 1267.02   2
   8  -7   3 28518.0 990.077   4
  -8   1   3 25195.0 1279.59   3
  -7  -1   3 29173.8 1373.01   3
  -7  -1   3 31087.4 1156.62   1
  -1   8   3 29000.6 627.022   3
  -1   8   3 30086.4 1189.39   4
   7  -8   3 30702.3 646.311   1
   1   7   3 27770.4 1232.71   2
   7  -8   3 27131.3 941.802   4
   8  -7   3 29094.3 1138.61   3
  -1   8   6 2730.09 464.594   3
  -1   8   6 1989.74 539.635   2
   7  -8   6 1764.33 411.561   1
  -7  -1   6 3022.62 640.003   1
   1   7   6 2466.35 522.250   4
   8  -7   6 2360.17 346.140   4
   8  -7   6 1854.26 549.402   3
   1   7   6 2052.14 429.521   3
   8  -7   6 2482.47 441.990   1
   7  -8   6 1187.88 502.048   3
   7  -8   6 1997.89 546.089   2
  -1   8   6 1716.10 436.670   4
   1   7   6 3236.60 670.146   2
   7  -8   6 2146.32 297.834   4
  -8   1   6 3119.00 686.623   1
   8  -7   9 21772.9 1316.82   1
  -8   1   9 20251.6 1568.76   1
  -1   8   9 19636.5 1070.45   4
  -1   8   9 22226.0 1476.27   2
   1   7   9 21368.0 1112.70   4
   1   7   9 21012.3 1703.55   1
   8  -7   9 24051.4 1584.78   3
  -1   8   9 20052.3 1691.19   1
  -7  -1   9 21257.3 1564.91   1
   1   7   9 22468.3 1540.65   2
   8  -7   9 21165.0 1482.85   2
   7  -8   9 21585.1 1286.50   1
   7  -8   9 22710.7 1596.45   3
   6  -8  -7 25279.9 1252.18   2
   6  -8  -7 26728.7 1204.16   4
   8  -6  -7 26907.6 1019.39   2
   8  -6  -7 24880.4 1078.12   4
   8  -6  -4 12444.4 672.590   2
  -2   8  -4 11712.3 553.371   4
   2   6  -4 12027.5 529.183   2
   8  -6  -4 14846.8 1017.65   3
   8  -6  -4 13906.2 796.790   4
   6  -8  -4 12705.6 790.844   2
   6  -8  -4 12824.0 809.064   4
   2   6  -4 12559.5 850.275   1
  -8   2  -4 12653.2 743.314   3
   2   6  -4 13195.5 615.356   4
  -2   8  -4 13025.0 773.518   1
   6  -8  -4 13134.4 837.667   3
  -2   8  -1 14771.5 594.358   1
   2   6  -1 13668.6 726.942   4
  -8   2  -1 14609.4 476.135   1
  -2   8  -1 13060.3 716.659   4
   6  -8  -1 13486.7 776.098   4
   2   6  -1 13841.3 699.282   2
   8  -6  -1 14048.3 767.903   4
   6  -8  -1 13846.0 779.637   2
   2   6  -1 13240.7 645.827   1
   8  -6  -1 13370.6 616.301   1
   8  -6  -1 13906.9 718.893   2
  -8   2  -1 14793.8 667.006   3
  -6  -2  -1 14199.7 535.480   3
   6  -8  -1 13930.7 665.078   3
  -2   8  -1 13259.7 744.176   2
   8  -6  -1 13891.4 759.168   3
  -6  -2  -1 13018.0 572.933   1
   6  -8   2 24603.8 991.268   3
  -6  -2   2 26922.6 1171.97   3
   2   6   2 23854.6 1089.70   2
   2   6   2 25418.8 912.010   1
   8  -6   2 25420.2 915.872   4
   6  -8   2 25422.1 1060.52   2
  -6  -2   2 26231.4 946.177   1
  -8   2   2 25209.8 924.444   1
  -2   8   2 24782.8 1092.43   2
  -2   8   2 26102.2 1056.79   4
   6  -8   2 25947.9 944.584   4
  -2   8   2 26565.2 581.800   3
   8  -6   2 26073.3 981.442   3
   2   6   2 25603.6 1051.23   4
  -8   2   2 24570.0 1128.94   3
  -8   2   5 6560.21 788.009   1
  -6  -2   5 7012.08 744.176   1
   6  -8   5 6631.38 445.394   4
   6  -8   5 5724.29 707.004   3
   8  -6   5 5573.62 471.747   4
   6  -8   5 5745.35 515.911   1
  -2   8   5 6331.91 562.920   3
   8  -6   5 6128.14 519.269   1
   8  -6   5 5911.15 657.439   3
  -2   8   5 6222.98 725.744   2
   6  -8   5 5425.07 654.434   2
   2   6   5 5754.97 752.603   2
  -2   8   5 6590.95 625.778   4
   2   6   5 6536.86 654.823   4
  -6  -2   8 7506.68 981.780   1
  -2   8   8 5178.89 616.175   4
   2   6   8 5020.73 961.873   1
   2   6   8 6346.68 665.604   4
   8  -6   8 6161.96 731.281   1
  -2   8   8 5952.19 1045.58   1
   6  -8   8 7781.07 804.707   1
  -2   8   8 7071.62 854.485   2
  -8   2   8 7025.32 950.444   1
   8  -6   8 4677.58 267.146   4
   6  -8   8 5292.73 847.685   3
   2   6   8 4886.00 740.830   3
   8  -6   8 5953.14 850.466   3
   8  -6   8 4889.88 272.906   4
   2   6   8 5239.97 843.277   2
   6  -8  11 7183.77 1016.12   1
   2   6  11 8293.99 993.926   3
   8  -6  11 7552.22 1117.38   2
   8  -6  11 7393.90 996.348   1
  -8   2  11 8092.41 1308.70   1
   2   6  11 6733.73 1308.17   1
   6  -8  11 8232.89 1225.82   3
  -2   8  11 7129.21 1062.31   2
  -2   8  11 10144.7 1532.44   1
  -6  -2  11 6207.36 1170.90   1
   8  -6  11 10848.2 1336.04   3
   2   6  11 7511.08 1162.48   2
   6  -8  11 5860.87 960.298   2
   5  -8  -8 9605.00 801.338   4
   8  -5  -8 10717.6 708.339   4
  -5  -3  -5 11161.8 772.221   4
   5  -8  -5 10598.0 762.117   4
   5  -8  -5 12463.9 840.019   2
   8  -5  -5 11027.7 700.900   4
  -3   8  -5 10865.7 466.481   4
   3   5  -5 10746.7 522.815   4
   8  -5  -5 9969.56 558.767   2
  -3   8  -5 12513.6 813.343   1
  -5  -3  -2 9032.30 665.992   4
   5  -8  -2 9151.35 564.798   3
   3   5  -2 10088.7 506.514   2
   3   5  -2 9150.66 611.377   1
  -5  -3  -2 9098.81 349.298   3
   8  -5  -2 8703.67 709.869   3
   8  -5  -2 9935.58 664.304   4
   8  -5  -2 8661.04 627.769   1
  -3   8  -2 8917.58 474.818   1
  -3   8  -2 8478.48 551.279   4
  -3   8  -2 9811.74 649.687   2
   3   5  -2 9095.11 594.749   4
   8  -5  -2 9700.45 571.669   2
  -8   3  -2 9573.99 566.210   3
   5  -8  -2 8278.41 649.251   4
  -5  -3  -2 8390.63 696.451   2
   5  -8  -2 8688.94 654.683   2
  -8   3   1 41490.3 1224.13   3
  -5  -3   1 41083.9 1222.15   3
  -8   3   1 39757.0 964.120   1
   5  -8   1 41533.2 1172.12   4
  -3   8   1 39568.4 1274.92   2
  -3   8   1 41720.4 822.874   3
  -3   8   1 40843.3 1246.34   4
  -5  -3   1 39279.2 1048.81   1
  -5  -3   1 40173.4 1027.51   2
   3   5   1 38974.9 1219.19   4
   5  -8   1 42580.5 746.769   1
   5  -8   1 40824.9 1263.92   2
   8  -5   1 39256.9 1112.67   3
   3   5   1 40863.2 1274.36   2
   5  -8   1 40424.2 1100.31   3
   3   5   1 36814.9 943.214   1
   3   5   4 34630.1 1249.13   4
  -3   8   4 34603.3 1056.37   3
   5  -8   4 35130.7 955.900   4
   3   5   4 36307.0 805.690   3
  -3   8   4 36558.0 1381.67   2
   8  -5   4 37145.2 1291.13   3
  -3   8   4 33959.9 1230.55   4
  -5  -3   4 36802.7 1315.37   1
  -5  -3   4 38906.3 1664.81   3
   5  -8   4 37514.9 1022.26   1
  -8   3   4 34635.3 1520.55   3
   5  -8   4 37959.9 1334.15   2
   8  -5   4 34820.8 978.858   1
   5  -8   4 35671.3 1389.77   3
   3   5   4 36672.7 1490.96   2
  -8   3   4 38167.5 1440.15   1
   5  -8   7 4846.22 800.345   3
   8  -5   7 3580.32 383.017   4
  -3   8   7 3578.73 546.004   4
  -8   3   7 3674.97 798.032   1
   3   5   7 3760.20 552.009   4
   8  -5   7 4232.24 391.474   4
  -3   8   7 3928.96 725.376   2
   8  -5   7 3231.30 650.985   3
  -3   8   7 4193.69 674.252   3
  -3   8   7 3556.34 783.011   1
  -8   3   7 2402.46 203.243   2
   5  -8   7 3332.16 589.786   1
   3   5   7 3590.64 527.232   3
   3   5   7 3501.13 702.037   2
  -5  -3   7 3692.29 691.879   1
   8  -5   7 4073.99 607.595   1
   5  -8   7 3382.71 582.027   2
   3   5  10 2077.20 465.916   4
  -3   8  10 1396.37 841.617   1
  -3   8  10 6258.91 670.174   4
  -3   8  10 2830.68 744.647   2
   5  -8  10 4151.64 985.808   3
   3   5  10 2849.38 645.210   3
  -5  -3  10 3064.79 906.207   1
   8  -5  10 2976.07 800.598   2
   8  -5  10 2953.90 782.572   3
   3   5  10 4166.02 865.570   2
   3   5  10 2806.89 928.467   1
   8  -5  10 2199.68 696.409   1
   5  -8  10 2072.60 681.929   2
  -8   3  10 2051.64 910.941   1
   5  -8  10 2754.51 742.381   1
   4  -8  -9 3588.05 611.861   4
   8  -4  -9 4380.36 460.649   4
  -4  -4  -6 1637.18 434.451   4
  -4   8  -6 2453.57 563.031   1
   4  -8  -6 1250.04 493.005   2
   4  -8  -6 2436.52 508.479   4
   8  -4  -6 1308.75 348.085   4
   8  -4  -6 1367.66 258.144   2
   4   4  -6 1766.99 252.236   4
   8  -4  -3 33474.1 1103.93   4
   4   4  -3 30676.1 977.951   4
   8  -4  -3 34114.8 881.169   2
   4   4  -3 33072.0 689.281   2
   4  -8  -3 33204.1 1014.44   3
  -4  -4  -3 33485.2 1192.49   4
   8  -4  -3 32640.2 1321.02   3
  -8   4  -3 36823.6 1182.72   3
   4   4  -3 35459.1 1220.59   1
  -4  -4  -3 33041.2 1338.35   2
   4  -8  -3 33835.7 1266.88   2
  -4   8  -3 33075.2 933.327   4
   4  -8  -3 33097.1 1188.19   4
   8  -4  -3 34624.7 1283.75   1
  -4   8  -3 35515.7 955.326   1
  -4   8   0 8293.51 621.758   2
   4   4   0 7375.65 480.081   1
   8  -4   0 7629.65 394.622   1
   4  -8   0 7523.42 449.497   3
   4  -8   0 7870.68 623.852   2
  -4  -4   0 7878.88 609.757   4
  -4  -4   0 7645.04 483.532   3
   8  -4   0 8302.19 588.463   3
   4  -8   0 8222.03 611.777   4
  -4   8   0 7531.48 405.680   1
  -4  -4   0 7863.27 592.686   2
  -8   4   0 7686.52 551.118   3
   4   4   0 8068.69 613.874   4
  -4   8   0 7688.74 593.427   4
  -8   4   0 7666.84 352.446   1
  -4   8   0 7961.54 473.345   3
   4   4   0 7809.32 576.264   2
  -4  -4   0 7827.44 478.591   1
  -8   4   3 31835.0 1209.68   1
   4   4   3 30234.0 1114.85   4
  -4   8   3 32327.9 955.879   3
  -4   8   3 30192.1 1125.43   4
  -4  -4   3 31040.7 1083.26   1
   4   4   3 31017.1 610.233   3
  -4   8   3 31180.3 1197.15   2
  -4  -4   3 32680.7 692.339   2
   4   4   3 30799.7 1303.46   2
   4  -8   3 33432.7 861.334   1
  -8   4   3 31939.6 864.754   2
   4  -8   3 32383.4 1235.91   3
   4  -8   3 31444.8 1141.35   2
   8  -4   3 31797.0 1074.36   3
  -8   4   3 31473.6 1326.47   3
   4  -8   3 32492.5 949.614   4
   4  -8   6 1717.39 444.442   1
   4   4   6 1540.02 415.263   4
  -4   8   6 1166.50 399.650   4
  -4  -4   6 1653.47 502.130   1
  -4   8   6 1668.06 527.718   2
  -4   8   6 1556.02 502.920   3
   8  -4   6 1397.50 326.161   4
   4  -8   6 1065.91 159.615   4
  -8   4   6 1339.23 263.046   2
   4   4   6 1141.01 548.224   2
   8  -4   6 506.428 384.725   3
  -4   8   6 904.177 603.863   1
   8  -4   6 1741.72 485.767   1
   4  -8   6 1715.95 477.470   2
   4   4   6 1292.02 358.760   3
  -8   4   6 1404.65 619.119   1
   4   4   9 5669.67 1058.17   1
   8  -4   9 6170.92 892.000   3
   4   4   9 6293.42 966.221   2
   4  -8   9 4461.20 705.783   2
   4   4   9 4936.29 600.222   4
  -4   8   9 5182.13 651.565   4
   8  -4   9 5807.06 869.580   1
  -4   8   9 6477.47 1076.37   1
   4  -8   9 6221.87 837.102   1
  -8   4   9 5368.77 971.173   1
   8  -4   9 4649.78 898.640   2
  -8   4   9 3452.53 319.376   2
   4  -8   9 6551.61 1077.63   3
  -4   8   9 5005.29 773.646   2
  -4  -4   9 5284.58 868.929   1
   4   4   9 6499.89 787.323   3
   5   3  -7 3153.29 265.067   4
   8  -3  -7 4098.30 483.509   4
   5   3  -7 3354.42 279.445   4
  -3  -5  -7 3526.34 552.437   4
   3  -8  -7 2702.34 551.504   4
  -3  -5  -4 33309.1 1416.05   2
   8  -3  -4 34531.9 757.100   2
   3  -8  -4 33894.6 1334.19   2
  -5   8  -4 34221.7 902.881   4
  -3  -5  -4 32851.8 1217.11   4
   5   3  -4 34431.7 1387.79   1
  -5   8  -4 35488.9 1067.55   1
   8  -3  -4 32367.5 1075.75   4
   5   3  -4 33694.3 1000.02   4
   3  -8  -4 34171.2 1258.63   4
   8  -3  -4 33922.0 1419.14   1
  -5   8  -1 43226.1 1166.36   3
   5   3  -1 42083.5 1077.89   1
   3  -8  -1 41360.8 832.071   3
  -8   5  -1 41981.2 1122.36   3
  -5   8  -1 40464.4 1237.03   2
   8  -3  -1 44249.2 1335.53   3
   5   3  -1 41575.6 1208.92   4
   3  -8  -1 44804.0 1344.10   2
  -3  -5  -1 46272.5 1351.55   2
  -3  -5  -1 41335.4 1254.54   4
  -3  -5  -1 38722.6 1021.74   1
  -3  -5  -1 40030.3 649.435   3
   8  -3  -1 42504.3 1064.69   1
   5   3  -1 39306.5 1003.58   2
   3  -8  -1 44771.4 1297.20   4
  -5   8  -1 41256.1 1142.52   4
  -5   8   2 9536.89 695.110   2
   3  -8   2 8689.38 627.436   3
   3  -8   2 8906.06 639.580   2
   5   3   2 8951.59 515.726   1
  -8   5   2 9011.51 565.938   2
   5   3   2 9659.19 389.268   3
  -3  -5   2 9221.10 506.161   2
   8  -3   2 9905.36 354.968   1
  -3  -5   2 9452.14 617.061   4
  -5   8   2 8997.02 657.837   4
   3  -8   2 10070.4 488.296   1
   8  -3   2 9015.95 566.001   3
  -5   8   2 9775.63 536.478   3
  -8   5   2 8406.10 666.991   3
  -3  -5   2 9622.31 591.255   1
   5   3   2 9646.03 738.630   2
   3  -8   2 9177.37 580.332   4
  -8   5   2 9651.20 652.307   1
   5   3   2 8461.56 638.684   4
  -5   8   5 10286.1 967.523   1
  -8   5   5 10503.3 571.446   2
  -8   5   5 10127.8 991.948   3
   3  -8   5 10977.4 736.462   2
  -5   8   5 10828.8 831.109   3
  -5   8   5 10422.3 739.323   4
   5   3   5 9586.63 903.149   2
  -5   8   5 10928.8 792.617   2
   3  -8   5 10226.4 468.246   4
  -3  -5   5 9184.73 371.412   2
  -3  -5   5 10720.7 819.877   1
   8  -3   5 11013.1 665.528   4
   8  -3   5 12551.5 800.884   3
  -8   5   5 11765.2 955.481   1
   5   3   5 10582.2 725.388   4
   3  -8   5 10822.4 716.827   1
   5   3   5 10799.7 614.175   3
   8  -3   8 12095.8 1110.71   2
   3  -8   8 12688.4 1035.83   1
   8  -3   8 13939.9 1072.83   3
   8  -3   8 13279.6 1092.53   1
   5   3   8 13387.2 1281.00   1
  -8   5   8 12818.6 670.776   2
   5   3   8 11450.6 802.653   4
   3  -8   8 13487.6 940.915   2
  -5   8   8 13452.3 877.855   4
   8  -3   8 12637.4 633.579   4
   5   3   8 14722.6 972.555   3
  -5   8   8 12695.7 968.182   2
  -5   8   8 14065.4 1407.54   1
  -3  -5   8 11425.8 1092.03   1
  -8   5   8 13740.6 1280.36   1
   5   3   8 13230.8 1203.81   2
   3  -8  11 3865.90 1022.94   3
   5   3  11 4995.18 895.395   3
   8  -3  11 5244.25 1040.09   2
  -5   8  11 1444.73 645.639   2
   5   3  11 3517.88 1138.61   1
  -5   8  11 4438.73 1200.26   1
   8  -3  11 4125.10 944.809   1
   8  -3  11 2594.31 739.353   3
  -8   5  11 4004.26 1079.32   1
   3  -8  11 3598.78 870.010   1
   5   3  11 2471.87 801.472   2
  -3  -5  11 5180.93 994.484   1
   2  -8  -8 6251.12 693.108   4
   6   2  -8 4172.34 250.207   4
  -2  -6  -8 4273.55 628.771   4
   8  -2  -8 6917.84 515.865   4
   2  -8  -5 4915.53 653.178   2
  -6   8  -5 5470.42 554.927   1
   6   2  -5 4957.17 461.387   4
  -2  -6  -5 5369.49 614.721   4
   2  -8  -5 5313.87 611.032   4
  -2  -6  -5 4804.45 714.639   2
   8  -2  -5 5303.84 500.994   4
  -6   8  -2 27944.0 590.867   1
   6   2  -2 26617.4 998.422   1
   2  -8  -2 29298.7 1168.58   2
   2  -8  -2 30785.2 1146.65   4
   6   2  -2 26471.0 1003.24   4
  -8   6  -2 28328.4 1015.35   3
   2  -8  -2 28521.3 670.179   3
  -2  -6  -2 25962.8 1058.86   4
  -6   8  -2 25795.3 1041.27   3
   8  -2  -2 26345.8 1006.78   1
  -6   8  -2 26886.5 1085.64   2
  -6   8  -2 25982.7 931.016   4
  -2  -6  -2 27306.2 1150.67   2
   6   2  -2 28154.9 725.256   2
   8  -2  -2 26288.4 1163.89   3
   8  -2   1 16913.7 523.952   1
  -2  -6   1 18563.5 806.055   2
  -8   6   1 17414.9 806.343   2
   8  -2   1 17330.7 750.356   3
   2  -8   1 16724.9 594.649   1
   2  -8   1 17489.7 755.717   3
  -2  -6   1 16949.6 810.352   4
  -6   8   1 16265.9 854.520   2
   2  -8   1 17607.2 832.657   2
   2  -8   1 17264.1 801.411   4
  -6   8   1 16563.9 683.643   3
  -2  -6   1 16888.5 725.338   1
   6   2   1 15395.2 825.851   4
  -6   8   1 17824.0 859.786   4
   6   2   1 14847.9 622.039   1
   6   2   1 17658.7 920.161   2
  -8   6   1 18386.6 833.581   3
  -8   6   1 16910.2 675.163   1
   6   2   1 17386.8 656.606   3
   8  -2   4 13989.2 741.966   3
  -2  -6   4 13744.0 656.616   4
  -6   8   4 14070.8 1040.08   1
   6   2   4 13091.1 796.311   4
  -2  -6   4 13023.3 550.075   2
   2  -8   4 13363.5 716.150   1
  -2  -6   4 13844.2 812.130   1
  -8   6   4 11676.0 887.076   3
   6   2   4 11594.6 902.668   2
   2  -8   4 13241.8 755.450   2
  -6   8   4 12708.5 828.469   3
  -6   8   4 13484.4 809.991   4
   6   2   4 13354.6 608.491   3
   8  -2   4 13000.6 763.361   4
  -8   6   4 12697.7 913.678   1
  -6   8   4 13902.5 833.069   2
   2  -8   4 13811.6 620.065   4
  -8   6   4 12764.2 683.579   2
  -8   6   7 30259.3 1075.92   2
   6   2   7 27503.5 1186.66   3
  -8   6   7 28940.7 1665.79   1
  -2  -6   7 23809.9 693.540   2
   6   2   7 27704.7 1147.39   4
  -6   8   7 28035.6 1197.55   4
   6   2   7 30749.8 1629.02   2
   2  -8   7 27161.1 1146.65   2
   8  -2   7 28334.5 1064.11   4
  -6   8   7 29021.6 1321.15   2
  -6   8   7 29386.6 1757.00   1
   8  -2   7 32118.9 1386.33   3
   2  -8   7 30114.8 1361.35   1
   8  -2   7 30778.6 1648.96   2
   8  -2   7 29131.0 1403.36   1
  -2  -6   7 30139.2 1459.22   1
  -8   6  10 4376.17 1079.40   1
   2  -8  10 5733.49 850.401   1
   8  -2  10 6379.85 957.900   2
   8  -2  10 5443.98 876.088   3
   8  -2  10 5368.37 949.974   1
  -2  -6  10 6262.83 976.263   1
   2  -8  10 5160.37 693.725   2
   6   2  10 7123.74 909.828   3
  -6   8  10 5947.34 1171.02   1
  -6   8  10 5188.89 785.581   2
   6   2  10 4049.78 910.758   2
   6   2  10 5213.49 1092.14   1
   8  -1  -9 16713.1 596.874   4
   7   1  -6 2613.02 374.247   4
  -1  -7  -6 2775.04 535.670   4
   7   1  -6 2475.25 389.092   4
   8  -1  -6 2766.84 415.741   4
   1  -8  -6 3142.59 548.287   4
  -7   8  -3 30978.0 751.316   1
  -8   7  -3 32250.2 1236.35   3
   8  -1  -3 31140.2 1243.70   1
   1  -8  -3 30235.7 1209.17   4
   8  -1  -3 29944.7 1380.19   3
  -1  -7  -3 32992.1 1345.66   2
   8  -1  -3 31666.9 668.031   2
  -1  -7  -3 28203.7 1156.88   4
   7   1  -3 32395.6 1248.82   1
  -7   8  -3 34735.6 1296.87   3
   7   1  -3 25939.2 588.611   2
   1  -8  -3 30899.6 1305.40   2
   7   1   0 838.904 418.711   4
   1  -8   0 806.037 242.883   3
   1  -8   0 804.888 381.072   4
  -8   7   0 684.374 310.205   3
  -8   7   0 1041.67 229.685   1
   1  -8   0 1110.67 399.989   2
   7   1   0 1051.87 370.366   2
   1  -8   0 1077.04 304.050   1
  -7   8   0 526.142 267.285   3
  -7   8   0 997.790 395.796   4
  -7   8   0 707.647 391.872   2
  -1  -7   0 1038.10 380.156   2
   8  -1   0 769.150 252.318   1
   7   1   0 579.763 260.722   1
  -8   7   0 775.241 363.300   4
   7   1   0 841.642 354.561   3
   8  -1   0 724.227 363.186   3
  -1  -7   0 892.395 278.011   1
  -8   7   0 1016.81 413.206   2
  -1  -7   0 692.474 336.484   4
  -7   8   3 3420.26 559.812   1
  -1  -7   3 3401.90 418.423   4
   7   1   3 3535.61 411.737   1
  -7   8   3 3460.26 501.109   4
  -8   7   3 3634.20 543.351   3
  -8   7   3 3093.86 548.781   1
   8  -1   3 4054.05 409.100   3
   7   1   3 3740.34 490.298   4
  -7   8   3 3428.75 505.675   2
  -8   7   3 3858.56 533.001   4
  -1  -7   3 3839.27 460.339   1
   1  -8   3 3902.63 444.769   1
   8  -1   3 2895.26 312.372   1
   1  -8   3 2986.93 447.604   2
  -1  -7   3 3319.08 408.264   2
  -8   7   3 3889.34 489.634   2
   1  -8   3 3794.06 425.072   4
   7   1   3 3522.45 625.086   2
   8  -1   3 3335.77 516.048   4
   7   1   3 2870.23 327.503   3
  -7   8   3 3744.49 519.503   3
   7   1   6 385.702 321.022   3
   8  -1   6 23.5185 462.855   2
  -1  -7   6 901.195 297.346   2
   7   1   6 245.262 345.584   4
  -8   7   6 697.461 359.712   2
  -1  -7   6 563.255 432.528   1
  -8   7   6 505.692 552.931   1
   7   1   6 513.447 522.654   2
  -7   8   6 450.605 369.613   2
   1  -8   6 1357.40 453.599   1
   8  -1   6 554.050 344.990   4
   1  -8   6 333.937 345.643   2
   8  -1   6 289.572 352.638   3
  -7   8   6 1323.57 643.865   1
  -7   8   6 510.910 383.955   4
   7   1   9 4035.56 822.698   2
   7   1   9 5361.66 704.296   3
   8  -1   9 4884.06 701.658   3
   7   1   9 3310.54 503.457   4
   8  -1   9 4109.56 817.965   1
   8  -1   9 5461.92 917.103   2
   7   1   9 4800.97 991.127   1
  -1  -7   9 5086.75 864.986   1
  -1  -7   9 2568.81 367.231   2
  -7   8   9 3552.49 1007.72   1
   1  -8   9 3718.50 604.202   2
  -7   8   9 4425.42 647.287   2
  -8   7   9 3519.07 584.280   2
   8  -1   9 3687.61 456.625   4
  -8   7   9 4724.78 1052.91   1
   1  -8   9 4655.92 766.498   1
   8   0  -7 421.751 310.980   4
   0  -8  -7 28.3359 428.149   4
   0  -8  -4 16352.1 961.095   4
   8   0  -4 15788.9 1038.24   1
   0  -8  -4 16083.0 1036.04   2
  -8   8  -1-132.881 292.747   3
   0  -8  -1-70.8316 141.656   3
  -8   8  -1 413.520 338.403   4
   8   0  -1 41.4303 397.720   3
   8   0  -1 26.8530 303.314   1
   0  -8  -1-563.405 399.370   4
   0  -8  -1-89.7162 376.489   2
   0  -8   2 55932.7 1411.55   2
  -8   8   2 56626.8 1559.72   4
  -8   8   2 55147.6 1460.60   3
   8   0   2 57886.1 1100.65   1
   8   0   2 56553.5 1227.93   3
   8   0   2 54780.5 1540.60   4
   8   0   2 53284.1 1611.69   2
   0  -8   2 56707.1 1284.59   1
   0  -8   2 58295.5 1429.32   4
  -8   8   2 56153.8 1484.87   2
  -8   8   2 55229.2 1454.59   1
  -8   8   5-238.152 435.779   3
   0  -8   5 455.004 276.939   4
   8   0   5 328.241 365.035   4
   0  -8   5 116.628 280.289   2
  -8   8   5 385.167 382.593   2
   0  -8   5 473.099 374.669   1
  -8   8   5 325.472 393.985   4
   8   0   5 553.936 321.064   3
  -8   8   5-39.2532 513.612   1
   8   0   5-24.7900 481.666   2
   8   0   8 10082.7 763.576   4
   8   0   8 11624.5 1171.71   2
   0  -8   8 9424.34 660.253   2
   8   0   8 11044.5 1095.01   1
  -8   8   8 10772.1 840.184   2
  -8   8   8 7260.79 1144.27   1
   0  -8   8 10593.9 973.679   1
   8   0   8 10294.5 876.498   3
  -8   8  11-678.409 945.330   1
   8   0  11-80.1823 557.726   3
   8   0  11-286.558 763.521   2
   8   0  11 829.154 905.410   1
   0  -8  11-946.646 770.046   1
   9  -9  -6 3582.08 568.657   2
   0   9  -6 5557.19 415.822   4
   9  -9  -6 4382.70 647.215   4
   9  -9  -3 705.804 398.473   2
   0   9  -3-36.8001 315.721   2
   0   9  -3-160.038 356.487   1
   9  -9  -3-569.133 434.324   3
   9  -9  -3 458.069 414.709   4
   0   9  -3-274.661 302.075   4
  -9   0  -3 138.125 261.822   3
   9  -9   0 18754.6 967.821   2
   0   9   0 21133.4 1008.89   4
   9  -9   0 20615.9 1014.36   4
   0   9   0 22179.0 820.222   1
   0   9   0 19348.7 977.962   2
   9  -9   0 19746.9 882.913   3
  -9   0   0 20711.5 768.082   1
  -9   0   0 19915.3 871.328   3
   0   9   3 419.386 434.982   4
   9  -9   3-76.7593 411.631   3
  -9   0   3 528.790 438.145   1
   0   9   3-33.5898 445.987   2
  -9   0   3 194.865 456.979   3
   9  -9   3 238.048 108.308   1
   9  -9   3 416.831 440.538   2
   9  -9   3 191.392 338.903   4
   0   9   6 3851.53 457.845   3
   9  -9   6 5094.96 742.547   3
   9  -9   6 3558.23 449.757   4
   0   9   6 4256.23 619.225   4
   0   9   6 4089.58 745.937   2
   9  -9   6 4982.92 521.838   1
  -9   0   6 4363.00 738.162   1
   9  -9   9 470.488 518.382   1
   9  -9   9-827.083 722.116   3
   0   9   9-13.6908 629.084   2
   0   9   9 147.042 717.580   1
  -9   0   9-353.492 642.802   1
   0   9   9 335.764 521.327   4
   9  -8  -7 20469.4 1014.66   2
   8  -9  -7 18119.0 1088.21   4
   8  -9  -7 19278.3 1105.87   2
   9  -8  -7 19069.3 1072.05   4
   8  -9  -4 10544.9 782.432   4
  -1   9  -4 12035.6 717.526   2
  -8  -1  -4 13195.2 679.490   3
   8  -9  -4 12745.8 848.684   2
  -1   9  -4 12280.1 656.151   4
   8  -9  -4 11530.3 881.927   3
   1   8  -4 12553.6 686.090   4
   9  -8  -4 13077.6 777.988   2
  -1   9  -4 13299.6 821.371   1
   1   8  -4 11984.3 655.640   2
  -9   1  -4 12488.9 726.523   3
   9  -8  -4 11608.9 801.120   4
   1   8  -4 12047.3 829.718   1
   9  -8  -4 12470.7 932.104   3
  -8  -1  -1 22700.0 774.856   3
   9  -8  -1 21445.2 973.381   3
   9  -8  -1 24719.6 1046.99   2
   8  -9  -1 22316.2 932.338   3
   1   8  -1 22834.0 999.589   4
  -1   9  -1 21770.3 973.428   4
  -9   1  -1 22411.8 837.172   3
   9  -8  -1 23055.1 1032.90   4
  -1   9  -1 24007.4 1011.69   2
  -1   9  -1 22420.8 803.160   1
  -8  -1  -1 21378.0 752.430   1
   1   8  -1 23405.5 859.279   1
  -9   1  -1 24458.5 730.618   1
   8  -9  -1 23744.5 1065.12   2
   1   8  -1 22626.3 958.179   2
   8  -9  -1 24568.5 1093.02   4
  -1   9   2 7904.83 740.449   2
   8  -9   2 8641.91 684.250   3
  -1   9   2 8800.50 751.544   4
   1   8   2 8281.22 726.758   4
   9  -8   2 8416.77 649.515   4
  -9   1   2 8151.29 781.233   3
  -9   1   2 9063.92 627.979   1
   9  -8   2 8801.37 673.926   3
   1   8   2 7803.93 586.592   1
   1   8   2 6953.57 719.255   2
  -8  -1   2 7939.02 595.356   1
   9  -8   2 9691.28 787.220   2
   8  -9   2 9265.45 657.689   4
  -8  -1   2 9142.94 796.474   3
  -1   9   2 7007.06 295.383   3
   8  -9   2 9574.95 791.984   2
  -1   9   5 13032.3 1003.95   2
   9  -8   5 15647.7 702.200   1
  -9   1   5 15427.4 1056.58   1
   8  -9   5 16448.4 1087.21   2
   9  -8   5 16071.4 1029.08   3
   1   8   5 14095.5 937.204   4
   8  -9   5 16714.6 725.074   1
  -1   9   5 13059.8 907.483   4
   9  -8   5 14204.4 749.026   4
   1   8   5 15722.9 642.830   3
   8  -9   5 14566.6 1026.89   3
  -8  -1   5 16337.1 1046.79   1
  -1   9   5 16523.6 711.528   3
   8  -9   5 14517.7 724.937   4
   1   8   5 15771.2 1082.56   2
   9  -8   8 10451.1 1104.08   3
  -1   9   8 8995.91 823.514   4
  -1   9   8 9432.89 1219.30   1
  -9   1   8 8728.32 1097.72   1
  -1   9   8 9820.08 929.080   3
   8  -9   8 10949.7 1146.37   3
   9  -8   8 7060.00 379.060   4
  -8  -1   8 10373.1 1132.60   1
   1   8   8 6445.89 890.732   3
   9  -8   8 8351.59 423.302   4
   8  -9   8 9822.47 840.909   1
   1   8   8 9153.73 810.888   4
   9  -8   8 9690.05 813.547   1
  -1   9   8 9033.97 1014.08   2
   1   8   8 10904.2 1142.51   2
   1   8  11 10302.9 1259.98   2
  -8  -1  11 9111.08 1313.80   1
  -9   1  11 8369.33 1266.83   1
   8  -9  11 8954.61 1234.65   2
   8  -9  11 10504.8 1395.41   3
   9  -8  11 10398.5 1082.99   1
   9  -8  11 10088.6 1299.29   3
  -1   9  11 9539.19 1516.45   1
   8  -9  11 8196.46 1021.28   1
   1   8  11 8762.88 987.551   3
  -1   9  11 9212.77 1243.07   2
   1   8  11 9461.10 1452.88   1
   9  -8  11 6078.22 1087.27   2
   9  -7  -8 2186.36 473.473   2
   9  -7  -8 1921.88 524.490   4
   7  -9  -8 2350.94 632.882   2
   7  -9  -8 2326.49 560.998   4
   7  -9  -5 28669.1 1231.00   4
   9  -7  -5 31514.2 1480.62   3
   9  -7  -5 29209.1 1192.48   4
  -2   9  -5 30093.1 1257.70   1
   2   7  -5 30425.5 915.460   4
   9  -7  -5 29362.7 1047.45   2
  -2   9  -5 28586.6 840.639   4
   7  -9  -5 29817.0 1251.70   2
   9  -7  -2 18477.3 868.941   2
  -7  -2  -2 19605.6 632.383   3
   7  -9  -2 19750.3 970.914   2
  -9   2  -2 19207.1 779.191   3
   7  -9  -2 18400.4 858.008   3
  -2   9  -2 19511.9 768.294   1
  -2   9  -2 19008.6 889.717   2
   2   7  -2 18172.5 844.165   4
   7  -9  -2 20251.0 1006.74   4
  -2   9  -2 19369.7 860.247   4
   2   7  -2 20377.8 827.066   2
   2   7  -2 19584.8 844.506   1
   9  -7  -2 20591.1 971.888   4
   9  -7  -2 19233.8 1006.78   3
  -9   2   1 15739.6 863.923   3
  -2   9   1 16400.9 896.653   4
   2   7   1 16796.2 922.324   2
   7  -9   1 16763.7 846.385   4
   9  -7   1 17491.9 947.796   2
   9  -7   1 17432.7 874.442   4
  -7  -2   1 16048.9 882.957   3
   2   7   1 16272.5 878.967   4
  -7  -2   1 16118.2 728.024   1
  -9   2   1 16074.0 690.706   1
   9  -7   1 16310.9 815.347   3
   7  -9   1 17156.1 800.875   3
   7  -9   1 14869.9 873.824   2
  -2   9   1 16778.3 561.479   3
  -2   9   1 16858.0 929.000   2
  -2   9   1 16478.9 722.617   1
   2   7   1 13798.1 642.225   1
   9  -7   4 2299.91 490.682   3
  -2   9   4 1420.33 470.036   4
   2   7   4 1495.30 206.401   3
  -9   2   4 1585.83 531.204   3
   7  -9   4 1614.91 377.428   4
   2   7   4 2055.86 502.022   4
  -2   9   4 2308.80 330.058   3
  -7  -2   4 2434.19 517.904   1
  -9   2   4 1923.57 527.624   1
  -2   9   4 1957.08 508.088   2
   7  -9   4 1683.79 482.072   2
   9  -7   4 2371.43 309.834   1
   9  -7   4 2056.07 351.764   4
   7  -9   4 2283.54 320.565   1
   7  -9   4 2195.04 535.219   3
   2   7   4 2092.46 527.274   2
   2   7   4 1611.33 187.192   3
  -2   9   7 3053.26 566.530   4
   2   7   7 2595.40 536.878   3
   7  -9   7 3088.04 552.115   1
  -2   9   7 3332.18 706.516   2
   9  -7   7 2649.16 373.783   4
   9  -7   7 2622.86 367.843   4
   7  -9   7 1829.47 594.557   3
   2   7   7 2952.95 699.373   2
  -2   9   7 2811.42 605.013   3
   7  -9   7 2150.52 235.532   4
   9  -7   7 3335.64 653.190   3
  -7  -2   7 3663.26 751.334   1
   9  -7   7 3034.27 515.754   1
   2   7   7 1970.13 487.603   4
  -9   2   7 3558.55 741.351   1
  -2   9  10 3112.03 839.373   2
   9  -7  10 4094.72 762.246   1
   2   7  10 3246.67 598.947   4
   9  -7  10 4366.39 962.278   2
   2   7  10 3540.77 905.700   2
   7  -9  10 3126.66 718.678   1
   7  -9  10 2364.17 758.932   2
  -7  -2  10 3124.62 914.289   1
   9  -7  10 3651.93 843.072   3
  -2   9  10 3298.94 1076.63   1
   2   7  10 3802.38 956.248   1
  -9   2  10 2890.31 910.993   1
  -2   9  10 3922.16 646.098   4
   2   7  10 3244.60 675.186   3
   7  -9  10 3085.91 933.770   3
   6  -9  -6 15023.1 1006.05   2
   9  -6  -6 14687.5 733.926   2
   6  -9  -6 16101.6 980.810   4
   3   6  -6 17577.8 640.648   4
   9  -6  -6 17909.7 948.731   4
  -3   9  -3 7299.11 559.009   4
   3   6  -3 7781.37 488.925   2
  -9   3  -3 7588.49 594.139   3
   9  -6  -3 7340.18 752.931   3
   9  -6  -3 6926.70 735.953   1
  -6  -3  -3 7525.10 678.168   4
  -3   9  -3 7455.69 640.454   2
   6  -9  -3 7076.87 654.152   4
  -3   9  -3 7261.13 546.521   1
   6  -9  -3 6193.96 651.368   2
  -6  -3  -3 6827.22 409.146   3
   3   6  -3 5630.43 505.254   4
   9  -6  -3 6464.67 537.770   2
   3   6  -3 6494.57 618.346   1
   9  -6  -3 7570.31 651.652   4
   6  -9  -3 6563.69 584.381   3
   9  -6   0 23187.4 630.791   1
  -6  -3   0 22913.9 845.068   3
  -9   3   0 25650.2 695.648   1
   9  -6   0 25606.3 1049.30   2
   9  -6   0 23398.2 958.968   3
   3   6   0 20439.3 940.693   4
   3   6   0 22570.3 829.638   1
   3   6   0 21281.9 927.865   2
  -3   9   0 22723.2 1016.56   2
   6  -9   0 22410.4 815.220   3
  -3   9   0 23334.6 811.504   3
  -3   9   0 21591.0 961.572   4
   9  -6   0 24029.1 988.045   4
  -6  -3   0 22674.0 952.586   2
   6  -9   0 23394.5 1019.23   2
  -9   3   0 22711.9 906.782   3
   6  -9   0 25411.0 1025.68   4
  -3   9   0 24076.9 751.103   1
  -6  -3   0 21312.6 826.709   1
   6  -9   3 668.758 435.045   3
  -3   9   3 739.765 249.504   3
   9  -6   3 901.877 385.473   3
  -9   3   3 442.709 382.541   1
   3   6   3 249.024 454.078   2
   3   6   3 255.905 377.878   4
   6  -9   3 390.193 320.510   4
   9  -6   3 315.497 190.702   1
  -3   9   3 739.780 428.158   4
  -3   9   3 546.326 428.125   2
  -6  -3   3 124.605 358.293   1
  -6  -3   3 1148.89 541.161   3
   6  -9   3 246.990 385.662   2
  -9   3   3 1095.69 486.192   3
   6  -9   3 621.411 226.206   1
   6  -9   6 10315.5 944.791   3
   9  -6   6 9036.61 581.276   4
   3   6   6 8484.55 893.063   2
  -3   9   6 8112.72 729.622   4
   6  -9   6 8001.67 806.652   2
   6  -9   6 8685.11 456.507   4
   3   6   6 9571.55 604.487   3
  -6  -3   6 8474.70 844.599   1
  -3   9   6 7267.80 683.186   3
   9  -6   6 8367.61 679.884   1
   3   6   6 7583.99 735.940   4
  -3   9   6 8246.35 830.581   2
   6  -9   6 9696.37 710.014   1
  -9   3   6 9184.92 922.217   1
   9  -6   6 8267.48 809.455   3
   9  -6   9 350.662 582.615   3
   6  -9   9-46.0523 646.097   3
   9  -6   9 679.883 663.969   2
   6  -9   9 463.418 504.151   1
   3   6   9-115.761 603.711   2
   9  -6   9-282.871 453.496   1
   3   6   9 304.531 443.523   3
   3   6   9-14.7701 400.064   4
  -6  -3   9 109.683 619.877   1
  -9   3   9 836.804 775.981   1
  -3   9   9-557.728 647.669   2
   3   6   9 501.400 737.246   1
  -3   9   9 483.940 729.085   1
  -3   9   9 156.736 412.410   4
   9  -5  -7 19853.5 756.388   2
   4   5  -7 20378.1 559.318   4
   4   5  -7 20402.9 579.194   4
   5  -9  -7 20696.5 1120.81   4
   9  -5  -4 558.885 492.199   1
  -9   4  -4-134.987 333.781   3
   4   5  -4 74.4715 405.856   1
   4   5  -4 183.500 289.401   4
  -4   9  -4 367.548 290.750   4
  -5  -4  -4 494.937 372.733   4
  -5  -4  -4 65.9985 412.797   2
   9  -5  -4-98.5677 252.624   2
  -4   9  -4 1012.93 364.214   1
   9  -5  -4 139.912 490.609   3
   4   5  -4 236.318 165.302   2
   5  -9  -4 109.207 330.998   3
   5  -9  -4 587.232 385.117   2
   5  -9  -4-15.4685 357.347   4
   9  -5  -4 187.978 325.010   4
  -4   9  -1 41484.9 894.876   1
   4   5  -1 39147.1 1103.45   2
  -5  -4  -1 41948.0 1357.08   4
   4   5  -1 36593.6 1052.04   1
   5  -9  -1 39330.4 977.688   3
   5  -9  -1 40146.4 1300.72   4
  -5  -4  -1 41939.5 814.582   3
   9  -5  -1 41493.2 1196.78   2
   9  -5  -1 30646.1 1165.42   3
  -5  -4  -1 39069.9 1022.99   1
  -9   4  -1 40147.6 1128.22   3
  -5  -4  -1 41811.7 1374.69   2
  -9   4  -1 33625.0 650.597   1
  -4   9  -1 39313.8 1203.27   4
   9  -5  -1 38915.6 1047.25   1
  -4   9  -1 40957.5 1178.21   3
   5  -9  -1 40720.9 1323.85   2
   4   5  -1 40168.7 1223.37   4
  -4   9  -1 39799.7 1274.72   2
   4   5   2 7292.10 720.370   2
  -5  -4   2 7398.89 683.517   3
   9  -5   2 7773.58 590.360   3
  -4   9   2 7177.80 668.925   2
  -9   4   2 6644.90 559.335   1
   4   5   2 6243.00 629.436   4
   4   5   2 7609.68 544.775   1
   5  -9   2 7474.84 650.892   3
  -4   9   2 7672.17 438.140   3
  -5  -4   2 7324.36 570.174   1
   5  -9   2 7276.87 573.732   4
   5  -9   2 6301.08 613.352   2
  -5  -4   2 6914.02 463.643   2
  -9   4   2 6838.63 665.667   3
  -4   9   2 6577.23 645.151   4
   5  -9   2 7820.26 408.159   1
   9  -5   2 5871.03 232.074   1
   4   5   5 19099.2 1206.22   2
   4   5   5 19733.7 698.879   3
  -5  -4   5 17220.8 1023.24   1
   9  -5   5 15982.7 961.897   3
   5  -9   5 17081.2 1094.37   3
  -4   9   5 17421.0 916.375   3
   5  -9   5 19735.8 726.576   4
  -9   4   5 16762.6 596.694   2
  -4   9   5 19817.0 1142.13   2
   5  -9   5 18919.6 853.296   1
   5  -9   5 17242.2 998.583   2
  -9   4   5 17474.5 1130.63   1
  -4   9   5 18025.0 996.107   4
   9  -5   5 18275.5 855.890   1
   4   5   5 18044.0 966.647   4
   4   5   8 3578.38 565.974   4
   9  -5   8 3129.44 623.042   1
   4   5   8 4004.86 534.067   3
  -9   4   8 1975.29 205.431   2
   4   5   8 2731.97 717.869   2
   9  -5   8 3087.52 376.303   4
   9  -5   8 3429.87 690.939   3
  -5  -4   8 2594.71 697.884   1
  -4   9   8 3516.01 724.792   2
   5  -9   8 2074.87 602.210   2
  -9   4   8 2977.31 804.316   1
   9  -5   8 2664.27 352.855   4
   5  -9   8 3679.72 777.966   3
  -4   9   8 2722.61 814.926   1
   9  -5   8 4317.72 766.732   2
   5  -9   8 3223.01 594.979   1
  -4   9   8 1990.84 498.475   4
   9  -5  11 12996.7 1212.10   1
  -9   4  11 11136.2 1425.36   1
   9  -5  11 12959.3 1293.84   3
   4   5  11 10304.6 1089.07   3
  -5  -4  11 11447.1 1392.24   1
   4   5  11 11404.0 1491.61   1
   9  -5  11 10544.3 1314.60   2
  -4   9  11 10832.5 1150.67   2
  -4   9  11 9371.75 1542.89   1
   4   5  11 11176.4 1359.99   2
   5  -9  11 14011.1 1274.40   1
   5  -9  11 11450.0 1465.69   3
   4  -9  -8 3820.27 630.787   4
   9  -4  -8 4030.15 544.476   4
   9  -4  -5 18427.3 897.920   4
   9  -4  -5 16120.0 586.172   2
  -4  -5  -5 16735.3 964.664   4
   4  -9  -5 16690.8 987.469   4
  -5   9  -5 17813.8 906.865   1
   4  -9  -5 16567.6 1054.95   2
   5   4  -5 17410.4 735.164   4
   5   4  -2 8788.82 493.477   2
   9  -4  -2 8812.07 536.420   2
  -4  -5  -2 6540.64 672.256   2
  -5   9  -2 8481.54 434.869   1
   4  -9  -2 8635.09 504.305   3
   9  -4  -2 8416.59 639.888   1
   4  -9  -2 7955.86 699.984   2
   5   4  -2 7592.69 606.097   4
   4  -9  -2 8701.01 705.314   4
  -4  -5  -2 7471.46 674.483   4
  -5   9  -2 8145.12 582.348   4
   9  -4  -2 8794.68 780.582   3
   5   4  -2 8651.43 627.114   1
  -9   5  -2 7661.56 588.476   3
  -5   9  -2 7818.77 662.287   2
   5   4   1 42974.7 914.099   3
  -9   5   1 43965.2 1036.57   1
   5   4   1 43725.2 1373.77   2
   4  -9   1 44097.6 1339.11   2
  -5   9   1 43433.9 1020.69   3
  -9   5   1 43059.1 1294.20   3
  -4  -5   1 47278.4 1357.26   4
   9  -4   1 42158.4 706.381   1
   9  -4   1 42032.2 1187.80   3
   4  -9   1 42973.3 1159.29   3
  -5   9   1 41319.2 1326.77   2
  -5   9   1 40865.4 1301.48   4
   4  -9   1 43374.3 1254.42   4
   5   4   1 43152.0 1336.54   4
  -4  -5   1 44931.1 1288.08   3
  -4  -5   1 42210.1 1154.38   2
   4  -9   1 45520.7 925.418   1
  -4  -5   1 43593.1 1136.25   1
   4  -9   4 488.901 386.622   3
   9  -4   4 525.607 372.017   3
   5   4   4 353.930 372.154   4
  -9   5   4 471.224 280.734   2
   4  -9   4 172.771 283.807   1
  -5   9   4 167.157 430.710   2
   5   4   4 71.9963 433.946   2
  -4  -5   4 434.491 167.087   2
   5   4   4 213.969 212.761   3
  -5   9   4 279.089 310.035   3
  -4  -5   4 28.2881 402.409   1
   4  -9   4 574.438 280.639   4
  -9   5   4 579.960 452.808   1
  -5   9   4 701.347 385.466   4
  -9   5   4 45.3938 473.109   3
   4  -9   4 599.420 423.018   2
   5   4   7 26183.0 1207.76   4
  -5   9   7 25523.7 1647.13   1
  -4  -5   7 26364.5 1390.62   1
   9  -4   7 25624.6 1318.49   3
  -9   5   7 23328.7 793.323   2
   9  -4   7 26625.0 1287.43   1
   4  -9   7 24645.2 1218.56   1
   5   4   7 24841.6 1514.99   2
   9  -4   7 24414.4 1461.96   2
   9  -4   7 25619.0 1004.85   4
  -5   9   7 24163.6 1298.38   2
  -5   9   7 26218.4 1204.56   4
   4  -9   7 26708.4 1542.61   3
  -9   5   7 20034.5 1418.93   1
   4  -9   7 24974.8 1242.47   2
   5   4   7 26072.8 1105.93   3
   5   4  10 1007.65 817.224   1
   5   4  10 2111.43 495.014   4
   4  -9  10 2038.78 649.382   1
   4  -9  10 2501.01 700.901   2
   4  -9  10 2879.11 914.968   3
  -4  -5  10 3109.12 907.008   1
   5   4  10 2689.08 828.320   2
   9  -4  10 1740.33 718.491   2
   9  -4  10 2346.01 680.598   3
  -9   5  10 2727.49 956.570   1
  -5   9  10 2927.72 756.294   2
  -5   9  10 2019.40 917.323   1
   9  -4  10 2860.71 730.441   1
   5   4  10 2136.99 610.993   3
   9  -3  -6 9215.13 658.551   4
  -6   9  -6 8075.16 739.271   1
   3  -9  -6 7466.45 741.175   4
  -3  -6  -6 9533.28 799.791   4
   6   3  -6 8623.38 549.657   4
  -3  -6  -3-300.163 373.451   4
  -3  -6  -3-105.362 440.202   2
  -6   9  -3 139.483 229.195   1
   3  -9  -3 1747.40 491.619   4
   9  -3  -3 298.987 424.818   1
   6   3  -3 1142.38 420.798   1
   3  -9  -3 359.057 266.409   3
   9  -3  -3 462.549 460.133   3
   6   3  -3 564.947 348.568   4
   6   3  -3 332.866 165.154   2
   3  -9  -3 227.780 380.493   2
  -9   6  -3 561.319 347.153   3
   9  -3  -3 579.258 246.555   2
  -6   9  -3 964.570 341.358   4
  -3  -6   0 29783.8 1125.83   4
  -9   6   0 28319.9 641.292   1
  -6   9   0 30575.4 939.106   3
   9  -3   0 29838.1 1091.56   3
   6   3   0 28649.0 890.290   1
  -3  -6   0 33086.4 942.351   1
  -9   6   0 25483.6 962.557   3
  -3  -6   0 29163.2 877.888   3
   6   3   0 29006.1 1073.64   2
   3  -9   0 30618.8 1160.12   2
   3  -9   0 30611.9 1131.07   4
   6   3   0 30337.1 1144.73   4
  -6   9   0 30361.9 1138.55   2
  -3  -6   0 31201.2 1114.56   2
   9  -3   0 29367.9 781.722   1
   6   3   0 29058.5 967.751   3
  -6   9   0 31273.9 1126.24   4
   3  -9   0 29121.9 847.992   3
   3  -9   3 6071.65 604.471   2
   3  -9   3 5793.72 653.234   3
  -3  -6   3 8353.79 629.322   4
  -6   9   3 5898.21 628.649   2
   6   3   3 7286.61 397.422   3
  -9   6   3 6672.85 547.164   2
   6   3   3 6752.22 728.630   2
  -6   9   3 6615.47 566.200   3
  -3  -6   3 7509.60 489.326   2
   6   3   3 7687.71 566.674   1
  -6   9   3 6727.45 642.057   4
   3  -9   3 7280.22 551.816   4
  -9   6   3 6279.17 665.230   1
  -3  -6   3 5778.72 586.142   1
   6   3   3 6064.09 607.400   4
   3  -9   3 7284.71 498.488   1
   9  -3   3 6596.77 555.129   3
   9  -3   3 7655.76 395.799   1
  -9   6   3 6268.38 685.171   3
  -6   9   6 16978.7 1100.11   3
   9  -3   6 17318.3 1202.12   2
   3  -9   6 17551.7 992.966   2
   6   3   6 19936.7 1318.32   2
   6   3   6 17305.1 994.462   4
   6   3   6 18477.7 857.293   3
   3  -9   6 18035.9 986.223   1
  -6   9   6 17119.4 986.836   4
   3  -9   6 17447.6 582.532   4
  -9   6   6 17646.3 792.110   2
  -3  -6   6 14011.2 464.106   2
   9  -3   6 18846.2 1056.75   1
  -9   6   6 18752.2 1274.82   1
  -6   9   6 16613.3 1279.44   1
   9  -3   6 18670.5 1037.48   3
   9  -3   6 19257.8 939.385   4
  -3  -6   6 17488.5 1099.67   1
  -6   9   6 19817.1 1109.62   2
  -9   6   9 410.251 728.513   1
   9  -3   9-423.237 490.352   3
   9  -3   9-259.885 610.282   1
   6   3   9-358.343 396.819   4
   6   3   9 614.216 593.564   2
   6   3   9-148.349 680.575   1
  -3  -6   9 196.075 626.429   1
   3  -9   9 915.600 616.446   1
   9  -3   9 547.119 632.706   2
  -6   9   9 7.73185 423.126   4
   6   3   9 157.038 462.834   3
  -9   6   9 338.747 330.544   2
  -6   9   9 252.155 768.154   1
  -6   9   9 611.652 518.569   2
   9  -3   9 82.0319 242.017   4
   7   2  -7 3352.15 377.894   4
  -2  -7  -7 2933.28 587.956   4
   9  -2  -7 3687.54 479.559   4
   7   2  -7 3965.82 424.222   4
   2  -9  -7 2880.01 592.474   4
   9  -2  -4 1974.89 563.077   1
  -2  -7  -4 2746.57 598.128   2
   9  -2  -4 1878.50 203.742   2
   2  -9  -4 1386.32 469.561   2
  -7   9  -4 2565.25 380.821   1
  -9   7  -4 2222.70 481.384   3
   7   2  -4 1913.29 531.704   1
   2  -9  -4 1446.22 458.102   4
   7   2  -4 1327.58 388.761   4
  -2  -7  -4 2026.82 497.909   4
  -2  -7  -1 14273.4 455.610   3
   9  -2  -1 16902.5 761.553   1
  -7   9  -1 17316.3 445.615   1
   2  -9  -1 16347.7 904.128   4
   2  -9  -1 15659.3 508.599   3
   7   2  -1 15314.1 864.510   4
  -7   9  -1 16303.5 803.987   3
  -7   9  -1 16312.4 913.902   2
   7   2  -1 16932.2 758.515   1
  -2  -7  -1 16096.1 764.855   1
   2  -9  -1 18155.6 952.958   2
  -2  -7  -1 16800.8 925.217   2
  -2  -7  -1 15989.8 875.211   4
   7   2  -1 16087.1 744.704   2
  -7   9  -1 17028.1 852.410   4
   9  -2  -1 16577.8 938.506   3
   7   2  -1 16603.6 904.930   3
  -9   7  -1 16164.4 779.631   3
   2  -9   2 19028.0 912.819   2
  -2  -7   2 18668.7 808.221   1
  -2  -7   2 19469.2 903.429   4
   7   2   2 17921.4 933.391   4
  -7   9   2 18034.9 924.468   4
  -7   9   2 19485.3 960.738   2
   7   2   2 21739.3 760.556   1
  -2  -7   2 18742.0 812.682   2
   9  -2   2 17954.6 579.628   1
  -9   7   2 18102.5 866.279   2
   7   2   2 18754.6 1046.95   2
   7   2   2 18354.2 672.182   3
  -7   9   2 17122.8 802.590   3
   2  -9   2 19828.6 886.078   4
  -9   7   2 18455.7 873.270   1
   9  -2   2 17312.3 778.238   3
  -9   7   2 18481.3 944.965   3
   2  -9   2 18083.8 735.114   1
   7   2   5 31460.8 1261.94   4
  -9   7   5 29092.1 1054.71   2
   2  -9   5 28417.9 1117.02   1
  -9   7   5 30836.0 1527.85   1
   7   2   5 29369.2 1493.16   2
  -7   9   5 31018.1 1545.76   1
  -2  -7   5 27470.7 821.872   2
   2  -9   5 30758.2 900.258   4
  -7   9   5 31186.7 1270.61   4
   9  -2   5 28350.6 1150.85   4
   9  -2   5 29244.9 1133.60   3
   9  -2   5 27698.6 1430.59   2
  -7   9   5 29007.3 1252.11   2
  -7   9   5 28730.3 1291.40   3
   7   2   5 31436.0 1002.02   3
   2  -9   5 28732.3 1135.18   2
  -2  -7   5 30512.7 1262.17   1
   9  -2   8 2257.10 550.997   3
   9  -2   8 1975.90 607.814   1
   2  -9   8 2927.33 659.737   1
   7   2   8 1731.22 706.145   1
  -7   9   8 2456.92 602.177   2
   7   2   8 2185.78 519.990   4
  -2  -7   8 2557.02 696.533   1
  -9   7   8 664.917 694.672   1
   7   2   8 2490.61 759.848   2
  -9   7   8 2661.88 489.654   2
   2  -9   8 993.193 463.539   2
   7   2   8 3281.97 559.114   3
  -2  -7   8 1031.36 205.816   2
  -7   9   8 1012.80 462.931   4
   9  -2   8 2339.24 453.757   4
  -7   9   8 1565.03 834.139   1
   9  -2   8 1930.95 687.076   2
  -2  -7   8 1518.23 229.708   2
   9  -2  11 9730.07 1116.71   3
   2  -9  11 7224.94 1270.24   3
   7   2  11 8190.78 1198.98   2
   7   2  11 8669.03 1265.89   1
   9  -2  11 9208.84 1206.29   2
  -2  -7  11 6792.92 1137.55   1
   7   2  11 8727.56 1000.75   3
   9  -2  11 9330.61 1291.00   1
  -7   9  11 8257.54 1468.24   1
  -9   7  11 7279.63 1304.42   1
   2  -9  11 7466.10 1045.13   1
   1  -9  -8 7778.01 853.768   4
  -1  -8  -8 8146.84 858.782   4
   9  -1  -8 8309.05 597.501   4
   8   1  -8 8898.88 551.604   4
   8   1  -8 7181.34 493.766   4
   1  -9  -5 14382.5 959.980   4
  -1  -8  -5 14410.1 965.718   4
   8   1  -2 7361.49 475.891   2
   1  -9  -2 7215.63 318.724   3
  -8   9  -2 6491.68 571.169   4
   1  -9  -2 7321.83 717.971   2
   1  -9  -2 7759.22 699.966   4
   8   1  -2 6639.30 705.014   3
   9  -1  -2 8247.37 644.698   1
  -1  -8  -2 7368.11 764.681   2
  -9   8  -2 7763.12 653.403   3
   8   1  -2 7814.03 653.707   1
  -8   9  -2 8504.34 710.045   3
  -8   9  -2 5959.55 249.576   1
  -1  -8  -2 7889.74 715.960   4
   9  -1  -2 6675.88 721.608   3
   9  -1   1 23738.9 930.269   3
  -8   9   1 23393.4 1058.54   4
  -8   9   1 22940.6 1027.82   2
  -9   8   1 24388.0 843.302   1
  -1  -8   1 25851.3 885.295   1
  -1  -8   1 24149.8 1028.89   4
   8   1   1 21917.1 1078.13   2
   1  -9   1 23404.7 800.288   1
   1  -9   1 21561.8 853.603   3
  -9   8   1 23231.3 956.112   3
   8   1   1 22653.1 1063.10   4
   8   1   1 23448.5 784.800   1
   1  -9   1 23779.6 1030.57   2
   9  -1   1 23556.5 722.723   1
  -1  -8   1 24306.2 1021.27   2
  -8   9   1 23025.7 914.323   3
  -9   8   1 23709.8 1062.62   4
   1  -9   1 24592.0 1036.29   4
   8   1   1 23820.3 896.324   3
  -9   8   1 22832.7 1032.60   2
  -9   8   4 12490.7 764.016   2
   9  -1   4 11053.1 631.291   1
   8   1   4 8967.06 631.743   1
  -8   9   4 10215.2 798.405   3
  -9   8   4 10087.9 855.181   3
   8   1   4 13009.8 1027.05   2
   1  -9   4 9503.91 665.523   2
  -1  -8   4 11149.2 740.725   1
  -8   9   4 11807.7 792.509   2
  -1  -8   4 11558.1 676.535   4
  -9   8   4 11223.9 789.016   4
  -8   9   4 11512.5 816.729   4
   1  -9   4 12215.6 732.852   1
   9  -1   4 10910.2 772.973   4
   1  -9   4 10738.0 648.336   4
   9  -1   4 12470.2 700.003   3
   9  -1   4 12107.9 949.969   2
  -8   9   4 11565.2 938.747   1
   8   1   4 12095.6 638.093   3
  -1  -8   4 11158.9 632.476   2
   8   1   4 10745.5 789.190   4
  -9   8   4 11662.2 919.272   1
   1  -9   7 19956.6 979.849   2
   9  -1   7 22404.6 1312.60   1
  -8   9   7 20998.8 1114.65   4
   1  -9   7 20604.9 1179.34   1
   9  -1   7 21440.0 1457.93   2
   8   1   7 22461.7 1132.71   4
  -9   8   7 22500.5 1545.89   1
   8   1   7 24048.6 1500.90   2
  -8   9   7 21460.7 1166.02   2
   9  -1   7 22594.0 1143.00   3
  -9   8   7 20968.7 1025.92   2
   9  -1   7 21669.1 1088.11   4
  -1  -8   7 20785.5 1262.80   1
   8   1   7 23899.7 1112.54   3
  -1  -8   7 18385.6 771.424   2
  -8   9   7 20842.7 1502.34   1
  -9   8  10 6480.48 1219.37   1
   8   1  10 4968.76 1038.97   1
   1  -9  10 5459.22 921.026   1
   8   1  10 5787.71 1039.97   2
   9  -1  10 4657.48 947.141   1
  -1  -8  10 5466.93 966.410   1
   9  -1  10 4682.04 929.720   2
  -8   9  10 5560.12 763.399   2
   8   1  10 5138.76 770.795   3
  -8   9  10 6593.45 1250.05   1
   9  -1  10 5147.57 816.761   3
  -9   8  10 3940.94 627.346   2
   9   0  -9 22.8449 246.882   4
   0  -9  -6 4858.86 711.030   4
   9   0  -6 4460.50 511.363   4
   0  -9  -3-48.2905 426.395   2
   9   0  -3 99.8282 208.183   2
   9   0  -3-129.446 457.809   3
  -9   9  -3 35.0524 373.241   3
   0  -9  -3-120.536 395.563   4
   9   0  -3 333.771 420.879   1
  -9   9   0 22809.2 1084.36   2
   9   0   0 21341.7 787.119   1
   0  -9   0 22675.8 1075.08   2
  -9   9   0 20742.6 903.909   3
   0  -9   0 19876.8 705.072   3
   0  -9   0 22097.4 854.168   1
   0  -9   0 21529.0 1054.84   4
   9   0   0 23594.3 1039.45   3
  -9   9   0 23405.1 1066.60   4
  -9   9   3 188.297 379.984   4
  -9   9   3-62.2381 426.167   1
   9   0   3-22.2559 248.155   3
  -9   9   3 125.019 359.561   3
   9   0   3 9.63001 259.903   1
  -9   9   3 286.032 397.771   2
   0  -9   3-160.588 307.102   2
   0  -9   3-62.7727 304.100   4
   9   0   3-166.960 417.662   4
   9   0   3 149.295 475.151   2
   0  -9   3-27.4564 320.480   1
   9   0   6 4921.59 613.969   4
  -9   9   6 3534.96 554.644   2
   0  -9   6 3560.30 576.559   1
   9   0   6 2890.43 654.325   2
  -9   9   6 4856.03 809.680   1
  -9   9   6 2927.56 575.705   4
   0  -9   6 3402.90 448.610   2
   9   0   6 4031.12 515.055   3
  -9   9   9-561.968 799.070   1
   9   0   9 125.043 614.003   1
   0  -9   9 534.386 594.872   1
   0  -9   9 48.6465 360.138   2
   9   0   9 499.901 522.302   3
   9   0   9 683.370 456.465   4
   9   0   9-26.6870 587.507   2
  -9   9   9 328.265 487.455   2
   0  10  -7 378.625 201.245   4
  10 -10  -7-211.011 466.039   2
   0  10  -4 78578.1 1993.51   1
  10 -10  -4 75127.5 2072.38   4
   0  10  -4 81922.8 1808.03   2
  10 -10  -4 79524.5 2238.25   3
   0  10  -4 79140.5 1745.28   4
 -10   0  -4 84549.5 1746.75   3
  10 -10  -4 79805.6 2021.48   2
 -10   0  -1 384.344 291.433   1
 -10   0  -1-275.176 315.155   3
  10 -10  -1 647.876 372.570   3
  10 -10  -1 419.759 420.861   2
   0  10  -1-345.635 416.340   2
   0  10  -1-171.846 324.401   1
   0  10  -1-42.3257 368.737   4
  10 -10  -1-18.9030 382.624   4
   0  10   2 61156.2 1550.72   1
   0  10   2 58909.3 1897.59   2
  10 -10   2 59951.5 1887.79   2
 -10   0   2 59686.9 1505.84   1
 -10   0   2 61435.6 1916.24   3
   0  10   2 61866.7 1847.47   4
  10 -10   2 61860.3 1685.54   4
  10 -10   5 8.84430 323.316   4
   0  10   5 749.953 500.030   4
  10 -10   5-341.742 445.707   3
   0  10   5-117.763 169.926   3
 -10   0   5-120.985 452.387   1
  10 -10   5 31.4870 231.213   1
   0  10   5 842.843 561.059   2
   0  10   8 18150.2 1183.73   4
  10 -10   8 19658.7 1053.26   1
  10 -10   8 15862.9 676.172   4
   0  10   8 15143.2 1000.05   3
  10 -10   8 14070.2 619.974   4
  10 -10   8 18960.6 1417.76   3
   0  10   8 17542.0 1415.62   2
 -10   0   8 19696.2 1423.84   1
  10 -10  11 446.840 776.402   2
 -10   0  11 747.110 890.194   1
  10 -10  11 1572.04 906.945   3
   0  10  11 318.600 744.990   2
  10 -10  11 369.535 625.421   1
   0  10  11 568.900 1008.68   1
  10  -9  -8 890.546 470.629   2
   9 -10  -8-32.1010 527.575   2
  10  -9  -8 567.782 533.732   4
   9 -10  -5 3221.82 653.244   3
  10  -9  -5 4591.22 645.337   4
  -1  10  -5 4370.00 461.938   4
   9 -10  -5 4457.32 623.294   4
  10  -9  -5 5200.25 813.159   3
   9 -10  -5 4748.74 618.790   2
  10  -9  -5 4949.52 589.679   2
   1   9  -5 5246.06 490.536   4
   9 -10  -2 3914.50 548.050   3
  10  -9  -2 4277.88 538.618   2
  10  -9  -2 3916.32 599.806   3
  10  -9  -2 5056.21 629.219   4
 -10   1  -2 3900.48 388.457   1
   9 -10  -2 4374.16 568.665   2
   1   9  -2 4080.39 491.887   1
   1   9  -2 4177.77 505.166   2
  -1  10  -2 4187.31 476.083   1
  -9  -1  -2 4471.28 452.042   1
   9 -10  -2 3465.23 563.248   4
  -1  10  -2 4069.71 535.543   2
   1   9  -2 3957.67 527.900   4
  -1  10  -2 4329.79 531.402   4
 -10   1  -2 4497.68 452.380   3
  -9  -1  -2 4533.59 415.535   3
   1   9   1 1207.42 499.949   2
  10  -9   1 1261.67 398.943   3
 -10   1   1 1160.69 343.071   1
   9 -10   1 1107.23 439.284   4
   1   9   1 720.110 300.377   1
  -9  -1   1 1163.01 441.027   3
  10  -9   1 1831.58 467.686   4
  -9  -1   1 1243.67 360.760   1
 -10   1   1 1861.82 460.252   3
   9 -10   1 739.682 453.054   2
  10  -9   1 1287.74 507.576   2
   1   9   1 1168.61 450.146   4
   9 -10   1 1223.21 402.228   3
  -1  10   1 1086.65 333.731   1
  -1  10   1 1432.71 481.256   4
  -1  10   1 1357.87 505.289   2
  -1  10   4 7452.37 720.513   4
   9 -10   4 8976.18 879.844   2
   9 -10   4 9316.83 426.620   1
  10  -9   4 8672.05 397.537   1
  -9  -1   4 8439.71 762.743   1
   9 -10   4 8936.84 784.308   3
  -1  10   4 9334.96 879.764   2
  10  -9   4 8463.78 852.454   2
  10  -9   4 8434.18 680.201   4
   1   9   4 7975.73 750.013   4
  -1  10   4 7982.24 370.702   3
   1   9   4 8285.81 841.077   2
   9 -10   4 9790.07 690.274   4
 -10   1   4 8442.88 799.790   1
  10  -9   4 8113.01 780.740   3
  10  -9   7 5838.42 819.565   3
  -1  10   7 5750.00 718.732   4
   9 -10   7 4763.35 805.658   3
  10  -9   7 6051.79 536.926   4
   1   9   7 5902.10 594.877   3
 -10   1   7 5757.69 856.361   1
   1   9   7 6672.18 927.824   2
  -1  10   7 5830.09 657.133   3
  -1  10   7 7404.13 875.158   2
  -9  -1   7 5842.04 821.904   1
   1   9   7 6422.66 774.256   4
   9 -10   7 5748.36 467.821   4
  10  -9   7 6328.63 619.105   1
   9 -10   7 5302.09 583.515   1
   1   9  10 2943.40 641.020   3
  -1  10  10 1901.34 848.815   2
   9 -10  10 2370.41 906.392   3
 -10   1  10 2395.15 835.538   1
  10  -9  10 2015.90 864.167   2
  -1  10  10 2587.25 634.546   4
  10  -9  10 3037.26 678.482   1
   9 -10  10 2846.17 667.629   1
  -9  -1  10 2609.43 928.651   1
   9 -10  10 1966.03 778.716   2
  -1  10  10 2923.97 1036.68   1
   1   9  10 2851.24 1074.91   1
   1   9  10 2886.77 642.155   4
  10  -9  10 1256.34 739.697   3
   1   9  10 3872.43 921.676   2
  -2  10  -6 7667.94 462.932   4
   8 -10  -6 7904.49 782.292   2
   8 -10  -6 7272.68 785.298   4
  10  -8  -6 6865.25 640.964   2
   2   8  -6 7651.23 498.303   4
  10  -8  -6 7162.20 709.001   4
   2   8  -3 12865.3 812.320   1
  10  -8  -3 10257.8 895.840   3
  10  -8  -3 11683.7 827.675   4
  -2  10  -3 12946.2 729.598   1
   8 -10  -3 11812.7 839.107   3
  10  -8  -3 11890.9 747.857   2
   2   8  -3 10892.0 669.004   2
   8 -10  -3 12083.3 859.632   4
   8 -10  -3 11750.7 849.362   2
   2   8  -3 11272.1 701.682   4
  -2  10  -3 13543.2 808.656   2
  -2  10  -3 10301.5 677.641   4
  -8  -2  -3 12172.1 570.863   3
 -10   2  -3 12425.9 702.414   3
  -2  10   0 8907.30 754.482   2
   8 -10   0 10583.8 800.048   2
  -8  -2   0 9406.04 634.348   3
  10  -8   0 9410.13 752.768   2
  10  -8   0 9946.94 734.739   4
 -10   2   0 8893.62 651.270   3
   8 -10   0 8233.67 608.273   3
   8 -10   0 8692.62 707.453   4
   2   8   0 8776.84 607.827   1
   2   8   0 8946.82 720.282   2
 -10   2   0 9600.32 514.580   1
  -2  10   0 8588.64 716.942   4
  10  -8   0 8859.88 675.929   3
   2   8   0 9561.50 756.207   4
  -2  10   0 9263.03 536.068   1
  -2  10   3 13590.7 955.780   2
  10  -8   3 12399.2 846.769   3
   2   8   3 14432.5 862.437   1
  10  -8   3 14624.4 820.970   4
  -8  -2   3 14294.8 854.820   1
  -2  10   3 15387.9 966.780   4
  -8  -2   3 15734.2 1142.62   3
   8 -10   3 14368.8 913.472   3
   2   8   3 15044.9 954.407   4
 -10   2   3 14764.1 878.558   1
  -2  10   3 13774.5 468.369   3
 -10   2   3 13653.0 1023.76   3
   2   8   3 13875.1 976.116   2
   8 -10   3 14059.0 969.154   2
   8 -10   3 13311.0 772.643   4
   8 -10   3 15130.6 475.482   1
   2   8   6 1031.25 564.406   2
  -2  10   6 1413.63 548.644   2
  -8  -2   6 789.086 512.509   1
   2   8   6 1257.11 482.147   4
  -2  10   6 705.813 355.817   3
   2   8   6 1026.65 345.477   3
   8 -10   6 767.313 385.804   1
   8 -10   6 845.757 518.455   3
  10  -8   6 939.818 471.497   3
  -2  10   6 743.422 438.074   4
   8 -10   6 947.836 319.270   4
 -10   2   6 906.827 535.666   1
   2   8   6 878.638 281.723   3
  10  -8   6 761.654 347.450   1
  10  -8   6 501.283 358.921   4
   8 -10   9 6904.09 1078.59   3
  10  -8   9 7548.00 1057.74   3
  -8  -2   9 6765.25 990.344   1
   8 -10   9 7231.81 886.031   1
  -2  10   9 5624.18 927.212   2
   2   8   9 5478.89 941.319   2
 -10   2   9 6435.98 1096.37   1
   2   8   9 5279.33 670.608   3
   2   8   9 6152.07 735.002   4
  -2  10   9 5865.26 728.440   4
  10  -8   9 6599.78 780.529   1
   2   8   9 5508.32 1096.56   1
  -2  10   9 5411.22 1128.84   1
  10  -7  -7-41.5494 334.555   2
   7 -10  -7 899.826 518.176   2
   3   7  -7 167.725 186.448   4
   7 -10  -7 523.847 486.918   4
  10  -7  -7 174.767 412.486   4
 -10   3  -4 53872.7 1540.39   3
  10  -7  -4 50322.1 1562.44   4
   3   7  -4 53474.3 1145.68   2
  -3  10  -4 50704.8 1295.14   4
  -3  10  -4 52479.8 1534.03   2
  10  -7  -4 54230.3 1897.74   3
   7 -10  -4 53576.2 1653.91   3
  -3  10  -4 51793.6 1447.81   1
   3   7  -4 52671.3 1350.13   4
   7 -10  -4 56448.8 1750.71   4
   7 -10  -4 51279.9 1663.39   2
   3   7  -4 52471.0 1673.83   1
  10  -7  -4 54222.0 1409.85   2
  -3  10  -1 6254.95 642.012   2
  -3  10  -1 5964.66 597.144   4
   7 -10  -1 5680.28 655.537   2
  -7  -3  -1 7482.53 512.312   1
   7 -10  -1 6974.09 661.898   4
   3   7  -1 6824.74 589.339   2
  10  -7  -1 6819.63 649.003   3
  10  -7  -1 6697.80 503.353   1
 -10   3  -1 7429.41 581.757   3
   3   7  -1 6068.75 526.771   1
  10  -7  -1 6304.29 585.641   2
 -10   3  -1 7562.67 415.600   1
  -3  10  -1 7255.16 493.432   1
   3   7  -1 6536.53 608.530   4
   7 -10  -1 6158.39 501.238   3
  10  -7  -1 8448.62 699.939   4
  -7  -3  -1 6833.12 461.408   3
   7 -10   2 23751.5 1132.36   2
  10  -7   2 23816.1 1001.36   4
   7 -10   2 24791.5 1037.83   4
   3   7   2 25711.9 969.807   1
  -3  10   2 24652.7 1171.46   2
  -3  10   2 24724.8 661.607   3
 -10   3   2 21987.0 1130.20   3
   3   7   2 22392.7 1146.83   2
  -7  -3   2 23996.5 1187.35   3
  -3  10   2 24102.9 1119.10   4
   7 -10   2 23824.6 1036.37   3
   7 -10   2 26654.9 603.188   1
  -7  -3   2 24840.4 981.418   1
   3   7   2 24053.5 1134.70   4
 -10   3   2 24935.1 968.291   1
  10  -7   2 24447.3 1042.29   3
   3   7   5 2753.80 504.067   4
   3   7   5 3238.68 356.109   3
  -7  -3   5 2818.76 621.690   1
   7 -10   5 2626.53 574.550   2
 -10   3   5 2771.86 611.579   1
   3   7   5 1611.77 533.197   2
   7 -10   5 2218.84 374.953   1
  10  -7   5 2524.24 412.399   4
   7 -10   5 3844.86 703.931   3
   3   7   5 3107.97 292.088   3
  10  -7   5 2796.44 538.331   3
  10  -7   5 2818.31 398.881   1
  -3  10   5 2378.69 389.728   3
   7 -10   5 3211.73 406.611   4
  -3  10   5 2193.95 507.380   4
  -3  10   5 3109.21 604.056   2
   7 -10   8 26013.0 1272.54   1
  -3  10   8 24904.2 1518.14   2
   3   7   8 23105.9 1245.63   4
   3   7   8 24967.5 1636.37   2
   3   7   8 24797.3 1121.68   3
  10  -7   8 23553.3 1212.81   1
   7 -10   8 25035.0 1627.55   3
  -3  10   8 23098.8 1733.01   1
  -7  -3   8 23217.6 1500.62   1
  10  -7   8 23106.7 1448.90   3
   3   7   8 18642.3 1150.43   3
  10  -7   8 20579.7 785.833   4
 -10   3   8 23292.3 1578.08   1
  10  -7   8 22294.9 836.104   4
  -3  10   8 22892.6 1229.55   4
   3   7  11 993.553 774.018   2
   7 -10  11 814.221 786.624   2
  -3  10  11 1317.36 806.761   2
  -7  -3  11 144.917 779.137   1
   7 -10  11 1250.64 961.684   3
  10  -7  11 992.265 810.392   2
 -10   3  11 227.924 826.019   1
   7 -10  11 2364.87 775.965   1
  10  -7  11 1442.94 773.272   3
   3   7  11 1773.82 626.878   3
   3   7  11-458.752 864.144   1
  10  -7  11 353.477 694.951   1
  -3  10  11 1691.87 1084.38   1
   6 -10  -8 5307.55 768.608   4
  10  -6  -8 5416.81 631.755   4
  10  -6  -5 17505.3 1201.71   3
   6 -10  -5 15165.8 976.485   4
  -4  10  -5 16232.2 909.698   1
   6 -10  -5 14904.9 995.442   2
  -6  -4  -5 14591.3 956.479   4
  10  -6  -5 15549.2 709.930   2
   4   6  -5 15267.7 710.436   4
  10  -6  -5 15530.7 903.133   4
  -4  10  -5 16816.2 700.191   4
  10  -6  -2 17336.8 916.897   4
   4   6  -2 17638.6 767.713   2
   6 -10  -2 17176.4 781.702   3
  10  -6  -2 17072.5 857.613   1
  -4  10  -2 16780.6 906.499   2
   4   6  -2 16716.6 845.078   4
  -4  10  -2 19273.3 720.407   1
  10  -6  -2 17810.0 826.663   2
  10  -6  -2 17129.1 1025.08   3
  -6  -4  -2 17839.0 1029.91   2
   4   6  -2 18804.0 873.338   1
  -6  -4  -2 17526.0 511.747   3
  -6  -4  -2 16930.9 959.869   4
  -4  10  -2 17502.1 871.344   4
 -10   4  -2 18593.6 833.914   3
   6 -10  -2 17387.3 963.913   2
   6 -10  -2 17855.1 971.671   4
  -4  10   1 2347.62 368.651   1
  -6  -4   1 2614.68 424.360   2
   4   6   1 3210.74 554.715   2
   6 -10   1 2589.61 399.506   3
   6 -10   1 2453.74 454.418   4
   6 -10   1 2549.15 544.563   2
   4   6   1 2243.40 457.848   4
 -10   4   1 3630.53 527.439   3
  -6  -4   1 2281.29 396.904   1
  -4  10   1 2670.77 323.217   3
 -10   4   1 2687.26 368.799   1
  10  -6   1 2767.70 471.649   3
   4   6   1 2660.34 371.200   1
  -6  -4   1 2771.06 466.917   3
  10  -6   1 2658.40 215.166   1
  -4  10   1 2944.17 538.675   2
  -4  10   1 1761.32 460.039   4
   6 -10   4 10498.5 861.648   3
   4   6   4 11306.4 962.568   2
 -10   4   4 10600.6 849.385   1
  -6  -4   4 10337.7 784.563   1
   6 -10   4 8482.46 781.226   2
   4   6   4 9856.32 357.345   3
  10  -6   4 10469.7 524.093   1
  -4  10   4 9889.29 602.803   3
   6 -10   4 9754.59 635.546   4
  10  -6   4 10529.1 785.347   3
   4   6   4 10265.1 803.250   4
   6 -10   4 10789.1 569.359   1
  -4  10   4 11966.3 862.484   4
  -4  10   4 11058.6 890.829   2
  10  -6   7 1990.63 404.215   4
   6 -10   7 2570.48 706.777   3
   6 -10   7 2039.52 491.455   1
  -4  10   7 1581.73 451.096   4
  -6  -4   7 2477.16 680.443   1
  -4  10   7 1827.21 578.138   3
  10  -6   7 1453.32 479.408   1
   6 -10   7 1607.31 212.170   4
   4   6   7 2357.03 728.597   2
  -4  10   7 2409.66 718.803   1
  -4  10   7 683.810 507.508   2
 -10   4   7 3371.09 763.567   1
  10  -6   7 2092.97 409.696   4
  10  -6   7 2412.76 598.936   3
   4   6   7 2569.49 576.839   4
   4   6   7 2906.06 431.312   3
   4   6  10 10670.4 956.178   3
  10  -6  10 7764.22 927.813   1
  -6  -4  10 9539.67 1150.45   1
   6 -10  10 9710.01 1018.99   1
   4   6  10 9446.14 1290.61   1
   4   6  10 8235.04 759.243   4
  10  -6  10 9401.91 1101.22   3
   6 -10  10 9970.24 1299.47   3
   6 -10  10 10147.5 1070.69   2
  10  -6  10 10389.9 1254.67   2
  -4  10  10 7572.93 1355.46   1
  -4  10  10 10847.1 1122.78   2
  -4  10  10 7978.71 819.845   4
 -10   4  10 8300.84 1263.47   1
   4   6  10 10404.6 1263.54   2
  10  -5  -6 7591.30 682.783   4
  -5  10  -6 8480.91 797.484   1
   5   5  -6 7814.96 523.467   4
  10  -5  -6 6898.69 437.182   2
   5 -10  -6 7286.08 761.462   4
  -5  -5  -6 6796.61 717.424   4
  10  -5  -3 20096.5 1176.64   3
   5 -10  -3 19112.4 1070.17   2
   5 -10  -3 20732.9 873.611   3
   5 -10  -3 18498.9 1025.33   4
   5   5  -3 19487.2 998.888   1
  -5  -5  -3 20252.2 1166.85   2
  -5  -5  -3 19348.0 1023.91   4
   5   5  -3 19763.8 663.663   2
  -5  10  -3 18355.7 971.662   2
  -5  10  -3 17371.0 821.980   4
 -10   5  -3 19359.7 916.038   3
  10  -5  -3 20017.4 975.739   4
  10  -5  -3 17915.0 1021.95   1
   5   5  -3 19478.4 897.868   4
  10  -5  -3 18778.7 769.981   2
  -5  10  -3 19441.6 749.042   1
  -5  -5   0 31710.6 976.239   1
  -5  -5   0 29002.5 1182.40   4
  -5  10   0 29913.7 1194.05   2
  10  -5   0 29842.9 1142.82   3
 -10   5   0 31152.4 722.479   1
 -10   5   0 31516.4 1092.18   3
   5 -10   0 30374.9 937.590   3
  -5  -5   0 29823.3 953.881   3
   5   5   0 29290.9 1099.95   2
   5   5   0 29949.1 966.424   1
   5 -10   0 30797.4 1222.80   2
  10  -5   0 30446.7 806.692   1
   5   5   0 30714.5 1173.30   4
  -5  -5   0 31639.4 1171.87   2
   5 -10   0 28584.5 1142.49   4
  -5  10   0 31560.6 1180.16   4
  -5  10   0 28558.1 814.887   1
  -5  10   0 28587.3 942.326   3
   5   5   3 18430.7 1129.30   2
   5 -10   3 19181.8 1045.28   3
 -10   5   3 18217.1 962.833   1
 -10   5   3 19549.2 1105.02   3
  -5  10   3 18832.4 778.589   3
   5 -10   3 20501.6 708.447   1
   5 -10   3 17661.6 846.576   4
  -5  10   3 19552.6 1030.89   4
   5   5   3 17428.6 963.072   4
   5   5   3 17175.4 835.874   1
  -5  -5   3 17736.0 899.785   1
  -5  -5   3 18993.9 675.102   2
  10  -5   3 18422.0 485.885   1
  -5  10   3 17092.9 996.073   2
   5   5   3 17735.5 471.357   3
   5 -10   3 18327.7 1001.14   2
  10  -5   3 18942.5 923.244   3
  10  -5   6 8073.33 698.586   1
  10  -5   6 7520.10 757.256   3
   5 -10   6 7718.08 773.742   2
   5   5   6 8347.07 772.239   4
   5 -10   6 8280.82 701.514   1
  -5  -5   6 9683.60 866.874   1
 -10   5   6 6776.60 444.906   2
   5 -10   6 8368.98 895.251   3
   5   5   6 8967.33 572.178   3
  -5  10   6 8444.52 856.092   2
   5   5   6 7564.24 909.543   2
 -10   5   6 7668.46 928.156   1
  -5  10   6 6967.83 702.239   3
  10  -5   6 8844.22 677.947   4
   5 -10   6 8121.18 472.891   4
  -5  10   6 7302.59 718.736   4
  10  -5   9 9196.69 1158.88   2
 -10   5   9 7540.27 1171.24   1
   5   5   9 7073.52 1047.76   2
  -5  10   9 8963.84 1011.15   2
   5   5   9 7584.46 748.411   4
   5   5   9 5952.74 1156.67   1
  -5  10   9 6495.00 733.751   4
   5 -10   9 7602.09 1093.90   3
  10  -5   9 6004.27 454.739   4
  -5  -5   9 7917.19 988.301   1
  10  -5   9 7889.95 912.043   1
  -5  10   9 8544.91 1237.87   1
  10  -5   9 9129.81 1019.71   3
   5   5   9 8038.96 765.527   3
   5 -10   9 8013.73 917.473   1
   4 -10  -7 2036.56 586.786   4
  10  -4  -7 2282.03 474.723   4
   6   4  -7 2104.94 332.342   4
  -4  -6  -7 737.098 464.548   4
  10  -4  -4 8979.96 499.839   2
   4 -10  -4 9236.53 610.808   3
   4 -10  -4 9054.88 806.354   2
  10  -4  -4 8484.21 678.969   4
  10  -4  -4 8891.73 897.089   3
  10  -4  -4 8985.64 890.162   1
  -6  10  -4 8872.41 577.527   1
  -4  -6  -4 9085.56 777.684   4
  -4  -6  -4 8257.84 864.161   2
  -6  10  -4 9282.36 590.442   4
 -10   6  -4 9643.45 794.292   3
   6   4  -4 9262.59 652.390   4
   4 -10  -4 9429.24 785.388   4
   6   4  -4 7823.49 308.136   2
  -6  10  -1 2881.75 440.433   3
  -6  10  -1 3209.58 536.878   2
  10  -4  -1 2823.86 402.076   1
  -4  -6  -1 3534.54 536.714   2
  -4  -6  -1 2351.43 385.179   1
 -10   6  -1 2281.57 186.612   1
   4 -10  -1 2961.93 496.299   4
   6   4  -1 2934.20 481.245   4
 -10   6  -1 2815.83 416.752   3
  -4  -6  -1 2655.81 266.803   3
  10  -4  -1 2850.08 528.028   3
  -6  10  -1 3374.69 323.195   1
   6   4  -1 2265.73 370.063   2
   6   4  -1 2552.82 411.392   1
  -4  -6  -1 2085.47 479.099   4
   4 -10  -1 3108.20 520.390   2
  -6  10  -1 3042.23 492.884   4
   4 -10  -1 2428.95 306.519   3
   4 -10   2 15872.9 897.765   3
  10  -4   2 17643.7 850.456   3
  10  -4   2 16160.9 477.931   1
   4 -10   2 18007.4 659.855   1
 -10   6   2 16332.6 829.057   1
 -10   6   2 15049.7 927.570   3
   6   4   2 16230.1 580.076   3
   4 -10   2 15061.2 902.284   2
   6   4   2 17364.8 752.657   1
  -6  10   2 16253.9 924.291   4
  -6  10   2 16028.8 929.985   2
   6   4   2 17093.4 941.709   4
  -6  10   2 16612.8 733.875   3
   6   4   2 15477.2 994.233   2
  -4  -6   2 15542.5 783.782   1
  -4  -6   2 16086.7 751.903   2
  -4  -6   2 16582.1 875.738   4
   4 -10   2 15854.7 834.059   4
 -10   6   5 15641.4 728.001   2
  10  -4   5 15699.1 924.238   3
   6   4   5 14782.7 921.660   4
  -6  10   5 15339.6 961.296   4
   6   4   5 17114.0 683.600   3
  -6  10   5 15668.0 921.727   3
   4 -10   5 15584.9 706.670   4
  -6  10   5 14724.6 989.911   2
   4 -10   5 14800.5 800.178   1
  10  -4   5 16481.6 910.060   4
   6   4   5 16413.6 1198.74   2
   4 -10   5 15435.5 1061.71   3
  -4  -6   5 15503.2 973.905   1
 -10   6   5 14649.5 1073.49   1
   4 -10   5 15848.2 966.934   2
  -4  -6   5 11842.9 428.522   2
  -6  10   8 5160.23 971.335   1
 -10   6   8 6015.99 473.550   2
   4 -10   8 4692.59 717.172   2
   6   4   8 6578.75 681.115   3
  -4  -6   8 6544.31 934.161   1
   4 -10   8 7329.13 820.638   1
  10  -4   8 7217.88 832.202   1
  10  -4   8 7977.71 633.924   4
   6   4   8 7905.72 1028.75   2
  10  -4   8 6036.14 915.580   2
   6   4   8 6452.34 721.069   4
  -6  10   8 6903.27 857.589   2
 -10   6   8 6755.14 1039.70   1
   4 -10   8 6432.59 953.765   3
  -6  10   8 6166.65 722.584   4
  10  -4   8 7164.87 796.969   3
  -6  10  11 1417.82 933.538   1
   6   4  11 1189.36 778.087   2
  10  -4  11 949.838 721.668   3
  10  -4  11 172.962 670.066   1
  -6  10  11 1320.64 686.536   2
   4 -10  11 2225.43 748.743   1
 -10   6  11 2726.99 1069.19   1
   6   4  11 1113.35 946.507   1
  10  -4  11 1398.17 793.548   2
  -4  -6  11 767.397 784.389   1
   6   4  11 499.925 581.036   3
   4 -10  11 2746.27 1011.34   3
   7   3  -8 16193.4 621.369   4
   7   3  -8 15413.1 603.636   4
  10  -3  -8 17736.0 917.392   4
  -3  -7  -8 16166.7 1130.10   4
   3 -10  -5 3125.40 554.318   4
  -3  -7  -5 2418.99 546.227   4
   7   3  -5 3140.28 463.262   4
  -7  10  -5 3170.28 447.795   1
  10  -3  -5 3318.88 491.629   4
  10  -3  -5 2124.34 207.372   2
   7   3  -2 23850.5 805.711   2
   3 -10  -2 23200.7 698.016   3
  -7  10  -2 22133.6 1061.39   3
  -7  10  -2 24535.2 608.995   1
  -7  10  -2 24698.5 1155.99   2
  -3  -7  -2 23163.3 1175.31   2
  10  -3  -2 21586.5 830.133   2
  -3  -7  -2 21627.9 1086.62   4
   3 -10  -2 22626.8 1110.37   4
  10  -3  -2 24107.9 1255.19   3
  10  -3  -2 22888.1 986.608   1
 -10   7  -2 21911.1 960.646   3
   3 -10  -2 23740.4 1161.34   2
   7   3  -2 21229.8 1009.78   4
   7   3  -2 22722.8 987.690   1
  -7  10  -2 22504.6 973.042   4
  10  -3   1 7661.88 621.359   3
   3 -10   1 7744.66 586.504   3
  -7  10   1 7063.09 535.736   3
   3 -10   1 6931.60 632.462   4
 -10   7   1 7216.61 633.880   3
  -3  -7   1 9177.18 634.704   1
  -7  10   1 7925.91 685.791   4
   7   3   1 8216.01 564.792   3
  10  -3   1 7768.69 407.312   1
  -3  -7   1 7282.08 631.531   2
   7   3   1 7747.47 721.944   2
  -3  -7   1 7855.37 681.532   4
   3 -10   1 7218.16 485.551   1
 -10   7   1 7483.93 510.500   1
   7   3   1 5700.64 502.586   1
   7   3   1 6735.43 661.643   4
  -7  10   1 7064.39 685.794   2
   3 -10   1 6497.46 630.948   2
   7   3   4 48600.3 1442.09   1
  -7  10   4 53337.0 1687.57   2
  -3  -7   4 53860.7 1566.62   1
   3 -10   4 54149.2 1600.89   2
  -7  10   4 53620.6 1556.38   3
  -3  -7   4 56859.4 1208.37   2
  10  -3   4 56893.8 1550.32   3
   3 -10   4 53490.9 1353.88   4
   7   3   4 54189.5 1150.17   3
   7   3   4 55385.4 1970.22   2
  10  -3   4 59614.8 1215.04   1
  -7  10   4 56769.4 1705.05   4
   3 -10   4 56154.7 1403.91   1
 -10   7   4 56030.0 1436.66   2
 -10   7   4 57885.9 1866.05   1
   7   3   4 54429.3 1666.17   4
  -3  -7   4 56732.5 1475.43   4
 -10   7   4 53344.6 1842.21   3
  -3  -7   7 217.722 139.000   2
  -3  -7   7-93.5306 521.583   1
 -10   7   7-343.787 597.965   1
   7   3   7 1061.15 602.512   2
  10  -3   7 167.104 359.752   3
   7   3   7-137.135 339.238   3
  -3  -7   7 47.8840 105.204   2
  10  -3   7 47.3047 550.889   2
   3 -10   7 344.099 440.685   1
  -7  10   7 57.0280 443.674   2
  10  -3   7 234.669 447.172   1
 -10   7   7 552.641 367.397   2
  10  -3   7-97.6346 353.712   4
   3 -10   7-217.580 430.253   2
  -7  10   7 692.238 634.863   1
   7   3   7 577.074 429.634   4
  -7  10   7 543.031 426.230   4
  -7  10  10 7778.60 900.057   2
  10  -3  10 9293.63 1196.91   2
  10  -3  10 9239.97 1117.36   1
  10  -3  10 9614.75 1036.17   3
   3 -10  10 6693.17 830.579   2
   7   3  10 8934.33 881.449   3
  -3  -7  10 6914.68 1032.81   1
   3 -10  10 9490.15 1300.88   3
 -10   7  10 10766.0 1392.87   1
   7   3  10 8509.49 1180.82   2
   3 -10  10 9084.95 1008.27   1
   7   3  10 5850.73 662.376   4
  -7  10  10 10015.3 1437.01   1
   7   3  10 8779.60 1370.82   1
  10  -2  -9 5181.69 545.770   4
   2 -10  -6 1359.35 509.892   4
  -2  -8  -6 689.994 452.170   4
  10  -2  -6 746.944 385.821   4
   8   2  -6 1098.19 378.823   4
   2 -10  -3 16561.7 1064.77   2
 -10   8  -3 16564.2 959.208   3
  10  -2  -3 17517.2 652.081   2
   2 -10  -3 14430.4 541.903   3
   8   2  -3 15942.4 569.042   2
  10  -2  -3 15179.8 1113.48   3
   8   2  -3 16937.4 968.347   1
  -8  10  -3 15891.1 551.555   1
  -2  -8  -3 15150.0 1051.33   2
  -8  10  -3 15103.6 812.454   4
   2 -10  -3 15015.6 967.807   4
  -2  -8  -3 14833.1 965.598   4
  10  -2  -3 15632.5 946.984   1
   8   2  -3 15892.0 896.093   4
  -8  10  -3 13963.7 914.875   3
   8   2   0 9237.87 713.340   2
   2 -10   0 9715.01 536.544   3
  -8  10   0 8338.14 620.225   3
  -2  -8   0 10629.5 763.821   2
 -10   8   0 9464.36 643.591   3
 -10   8   0 9851.07 443.555   1
  -8  10   0 9075.58 745.669   4
  10  -2   0 9071.87 733.177   3
   8   2   0 7827.96 644.798   3
   2 -10   0 9021.70 734.551   4
   8   2   0 9210.23 587.615   1
   2 -10   0 9699.75 603.544   1
   8   2   0 8887.31 734.565   4
  -2  -8   0 9455.42 733.060   4
   2 -10   0 9726.43 778.983   2
  -8  10   0 10226.2 789.182   2
  -2  -8   0 10589.4 633.767   1
  10  -2   0 8801.04 521.937   1
   8   2   3 13108.7 1009.17   2
   2 -10   3 13288.9 825.148   2
   8   2   3 14904.8 623.691   3
 -10   8   3 14018.2 918.605   1
 -10   8   3 13355.7 911.132   3
  -8  10   3 14077.4 915.620   2
  -8  10   3 13583.6 800.656   3
   8   2   3 12299.5 842.410   4
 -10   8   3 15033.7 834.541   2
  -8  10   3 14144.7 899.709   4
  -2  -8   3 13296.4 787.262   1
  10  -2   3 13684.9 566.459   1
   2 -10   3 14849.5 806.802   4
  -2  -8   3 15431.0 766.974   2
  10  -2   3 15798.8 792.465   3
   8   2   3 14498.4 714.922   1
  -2  -8   3 15017.6 819.669   4
   2 -10   3 15751.4 775.393   1
  -8  10   6 9139.62 837.851   2
   8   2   6 8663.63 644.273   3
   2 -10   6 7995.65 509.074   4
 -10   8   6 9479.78 708.975   2
 -10   8   6 8066.12 974.921   1
  -2  -8   6 8640.82 812.174   1
  -8  10   6 9205.75 1039.53   1
  10  -2   6 7466.49 665.974   3
   2 -10   6 7156.41 718.675   1
  10  -2   6 7145.46 861.273   2
  10  -2   6 7967.68 744.007   4
  -2  -8   6 8330.33 513.283   2
   8   2   6 8214.95 773.121   4
   8   2   6 8041.73 960.185   2
   2 -10   6 7677.66 713.957   2
  -8  10   6 8722.15 802.739   4
  10  -2   9 3672.88 693.941   3
   2 -10   9 3660.76 747.131   1
  10  -2   9 4966.84 919.028   2
  10  -2   9 4259.55 559.236   4
  -2  -8   9 4923.62 841.128   1
  10  -2   9 4037.41 795.358   1
 -10   8   9 4250.25 1048.04   1
   8   2   9 5054.31 667.667   4
   8   2   9 4260.72 957.999   1
  -8  10   9 2923.78 628.350   2
 -10   8   9 3954.96 579.042   2
   8   2   9 3049.89 825.915   2
   8   2   9 4443.74 660.552   3
  -8  10   9 3666.52 1029.38   1
   9   1  -7 6994.99 612.133   4
   9   1  -7 7274.71 624.250   4
  10  -1  -7 6780.35 644.858   4
  10  -1  -4 9053.99 375.288   2
  10  -1  -4 7773.40 363.523   2
   1 -10  -4 9158.61 851.226   4
  -1  -9  -4 8712.05 824.199   4
   1 -10  -1 3283.03 594.824   2
  -9  10  -1 3109.15 522.003   4
  -1  -9  -1 2426.44 431.274   1
   9   1  -1 2758.48 420.120   1
   9   1  -1 2278.59 444.056   2
   1 -10  -1 2548.39 251.058   3
  -1  -9  -1 2730.16 262.450   3
   1 -10  -1 2543.68 524.856   4
  10  -1  -1 2487.07 534.072   3
  -9  10  -1 2375.64 186.917   1
  -1  -9  -1 3037.22 562.355   2
   9   1  -1 2022.16 523.470   3
  10  -1  -1 2514.90 412.011   1
  -9  10  -1 2133.05 570.689   2
 -10   9  -1 2150.16 419.993   3
  -1  -9  -1 2304.01 532.848   4
  -9  10  -1 2059.76 428.199   3
  -1  -9   2 4446.97 563.100   2
  10  -1   2 3912.97 497.085   3
   1 -10   2 3816.04 514.562   4
  -9  10   2 3398.35 471.855   3
  -1  -9   2 4341.25 533.568   4
  -9  10   2 3538.02 581.521   2
   1 -10   2 4252.15 563.294   2
 -10   9   2 3930.56 526.699   3
  -1  -9   2 3199.75 454.860   1
 -10   9   2 4365.56 574.648   2
   9   1   2 4063.41 466.948   3
   9   1   2 3343.84 524.067   4
 -10   9   2 4590.84 556.327   1
  -9  10   2 4411.00 613.364   4
   1 -10   2 5941.64 528.720   1
  10  -1   2 1687.54 322.070   1
 -10   9   2 3252.73 525.135   4
   9   1   2 4338.25 439.752   1
   9   1   2 4347.97 689.594   2
  10  -1   5 4200.59 514.232   3
   9   1   5 4780.23 485.015   3
  -1  -9   5 3866.44 458.491   2
 -10   9   5 3853.81 729.158   1
   9   1   5 3474.38 513.958   1
  -9  10   5 4465.82 580.776   2
  -9  10   5 3841.40 738.518   1
   9   1   5 4242.64 599.573   4
   1 -10   5 4482.88 592.212   1
  10  -1   5 2645.24 519.164   4
   9   1   5 4042.25 720.532   2
  -1  -9   5 3863.73 494.793   4
   1 -10   5 4353.30 473.934   4
  -1  -9   5 4600.63 590.540   1
  10  -1   5 3624.00 466.563   1
  10  -1   5 4333.10 766.638   2
   1 -10   5 4023.86 541.150   2
  -9  10   5 3086.62 587.418   3
 -10   9   5 3550.21 531.589   2
  -9  10   5 4253.60 596.382   4
 -10   9   8 1150.01 833.178   1
   1 -10   8 445.154 425.130   2
  10  -1   8 771.999 573.715   1
 -10   9   8 760.715 496.213   2
   9   1   8 522.844 428.943   4
  10  -1   8-67.8614 412.536   3
  -9  10   8 547.502 695.035   1
  10  -1   8 1037.79 492.670   4
  -1  -9   8 450.517 582.355   1
  -9  10   8 617.567 471.497   2
   9   1   8 371.155 681.235   2
   9   1   8 684.567 421.314   3
  10  -1   8 588.152 635.317   2
   1 -10   8 819.285 517.480   1
  -1  -9   8 308.027 293.682   2
 -10   9  11 4535.44 1261.41   1
  -9  10  11 4610.07 1349.44   1
   9   1  11 3155.72 938.784   1
  10  -1  11 4859.65 1064.05   2
  -1  -9  11 3718.41 938.759   1
   1 -10  11 3633.02 836.506   1
   9   1  11 5561.24 1176.32   2
   9   1  11 2939.39 748.825   3
  10  -1  11 4799.73 830.465   3
  10  -1  11 5741.66 1116.61   1
  10   0  -8 15390.9 825.333   4
  10   0  -8 16364.8 897.857   4
   0 -10  -2 66461.0 2000.15   2
   0 -10  -2 66473.1 1938.52   4
  10   0  -2 64466.1 1683.75   1
  10   0  -2 61815.0 1966.55   3
 -10  10  -2 63241.2 1704.11   3
  10   0  -2 61102.1 1393.05   2
   0 -10   1 134.882 300.428   1
  10   0   1 226.709 427.383   2
   0 -10   1-276.310 380.529   4
 -10  10   1-522.149 428.940   4
 -10  10   1 367.654 324.057   1
 -10  10   1-29.1814 405.785   2
  10   0   1-76.2512 263.369   1
  10   0   1 347.276 400.806   3
   0 -10   1-49.7574 369.784   2
 -10  10   1 181.980 310.165   3
  10   0   4 74225.4 2021.06   4
  10   0   4 70623.1 1533.81   1
   0 -10   4 74166.6 1774.35   1
  10   0   4 78253.5 1665.44   3
 -10  10   4 78265.4 2206.68   1
  10   0   4 75975.6 2346.86   2
 -10  10   4 75395.5 2055.97   4
   0 -10   4 80199.1 1805.54   4
   0 -10   4 73835.0 1744.72   2
 -10  10   4 74708.8 2060.54   3
 -10  10   4 73636.1 1916.06   2
  10   0   7 224.854 439.224   4
 -10  10   7 5.53447 445.541   2
 -10  10   7 356.220 654.073   1
   0 -10   7 134.579 379.172   2
  10   0   7 380.310 411.622   3
   0 -10   7 1134.47 532.206   1
  10   0   7-179.300 584.941   2
 -10  10  10 14085.4 1023.72   2
  10   0  10 17339.7 1625.41   2
  10   0  10 17368.6 1259.11   3
 -10  10  10 16626.1 1713.69   1
  10   0  10 18082.3 1561.96   1
   0 -10  10 15482.4 1288.24   1
  11 -11  -5-51.8984 499.356   3
   0  11  -5-362.001 365.530   2
  11 -11  -5 550.025 447.759   2
   0  11  -5 450.220 354.677   4
  11 -11  -2 7645.54 769.106   2
 -11   0  -2 9057.05 581.247   1
  11 -11  -2 9664.15 823.106   3
   0  11  -2 8965.03 652.924   1
 -11   0  -2 9663.02 627.921   3
   0  11  -2 8648.52 743.413   4
  11 -11  -2 8913.76 802.861   4
   0  11  -2 9486.97 757.975   2
   0  11   1 473.455 440.759   2
 -11   0   1-202.538 320.752   1
 -11   0   1 174.882 377.002   3
  11 -11   1 651.666 510.179   2
  11 -11   1-13.7280 411.198   4
   0  11   1-437.429 455.746   4
  11 -11   1 638.497 422.663   3
   0  11   1 17.6750 302.760   1
  11 -11   4 13670.5 879.239   4
  11 -11   4 11949.7 944.524   3
 -11   0   4 12839.2 923.198   1
  11 -11   4 13267.0 379.412   1
   0  11   4 12281.8 1046.59   2
   0  11   4 12301.0 966.511   4
   0  11   7-209.863 566.870   2
  11 -11   7-117.804 542.997   3
   0  11   7 123.825 480.210   4
   0  11   7 34.8884 310.985   3
  11 -11   7 330.608 324.068   1
 -11   0   7-137.432 600.787   1
  11 -11   7-371.088 371.877   4
   0  11  10 3997.64 658.113   3
  11 -11  10 3491.33 962.461   3
   0  11  10 6022.19 1095.85   2
 -11   0  10 4064.47 1026.80   1
   0  11  10 3752.20 1079.22   1
  11 -11  10 4270.53 713.199   1
   0  11  10 3964.64 707.581   4
   1  10  -6 1436.70 345.014   4
  -1  11  -6 1476.10 363.579   4
  11 -10  -6 1605.40 586.657   3
  10 -11  -6 1602.13 567.926   2
  11 -10  -6 794.424 472.144   2
  11 -10  -3 2902.77 531.731   2
  10 -11  -3 3102.96 581.421   3
 -10  -1  -3 2314.63 360.461   3
   1  10  -3 2952.33 479.531   4
  -1  11  -3 3359.81 519.849   4
   1  10  -3 2633.35 443.815   2
  -1  11  -3 3792.17 541.347   1
  11 -10  -3 3160.80 562.867   4
  10 -11  -3 3471.67 583.076   2
   1  10  -3 2968.05 508.463   1
  11 -10  -3 2496.97 578.478   3
  -1  11  -3 3503.10 536.059   2
 -11   1  -3 2473.96 408.876   3
  10 -11  -3 2998.37 564.940   4
 -11   1   0 172.051 290.950   1
   1  10   0-1.63378 423.669   4
   1  10   0-16.9947 314.061   1
  10 -11   0 42.4607 334.303   3
  10 -11   0 146.831 431.413   2
  11 -10   0 84.5140 360.520   3
 -11   1   0-610.173 397.069   3
 -10  -1   0 23.2504 332.100   3
 -10  -1   0 416.231 356.391   1
  11 -10   0 273.627 408.556   2
   1  10   0-137.678 472.877   2
  -1  11   0 438.310 411.048   4
  -1  11   0 48.1994 423.381   2
  11 -10   0-222.587 411.425   4
  -1  11   0 327.043 311.722   1
  10 -11   0 657.013 411.034   4
  -1  11   3 7371.35 824.100   2
  10 -11   3 4473.95 195.845   1
  -1  11   3 6797.36 760.391   4
 -11   1   3 5787.85 633.269   1
 -10  -1   3 6108.08 635.478   1
  11 -10   3 7481.47 818.717   2
  10 -11   3 6287.76 688.534   3
  11 -10   3 7753.74 692.041   4
  11 -10   3 6706.63 704.056   3
   1  10   3 6429.53 778.578   2
  10 -11   3 6368.65 635.927   4
   1  10   3 5810.40 683.918   4
  10 -11   3 6051.55 783.878   2
   1  10   6 1716.79 253.912   3
  11 -10   6 1613.22 582.124   3
 -10  -1   6 1429.29 557.601   1
  10 -11   6 1236.97 527.753   3
  10 -11   6 2065.89 379.180   1
   1  10   6 1686.36 284.920   3
 -11   1   6 2033.74 669.151   1
  -1  11   6 1823.05 565.274   4
  -1  11   6 1642.54 589.840   2
  -1  11   6 2245.90 370.857   3
   1  10   6 1121.40 622.779   2
  10 -11   6 1505.61 408.570   4
   1  10   6 1502.85 509.466   4
  11 -10   6 1208.92 424.468   4
  11 -10   6 1223.21 341.382   1
  11 -10   9 3304.95 598.126   1
  -1  11   9 2357.65 909.518   1
  10 -11   9 2779.30 612.336   1
 -10  -1   9 3256.63 863.396   1
   1  10   9 3242.01 685.362   4
  11 -10   9 2349.79 792.837   3
   1  10   9 3299.23 576.581   3
   1  10   9 4299.13 952.303   2
  10 -11   9 1254.34 755.635   3
 -11   1   9 4131.46 985.785   1
  -1  11   9 4062.15 724.761   4
  -1  11   9 3156.97 790.599   2
  -2  11  -7 15373.9 582.449   4
   2   9  -7 15733.5 637.661   4
  11  -9  -7 15417.4 923.323   2
  -2  11  -4 14657.0 867.144   1
   2   9  -4 14243.5 761.114   2
 -11   2  -4 15664.5 876.585   3
  -2  11  -4 14305.0 869.229   2
   2   9  -4 13324.1 781.653   4
  11  -9  -4 14647.1 1101.54   3
  -2  11  -4 13548.5 769.745   4
   9 -11  -4 14580.7 994.936   3
  -9  -2  -4 14617.1 711.041   3
   9 -11  -4 12930.3 943.348   4
  11  -9  -4 14192.4 946.010   4
   9 -11  -4 13061.1 941.683   2
  11  -9  -4 13988.9 860.457   2
  11  -9  -1 40189.2 1417.57   2
  -2  11  -1 37897.8 1377.77   2
   9 -11  -1 36491.1 1413.25   2
  -9  -2  -1 38983.3 1089.16   3
   9 -11  -1 37612.3 1236.31   3
   9 -11  -1 38816.6 1456.56   4
 -11   2  -1 37519.0 1187.96   3
   2   9  -1 38946.3 1190.87   1
  -9  -2  -1 42408.6 1146.15   1
  11  -9  -1 38880.4 1439.28   4
 -11   2  -1 39448.1 977.740   1
  -2  11  -1 37934.1 1367.42   4
  -2  11  -1 39130.4 1116.93   1
   2   9  -1 37042.1 1294.00   2
   2   9  -1 37592.3 1352.17   4
  11  -9  -1 37122.1 1372.33   3
  11  -9   2 9939.71 752.318   3
 -11   2   2 12638.3 738.140   1
  -2  11   2 14929.9 864.486   1
   2   9   2 12853.4 757.339   1
 -11   2   2 13682.9 993.049   3
   9 -11   2 11263.1 790.116   3
  11  -9   2 13503.6 990.270   2
  -2  11   2 10686.8 862.280   2
  -2  11   2 12795.2 487.674   3
  11  -9   2 13065.3 839.686   4
  -2  11   2 13229.3 941.169   4
  -9  -2   2 13593.2 793.457   1
   9 -11   2 13183.7 834.643   4
   9 -11   2 12844.9 957.917   2
   2   9   2 15496.4 977.657   4
   2   9   2 7451.43 786.557   2
  -9  -2   2 11573.3 903.585   3
  -9  -2   5 11398.3 931.734   1
  11  -9   5 11295.6 908.672   3
   2   9   5 8046.83 321.238   3
   9 -11   5 10401.7 930.692   3
  -2  11   5 11009.6 1016.79   2
  11  -9   5 11863.0 769.180   4
   2   9   5 12542.1 950.526   4
  -2  11   5 12180.0 589.651   3
   2   9   5 9295.99 369.980   3
   9 -11   5 11867.3 598.741   1
 -11   2   5 13897.5 1018.27   1
  11  -9   5 11978.3 580.475   1
  -2  11   5 10628.3 888.023   4
   2   9   5 12708.2 1085.58   2
   9 -11   5 11154.9 725.503   4
   9 -11   8 8879.93 1104.72   3
  11  -9   8 11871.5 1112.98   3
  11  -9   8 10550.0 829.902   1
   9 -11   8 13149.8 912.743   1
   9 -11   8 7636.02 420.891   4
   2   9   8 9284.10 793.891   3
  -2  11   8 11491.0 988.058   4
  -2  11   8 11861.7 1206.13   2
   2   9   8 10586.1 941.816   4
   2   9   8 10382.6 711.687   3
  11  -9   8 9884.85 655.130   4
   9 -11   8 6764.87 393.035   4
  -2  11   8 8309.13 816.639   3
   2   9   8 11021.7 1210.68   2
 -11   2   8 12850.1 1230.68   1
  11  -9   8 8907.24 613.671   4
  -9  -2   8 10045.0 1056.39   1
  -2  11  11 6450.68 1388.93   1
  11  -9  11 8034.71 967.772   1
  11  -9  11 8857.56 1255.49   3
   9 -11  11 7795.57 1289.97   3
  11  -9  11 7934.81 1241.24   2
   9 -11  11 7223.70 1154.30   2
   2   9  11 8480.69 1446.10   1
  -2  11  11 6854.99 1160.77   2
   9 -11  11 7978.94 988.231   1
   2   9  11 10323.7 1321.87   2
 -11   2  11 6262.28 1249.46   1
  -9  -2  11 9093.98 1321.28   1
  11  -8  -8 1265.71 444.832   2
  11  -8  -8 1615.91 559.055   4
 -11   3  -5 11843.5 843.443   3
  -3  11  -5 12487.7 676.317   4
   3   8  -5 13221.6 733.161   4
   8 -11  -5 12873.2 945.617   3
  11  -8  -5 12263.0 1089.66   3
   8 -11  -5 11174.9 922.059   4
  11  -8  -5 13314.9 810.888   2
  -3  11  -5 13121.4 885.475   1
   8 -11  -5 12776.1 943.557   2
  11  -8  -5 12429.1 882.914   4
  -3  11  -2 31981.0 1255.06   2
   3   8  -2 36135.4 1208.27   1
   3   8  -2 32314.7 1213.84   4
   8 -11  -2 34726.4 1217.12   3
   3   8  -2 32312.2 1106.85   2
  -8  -3  -2 25983.6 1009.75   1
  11  -8  -2 32340.2 1383.27   3
 -11   3  -2 37210.2 895.830   1
 -11   3  -2 36195.3 1162.43   3
  -3  11  -2 35576.0 1068.96   1
  11  -8  -2 36239.8 1271.78   2
  -3  11  -2 34846.3 1247.67   4
  -8  -3  -2 38586.5 910.645   3
   8 -11  -2 35261.0 1377.65   2
  11  -8  -2 34604.7 1352.34   4
   8 -11  -2 32622.6 1347.71   4
  11  -8   1 4732.38 591.494   3
  -3  11   1 3990.41 618.548   2
   3   8   1 3804.17 606.526   4
   8 -11   1 4653.74 661.088   2
  -8  -3   1 3952.86 551.430   3
  11  -8   1 4368.48 674.719   2
  -3  11   1 4644.78 601.055   4
 -11   3   1 4131.01 442.224   1
   3   8   1 4032.71 455.832   1
  -3  11   1 4631.95 401.466   3
   8 -11   1 3573.76 485.187   3
  -3  11   1 4790.17 458.452   1
 -11   3   1 3717.99 516.323   3
  -8  -3   1 4921.70 512.854   1
   3   8   1 5034.92 649.217   2
   8 -11   1 3399.08 525.119   4
  11  -8   1 3698.68 528.723   4
   8 -11   4 10080.5 872.155   3
  -3  11   4 10980.7 526.958   3
  11  -8   4 11051.1 836.409   3
 -11   3   4 9485.59 827.317   1
  -3  11   4 8891.06 854.079   2
  -8  -3   4 9465.47 770.733   1
   8 -11   4 10558.8 894.708   2
   8 -11   4 9753.88 688.597   4
   8 -11   4 11281.9 521.335   1
   3   8   4 8669.02 797.097   4
  11  -8   4 8972.27 412.853   1
   3   8   4 10885.9 973.928   2
  11  -8   4 10357.0 731.429   4
  -3  11   4 9371.27 824.452   4
   3   8   7 2684.06 638.187   4
  11  -8   7 3299.71 529.720   1
   3   8   7 3739.29 814.376   2
   3   8   7 3698.43 553.713   3
  -3  11   7 2658.55 559.719   3
  11  -8   7 2370.70 623.759   3
   8 -11   7 2641.47 353.854   4
 -11   3   7 2085.26 712.969   1
  -8  -3   7 2630.56 670.766   1
   3   8   7 4066.50 452.364   3
   8 -11   7 3296.79 516.180   1
  11  -8   7 2647.35 457.466   4
  -3  11   7 3109.63 636.267   4
  -3  11   7 3414.01 713.761   2
   8 -11   7 1916.56 635.098   3
  11  -8  10 6545.74 1068.07   3
 -11   3  10 5911.49 1107.55   1
  11  -8  10 5166.93 798.899   1
   3   8  10 4177.11 1127.37   1
   8 -11  10 5085.19 1019.50   3
  -8  -3  10 4249.38 917.955   1
   3   8  10 4337.90 1020.52   2
   8 -11  10 6387.90 830.889   1
   3   8  10 4256.66 700.897   4
  -3  11  10 5927.49 1206.22   1
  -3  11  10 5384.66 777.994   4
  -3  11  10 5873.13 1021.78   2
  11  -8  10 6886.78 1155.07   2
   3   8  10 4663.33 668.065   3
  -4  11  -6-165.860 251.070   4
  11  -7  -6 107.409 386.243   4
  11  -7  -6-225.891 310.867   2
   4   7  -6 33.8011 264.318   4
   4   7  -3 16663.4 738.123   2
  -7  -4  -3 16911.7 585.086   3
  11  -7  -3 15666.3 1081.88   3
  -7  -4  -3 17312.1 1041.76   4
  11  -7  -3 17056.6 850.942   2
  -4  11  -3 16963.2 964.655   2
   7 -11  -3 17079.6 916.639   3
   7 -11  -3 15818.9 986.113   4
   4   7  -3 17883.5 883.719   4
 -11   4  -3 17911.5 883.258   3
  11  -7  -3 18040.0 1008.40   1
  -4  11  -3 16904.9 849.299   4
   7 -11  -3 18715.2 1077.75   2
  11  -7  -3 17176.1 969.666   4
   4   7  -3 15828.8 932.587   1
  -4  11  -3 18240.7 809.262   1
  -4  11   0-301.758 432.523   2
  11  -7   0 728.426 376.506   4
  11  -7   0 731.390 424.245   2
  -7  -4   0 474.078 311.206   3
  -7  -4   0 1241.29 405.102   2
   7 -11   0 764.388 448.409   2
   4   7   0 653.305 436.428   4
 -11   4   0 1014.28 406.581   3
  11  -7   0 485.249 439.889   3
   7 -11   0 548.628 389.770   4
  -7  -4   0 698.405 303.298   1
  -4  11   0 1417.04 353.443   3
   7 -11   0 533.859 330.241   3
  -4  11   0 451.883 234.317   1
 -11   4   0 860.985 251.885   1
  11  -7   0 928.979 270.583   1
   4   7   0 890.994 329.435   1
  -4  11   0 930.726 432.029   4
   4   7   0 1111.57 443.855   2
  -7  -4   3 6199.34 805.775   3
  -7  -4   3 7675.91 675.771   1
   7 -11   3 5835.89 669.386   3
   7 -11   3 7537.53 761.357   2
   4   7   3 7599.79 648.008   1
 -11   4   3 7393.65 688.049   1
   4   7   3 6615.35 772.485   2
 -11   4   3 7044.58 782.268   3
  11  -7   3 4575.79 256.817   1
  -4  11   3 7496.25 465.455   3
   7 -11   3 10069.4 490.476   1
  11  -7   3 6916.88 653.421   3
   4   7   3 6079.93 689.800   4
   7 -11   3 7271.81 622.565   4
  -4  11   3 7241.73 726.719   4
  -4  11   3 6564.03 747.370   2
  11  -7   6 1117.46 407.192   4
  -7  -4   6 1294.19 507.029   1
   4   7   6 1250.41 269.454   3
  11  -7   6 1648.89 512.798   3
  -4  11   6 1150.01 416.714   3
   7 -11   6 943.598 527.706   3
  11  -7   6 1084.87 379.610   1
 -11   4   6 1920.36 654.903   1
   7 -11   6 1739.87 436.414   1
   4   7   6 1699.56 490.256   4
  -4  11   6 1949.80 621.739   2
   4   7   6 429.957 575.368   2
  -4  11   6 1857.07 535.713   4
   7 -11   6 1432.38 354.936   4
  -4  11   9 8635.14 884.927   4
  11  -7   9 10502.8 1134.99   3
   4   7   9 8531.18 851.309   4
  -7  -4   9 9105.21 1140.43   1
   7 -11   9 8814.48 905.149   1
  11  -7   9 6081.50 457.619   4
  -4  11   9 8762.08 1298.99   1
  11  -7   9 9291.60 893.971   1
  11  -7   9 10524.9 1195.09   2
   7 -11   9 9383.94 1215.45   3
   4   7   9 7635.69 1090.23   2
   4   7   9 11120.2 841.570   3
  -4  11   9 9730.71 1086.88   2
 -11   4   9 10042.6 1203.67   1
  11  -6  -7 11346.4 863.382   4
   5   6  -7 11993.2 605.483   4
  11  -6  -7 9774.31 553.993   2
  -6  -5  -4 7528.77 745.074   4
   6 -11  -4 6161.92 620.570   3
   6 -11  -4 6619.48 757.011   2
   5   6  -4 5651.87 538.936   4
   5   6  -4 6575.39 410.372   2
  11  -6  -4 6681.96 671.704   4
  11  -6  -4 6970.17 817.279   3
  -5  11  -4 7339.05 563.010   4
   6 -11  -4 6411.32 710.211   4
  11  -6  -4 7612.99 556.518   2
  -5  11  -4 7262.52 576.691   1
 -11   5  -4 7390.34 683.705   3
  -6  -5  -1 42031.7 934.979   3
   6 -11  -1 41566.4 1106.13   3
 -11   5  -1 44176.1 1305.14   3
  11  -6  -1 42445.2 1158.07   1
  11  -6  -1 43495.7 1361.32   2
  -5  11  -1 43714.4 1408.11   4
  11  -6  -1 38638.8 1433.40   3
  -6  -5  -1 45288.4 1550.35   4
  -6  -5  -1 43208.6 1515.98   2
   5   6  -1 41943.0 1400.39   4
   5   6  -1 40742.2 1258.11   2
   5   6  -1 37808.3 1166.23   1
  -5  11  -1 42754.2 1291.96   3
   6 -11  -1 41762.3 1452.86   4
  -5  11  -1 41090.7 1431.11   2
  -6  -5  -1 43071.9 1196.87   1
   6 -11  -1 42295.4 1488.91   2
 -11   5   2 10597.5 864.929   3
   6 -11   2 11306.0 772.632   3
  -5  11   2 12414.5 884.097   4
   6 -11   2 12702.0 894.473   2
  11  -6   2 13580.5 819.914   3
  11  -6   2 10140.7 324.105   1
  -6  -5   2 12433.8 746.262   1
   5   6   2 12811.7 965.204   2
  -6  -5   2 12792.3 920.654   3
   5   6   2 9080.21 357.515   3
   5   6   2 12852.9 890.370   4
  -5  11   2 12511.2 909.368   2
   6 -11   2 12390.1 521.998   1
  -5  11   2 11805.4 582.373   3
   6 -11   2 12243.0 775.058   4
   5   6   2 14886.5 740.735   1
  -6  -5   2 13016.0 692.098   2
 -11   5   2 11645.8 723.127   1
  -5  11   5 16476.1 1091.91   2
  11  -6   5 15163.0 970.597   3
  -5  11   5 17828.9 1084.85   4
   6 -11   5 14188.1 1009.61   2
  -5  11   5 14850.0 833.515   3
   6 -11   5 15190.6 758.533   4
   6 -11   5 15898.3 786.029   1
   5   6   5 16046.1 1036.21   4
   5   6   5 17233.3 573.724   3
   5   6   5 16760.6 1215.46   2
  -6  -5   5 14001.2 964.857   1
 -11   5   5 15446.7 1089.95   1
   6 -11   5 16000.2 1122.66   3
  11  -6   5 16341.1 763.316   1
  -5  11   8 13213.7 1151.04   2
   6 -11   8 15460.9 1048.00   1
  11  -6   8 15175.6 1193.03   3
   5   6   8 17293.8 917.479   3
   5   6   8 15293.1 1326.25   2
  11  -6   8 14144.1 807.713   4
  11  -6   8 13641.0 786.699   4
   5   6   8 13617.2 1040.69   4
  -5  11   8 13965.7 1503.42   1
  -5  11   8 14580.8 1029.42   4
  11  -6   8 14724.0 1040.72   1
 -11   5   8 13429.6 1327.67   1
  11  -6   8 15713.0 1339.50   2
  -6  -5   8 14347.0 1235.42   1
   6 -11   8 13944.7 1282.67   3
   5   6  11 9758.44 1317.88   2
   6 -11  11 9303.27 1089.17   1
  -6  -5  11 11239.1 1403.38   1
   6 -11  11 12836.7 1567.13   3
  -5  11  11 8805.43 1138.77   2
  -5  11  11 11088.4 1601.72   1
   5   6  11 7785.00 1407.66   1
  11  -6  11 12321.3 1278.71   3
  11  -6  11 10145.7 1089.48   1
  11  -6  11 7670.60 1222.84   2
 -11   5  11 13907.2 1589.48   1
   6   5  -8 12085.6 524.489   4
  11  -5  -8 12324.2 883.816   4
   6   5  -8 11725.8 511.419   4
  11  -5  -5 16290.9 954.743   4
   5 -11  -5 15251.2 1025.03   4
  11  -5  -5 15644.9 655.030   2
  -6  11  -5 14228.8 816.196   1
   6   5  -5 15645.6 802.211   4
  11  -5  -5 14546.1 1166.67   3
  -5  -6  -5 16510.8 1052.68   4
  -6  11  -5 16268.7 764.302   4
 -11   6  -2 12113.6 747.802   3
  -6  11  -2 13512.4 809.935   4
   5 -11  -2 12399.9 635.555   3
  11  -5  -2 11691.3 931.734   3
   6   5  -2 12283.5 802.215   4
  -5  -6  -2 11927.4 335.100   3
  -6  11  -2 13258.6 577.006   1
  11  -5  -2 13274.2 738.356   2
   6   5  -2 11745.7 647.467   2
  -5  -6  -2 13088.8 961.201   2
   5 -11  -2 12880.1 909.170   4
   6   5  -2 11225.1 757.070   1
  -6  11  -2 11823.1 844.586   2
   5 -11  -2 13182.0 949.312   2
  11  -5  -2 11725.7 786.074   1
  -5  -6  -2 12491.3 888.931   4
  11  -5   1 44839.5 844.830   1
 -11   6   1 39298.3 1335.38   3
  -6  11   1 45335.9 1148.17   3
   6   5   1 38569.8 1160.04   1
  -6  11   1 45934.8 1552.33   2
  11  -5   1 45298.4 1380.21   3
   5 -11   1 46777.0 1066.36   1
 -11   6   1 44936.5 1106.82   1
  -5  -6   1 45412.2 1402.61   3
  -5  -6   1 44256.6 1338.78   2
   5 -11   1 45859.1 1519.82   2
   6   5   1 45318.8 1528.57   2
  -5  -6   1 46598.9 1512.91   4
   6   5   1 45226.3 1501.59   4
   6   5   1 44963.9 1054.24   3
   5 -11   1 49469.1 1501.98   4
  -6  11   1 45090.8 1493.49   4
   5 -11   1 46703.5 1316.93   3
  -5  -6   1 44473.9 1294.06   1
   6   5   4 9226.04 738.199   1
   6   5   4 8349.16 409.018   3
  11  -5   4 8606.27 435.120   1
  -5  -6   4 7769.31 453.424   2
   6   5   4 7683.61 831.969   2
   5 -11   4 8500.36 779.707   2
  -5  -6   4 7799.21 701.339   1
 -11   6   4 7752.83 779.101   1
   5 -11   4 8358.88 830.136   3
  11  -5   4 9238.01 734.946   3
   5 -11   4 8393.01 581.195   1
  -6  11   4 6525.58 716.589   2
   6   5   4 8116.47 763.665   4
   5 -11   4 9279.60 660.346   4
  -6  11   4 8289.54 753.226   4
  -6  11   4 7526.61 631.542   3
   6   5   7 12563.6 723.366   3
  11  -5   7 12732.7 896.333   1
  -6  11   7 11106.1 1011.60   2
  -5  -6   7 12987.0 1106.20   1
   6   5   7 12115.2 938.509   4
  11  -5   7 10524.3 788.981   4
 -11   6   7 13278.4 1210.41   1
  -6  11   7 11997.9 1244.74   1
   5 -11   7 13991.4 1229.17   3
   5 -11   7 11988.2 879.825   1
   6   5   7 12320.4 1176.17   2
   5 -11   7 11224.8 493.848   4
   5 -11   7 9295.67 907.197   2
  11  -5   7 12217.5 978.529   3
  -6  11   7 12349.9 968.927   4
 -11   6   7 10202.9 561.093   2
  -5  -6  10 5102.40 917.704   1
  11  -5  10 5007.07 869.527   3
   6   5  10 3954.60 633.175   4
   5 -11  10 5499.09 904.885   1
  11  -5  10 5739.52 895.660   1
   5 -11  10 6507.99 1239.61   3
   6   5  10 3207.19 936.828   1
 -11   6  10 5604.52 1132.13   1
  -6  11  10 4642.23 1213.23   1
  -6  11  10 5093.71 716.370   4
  -6  11  10 5817.89 908.545   2
   6   5  10 5065.03 712.919   3
   6   5  10 6511.28 1078.33   2
  11  -5  10 4195.76 941.022   2
   7   4  -6 1108.94 342.927   4
  11  -4  -6 989.297 452.835   4
  -4  -7  -6 747.284 493.470   4
  11  -4  -6 680.212 150.510   2
  -7  11  -6 1164.04 444.670   1
  -4  -7  -3 8224.58 755.770   4
  -7  11  -3 8076.59 634.639   4
 -11   7  -3 8707.46 715.076   3
  11  -4  -3 7459.77 753.791   1
   7   4  -3 8078.52 742.198   1
  -4  -7  -3 6823.31 778.104   2
  11  -4  -3 7874.27 546.769   2
   4 -11  -3 8756.19 546.409   3
  11  -4  -3 6710.49 833.720   3
   7   4  -3 8079.36 682.248   4
   4 -11  -3 9106.06 824.963   2
   4 -11  -3 8211.94 806.638   4
  -7  11  -3 7318.23 462.614   1
   7   4  -3 8169.74 470.183   2
  -4  -7   0 93.5050 294.304   1
   4 -11   0 624.130 275.195   3
   7   4   0 965.371 397.200   2
   7   4   0 842.681 445.604   4
   7   4   0 1061.70 330.816   1
  -7  11   0 602.482 247.729   1
  11  -4   0 342.167 383.702   3
  -7  11   0 857.110 334.276   3
  -7  11   0 623.022 427.809   2
  11  -4   0 662.431 288.215   1
  -7  11   0 926.858 451.140   4
 -11   7   0 744.973 238.266   1
   7   4   0 799.271 346.343   3
   4 -11   0 269.087 400.406   4
   4 -11   0 464.743 384.089   2
  -4  -7   0 368.528 405.919   2
  -4  -7   0 1249.78 458.221   4
  -4  -7   0 945.042 349.730   3
 -11   7   0 85.5106 318.833   3
  -7  11   3 18965.2 1069.12   2
  11  -4   3 18302.8 563.801   1
  -4  -7   3 19027.3 972.297   4
   4 -11   3 17464.5 888.994   4
 -11   7   3 16784.3 1055.70   3
 -11   7   3 19061.3 922.739   2
   4 -11   3 19070.4 784.384   1
   4 -11   3 18859.6 1055.49   3
   7   4   3 19610.5 1188.25   2
 -11   7   3 17564.1 1006.43   1
  -4  -7   3 19165.4 812.999   2
   7   4   3 18256.7 1031.99   4
  11  -4   3 18215.0 917.045   3
  -4  -7   3 19212.3 954.032   1
   4 -11   3 17363.2 984.508   2
   7   4   3 19453.2 643.405   3
  -7  11   3 18314.7 857.954   3
  -7  11   3 19186.7 1056.68   4
   7   4   3 19791.4 868.291   1
   4 -11   6 1021.29 607.728   3
  11  -4   6-374.065 435.555   1
 -11   7   6 340.750 536.072   1
  11  -4   6-3.21507 371.550   3
   4 -11   6-324.430 384.267   1
   7   4   6 964.367 320.993   3
   4 -11   6 79.4674 510.408   2
  -7  11   6 190.489 473.277   3
   7   4   6 812.685 651.199   2
 -11   7   6-51.4466 314.479   2
  -7  11   6-930.279 656.945   1
  -4  -7   6 162.553 436.235   1
  11  -4   6-218.089 404.071   4
   4 -11   6 263.029 281.806   4
  -7  11   6 394.851 470.136   4
   7   4   6 628.741 492.420   4
  -7  11   6-270.782 434.136   2
  -4  -7   6 82.6859 122.081   2
   4 -11   9 2117.02 846.700   3
   7   4   9 2074.57 879.175   2
  -7  11   9 1895.72 678.610   2
 -11   7   9 2183.33 905.072   1
  11  -4   9 1657.35 729.084   2
   4 -11   9 2350.62 632.146   1
  -7  11   9 1853.74 567.152   4
  11  -4   9 1334.95 551.452   3
   7   4   9 2276.60 602.340   4
   7   4   9 1376.73 721.264   1
  11  -4   9 1883.29 439.849   4
  -7  11   9 2410.39 1008.12   1
  11  -4   9 922.856 601.658   1
   7   4   9 1012.07 437.516   3
 -11   7   9 1478.48 352.047   2
  -4  -7   9 1270.78 697.273   1
  11  -3  -7 1756.31 489.771   4
   8   3  -7 2853.58 439.531   4
   3 -11  -4 9559.52 835.855   4
  -8  11  -4 11560.8 601.300   1
  -3  -8  -4 10338.5 859.153   4
  11  -3  -4 9407.46 954.974   3
   8   3  -4 10662.8 754.408   4
  11  -3  -4 10655.7 517.929   2
  -8  11  -4 9009.52 625.228   4
   8   3  -4 8233.53 348.740   2
  11  -3  -1 4447.40 519.385   1
  -8  11  -1 3466.62 597.129   2
 -11   8  -1 3615.74 528.595   3
  -8  11  -1 3907.67 576.525   4
  -3  -8  -1 3748.48 616.889   2
  -8  11  -1 3819.27 279.305   1
  11  -3  -1 4398.18 649.477   3
   8   3  -1 4272.76 497.205   1
  -3  -8  -1 3705.60 310.074   3
  -3  -8  -1 3083.04 470.593   1
   8   3  -1 4006.93 576.457   3
   8   3  -1 3950.13 598.209   4
   3 -11  -1 3942.44 646.798   2
  -8  11  -1 3399.64 479.796   3
   3 -11  -1 3217.25 325.796   3
   3 -11  -1 4602.59 603.564   4
   8   3  -1 3512.06 478.622   2
  -3  -8  -1 4009.26 595.012   4
  -8  11   2 32836.7 1323.71   4
   8   3   2 32271.7 1005.37   1
   8   3   2 31071.9 1319.90   4
  -8  11   2 33183.6 1124.38   3
   3 -11   2 32685.9 1298.74   2
   3 -11   2 30931.4 946.345   1
  -3  -8   2 32525.0 1253.26   4
   3 -11   2 32091.0 1235.72   3
  -3  -8   2 31912.0 1155.85   2
  11  -3   2 30135.7 1108.27   3
   3 -11   2 33230.8 1241.33   4
   8   3   2 33622.7 984.015   3
 -11   8   2 29107.5 1267.17   3
   8   3   2 31654.9 1412.51   2
  -8  11   2 33327.0 1347.47   2
 -11   8   2 33767.3 1196.16   1
 -11   8   2 33150.3 1244.81   2
  11  -3   2 32771.4 806.984   1
  -3  -8   2 33183.0 1146.32   1
   8   3   5 15780.4 1234.25   2
   3 -11   5 14277.6 754.812   4
  -8  11   5 12417.2 1101.29   1
   8   3   5 13606.9 673.270   3
 -11   8   5 13536.9 792.679   2
  -3  -8   5 13102.0 895.549   1
   3 -11   5 14260.6 826.752   1
  11  -3   5 10637.8 632.198   1
  11  -3   5 12839.7 889.229   4
  -8  11   5 11841.8 885.473   3
 -11   8   5 13724.1 1080.54   1
   8   3   5 12720.1 911.252   4
   3 -11   5 13596.1 911.496   2
  11  -3   5 14286.0 862.550   3
  -8  11   5 11691.5 903.379   2
  -3  -8   5 12331.9 627.124   2
  -8  11   5 13067.8 925.323   4
  11  -3   8 2903.46 627.151   3
   3 -11   8 2088.13 612.110   2
   8   3   8 3326.59 577.022   4
 -11   8   8 3311.78 963.073   1
 -11   8   8 2326.90 458.563   2
   8   3   8 3420.42 884.450   2
  11  -3   8 2401.52 515.391   4
   3 -11   8 3110.73 661.446   1
  -8  11   8 2806.69 643.709   4
  -8  11   8 3027.49 941.346   1
  11  -3   8 2254.91 798.850   2
  -3  -8   8 1827.20 749.826   1
   8   3   8 1959.00 479.282   3
  11  -3   8 1712.17 631.708   1
  -8  11   8 1949.13 598.908   2
   3 -11  11 1658.73 907.037   3
   8   3  11 1903.72 636.073   3
 -11   8  11 1251.77 955.425   1
  -3  -8  11 2813.62 923.103   1
   8   3  11 3174.91 1000.55   2
  11  -3  11 2898.09 872.386   1
  11  -3  11 3891.69 782.549   3
   8   3  11 2575.31 1057.40   1
   3 -11  11 2167.06 714.042   1
  -8  11  11 2394.40 1176.36   1
  11  -3  11 2006.36 903.403   2
   9   2  -8 10012.9 655.469   4
   9   2  -8 9284.12 640.907   4
  11  -2  -8 8400.16 706.753   4
   9   2  -5 9904.04 742.425   4
  -9  11  -5 11426.6 671.393   1
   2 -11  -2 13604.2 511.571   3
  -9  11  -2 12558.8 397.416   1
  11  -2  -2 13910.2 1029.22   3
   9   2  -2 12551.9 971.511   3
   9   2  -2 13726.9 702.911   2
  -2  -9  -2 14638.5 1033.09   2
   9   2  -2 13835.8 918.213   4
  -9  11  -2 14092.1 909.699   3
  -2  -9  -2 12389.7 933.081   4
   2 -11  -2 13662.3 960.840   4
  -9  11  -2 14843.2 875.932   4
   9   2  -2 12576.0 827.697   1
 -11   9  -2 14047.8 842.971   3
   2 -11  -2 13100.8 973.237   2
  11  -2  -2 12532.0 816.393   1
  -9  11  -2 12001.1 896.901   2
   2 -11   1 40004.2 1221.26   3
   9   2   1 39690.5 1245.68   3
   2 -11   1 41625.0 1145.01   1
  -2  -9   1 42285.3 1211.61   1
  11  -2   1 39527.0 1316.42   3
 -11   9   1 38730.5 1437.38   2
  -2  -9   1 39501.1 1426.83   4
 -11   9   1 38331.1 1089.14   1
   9   2   1 37999.7 1483.14   2
  -2  -9   1 39014.6 1380.21   2
   9   2   1 39727.2 1112.04   1
  11  -2   1 36794.5 974.633   1
 -11   9   1 38364.3 1322.68   3
  -9  11   1 40329.7 1261.84   3
   2 -11   1 41107.3 1437.99   4
   9   2   1 38863.6 1477.00   4
  -9  11   1 40137.9 1458.31   4
  -9  11   1 37787.0 1434.87   2
   2 -11   1 40076.0 1459.72   2
   9   2   4 16286.0 1184.42   2
   2 -11   4 15620.2 920.983   2
  11  -2   4 16390.2 1012.56   4
  11  -2   4 17249.2 716.981   1
  -9  11   4 15856.3 1116.14   1
   9   2   4 15991.0 735.585   3
  -2  -9   4 15066.5 899.997   1
  -9  11   4 14595.2 914.153   3
   9   2   4 12787.0 923.487   4
   9   2   4 17922.6 872.376   1
  -2  -9   4 15154.7 798.369   2
 -11   9   4 14961.5 870.289   2
  -2  -9   4 14908.4 847.615   4
   2 -11   4 16069.4 844.527   1
 -11   9   4 17560.3 1130.82   1
  -9  11   4 13727.8 945.703   2
  11  -2   4 13947.7 844.604   3
  -9  11   4 16188.8 1020.92   4
   2 -11   4 14283.8 818.784   4
  -9  11   7 16595.4 1114.14   2
   2 -11   7 14982.4 970.765   2
 -11   9   7 17611.2 966.268   2
   9   2   7 17137.6 1416.09   2
  11  -2   7 19118.0 1111.09   3
  -2  -9   7 17953.3 1160.51   1
   2 -11   7 16318.7 1066.55   1
  -2  -9   7 13059.7 634.207   2
  11  -2   7 16642.6 1049.70   4
   9   2   7 17008.6 917.736   3
 -11   9   7 17822.3 1460.01   1
  -9  11   7 20054.0 1561.90   1
   9   2   7 17820.8 1137.56   4
  11  -2   7 18449.2 1446.21   2
  -9  11   7 17956.5 1141.89   4
  -9  11  10 1434.48 610.539   2
 -11   9  10 2777.87 993.527   1
  11  -2  10 3350.11 934.482   2
   2 -11  10 3204.38 807.036   1
   9   2  10 1546.57 528.668   4
   9   2  10 3599.76 963.389   1
  -2  -9  10 1473.67 816.279   1
   9   2  10 2564.09 944.791   2
   9   2  10 1745.85 545.413   3
  11  -2  10 1481.64 612.532   3
  11  -2  10 3097.90 873.110   1
  -9  11  10 3438.78 1139.15   1
  10   1  -9 2941.38 418.029   4
  11  -1  -9 2534.31 492.023   4
  11  -1  -6 1552.02 449.908   4
  10   1  -6 1100.66 424.454   4
   1 -11  -3 5710.44 718.730   4
  10   1  -3 6433.74 458.237   2
  11  -1  -3 6302.27 706.645   1
  -1 -10  -3 6850.54 765.226   4
  11  -1  -3 7190.56 882.561   3
 -10  11  -3 4650.88 261.739   1
  -1 -10   0 171.198 314.037   1
  10   1   0 254.144 293.152   1
 -10  11   0-283.817 343.134   3
 -11  10   0 85.2387 331.432   3
 -10  11   0-679.160 439.691   4
  10   1   0-162.622 431.784   4
   1 -11   0 106.273 403.752   2
   1 -11   0 693.544 363.661   1
  11  -1   0 39.9178 400.921   3
  10   1   0-447.895 454.311   3
 -10  11   0 676.048 478.949   2
   1 -11   0-750.616 452.408   4
  10   1   0 592.474 410.793   2
 -11  10   0-258.259 431.865   2
  -1 -10   0-103.838 382.537   4
  11  -1   0 334.130 291.200   1
 -11  10   0 156.354 249.538   1
  -1 -10   0-454.764 445.043   2
   1 -11   0 165.595 281.571   3
  -1 -10   3 2416.81 475.680   4
  11  -1   3 2918.26 555.938   4
 -10  11   3 2610.52 545.450   2
  11  -1   3 3244.33 371.438   1
 -11  10   3 2748.21 559.831   3
 -10  11   3 2871.43 574.828   1
  11  -1   3 2441.71 410.512   3
  10   1   3 2585.35 382.892   3
 -11  10   3 2194.52 516.131   2
  10   1   3 2698.15 372.601   1
  10   1   3 3053.60 548.951   4
   1 -11   3 3456.52 529.261   4
 -11  10   3 2206.90 536.397   4
  10   1   3 1931.23 598.887   2
 -10  11   3 2908.42 516.089   3
  -1 -10   3 2641.57 465.968   1
  -1 -10   3 3274.55 514.224   2
 -11  10   3 3235.09 563.776   1
 -10  11   3 3350.95 569.774   4
   1 -11   3 3815.31 545.286   2
   1 -11   3 3444.20 482.695   1
 -10  11   6 1327.61 524.982   2
 -11  10   6 1144.64 627.310   1
  10   1   6 1565.74 397.804   3
 -11  10   6 1235.23 471.611   2
  11  -1   6 876.843 395.674   1
   1 -11   6 1620.53 399.530   4
  11  -1   6 1195.11 487.470   4
  11  -1   6 967.727 381.830   3
  10   1   6 1991.59 742.699   2
  10   1   6 2002.85 565.045   4
   1 -11   6 493.990 438.672   1
  -1 -10   6 1603.02 437.313   2
 -10  11   6 889.305 670.526   1
   1 -11   6 1242.35 477.679   2
 -10  11   6 2140.27 536.568   4
  -1 -10   6 1563.29 560.411   1
  11  -1   6 615.007 603.176   2
 -11  10   9 5390.43 704.663   2
  11  -1   9 6036.48 784.196   3
 -10  11   9 5028.41 1121.63   1
  10   1   9 4732.22 719.912   4
  -1 -10   9 6706.81 912.984   1
   1 -11   9 6026.15 899.290   1
  11  -1   9 5116.11 668.763   4
 -11  10   9 5696.77 1116.49   1
  10   1   9 6674.84 992.627   1
  11  -1   9 5925.65 905.508   1
  10   1   9 5989.56 1048.77   2
 -10  11   9 4975.09 760.888   2
  10   1   9 7391.04 780.640   3
  11  -1   9 7191.82 1108.56   2
  11   0  -7 422.562 475.847   4
  11   0  -7 358.479 440.806   4
  11   0  -4 13012.6 509.251   2
  11   0  -4 13389.5 526.614   2
 -11  11  -1 534.364 428.426   4
 -11  11  -1 476.625 363.034   3
 -11  11  -1 925.850 192.634   1
  11   0  -1 283.898 354.499   1
   0 -11  -1 109.167 450.353   2
  11   0  -1 59.1125 341.417   2
   0 -11  -1-258.440 200.784   3
   0 -11  -1-110.562 434.747   4
 -11  11  -1-107.551 112.763   1
  11   0  -1 245.766 449.992   3
  11   0   2 8812.01 665.186   3
   0 -11   2 11223.5 730.095   1
 -11  11   2 9394.31 725.622   3
   0 -11   2 9779.09 788.202   2
 -11  11   2 10370.3 843.402   2
  11   0   2 9227.02 606.377   1
  11   0   2 11204.2 891.888   4
   0 -11   2 10753.1 816.205   4
 -11  11   2 9979.89 743.163   1
 -11  11   2 10182.8 861.651   4
  11   0   2 9348.35 893.468   2
  11   0   5-38.4811 519.676   2
   0 -11   5 96.6241 355.342   2
 -11  11   5-259.313 524.926   1
 -11  11   5 146.802 417.716   4
 -11  11   5 970.010 465.039   2
  11   0   5-78.0054 321.004   1
   0 -11   5-513.121 432.787   1
  11   0   5-98.6286 401.455   4
  11   0   5-57.0402 291.907   3
   0 -11   5 232.576 367.600   4
   0 -11   8 3784.55 733.516   1
 -11  11   8 3750.39 665.599   2
  11   0   8 5169.23 681.167   3
  11   0   8 3828.25 673.751   4
  11   0   8 4250.03 928.720   2
 -11  11   8 3560.09 1026.03   1
   0 -11   8 2486.80 521.992   2
 -11  11  11 446.388 984.981   1
  11   0  11 397.846 614.046   3
  11   0  11 200.788 819.266   1
   0 -11  11-12.4955 666.685   1
  11   0  11 326.018 783.870   2
   0  12  -6 11621.6 752.280   4
  12 -12  -6 13006.5 1212.17   3
  12 -12  -6 11416.6 983.879   2
  12 -12  -3-134.116 439.786   2
 -12   0  -3 276.832 299.529   3
   0  12  -3 280.749 380.767   2
   0  12  -3-71.4602 399.327   1
  12 -12  -3 167.755 472.324   3
   0  12  -3-75.9643 374.396   4
 -12   0   0 1268.29 415.235   3
  12 -12   0 1492.15 445.153   3
  12 -12   0 860.669 497.900   2
   0  12   0 1487.99 517.517   4
   0  12   0 1454.14 423.780   1
 -12   0   0 1396.25 396.000   1
   0  12   0 2273.55 559.182   2
  12 -12   0 1804.49 502.830   4
   0  12   3 664.726 456.754   2
 -12   0   3 466.826 405.915   1
  12 -12   3-395.664 385.763   3
   0  12   3 1006.70 532.635   4
  12 -12   3-14.4853 421.487   4
   0  12   6 9354.78 389.841   3
  12 -12   6 15157.1 1156.61   3
   0  12   6 9903.50 411.528   3
  12 -12   6 12745.1 609.905   1
 -12   0   6 10329.4 1021.20   1
   0  12   6 12853.7 1062.27   4
  12 -12   6 11676.2 838.294   4
   0  12   6 10516.2 1151.58   2
  12 -12   9-975.922 696.213   3
   0  12   9-611.923 413.787   3
   0  12   9 141.761 672.465   2
   0  12   9 173.380 519.152   4
 -12   0   9-388.977 692.518   1
  12 -12   9 329.512 445.495   1
   1  11  -7 14844.5 709.669   4
  -1  12  -7 14402.2 680.635   4
 -11  -1  -4 18062.0 873.273   3
 -12   1  -4 18914.1 940.872   3
  -1  12  -4 16596.4 981.222   2
  12 -11  -4 18227.3 1253.64   3
  11 -12  -4 18591.4 1198.46   3
  -1  12  -4 19007.9 966.917   4
   1  11  -4 21413.9 1044.52   4
  12 -11  -4 17763.8 1083.85   2
   1  11  -4 17916.1 937.265   2
  11 -12  -4 18617.8 1130.61   2
  -1  12  -1 34649.6 1399.98   2
  11 -12  -1 31869.6 1427.62   2
  -1  12  -1 35854.2 1444.75   4
 -11  -1  -1 36518.3 1175.17   3
  11 -12  -1 31587.1 1287.04   3
  12 -11  -1 34538.6 1395.03   3
  12 -11  -1 34961.2 1439.62   2
 -11  -1  -1 33356.7 1074.03   1
  11 -12  -1 35775.8 1483.43   4
 -12   1  -1 36958.2 1055.21   1
 -12   1  -1 36113.1 1218.71   3
   1  11  -1 35189.7 1411.51   4
  12 -11  -1 32836.9 1410.64   4
  -1  12  -1 34858.4 1175.87   1
   1  11  -1 34111.3 1190.54   1
   1  11  -1 33943.4 1354.96   2
  -1  12   2 25665.2 1101.18   1
   1  11   2 24361.6 1313.15   2
  12 -11   2 22843.2 1143.33   3
  12 -11   2 22445.6 1134.99   4
 -12   1   2 24757.4 1307.05   3
 -11  -1   2 23298.6 1292.31   3
  11 -12   2 24615.3 1190.37   3
  -1  12   2 25077.3 1305.20   4
 -12   1   2 23642.6 1018.70   1
  11 -12   2 21481.9 1136.90   4
 -11  -1   2 23050.3 1039.25   1
  11 -12   2 19941.3 1236.45   2
   1  11   2 24569.4 1292.48   4
  -1  12   2 22523.3 1277.73   2
  11 -12   5 8160.53 852.234   3
  12 -11   5 8897.34 842.360   3
  11 -12   5 8649.82 731.693   4
   1  11   5 7574.95 845.519   4
  -1  12   5 6748.79 334.492   3
  -1  12   5 6753.05 774.662   4
 -11  -1   5 8747.43 892.771   1
  12 -11   5 9156.64 419.482   1
  12 -11   5 8100.32 722.223   4
  11 -12   5 9116.18 466.834   1
 -12   1   5 8761.50 904.421   1
   1  11   5 9321.13 982.881   2
  -1  12   5 7371.86 917.183   2
   1  11   8 1278.86 708.980   2
  11 -12   8 1575.15 704.003   3
  -1  12   8 1751.83 576.385   4
  -1  12   8 2671.96 773.622   2
  12 -11   8 2033.04 474.282   1
   1  11   8 1879.49 405.480   3
   1  11   8 2109.32 630.565   4
 -12   1   8 1373.17 732.576   1
  11 -12   8 1669.06 466.005   1
  12 -11   8 2058.48 717.085   3
 -11  -1   8 1579.59 727.194   1
  12 -10  -8 2029.49 552.443   2
   2  10  -8 1206.14 204.450   4
 -12   2  -5 5776.32 632.211   3
   2  10  -5 5865.23 562.088   2
  10 -12  -5 6485.67 779.798   2
  10 -12  -5 7585.14 858.742   3
   2  10  -5 6696.74 615.970   4
  12 -10  -5 5907.86 861.813   3
  12 -10  -5 7272.97 733.351   2
  -2  12  -5 7128.19 613.554   4
 -12   2  -2 15395.9 675.954   1
   2  10  -2 13769.8 847.967   2
  10 -12  -2 14456.8 966.109   2
   2  10  -2 14806.1 926.915   4
  -2  12  -2 15967.6 801.865   1
  12 -10  -2 15381.4 948.510   2
  -2  12  -2 15929.1 977.321   2
 -10  -2  -2 15393.2 714.756   3
  10 -12  -2 14529.6 912.765   3
  -2  12  -2 15817.6 944.419   4
   2  10  -2 14558.1 840.188   1
  12 -10  -2 14415.3 997.537   4
 -12   2  -2 14516.9 800.950   3
  10 -12  -2 14133.8 998.522   4
 -10  -2  -2 13945.3 753.117   1
  12 -10  -2 14519.8 1020.67   3
   2  10   1 8405.49 824.606   2
  12 -10   1 6459.11 679.072   3
  10 -12   1 9750.15 742.361   3
  -2  12   1 8694.51 796.082   4
 -12   2   1 8624.07 778.168   3
  12 -10   1 8566.79 820.216   2
 -10  -2   1 8822.53 774.273   3
  10 -12   1 9446.89 796.958   4
   2  10   1 8385.77 630.118   1
  -2  12   1 9639.87 653.091   1
 -12   2   1 9101.79 626.492   1
  12 -10   1 9497.82 808.500   4
  10 -12   1 8488.76 827.667   2
   2  10   1 8405.47 809.324   4
  -2  12   1 9842.00 848.964   2
 -10  -2   1 10210.0 687.477   1
   2  10   4 2884.03 621.260   4
  -2  12   4 2891.07 250.508   3
   2  10   4 4184.47 697.342   2
  12 -10   4 2493.22 146.898   1
 -12   2   4 3288.24 596.941   1
  12 -10   4 3267.05 592.959   3
 -10  -2   4 2755.66 559.251   1
  10 -12   4 3801.33 539.158   4
  -2  12   4 3608.17 612.004   4
  10 -12   4 3583.27 290.313   1
  -2  12   4 3672.66 693.162   2
  12 -10   4 2548.93 519.194   4
  10 -12   4 2995.13 616.430   3
   2  10   7 1050.90 520.255   4
  -2  12   7 2156.52 757.039   2
 -12   2   7 2245.77 734.521   1
   2  10   7 1802.89 360.618   3
  10 -12   7 2067.62 616.067   3
  -2  12   7 1641.44 431.145   3
  12 -10   7 1869.45 478.303   4
 -10  -2   7 1306.30 673.540   1
  10 -12   7 2165.98 465.422   1
  12 -10   7 2053.78 430.219   1
  10 -12   7 1477.46 393.437   4
   2  10   7 1804.17 318.593   3
  12 -10   7 387.870 536.691   3
  -2  12   7 1203.36 553.025   4
   2  10   7 2076.30 720.603   2
  12 -10  10 3325.50 941.872   3
  10 -12  10 4529.42 1043.58   3
   2  10  10 3819.68 1087.96   2
  -2  12  10 3528.16 903.476   2
  12 -10  10 3213.51 658.379   1
 -12   2  10 4336.89 1042.32   1
  12 -10  10 5502.83 1077.92   2
 -10  -2  10 2789.94 948.178   1
  10 -12  10 3321.43 711.583   1
   2  10  10 2637.50 955.672   1
  -2  12  10 1955.46 937.817   1
   2  10  10 2856.91 696.294   4
  -2  12  10 2622.37 680.159   4
  12  -9  -6 2978.34 520.997   2
   3   9  -6 2806.11 425.747   4
  12  -9  -6 2900.47 719.501   3
  -3  12  -6 3358.08 410.213   4
 -12   3  -3 368.498 349.786   3
  -3  12  -3 205.902 337.047   4
  -9  -3  -3 69.2108 221.966   3
   3   9  -3-71.1771 321.119   2
   3   9  -3 90.7979 345.288   4
   9 -12  -3 196.573 416.569   4
  -3  12  -3-0.82039 395.907   2
   9 -12  -3 192.391 368.901   3
  12  -9  -3 326.915 465.233   3
   9 -12  -3 65.7493 419.095   2
  12  -9  -3 107.926 394.281   2
   3   9  -3 396.471 401.079   1
  -3  12  -3 1007.26 360.699   1
  12  -9  -3 387.506 419.015   4
   3   9   0 9790.92 801.730   2
  -3  12   0 9013.58 812.804   2
   3   9   0 9189.05 664.794   1
  12  -9   0 8592.62 754.210   3
   9 -12   0 9026.37 819.648   2
  12  -9   0 8533.78 818.801   2
  -3  12   0 10334.7 593.571   1
  -9  -3   0 8603.74 658.551   1
   3   9   0 9176.36 785.981   4
 -12   3   0 8321.14 691.367   3
   9 -12   0 9385.90 677.660   3
  12  -9   0 9756.96 802.420   4
 -12   3   0 9942.74 565.435   1
  -3  12   0 9983.61 838.584   4
  -9  -3   0 9504.99 667.217   3
   9 -12   0 8893.29 800.813   4
  12  -9   3 1944.98 464.856   4
   9 -12   3 1322.04 471.594   3
  -3  12   3 1950.40 561.851   2
  -3  12   3 1758.91 238.397   3
   9 -12   3 1723.83 555.118   2
  -9  -3   3 2460.00 521.256   1
  12  -9   3 1350.08 454.806   3
 -12   3   3 1482.69 447.183   1
   9 -12   3 1429.93 214.665   1
  -3  12   3 2101.63 508.148   4
   3   9   3 1763.93 499.921   4
   3   9   3 2415.89 612.050   2
   9 -12   3 1318.01 405.867   4
   3   9   6 7717.39 383.266   3
  -3  12   6 7967.18 606.932   3
  12  -9   6 7708.25 695.704   4
   3   9   6 8170.58 464.452   3
   9 -12   6 10354.7 667.445   1
  -3  12   6 8631.53 866.209   4
  -3  12   6 9437.57 997.144   2
  12  -9   6 8278.32 580.980   1
   3   9   6 7843.65 863.207   4
  -9  -3   6 9140.23 969.310   1
   3   9   6 9150.20 1002.11   2
   9 -12   6 8625.99 661.346   4
 -12   3   6 8208.13 924.165   1
   9 -12   6 8070.65 912.230   3
  12  -9   6 8616.37 864.249   3
  -3  12   9 363.202 815.797   1
   3   9   9 144.916 385.800   3
   9 -12   9 846.372 689.940   3
  12  -9   9 717.506 674.469   3
  -9  -3   9 1753.46 727.217   1
  12  -9   9 847.471 484.185   1
 -12   3   9 452.308 762.509   1
   3   9   9 1116.80 558.451   4
   3   9   9 1388.57 773.716   2
  -3  12   9 1290.64 752.124   2
  12  -9   9 833.284 301.101   4
  -3  12   9 1004.22 561.039   4
   9 -12   9 645.578 477.395   1
   4   8  -7 17217.9 753.497   4
  12  -8  -7 14577.7 813.991   2
  12  -8  -4 15113.2 858.506   2
 -12   4  -4 15238.9 928.187   3
  -4  12  -4 14356.7 949.225   2
  12  -8  -4 13704.3 1114.28   3
   4   8  -4 14462.1 714.754   2
  -4  12  -4 15672.9 860.733   1
   4   8  -4 14961.2 843.022   4
   8 -12  -4 15135.6 1053.77   4
   8 -12  -4 15182.3 951.915   3
   8 -12  -4 14683.0 1039.55   2
  12  -8  -4 14448.5 977.860   4
  -4  12  -4 15716.9 839.232   4
   8 -12  -1 45181.0 1629.95   2
 -12   4  -1 45051.0 1003.61   1
 -12   4  -1 46633.9 1385.41   3
  -8  -4  -1 46538.5 1133.46   3
  12  -8  -1 48973.3 1553.83   2
   8 -12  -1 44292.4 1283.19   3
  12  -8  -1 45767.8 1579.87   3
  -4  12  -1 45222.2 1522.07   4
  12  -8  -1 46395.7 1229.90   1
  -8  -4  -1 49145.3 1660.97   2
   4   8  -1 44268.4 1321.32   1
   8 -12  -1 47538.1 1632.24   4
  12  -8  -1 46518.7 1578.44   4
   4   8  -1 44287.3 1509.25   4
   4   8  -1 46011.7 1451.63   2
  -4  12  -1 46289.0 1191.05   1
  -8  -4  -1 48935.9 1315.94   1
  -4  12  -1 46491.5 1592.69   2
  -4  12   2 4780.45 684.687   2
  -4  12   2 4860.74 385.222   3
   8 -12   2 4674.69 582.866   3
   8 -12   2 5672.90 636.479   4
  12  -8   2 5252.87 574.820   3
   8 -12   2 4926.76 696.816   2
   4   8   2 5682.30 686.334   4
 -12   4   2 4071.54 505.017   1
 -12   4   2 4593.85 629.768   3
   8 -12   2 4854.41 341.608   1
  -8  -4   2 5580.69 712.113   3
  -4  12   2 4163.23 592.579   4
  12  -8   2 5075.23 593.691   4
   4   8   2 4736.48 514.043   1
  -8  -4   2 4649.71 565.211   1
   4   8   2 3163.20 598.568   2
 -12   4   5 26480.5 1384.66   1
   8 -12   5 29174.4 1513.03   3
  -4  12   5 29226.9 997.389   3
  12  -8   5 27871.6 842.989   1
  12  -8   5 30293.7 1387.84   3
  -8  -4   5 26950.2 1328.64   1
  -4  12   5 26527.9 1331.07   4
   4   8   5 27005.7 1356.17   4
   8 -12   5 29730.7 965.644   1
   4   8   5 28148.4 1584.56   2
   4   8   5 21652.6 483.622   3
   8 -12   5 25836.9 1057.29   4
  -4  12   5 28295.2 1481.61   2
  12  -8   5 27039.5 1136.72   4
   8 -12   8 2351.40 888.362   3
  -4  12   8-489.382 694.495   2
   4   8   8 566.150 342.473   3
   4   8   8 505.070 463.868   3
  12  -8   8 841.237 571.040   3
  -8  -4   8 254.909 589.926   1
 -12   4   8 1463.96 755.736   1
  -4  12   8 564.675 483.027   4
  12  -8   8 848.356 436.920   1
   8 -12   8 234.151 150.210   4
   8 -12   8 590.109 519.873   1
  -4  12   8 654.508 723.686   1
   4   8   8 797.298 531.393   4
  12  -8   8 609.470 427.020   4
   4   8   8 1943.07 780.978   2
  12  -8   8 463.950 423.118   4
   8 -12  11 9977.30 1434.48   3
 -12   4  11 8587.48 1400.05   1
  12  -8  11 7272.59 1093.54   3
  -8  -4  11 9760.57 1299.17   1
  -4  12  11 6712.75 1384.37   1
  12  -8  11 9837.42 1024.33   1
   8 -12  11 7133.74 1079.67   2
   4   8  11 9347.53 1420.24   1
  12  -8  11 7965.25 1199.39   2
   4   8  11 7494.96 1221.06   2
  -4  12  11 8829.64 1202.68   2
   8 -12  11 8682.26 1033.91   1
  12  -7  -8 1462.38 330.206   2
   5   7  -8 1976.45 272.835   4
  12  -7  -5 38786.4 1485.69   4
  12  -7  -5 38007.7 1201.96   2
   5   7  -5 34879.3 838.361   2
   7 -12  -5 39165.5 1466.30   3
  12  -7  -5 36418.9 1789.23   3
  -7  -5  -5 36517.5 1580.02   4
  -5  12  -5 40040.5 1202.59   4
  -5  12  -5 37133.1 1344.44   1
   5   7  -5 39537.0 1273.18   4
  -7  -5  -2 3319.66 292.735   3
 -12   5  -2 4039.42 528.363   3
  12  -7  -2 3499.85 670.030   3
  12  -7  -2 3487.45 489.863   2
   7 -12  -2 3556.17 477.011   3
 -12   5  -2 3267.92 282.877   1
  12  -7  -2 3914.76 582.177   4
   5   7  -2 3478.01 475.886   2
  -5  12  -2 2468.92 556.048   2
  -7  -5  -2 3512.31 637.587   2
  -7  -5  -2 3499.38 475.998   1
  -5  12  -2 3435.22 397.139   1
   7 -12  -2 3782.41 605.709   2
  12  -7  -2 3894.42 525.072   1
  -7  -5  -2 3026.84 581.784   4
   5   7  -2 2794.19 514.359   4
  -5  12  -2 3396.35 548.812   4
   7 -12  -2 3341.26 578.457   4
   5   7  -2 2984.48 487.180   1
  -5  12   1 15809.3 1031.92   2
   7 -12   1 16626.6 861.954   3
  12  -7   1 16837.5 923.780   3
 -12   5   1 17874.1 993.635   3
   5   7   1 17028.9 835.394   1
   7 -12   1 17479.9 1061.92   2
  -7  -5   1 16612.3 948.074   3
   5   7   1 16223.7 1001.72   4
  12  -7   1 15212.7 484.491   1
  -5  12   1 17021.1 790.405   1
  -7  -5   1 18278.7 938.389   2
  -5  12   1 17145.1 742.260   3
 -12   5   1 15966.9 727.063   1
   7 -12   1 17367.6 981.997   4
  -5  12   1 17264.6 1024.71   4
  -7  -5   1 17277.8 859.331   1
   5   7   1 16982.4 1031.22   2
  12  -7   4 8210.47 347.420   1
   7 -12   4 8860.69 855.023   2
   7 -12   4 9655.17 892.298   3
  12  -7   4 7857.47 730.281   3
   7 -12   4 8996.32 689.271   4
   5   7   4 8351.17 814.595   4
  -5  12   4 9439.41 585.961   3
  12  -7   4 7942.54 446.895   1
   7 -12   4 9913.79 555.677   1
  -5  12   4 8401.25 794.505   4
  -5  12   4 9431.06 901.357   2
   5   7   4 8172.09 918.989   2
  -7  -5   4 8948.68 767.858   1
 -12   5   4 9961.42 864.176   1
   5   7   7 11862.8 1229.46   2
   5   7   7 10010.6 595.422   3
   7 -12   7 8128.16 522.424   4
  -7  -5   7 8802.90 951.367   1
  -5  12   7 8508.63 793.707   3
   7 -12   7 10367.2 794.764   1
 -12   5   7 8715.86 1030.13   1
  12  -7   7 9681.31 751.915   4
  -5  12   7 9186.92 873.773   4
  12  -7   7 9041.47 768.604   1
  12  -7   7 9508.35 746.310   4
   7 -12   7 10265.5 1125.06   3
   5   7   7 8637.61 895.900   4
  12  -7   7 8268.38 896.073   3
  -5  12   7 7744.86 916.998   2
   7 -12  10 1932.34 863.364   3
   5   7  10 797.170 485.293   3
  12  -7  10 1207.66 694.210   3
  12  -7  10 1981.44 617.655   1
  -5  12  10 2562.82 1063.91   1
  -5  12  10 1950.83 723.642   2
  -7  -5  10 1849.57 793.971   1
   5   7  10 1127.36 528.826   4
 -12   5  10 741.887 868.094   1
   7 -12  10 1864.16 625.938   1
   5   7  10-32.9403 826.878   1
  12  -7  10 1693.98 804.105   2
   5   7  10 2287.03 890.544   2
  -5  12  10 1430.42 609.283   4
   6   6  -6 6471.43 566.897   4
  12  -6  -6 6343.43 482.232   2
  12  -6  -6 5735.90 697.780   4
  -6  12  -6 7502.38 763.847   1
  12  -6  -3 1574.78 473.485   4
   6 -12  -3 1938.64 558.102   2
   6   6  -3 1502.31 315.253   2
   6 -12  -3 781.587 461.479   4
  -6  12  -3 1041.89 376.850   4
  12  -6  -3 1158.23 430.115   1
   6 -12  -3 1626.65 399.619   3
   6   6  -3 1170.58 384.617   4
  12  -6  -3 1318.30 596.403   3
  -6  12  -3 1370.20 341.792   1
  -6  12  -3 758.152 472.025   2
  12  -6  -3 1865.12 485.811   2
 -12   6  -3 1248.58 381.872   3
  -6  -6  -3 1594.12 469.035   4
   6 -12   0 48455.8 1657.37   2
  -6  12   0 51101.8 1684.78   2
   6   6   0 51578.5 1573.69   2
  12  -6   0 52231.1 1605.11   3
  -6  -6   0 50475.7 1334.09   3
 -12   6   0 53066.1 1010.84   1
   6   6   0 51978.5 1663.92   4
  -6  -6   0 54625.3 1393.78   1
  12  -6   0 50501.7 1120.84   1
  -6  -6   0 52935.2 1647.98   2
  -6  -6   0 50231.2 1661.58   4
   6   6   0 46826.0 1304.54   1
   6 -12   0 50699.3 1645.78   4
  -6  12   0 53882.6 1678.71   4
  -6  12   0 53363.6 1172.41   1
 -12   6   0 50987.8 1524.79   3
  -6  12   0 51075.9 1361.81   3
   6 -12   0 50228.3 1313.16   3
   6 -12   3 1645.01 327.598   1
  -6  12   3 1800.43 533.281   2
  -6  -6   3 1178.43 448.717   1
  12  -6   3 976.758 395.740   3
  -6  12   3 1198.81 338.835   3
   6 -12   3 491.494 455.659   2
   6   6   3 1428.24 389.866   1
   6   6   3 852.449 167.799   3
   6   6   3 1288.56 541.425   2
  -6  12   3 1477.43 470.779   4
  12  -6   3 1155.80 188.525   1
 -12   6   3 1400.87 448.259   1
   6 -12   3 1527.37 493.627   3
  -6  -6   3 1103.06 542.723   3
  -6  -6   3 1504.89 350.460   2
   6   6   3 914.630 448.517   4
   6 -12   3 1258.25 444.879   4
   6 -12   6 9393.46 992.749   3
 -12   6   6 7975.75 931.151   1
   6   6   6 8777.08 1018.22   2
   6 -12   6 5690.08 779.398   2
  -6  12   6 7236.43 804.553   4
  -6  12   6 7270.17 716.881   3
  -6  -6   6 5676.38 777.992   1
  12  -6   6 7336.77 658.908   1
   6   6   6 7749.31 492.072   3
   6 -12   6 8124.48 668.346   1
   6 -12   6 7311.60 568.169   4
   6   6   6 8537.09 843.796   4
  12  -6   6 7342.89 766.800   3
  -6  12   6 6725.63 835.617   2
  12  -6   9-49.1016 508.217   1
   6 -12   9 247.367 667.514   3
   6   6   9 322.885 396.570   3
  12  -6   9 101.754 553.707   3
  -6  12   9 209.910 656.605   2
   6 -12   9 671.329 547.727   1
 -12   6   9 1223.90 778.848   1
  -6  12   9 218.214 478.356   4
  -6  12   9 732.804 870.055   1
  12  -6   9 179.651 590.618   2
  -6  -6   9-88.6269 645.785   1
  12  -6   9 266.131 372.475   4
   6   6   9-653.591 705.474   2
   6   6   9 699.936 514.446   4
  12  -5  -7 7255.36 762.344   4
   7   5  -7 8790.25 623.743   4
   7   5  -4 8891.86 445.253   2
   7   5  -4 9292.30 721.078   4
  -5  -7  -4 7572.92 799.177   4
   5 -12  -4 9728.33 661.567   3
  12  -5  -4 10476.3 1039.36   3
  -7  12  -4 7679.65 557.232   1
   5 -12  -4 9014.08 861.053   4
  -7  12  -4 10300.5 723.297   4
  12  -5  -4 9450.57 606.161   2
  12  -5  -4 8647.29 760.993   4
   5 -12  -1 13642.3 643.532   3
  -5  -7  -1 15865.9 1020.96   4
  -7  12  -1 15629.8 605.174   1
   5 -12  -1 14249.0 985.221   2
  -7  12  -1 13555.7 952.956   2
  -7  12  -1 13081.5 828.435   3
   7   5  -1 14881.7 843.255   2
  12  -5  -1 14406.5 987.727   3
  -5  -7  -1 15490.5 591.037   3
   5 -12  -1 13116.2 918.142   4
   7   5  -1 14474.5 804.573   1
   7   5  -1 14237.1 926.119   4
  12  -5  -1 14873.6 782.261   1
  -7  12  -1 14497.7 894.987   4
 -12   7  -1 15912.0 451.022   1
 -12   7  -1 15165.2 850.661   3
  -5  -7  -1 13648.3 954.490   2
  -5  -7  -1 15392.6 821.613   1
 -12   7   2 3871.27 509.998   1
   5 -12   2 3952.55 575.069   3
  -7  12   2 4009.37 657.851   2
   5 -12   2 3757.02 599.792   2
   5 -12   2 3117.51 537.612   4
  -7  12   2 3120.31 596.958   4
  12  -5   2 3006.75 530.187   3
  12  -5   2 3003.23 266.521   1
   7   5   2 3210.56 543.674   4
 -12   7   2 2842.05 569.652   3
   7   5   2 3251.02 360.406   3
   7   5   2 3197.50 431.049   1
  -5  -7   2 3278.06 488.106   1
   5 -12   2 3314.12 374.053   1
  -5  -7   2 3600.98 620.126   3
  -5  -7   2 4006.22 608.935   4
  -5  -7   2 2780.62 450.441   2
   7   5   2 3540.58 610.505   2
  -7  12   2 3219.40 429.504   3
   7   5   5 39022.6 1834.13   2
  -7  12   5 40035.4 1662.99   2
   5 -12   5 34073.7 1627.86   3
  -5  -7   5 31390.3 791.583   2
   5 -12   5 34803.0 1499.69   2
  -7  12   5 34966.9 1326.22   3
   7   5   5 39456.8 960.346   3
 -12   7   5 35442.2 1165.28   2
  -5  -7   5 36573.5 1470.71   1
  12  -5   5 39781.1 1050.05   1
  -7  12   5 36937.4 1539.75   4
   5 -12   5 37337.5 1205.64   4
   5 -12   5 39589.3 1252.84   1
  12  -5   5 38439.3 1472.19   3
 -12   7   5 35808.5 1629.31   1
   7   5   5 35882.1 1508.48   4
   5 -12   8 4176.64 890.733   3
   7   5   8 4281.41 552.315   3
  12  -5   8 2856.34 610.441   1
  12  -5   8 2337.70 525.805   4
   5 -12   8 3503.23 622.835   1
  -7  12   8 1988.85 662.248   2
 -12   7   8 2704.96 856.256   1
  -7  12   8 3967.38 988.176   1
  12  -5   8 3109.77 642.906   3
  12  -5   8 1896.06 674.573   2
 -12   7   8 1647.89 341.690   2
   7   5   8 3296.19 631.429   4
   7   5   8 3829.70 886.328   2
  -5  -7   8 3787.08 808.587   1
  -7  12   8 2850.14 621.198   4
   5 -12  11 9680.21 1415.17   3
   7   5  11 8793.98 1305.78   1
  12  -5  11 8784.76 1139.27   3
 -12   7  11 7806.77 1329.43   1
  -5  -7  11 7294.61 1172.57   1
   5 -12  11 8377.75 1070.36   1
  12  -5  11 8905.91 1128.53   1
  -7  12  11 9441.46 1592.75   1
  12  -5  11 7512.66 1231.44   2
  -7  12  11 7014.63 1040.53   2
   7   5  11 10075.4 1408.64   2
   8   4  -8-106.780 309.603   4
   8   4  -8-251.573 314.769   4
  12  -4  -8 409.940 462.782   4
  -8  12  -5 25289.0 1015.06   1
  12  -4  -5 25315.5 754.747   2
  12  -4  -5 24999.1 1202.46   4
   8   4  -5 27914.1 1162.88   4
 -12   8  -2 5601.72 601.966   3
  -8  12  -2 4795.61 649.892   2
   8   4  -2 4181.32 559.996   1
  12  -4  -2 4454.12 711.047   3
  12  -4  -2 4519.41 575.776   1
  -8  12  -2 4556.91 357.262   1
  -4  -8  -2 5536.11 732.630   4
   4 -12  -2 4398.16 400.547   3
  -8  12  -2 4882.94 634.228   3
   8   4  -2 4387.10 479.092   2
   4 -12  -2 4891.81 644.323   4
  12  -4  -2 5465.70 549.433   2
   4 -12  -2 4902.44 703.809   2
   8   4  -2 4370.10 576.218   4
  -4  -8  -2 4874.48 700.351   2
  -8  12  -2 5263.93 611.457   4
   4 -12   1 51302.6 1227.19   1
  -8  12   1 48725.3 1666.07   2
  -4  -8   1 55891.5 1471.27   1
 -12   8   1 47441.2 1519.12   3
  12  -4   1 46686.4 1009.69   1
   4 -12   1 48671.2 1380.53   3
   8   4   1 47513.1 1278.58   3
   8   4   1 44887.0 1640.25   2
   4 -12   1 50483.8 1630.59   4
   8   4   1 48348.9 1649.02   4
  -4  -8   1 50587.8 1570.20   2
  -4  -8   1 48912.3 1619.66   4
  12  -4   1 48926.4 1535.06   3
   4 -12   1 51265.9 1694.06   2
  -8  12   1 49509.7 1644.90   4
  -8  12   1 47932.3 1324.00   3
   8   4   1 48812.4 1327.73   1
 -12   8   1 48998.0 1199.62   1
   4 -12   4 14024.1 1036.64   3
  12  -4   4 14650.9 595.881   1
   8   4   4 14243.4 842.956   1
  12  -4   4 14480.3 893.516   3
  -4  -8   4 12987.5 676.462   2
  -4  -8   4 13748.2 878.546   4
   8   4   4 15466.0 1180.34   2
  -4  -8   4 13709.4 892.323   1
   8   4   4 14838.5 621.702   3
   8   4   4 14275.9 996.938   4
   4 -12   4 14217.7 838.794   4
  -8  12   4 14066.3 995.803   2
   4 -12   4 13676.9 743.016   1
 -12   8   4 14385.8 844.789   2
 -12   8   4 12358.8 967.792   1
   4 -12   4 12683.7 913.126   2
  -8  12   4 15141.7 889.362   3
  -8  12   4 13539.9 974.031   4
   4 -12   7 17970.6 1416.22   3
   4 -12   7 14971.5 1081.54   2
 -12   8   7 15502.1 853.316   2
   4 -12   7 17752.9 1046.90   1
  -4  -8   7 17329.8 1207.26   1
  12  -4   7 18417.9 1140.40   1
   4 -12   7 16548.6 701.942   4
  -8  12   7 17563.7 1252.23   2
  12  -4   7 20058.4 1186.18   3
   8   4   7 19367.1 1204.26   4
  12  -4   7 16808.3 1052.70   4
   8   4   7 18385.6 1435.73   2
  -8  12   7 19099.1 1536.17   1
 -12   8   7 19411.0 1503.02   1
  -8  12   7 18238.8 1166.07   4
  12  -4   7 15399.3 1357.05   2
   8   4   7 17262.4 869.668   3
   8   4  10 1312.85 810.222   2
  12  -4  10 904.975 540.065   3
   8   4  10 1671.35 526.469   3
 -12   8  10 417.595 862.171   1
  12  -4  10 3570.03 840.742   1
   4 -12  10 1121.26 880.048   3
   8   4  10 1259.99 586.307   4
  12  -4  10 1717.86 801.263   2
   8   4  10 2565.67 1011.58   1
  -8  12  10 2096.74 783.663   2
   4 -12  10 3943.37 793.390   1
  -8  12  10 1378.92 931.641   1
  -4  -8  10 2411.98 821.290   1
   9   3  -9 703.251 282.449   4
   9   3  -6 9255.44 727.036   4
  -9  12  -6 8319.06 688.075   1
  12  -3  -6 6726.02 694.860   4
  -9  12  -3 2011.05 267.882   1
  12  -3  -3 1505.13 524.929   1
  -9  12  -3 1981.53 450.166   4
   3 -12  -3 1228.80 263.346   3
   3 -12  -3 2312.99 584.640   4
  12  -3  -3 974.508 553.668   3
   9   3  -3 1785.63 407.137   4
   9   3  -3 1712.14 306.023   2
  12  -3  -3 2109.97 386.767   2
  -3  -9  -3 2220.98 577.428   4
  -3  -9   0 9097.69 641.243   1
  -9  12   0 8414.50 826.149   2
  12  -3   0 6984.67 532.208   1
  12  -3   0 10318.7 828.758   3
   9   3   0 7798.43 609.553   1
   9   3   0 8323.79 714.395   3
   3 -12   0 7052.12 768.493   2
  -3  -9   0 8270.79 787.543   4
   9   3   0 7441.97 737.393   4
  -3  -9   0 7334.15 750.430   2
   9   3   0 8256.96 743.334   2
 -12   9   0 8407.29 426.124   1
   3 -12   0 9260.66 795.527   4
   3 -12   0 7666.42 534.597   3
  -9  12   0 6632.24 593.670   3
  -9  12   0 8405.87 769.478   4
 -12   9   0 7810.98 685.628   3
   3 -12   3 290.197 385.007   4
   9   3   3 88.1622 280.920   1
   3 -12   3 1024.37 452.493   2
  12  -3   3 636.295 379.411   3
  -9  12   3 487.094 349.488   3
   9   3   3 454.031 289.810   3
 -12   9   3-434.865 454.640   3
   9   3   3-30.8527 404.136   4
  -3  -9   3 757.103 371.578   1
  -9  12   3-464.024 397.696   2
 -12   9   3 236.298 393.203   2
 -12   9   3-122.252 442.815   1
  12  -3   3 362.739 245.152   1
  -3  -9   3 464.973 414.160   4
   9   3   3 63.4869 463.616   2
  -3  -9   3 494.893 340.976   2
   3 -12   3 558.517 324.885   1
   3 -12   3 235.342 391.481   3
  -9  12   3 594.749 448.180   4
  -9  12   6 4383.36 703.379   2
  12  -3   6 4314.31 594.236   3
   9   3   6 3265.16 443.024   3
 -12   9   6 3626.22 514.846   2
  -3  -9   6 3889.48 690.015   1
 -12   9   6 3213.04 712.597   1
  -9  12   6 4188.16 891.421   1
   3 -12   6 4505.58 501.801   4
   3 -12   6 3928.45 595.854   1
  12  -3   6 3867.14 618.945   4
  12  -3   6 2923.56 702.220   2
   9   3   6 4373.46 667.833   4
  -9  12   6 3654.58 642.622   4
  12  -3   6 3192.88 473.930   1
  -3  -9   6 3283.18 382.845   2
   3 -12   6 3476.45 614.595   2
   9   3   6 3857.70 818.603   2
  12  -3   9 767.516 502.356   3
 -12   9   9-1458.64 842.058   1
  -9  12   9 312.110 538.261   2
  -9  12   9 522.561 514.764   4
   9   3   9 1024.95 457.833   3
   3 -12   9-325.568 735.116   3
 -12   9   9-242.721 427.862   2
   3 -12   9 149.436 578.910   1
   9   3   9 735.249 683.778   2
  12  -3   9 84.3966 660.284   2
  12  -3   9 1088.22 525.776   4
   9   3   9 449.223 460.328   4
  -3  -9   9 194.168 598.386   1
  12  -3   9 223.371 558.784   1
  -9  12   9 1040.81 889.483   1
  10   2  -7 1532.66 455.707   4
  12  -2  -7 1633.10 487.857   4
  12  -2  -4 2875.12 335.445   2
  10   2  -4 2816.47 568.218   4
  12  -2  -4 2874.55 700.755   3
 -10  12  -4 2886.89 328.220   1
  10   2  -4 2997.08 270.267   2
   2 -12  -1 12048.5 518.539   3
  12  -2  -1 11135.6 732.248   1
 -10  12  -1 12839.9 964.600   2
  -2 -10  -1 11882.3 469.573   3
 -10  12  -1 11964.9 863.764   4
  10   2  -1 12362.3 934.899   3
  -2 -10  -1 10933.3 930.270   2
   2 -12  -1 10423.3 889.424   4
 -10  12  -1 10549.5 403.967   1
  -2 -10  -1 9778.58 855.560   4
  10   2  -1 11004.3 738.949   1
  10   2  -1 10788.3 884.479   4
  -2 -10  -1 11790.7 772.318   1
 -12  10  -1 11148.6 796.102   3
   2 -12  -1 10718.7 922.254   2
 -10  12  -1 10382.3 780.300   3
  12  -2  -1 13228.5 1011.99   3
  10   2  -1 12088.5 792.848   2
 -10  12   2 14121.8 852.191   3
  10   2   2 14483.2 793.911   3
  12  -2   2 15254.4 659.858   1
  -2 -10   2 15832.3 931.832   2
 -10  12   2 16096.2 1017.17   2
 -12  10   2 14576.2 939.258   3
  12  -2   2 15130.4 889.165   3
  10   2   2 17153.9 1154.59   2
 -12  10   2 15379.3 981.556   2
   2 -12   2 15411.6 763.860   1
  10   2   2 15306.4 1012.25   4
 -12  10   2 15001.8 855.657   1
  -2 -10   2 15409.6 878.273   1
  -2 -10   2 15263.9 959.834   4
   2 -12   2 15317.7 902.156   3
   2 -12   2 14637.6 961.491   2
   2 -12   2 15048.4 956.272   4
 -10  12   2 15551.7 1027.19   4
   2 -12   5 5434.83 665.958   2
  12  -2   5 5750.85 702.474   4
 -10  12   5 6575.49 739.264   2
   2 -12   5 6310.96 656.401   1
 -12  10   5 6450.11 681.864   2
  10   2   5 5843.98 529.237   3
 -10  12   5 5355.91 837.685   1
  -2 -10   5 6048.35 677.851   1
  12  -2   5 6378.36 878.522   2
  -2 -10   5 6402.13 649.477   4
   2 -12   5 5567.93 582.305   4
  10   2   5 6215.91 769.509   4
  -2 -10   5 5871.22 560.005   2
  12  -2   5 6314.42 620.099   3
  12  -2   5 6937.94 554.184   1
 -10  12   5 7348.49 809.346   4
 -12  10   5 5900.40 817.674   1
  10   2   5 6284.64 872.755   2
 -10  12   8 1898.43 607.025   4
   2 -12   8 1802.12 561.335   2
  10   2   8 2526.05 535.233   3
 -12  10   8 1588.44 805.286   1
 -12  10   8 2187.78 575.754   2
 -10  12   8 1479.91 582.622   2
  12  -2   8 1874.57 533.718   4
 -10  12   8 2199.32 936.276   1
   2 -12   8 733.371 537.566   1
  10   2   8 2151.35 848.345   2
  12  -2   8 790.243 629.403   2
  12  -2   8 2761.29 670.722   1
  10   2   8 2767.14 647.612   4
  12  -2   8 2424.77 570.030   3
  -2 -10   8 1364.64 303.117   2
  -2 -10   8 2076.05 637.328   1
 -10  12  11 2359.84 1084.36   1
 -12  10  11 4214.83 1293.28   1
  10   2  11 575.530 850.402   2
  12  -2  11 2256.29 944.613   2
  -2 -10  11 1097.13 780.704   1
  12  -2  11 3248.22 789.893   3
  10   2  11 148.717 890.815   1
   2 -12  11 1798.28 781.633   1
  12  -2  11 2258.73 855.726   1
  12  -1  -8 2663.62 623.025   4
  11   1  -8 1367.16 470.933   4
  11   1  -8 2811.08 522.029   4
  12  -1  -8 2199.55 548.336   4
  11   1  -5 8779.32 778.959   4
   1 -12  -2 22612.5 590.978   3
  12  -1  -2 22764.8 1089.57   1
  -1 -11  -2 23336.9 1293.16   4
   1 -12  -2 23107.4 1281.45   4
  12  -1  -2 24145.4 1379.26   3
  11   1  -2 25038.6 1375.22   3
 -11  12  -2 24085.7 1151.28   4
  11   1  -2 23402.6 988.274   2
  11   1  -2 22913.2 1087.62   1
 -12  11   1 36856.4 1486.38   4
   1 -12   1 34417.1 1184.42   3
  -1 -11   1 34996.9 1437.25   4
  11   1   1 33298.6 1078.63   1
 -11  12   1 33544.6 1271.75   3
 -12  11   1 33158.2 1311.65   3
 -12  11   1 34527.9 1101.19   1
 -11  12   1 32152.8 1415.80   2
  12  -1   1 35391.1 1341.57   3
  11   1   1 35415.9 1336.23   3
 -12  11   1 35273.0 1460.52   2
   1 -12   1 34543.7 1433.07   4
  -1 -11   1 32661.6 1132.38   1
  12  -1   1 33827.9 1036.80   1
  11   1   1 34604.5 1499.23   4
  11   1   1 31914.1 1417.64   2
   1 -12   1 35273.3 1155.94   1
  -1 -11   1 34433.1 1417.35   2
   1 -12   1 32336.7 1420.69   2
 -11  12   1 37331.2 1507.40   4
 -11  12   4 15804.0 1033.07   3
  11   1   4 21347.9 925.081   1
  -1 -11   4 17065.9 953.582   2
 -11  12   4 18798.0 1119.96   2
  11   1   4 19909.0 895.816   3
 -12  11   4 18589.0 1071.50   2
   1 -12   4 18778.6 1004.39   4
 -11  12   4 16491.0 1152.84   1
  12  -1   4 17388.9 922.450   3
  -1 -11   4 17030.4 964.035   1
 -12  11   4 17563.0 1174.39   1
  12  -1   4 17870.4 1310.01   2
  12  -1   4 17896.4 1129.01   4
  12  -1   4 18560.5 790.329   1
  -1 -11   4 19735.8 1048.02   4
   1 -12   4 17175.5 1011.28   2
  11   1   4 17983.3 1303.46   2
   1 -12   4 17935.6 941.709   1
 -12  11   4 16276.6 1067.69   4
  11   1   4 16051.9 1085.37   4
 -11  12   4 17089.2 1116.30   4
  11   1   7 15750.3 946.943   3
 -11  12   7 12463.3 1031.63   2
  12  -1   7 15240.2 1100.14   4
  12  -1   7 16699.0 1033.46   3
   1 -12   7 12098.9 872.079   2
 -11  12   7 15345.5 1092.90   4
 -12  11   7 14325.1 979.363   2
  -1 -11   7 15054.8 1086.08   1
   1 -12   7 15467.6 1074.22   1
  12  -1   7 16349.7 1429.56   2
  11   1   7 14854.3 1401.61   2
  11   1   7 14566.7 1076.07   4
 -11  12   7 15767.2 1419.03   1
  -1 -11   7 11502.0 747.666   2
 -12  11   7 16383.1 1402.99   1
  12  -1  10 7247.54 888.098   3
  11   1  10 8949.12 918.541   3
 -11  12  10 7454.16 903.452   2
  11   1  10 8517.76 1220.98   1
 -11  12  10 6541.82 1227.63   1
   1 -12  10 6408.14 949.695   1
  11   1  10 8814.14 1308.21   2
  -1 -11  10 7815.57 1021.55   1
  12  -1  10 10708.9 1386.75   2
  12  -1  10 7606.54 1105.92   1
 -12  11  10 7075.05 1376.69   1
  12   0  -9 863.417 460.355   4
  12   0  -3-3.77053 576.272   3
  12   0  -3 154.677 284.718   2
 -12  12   0 717.620 357.400   3
 -12  12   0 1070.35 484.660   4
  12   0   0 886.817 458.843   2
  12   0   0 1722.24 546.883   3
   0 -12   0 1082.39 418.412   1
 -12  12   0 1663.29 566.410   2
   0 -12   0 1380.94 544.390   4
 -12  12   0 1571.71 313.206   1
  12   0   0 1622.21 386.897   1
   0 -12   0 1397.48 537.475   2
   0 -12   0 1053.34 317.922   3
  12   0   3 272.540 485.371   2
 -12  12   3 288.597 406.760   3
  12   0   3 1.38656 329.570   3
   0 -12   3-59.7069 384.846   4
  12   0   3-131.049 274.624   1
  12   0   3 377.179 479.218   4
 -12  12   3 1018.23 492.751   2
 -12  12   3 503.869 503.449   1
 -12  12   3 414.800 463.451   4
   0 -12   3 152.397 427.607   2
   0 -12   3 251.918 359.757   1
 -12  12   6 12711.9 983.690   2
   0 -12   6 11740.1 940.696   1
   0 -12   6 13817.6 897.606   4
  12   0   6 10660.3 1176.99   2
  12   0   6 14048.0 1053.80   4
   0 -12   6 12289.9 837.043   2
 -12  12   6 13733.8 1250.42   1
 -12  12   6 11609.0 1013.49   4
  12   0   6 13029.1 868.176   3
 -12  12   9 784.423 840.925   1
  12   0   9 445.766 629.801   1
  12   0   9 164.592 733.565   2
 -12  12   9 698.267 564.526   2
  12   0   9-237.490 441.571   3
   0 -12   9 2023.66 727.363   1
  12   0   9-46.1901 513.221   4
   0  13  -7 8.83454 342.302   4
 -13   0  -4 66644.0 1693.27   3
   0  13  -4 65059.7 1900.40   2
  13 -13  -4 62658.6 2261.62   3
   0  13  -4 60423.1 1810.44   4
 -13   0  -1 752.683 354.387   1
 -13   0  -1 505.033 327.012   3
  13 -13  -1 356.627 395.467   3
   0  13  -1 497.593 439.504   2
   0  13  -1 280.049 419.738   4
  13 -13   2 48379.6 1714.59   3
 -13   0   2 45679.9 1457.70   1
   0  13   2 46449.1 1830.35   4
   0  13   2 48643.4 1921.56   2
   0  13   5 313.185 541.895   2
 -13   0   5 231.719 509.657   1
  13 -13   5 899.751 506.271   3
  13 -13   5-311.943 428.179   4
   0  13   5 762.264 508.622   4
  13 -13   5 222.441 121.364   1
  13 -13   8 21478.5 1546.97   3
 -13   0   8 23349.3 1653.36   1
  13 -13   8 24901.4 1068.49   1
   0  13   8 22204.5 1735.20   2
   0  13   8 21194.1 1416.48   4
   1  12  -8 1146.64 275.731   4
  -1  13  -8 1043.36 265.337   4
  13 -12  -5 3015.59 636.492   2
   1  12  -5 1829.64 472.975   4
  -1  13  -5 1178.29 411.318   4
   1  12  -5 1695.43 438.642   2
  -1  13  -5 2829.54 557.915   2
  12 -13  -5 2271.11 709.088   3
  13 -12  -5 2155.36 688.874   3
 -12  -1  -5 2372.45 480.865   3
 -13   1  -5 1653.09 483.272   3
  12 -13  -2 5493.65 730.943   2
  -1  13  -2 4456.51 602.853   2
  13 -12  -2 5413.07 719.868   2
 -13   1  -2 4807.89 505.958   1
 -12  -1  -2 5008.57 521.715   3
  13 -12  -2 4209.80 661.934   3
 -12  -1  -2 5692.43 565.916   1
   1  12  -2 5037.21 666.402   4
  12 -13  -2 5036.51 671.198   3
   1  12  -2 4607.64 571.715   2
  -1  13  -2 6230.41 622.563   1
  -1  13  -2 5598.07 688.837   4
 -13   1  -2 4676.06 526.198   3
   1  12   1 8704.08 862.525   4
  12 -13   1 12809.3 894.620   3
  13 -12   1 13487.1 898.277   3
 -12  -1   1 12379.1 904.504   3
  -1  13   1 12944.8 773.506   1
  12 -13   1 12442.0 943.265   4
 -13   1   1 12070.0 911.405   3
 -13   1   1 13600.9 769.282   1
  -1  13   1 10502.5 923.991   4
 -12  -1   1 13065.2 793.047   1
   1  12   1 15238.0 1076.24   2
  13 -12   1 12877.0 966.590   4
  -1  13   1 14932.5 1080.43   2
   1  12   4 1035.22 606.082   2
  13 -12   4 598.734 448.530   4
  -1  13   4 1028.50 604.838   2
 -12  -1   4 1012.41 490.303   1
  12 -13   4 462.415 88.9142   1
   1  12   4 1338.91 544.025   4
 -13   1   4 549.907 479.311   1
  13 -12   4 1278.23 504.958   3
  12 -13   4 1149.17 478.985   3
  -1  13   4 958.339 518.612   4
  12 -13   4 1636.77 483.677   4
   1  12   7 8348.38 402.573   3
  12 -13   7 11632.3 1197.31   3
  13 -12   7 10885.6 1097.98   3
 -13   1   7 11016.0 1144.04   1
   1  12   7 9449.91 450.519   3
  12 -13   7 14720.9 767.022   1
  -1  13   7 12713.3 1109.96   4
  13 -12   7 14396.8 763.269   1
  -1  13   7 12799.9 1246.79   2
 -12  -1   7 11571.9 1121.34   1
  12 -13   7 10118.0 798.663   4
   1  12   7 12394.7 1283.78   2
   1  12   7 10177.4 1025.39   4
  13 -12   7 10089.6 828.712   4
  -1  13   7 9755.81 549.374   3
   1  12  10 2956.54 1028.51   2
  13 -12  10 4236.61 962.820   3
  -1  13  10 483.532 772.754   2
  -1  13  10 2511.78 1013.63   1
 -12  -1  10 3023.02 965.276   1
  13 -12  10 2214.10 601.663   1
  12 -13  10 1928.14 598.146   1
   1  12  10 2736.52 721.749   4
  12 -13  10 2222.81 826.986   3
 -13   1  10 2238.20 1036.51   1
  -1  13  10 2439.39 718.100   4
   1  12  10 3081.79 1057.49   1
   2  11  -6 2466.36 451.404   4
  13 -11  -6 1889.07 546.699   2
  13 -11  -6 2842.70 778.938   3
  11 -13  -6 1979.72 631.252   3
  -2  13  -6 1953.13 438.126   4
 -11  -2  -3 7880.46 555.873   3
   2  11  -3 7542.49 669.214   2
  13 -11  -3 8089.55 773.176   2
  -2  13  -3 5360.01 600.843   1
  13 -11  -3 6908.17 857.027   3
  11 -13  -3 8293.49 823.739   3
   2  11  -3 7479.82 703.573   4
  -2  13  -3 7420.11 715.939   4
  -2  13  -3 6819.66 738.538   2
 -13   2  -3 6295.02 610.660   3
  11 -13  -3 6466.04 763.395   2
   2  11   0 1260.55 528.309   4
  -2  13   0 649.207 484.698   2
 -11  -2   0 1169.91 401.715   1
  11 -13   0 234.666 357.599   3
 -13   2   0 939.313 330.383   1
   2  11   0 1924.72 503.333   2
  13 -11   0 742.182 436.278   3
 -13   2   0 1568.97 459.748   3
  11 -13   0 1051.31 506.491   2
  11 -13   0 1345.13 513.316   4
  -2  13   0 853.822 318.299   1
   2  11   0 333.745 366.565   1
  13 -11   0 1013.88 491.811   2
 -11  -2   0 1246.94 410.697   3
  -2  13   0 911.038 474.291   4
  13 -11   0 754.083 461.636   4
  -2  13   3 11281.8 415.469   3
  11 -13   3 16302.0 1031.78   3
  13 -11   3 13992.9 980.612   3
  -2  13   3 15174.9 1126.90   2
 -13   2   3 15482.2 944.420   1
 -11  -2   3 14326.3 915.766   1
  11 -13   3 14388.9 971.799   4
  -2  13   3 14990.0 1083.80   4
   2  11   3 14264.6 1131.60   2
   2  11   3 15897.4 1110.06   4
  13 -11   3 13739.2 940.575   4
  11 -13   6 4003.51 748.870   3
  -2  13   6 3804.88 715.899   2
  13 -11   6 4518.57 750.199   3
  13 -11   6 4571.43 417.188   1
 -13   2   6 4696.79 809.089   1
  -2  13   6 2996.87 348.303   3
  -2  13   6 3493.08 660.762   4
  11 -13   6 4937.27 460.917   1
  13 -11   6 3459.49 601.314   4
 -11  -2   6 4028.92 716.044   1
  11 -13   6 3866.00 594.330   4
   2  11   6 4256.56 872.989   2
   2  11   6 3761.50 725.798   4
  11 -13   9 3724.20 923.964   3
   2  11   9 3870.00 495.455   3
  13 -11   9 3981.12 606.934   1
  -2  13   9 3496.25 907.516   2
   2  11   9 3470.07 930.833   2
  11 -13   9 3890.39 625.824   1
 -13   2   9 3763.23 902.600   1
 -11  -2   9 4094.56 938.192   1
  13 -11   9 3324.16 835.685   3
   2  11   9 3003.03 732.177   4
  -2  13   9 2357.45 669.005   4
   3  10  -7 497.470 364.496   4
  13 -10  -7 768.236 444.965   2
  -3  13  -7 270.679 281.757   4
 -10  -3  -4 33902.1 1029.96   3
 -13   3  -4 32550.2 1303.06   3
  -3  13  -4 31857.3 1308.11   1
   3  10  -4 35193.3 1219.40   2
  13 -10  -4 32968.2 1344.51   2
  10 -13  -4 33962.0 1511.83   3
  13 -10  -4 29221.1 1604.80   3
  -3  13  -4 34299.8 1301.44   4
  -3  13  -4 33136.8 1406.37   2
   3  10  -4 35050.3 1321.47   4
  -3  13  -1 2356.24 408.976   1
  10 -13  -1 1721.40 462.122   3
  10 -13  -1 1730.49 553.905   2
  -3  13  -1 1885.39 556.900   2
 -13   3  -1 2046.74 353.042   1
 -13   3  -1 2248.39 437.421   3
 -10  -3  -1 1690.51 388.394   1
  13 -10  -1 1905.04 483.741   3
  10 -13  -1 2303.13 566.341   4
   3  10  -1 1535.80 409.508   1
  13 -10  -1 1966.30 522.044   2
 -10  -3  -1 1883.83 346.328   3
  13 -10  -1 2151.73 547.341   4
   3  10  -1 2616.47 542.007   2
  -3  13  -1 1324.20 515.547   4
   3  10  -1 1757.94 509.431   4
  -3  13   2 71299.0 1244.36   3
  10 -13   2 73096.7 1962.41   3
  13 -10   2 72967.9 2001.40   3
 -10  -3   2 70770.5 1782.38   1
   3  10   2 72376.6 2206.39   2
 -13   3   2 71644.4 1697.03   1
   3  10   2 74144.3 2143.80   4
 -10  -3   2 72162.6 2178.43   3
  -3  13   2 73494.9 1828.81   1
  -3  13   2 73987.1 2145.84   4
  10 -13   2 70952.5 1990.97   4
  13 -10   2 75159.6 2051.66   4
  -3  13   2 72992.6 2196.59   2
  13 -10   5 1385.11 242.015   1
  10 -13   5 1745.82 584.980   3
  13 -10   5 1006.58 454.530   3
  -3  13   5 1202.13 561.867   2
  13 -10   5 2059.12 523.264   4
 -13   3   5 2260.38 604.082   1
  -3  13   5 1199.44 271.745   3
   3  10   5 2507.83 597.503   4
 -10  -3   5 1593.01 573.320   1
  10 -13   5 1260.28 293.023   1
  -3  13   5 1226.46 512.438   4
  10 -13   5 1665.95 450.270   4
   3  10   5 1225.27 616.227   2
   3  10   8 21048.6 1343.98   4
  10 -13   8 20375.5 1578.47   3
 -13   3   8 22229.7 1626.00   1
  13 -10   8 18739.5 1398.90   3
 -10  -3   8 17744.2 1424.21   1
  10 -13   8 22881.8 1132.14   1
  13 -10   8 20319.7 1040.90   4
   3  10   8 21004.9 1626.43   2
   3  10   8 20109.8 774.094   3
  -3  13   8 20638.9 1332.82   4
  -3  13   8 21380.5 1546.16   2
  13 -10   8 21922.3 1071.16   1
  13  -9  -8 1779.60 491.146   2
   4   9  -8 2568.47 327.282   4
   9 -13  -5 4310.05 691.535   3
  13  -9  -5 5502.22 908.283   3
   4   9  -5 4562.02 530.885   4
   4   9  -5 4830.63 482.033   2
  -4  13  -5 4392.47 514.134   4
  13  -9  -5 4619.92 594.733   2
  -4  13  -5 4953.83 661.695   1
   9 -13  -2 8109.87 682.559   3
  -4  13  -2 7333.32 739.870   2
  13  -9  -2 5858.05 741.893   3
  13  -9  -2 7748.70 726.743   2
  -9  -4  -2 7493.38 623.314   1
  13  -9  -2 6254.70 721.840   4
 -13   4  -2 7075.86 630.499   3
   4   9  -2 6234.83 679.371   4
  -9  -4  -2 7960.24 484.723   3
   4   9  -2 6845.62 666.968   1
 -13   4  -2 8773.85 487.203   1
  -4  13  -2 7481.41 588.342   1
  -4  13  -2 5947.15 650.149   4
   9 -13  -2 7076.00 794.361   4
   4   9  -2 6026.97 584.905   2
   9 -13  -2 6944.38 761.336   2
  -4  13   1 21244.1 817.240   3
  -4  13   1 18598.3 1142.09   2
  13  -9   1 20050.9 1088.30   4
  -4  13   1 18347.5 858.929   1
   9 -13   1 19904.0 1192.49   2
   9 -13   1 21937.6 1041.86   3
 -13   4   1 21455.0 1134.14   3
   4   9   1 20083.4 937.554   1
  -9  -4   1 20247.4 958.671   1
  -9  -4   1 21207.1 1100.91   3
   4   9   1 19551.9 1142.38   2
  13  -9   1 21859.3 1273.98   2
 -13   4   1 20316.7 845.963   1
   9 -13   1 20029.3 1119.92   4
   4   9   1 20555.7 1165.41   4
  -4  13   1 21498.4 1163.81   4
  13  -9   1 19001.6 1028.97   3
   9 -13   4 15686.7 1073.03   3
   9 -13   4 20591.5 711.417   1
 -13   4   4 14921.3 1036.43   1
  13  -9   4 14699.2 1012.40   3
  -4  13   4 14544.2 622.027   3
   4   9   4 14887.3 1062.33   4
  -9  -4   4 13022.5 923.327   1
   9 -13   4 15802.0 927.874   4
   4   9   4 14771.8 1185.71   2
  13  -9   4 14618.5 929.147   4
  -4  13   4 15880.5 1164.41   2
  -4  13   4 13400.5 1040.39   4
  13  -9   7 2100.47 454.521   1
   4   9   7 1307.49 331.880   3
   4   9   7 1371.65 258.625   3
   9 -13   7 1997.02 707.534   3
   9 -13   7 1833.16 470.025   1
   4   9   7 805.703 592.846   2
  -4  13   7 375.235 400.415   3
 -13   4   7 1318.12 719.050   1
  -9  -4   7 1028.85 615.197   1
   9 -13   7 510.478 357.467   4
  13  -9   7 1239.05 602.906   3
   4   9   7 590.613 515.295   4
  -4  13   7 189.284 585.345   2
  -4  13   7 1859.25 594.404   4
  13  -9   7 797.468 477.645   4
  -4  13  10 2502.68 883.599   2
  13  -9  10 2056.35 764.866   3
   9 -13  10 3568.51 719.581   1
  13  -9  10 1764.87 805.450   2
 -13   4  10 3068.10 973.502   1
   9 -13  10 2467.87 897.656   3
   4   9  10 2877.56 1047.40   1
  -9  -4  10 2620.19 925.674   1
   4   9  10 3011.27 687.646   4
  -4  13  10 2883.93 1138.36   1
  13  -9  10 2655.89 643.298   1
   4   9  10 4837.36 1051.38   2
  -4  13  10 3478.34 770.744   4
   5   8  -6 5362.59 568.099   4
  13  -8  -6 5404.74 558.559   2
  -5  13  -6 6888.54 564.936   4
  -8  -5  -3 15253.1 541.184   3
  13  -8  -3 16545.1 926.930   2
  -5  13  -3 18046.0 859.121   1
  -5  13  -3 15088.7 979.810   2
 -13   5  -3 16214.5 941.838   3
   8 -13  -3 17847.3 984.035   3
  13  -8  -3 15364.3 1144.86   3
   5   8  -3 16336.2 943.337   4
  -5  13  -3 15719.0 922.354   4
   8 -13  -3 17019.5 1135.12   2
  13  -8  -3 16672.6 1034.70   4
   5   8  -3 16606.0 808.919   2
  13  -8  -3 15156.0 992.132   1
  -5  13   0 12379.2 722.177   3
   5   8   0 13158.7 774.641   1
  -5  13   0 13523.4 992.106   2
 -13   5   0 12648.0 845.402   3
   8 -13   0 11669.0 750.815   3
  -8  -5   0 12830.1 756.476   3
  -8  -5   0 13254.5 757.825   1
  13  -8   0 12204.9 937.629   2
   8 -13   0 11602.7 903.786   4
   5   8   0 13353.7 906.820   2
  -5  13   0 14146.7 680.046   1
  13  -8   0 12307.5 581.296   1
 -13   5   0 13539.2 620.367   1
   5   8   0 12697.3 911.194   4
  -8  -5   0 13233.7 931.079   2
   8 -13   0 12231.6 955.349   2
  -5  13   0 12315.4 917.305   4
  13  -8   0 12492.0 916.168   4
  13  -8   0 12962.3 917.086   3
  -5  13   3 13503.3 1027.17   2
  -5  13   3 11565.8 593.855   3
   8 -13   3 13355.9 549.394   1
   5   8   3 12403.0 974.134   4
   8 -13   3 11133.3 880.207   3
 -13   5   3 12693.2 854.069   1
   8 -13   3 11347.8 963.027   2
   5   8   3 11188.8 988.559   2
  -5  13   3 12083.4 941.648   4
   8 -13   3 11449.3 827.203   4
  -8  -5   3 10188.8 784.903   1
  13  -8   3 10454.5 822.566   3
 -13   5   6 4583.42 842.281   1
  13  -8   6 2292.50 517.315   4
   8 -13   6 2631.76 699.914   3
  -5  13   6 2458.89 615.553   4
   5   8   6 2835.23 642.567   4
  -8  -5   6 2768.96 602.540   1
   5   8   6 2395.21 315.376   3
   8 -13   6 2888.42 460.012   1
  13  -8   6 3563.48 634.530   3
  13  -8   6 3318.34 457.184   1
   5   8   6 2257.89 254.782   3
   5   8   6 3017.87 777.026   2
   8 -13   6 2632.75 464.723   4
  -5  13   6 1936.54 665.896   2
  -5  13   6 2736.74 454.295   3
   5   8   9 3787.60 538.244   3
   8 -13   9 4584.23 1037.95   3
  -8  -5   9 3847.92 891.895   1
  -5  13   9 3219.36 834.951   2
  13  -8   9 2972.15 510.368   4
  13  -8   9 2733.83 712.360   3
 -13   5   9 3831.12 989.208   1
  13  -8   9 2213.80 779.683   2
   8 -13   9 3977.71 673.206   1
  -5  13   9 3723.54 1116.68   1
  13  -8   9 4060.64 685.933   1
   5   8   9 3040.51 725.309   4
  -5  13   9 4121.16 771.600   4
   5   8   9 4098.30 987.128   2
   6   7  -7 693.278 339.926   4
  13  -7  -7 387.285 294.346   2
  -6  13  -4 25206.8 1019.30   1
   6   7  -4 26536.3 868.251   2
  13  -7  -4 23212.6 1210.95   4
   7 -13  -4 23973.5 1115.38   3
  -6  13  -4 25154.2 1289.20   2
  13  -7  -4 24518.7 1514.27   3
   6   7  -4 24723.5 1112.42   4
  13  -7  -4 24893.0 1033.47   2
  -6  13  -4 24513.3 1068.40   4
  -6  13  -1 15187.3 889.510   3
 -13   6  -1 15553.1 897.864   3
   6   7  -1 14855.8 885.823   2
  13  -7  -1 14879.6 930.472   2
   6   7  -1 13987.7 932.083   4
  -7  -6  -1 15027.2 653.138   3
  13  -7  -1 15016.9 1020.00   3
  13  -7  -1 15045.8 792.426   1
   7 -13  -1 17607.7 1106.24   2
   6   7  -1 14486.7 849.089   1
  -7  -6  -1 16668.6 1081.28   2
  -7  -6  -1 15634.9 1059.35   4
  -6  13  -1 16226.7 987.229   4
  -6  13  -1 24285.6 880.392   1
   7 -13  -1 11918.4 918.557   4
  -7  -6  -1 14016.5 794.006   1
   7 -13  -1 14787.6 765.134   3
  -6  13  -1 13249.3 981.294   2
  -6  13   2 15204.9 1059.55   2
   7 -13   2 15184.4 924.458   3
   6   7   2 18120.5 1160.58   2
  -6  13   2 14740.0 707.055   3
   7 -13   2 15048.9 1042.98   2
   7 -13   2 15000.8 956.211   4
 -13   6   2 12270.8 948.435   3
  -6  13   2 17435.4 1093.63   4
  -7  -6   2 15151.0 1047.58   3
   6   7   2 16303.1 844.903   1
  13  -7   2 15605.6 931.876   3
 -13   6   2 15057.3 814.739   1
  -7  -6   2 14696.5 830.657   2
   6   7   2 14206.2 989.666   4
  13  -7   2 12825.5 403.327   1
   7 -13   2 16807.9 654.824   1
  -7  -6   2 11895.5 772.610   1
   6   7   5 6730.26 916.692   2
  13  -7   5 7255.00 416.715   1
   7 -13   5 7858.44 658.831   4
   6   7   5 6612.35 341.188   3
  -6  13   5 7300.33 649.669   3
  -6  13   5 6744.43 804.514   4
  -7  -6   5 7209.21 752.409   1
  13  -7   5 7826.24 534.916   1
   7 -13   5 7425.56 583.929   1
   6   7   5 7942.90 826.854   4
 -13   6   5 8859.97 911.101   1
   7 -13   5 7936.92 941.485   3
  13  -7   5 7640.92 763.169   3
  -6  13   5 7640.10 890.687   2
   7 -13   8 5964.45 1011.22   3
  13  -7   8 4940.06 765.470   3
  13  -7   8 6271.53 703.884   1
   7 -13   8 6492.60 755.781   1
  -6  13   8 4279.79 1029.51   1
  13  -7   8 6572.07 722.153   4
  -7  -6   8 7547.84 954.635   1
   7 -13   8 3450.23 302.515   4
 -13   6   8 6661.83 1112.76   1
  -6  13   8 6398.27 972.757   2
   6   7   8 6469.55 564.012   3
   6   7   8 6386.65 824.949   4
  -6  13   8 5159.03 772.035   4
   6   7   8 5197.48 940.924   2
   7   6  -8 5053.76 481.275   4
  -7  13  -5 8124.96 669.148   1
  13  -6  -5 8676.96 606.336   2
   7   6  -5 8764.83 719.514   4
  13  -6  -5 7353.62 960.964   3
   6 -13  -5 8691.38 728.711   3
   7   6  -5 6043.39 309.620   2
  13  -6  -5 7289.02 777.146   4
  -7  13  -5 8893.53 681.143   4
   7   6  -2 18008.7 1050.68   4
 -13   7  -2 17349.1 943.304   3
  -6  -7  -2 17574.7 489.702   3
   6 -13  -2 17769.6 816.800   3
  -7  13  -2 16901.3 1071.04   2
  13  -6  -2 18378.3 950.973   2
   7   6  -2 17748.2 977.351   1
  13  -6  -2 19786.1 1007.12   1
  13  -6  -2 17364.3 1171.15   3
  -6  -7  -2 17045.1 1109.23   4
   6 -13  -2 17518.8 1135.67   4
   6 -13  -2 16686.2 1134.61   2
  -7  13  -2 20176.8 753.958   1
  -6  -7  -2 18239.8 1159.24   2
  -7  13  -2 17824.7 1025.92   3
   7   6  -2 19034.9 893.705   2
  -7  13  -2 17338.4 973.624   4
  13  -6   1 14325.0 567.332   1
   6 -13   1 15105.8 1037.64   2
   6 -13   1 13431.9 799.209   3
  -7  13   1 14324.7 754.014   3
   7   6   1 13503.0 824.536   1
  -6  -7   1 13872.7 960.210   4
 -13   7   1 15002.9 705.640   1
  -7  13   1 15183.3 1009.36   2
  -6  -7   1 14686.2 866.551   1
 -13   7   1 13740.3 896.228   3
  -7  13   1 14987.6 1006.92   4
   7   6   1 14906.3 999.245   4
  -6  -7   1 14579.8 905.409   3
  -6  -7   1 14077.2 894.511   2
  13  -6   1 15263.4 933.773   3
   7   6   1 15324.8 1029.75   2
   6 -13   1 15838.6 995.214   4
   7   6   4 22255.2 1244.85   4
   6 -13   4 22249.4 1269.81   3
  13  -6   4 22895.9 1167.09   3
  -7  13   4 22715.5 970.728   3
   7   6   4 21906.7 623.310   3
  13  -6   4 23153.4 622.718   1
  -7  13   4 22634.6 1312.89   2
  -6  -7   4 21081.3 1133.29   1
   6 -13   4 23100.2 1257.65   2
   7   6   4 24566.4 1460.12   2
   6 -13   4 23619.4 1100.16   4
 -13   7   4 24005.0 1282.98   1
   6 -13   4 23389.8 898.670   1
  -7  13   4 23426.9 1276.92   4
  -6  -7   4 22780.3 836.644   2
   6 -13   7 260.009 422.475   1
  -6  -7   7 1043.37 614.097   1
  -7  13   7 1693.16 732.711   1
  13  -6   7 1499.00 575.381   3
   7   6   7 1230.98 340.069   3
 -13   7   7 449.442 645.293   1
  13  -6   7 1749.81 551.925   4
   7   6   7 939.606 707.910   2
   6 -13   7 1439.64 358.739   4
  13  -6   7 1333.10 464.107   1
   6 -13   7 434.780 615.107   3
   7   6   7 1338.60 548.999   4
  -7  13   7 1083.83 574.027   2
  -7  13   7-352.696 470.073   4
  -7  13  10 6308.62 1021.21   2
   6 -13  10 6896.92 1200.46   3
  13  -6  10 6303.73 981.232   3
  13  -6  10 7626.14 1192.54   2
   7   6  10 7927.43 1263.77   2
  -6  -7  10 4924.08 1044.83   1
   6 -13  10 6316.32 894.357   1
   7   6  10 6085.62 697.724   3
   7   6  10 7001.53 1248.49   1
  13  -6  10 5048.83 857.426   1
   7   6  10 5269.31 796.785   4
  -7  13  10 7704.09 1371.98   1
  -7  13  10 6518.62 874.778   4
 -13   7  10 7536.37 1304.93   1
  13  -5  -6 2036.82 263.367   2
   8   5  -6 1899.89 429.202   4
  13  -5  -6 2443.95 568.697   4
  -8  13  -6 3350.06 559.120   1
  -8  13  -3 11866.9 587.669   1
   8   5  -3 11194.0 830.545   4
   5 -13  -3 12846.9 712.519   3
  -8  13  -3 10517.7 915.747   2
  13  -5  -3 11824.2 1110.26   3
  13  -5  -3 11930.7 940.651   1
  -8  13  -3 10765.5 795.049   4
   8   5  -3 12014.2 636.477   2
  13  -5  -3 12205.8 724.874   2
  -8  13   0 12695.6 779.875   3
   5 -13   0 13393.9 723.220   3
   5 -13   0 11105.5 931.140   2
  -8  13   0 12124.1 584.133   1
   5 -13   0 13747.3 961.864   4
 -13   8   0 13978.0 880.329   3
  -8  13   0 13387.2 975.994   2
 -13   8   0 14475.7 557.293   1
  -5  -8   0 12193.1 957.435   4
  -5  -8   0 13496.4 748.790   3
   8   5   0 13197.7 767.702   1
  -5  -8   0 13429.4 938.893   2
  -8  13   0 13048.1 910.389   4
   8   5   0 14283.0 1016.31   4
  -5  -8   0 11103.6 718.731   1
   8   5   0 12822.1 893.388   2
  13  -5   0 13843.7 954.412   3
   8   5   0 13754.9 813.122   3
  13  -5   0 13004.1 670.016   1
   5 -13   3 18390.9 1081.91   3
   5 -13   3 18197.8 1114.14   2
  -8  13   3 16374.9 1108.06   2
   5 -13   3 16997.1 973.931   4
  -8  13   3 16427.5 844.378   3
  13  -5   3 16458.7 961.835   3
   5 -13   3 17704.2 786.832   1
   8   5   3 17365.6 671.633   3
   8   5   3 17189.4 1083.57   4
   8   5   3 19112.7 916.202   1
  -5  -8   3 17381.1 1037.85   4
   8   5   3 13380.8 1078.11   2
  -5  -8   3 15987.8 845.041   2
  -8  13   3 18128.9 1126.95   4
 -13   8   3 14939.4 971.648   1
  -5  -8   3 15853.3 932.019   1
  13  -5   3 17574.9 584.049   1
  13  -5   6 6643.83 729.218   4
  13  -5   6 6677.07 752.101   3
   8   5   6 5595.28 491.163   3
   8   5   6 7514.43 844.999   4
  -8  13   6 4992.12 716.883   3
  -8  13   6 8229.27 1051.87   1
 -13   8   6 6866.07 634.633   2
   5 -13   6 5689.23 570.168   4
   8   5   6 4883.79 895.683   2
  -5  -8   6 4270.65 698.481   1
  -8  13   6 7856.98 832.055   4
  13  -5   6 6010.24 520.353   1
   5 -13   6 6508.37 678.113   1
  13  -5   6 5417.71 624.526   1
  -5  -8   6 4529.66 305.370   2
  -8  13   6 6144.43 792.995   2
   5 -13   6 4818.92 772.227   2
 -13   8   6 6894.28 934.517   1
   5 -13   6 5839.63 832.053   3
   5 -13   9 2841.91 911.714   3
   8   5   9 3958.15 585.953   3
  -8  13   9 2586.72 647.615   4
  -8  13   9 2557.06 725.889   2
 -13   8   9 4420.62 1007.11   1
  13  -5   9 3367.25 916.244   2
  13  -5   9 2530.31 670.152   1
   8   5   9 2706.85 672.355   4
  13  -5   9 2511.38 557.744   4
  -8  13   9 3482.74 1098.77   1
  13  -5   9 2649.12 679.263   3
   8   5   9 2445.30 933.937   2
  -5  -8   9 1919.41 779.433   1
   5 -13   9 2292.46 626.708   1
   9   4  -7 1886.33 460.525   4
  -9  13  -7 676.363 529.167   1
  13  -4  -7 1489.76 539.949   4
  13  -4  -4 15075.8 718.061   2
   4 -13  -4 14647.2 705.618   3
  13  -4  -4 14169.1 1197.12   3
  -9  13  -4 15304.5 684.242   1
   9   4  -4 15158.9 576.241   2
   9   4  -4 13450.7 901.423   4
  -9  13  -4 13603.8 853.757   4
  -9  13  -1 24646.1 1153.91   3
 -13   9  -1 22409.6 1100.38   3
   4 -13  -1 22024.1 786.920   3
 -13   9  -1 20931.8 453.930   1
  -9  13  -1 20490.9 1169.89   2
  -9  13  -1 21943.8 652.795   1
  13  -4  -1 20936.3 1233.68   3
  -4  -9  -1 19711.2 953.941   1
  -4  -9  -1 23428.5 1270.94   4
   9   4  -1 21360.1 1001.83   1
   9   4  -1 24957.9 1089.68   2
   9   4  -1 21952.0 1117.96   3
   4 -13  -1 22958.4 1258.97   4
  -4  -9  -1 23838.2 745.957   3
  -4  -9  -1 21823.7 1247.93   2
   4 -13  -1 20759.9 1251.04   2
   9   4  -1 22052.8 1171.25   4
  -9  13  -1 21662.7 1122.08   4
  13  -4  -1 23528.0 1011.72   1
   4 -13   2 6832.89 760.746   2
  -4  -9   2 6164.60 614.689   1
   4 -13   2 4441.31 649.381   3
  -9  13   2 6211.48 595.376   3
  -9  13   2 6586.01 785.418   2
  13  -4   2 5841.22 623.931   3
 -13   9   2 5505.34 702.117   3
   9   4   2 7105.15 583.920   3
  -4  -9   2 7050.43 683.790   2
   4 -13   2 6982.39 536.192   1
  13  -4   2 5672.94 403.663   1
  -4  -9   2 5852.46 681.510   4
   9   4   2 6725.99 746.881   4
   9   4   2 6691.70 590.113   1
   9   4   2 5244.88 741.383   2
  -9  13   2 7178.87 793.186   4
   4 -13   2 5456.24 666.340   4
 -13   9   2 5439.19 594.687   1
   4 -13   5 5406.94 792.669   3
   4 -13   5 4672.96 688.448   2
  -9  13   5 4544.92 718.102   2
 -13   9   5 3175.85 663.392   1
  13  -4   5 4159.17 609.289   3
   9   4   5 4962.27 454.660   3
  -9  13   5 4742.16 658.481   3
 -13   9   5 4533.94 567.314   2
  13  -4   5 5019.37 442.576   1
   9   4   5 5355.54 734.505   4
  13  -4   5 4508.75 649.851   4
  -4  -9   5 5508.66 683.612   1
  -9  13   5 4322.72 785.408   1
   9   4   5 6212.32 914.889   2
   4 -13   5 5065.13 595.424   4
   4 -13   5 5067.16 582.375   1
  -9  13   5 5100.71 728.958   4
  -4  -9   5 4825.47 477.458   2
  13  -4   8 3715.82 652.736   4
  -9  13   8 3603.32 765.299   2
  13  -4   8 4297.01 700.990   3
   9   4   8 3693.01 537.160   3
 -13   9   8 3138.56 852.640   1
   9   4   8 3624.90 694.536   4
   4 -13   8 2878.70 847.846   3
   4 -13   8 4419.63 730.758   1
 -13   9   8 3182.39 520.094   2
  -4  -9   8 1259.44 568.986   1
   9   4   8 5617.59 994.813   2
  -9  13   8 4357.59 1054.18   1
  13  -4   8 1388.76 784.706   2
  13  -4   8 3636.05 700.479   1
  -9  13   8 3172.31 716.654   4
  10   3  -8 21057.1 1004.07   4
 -10  13  -5 1832.50 397.464   1
  10   3  -5 733.002 402.405   4
  13  -3  -5 1545.63 255.335   2
   3 -13  -2 72105.8 1278.40   3
  10   3  -2 71418.9 1656.19   2
  13  -3  -2 71384.8 2273.33   3
 -10  13  -2 71615.3 2163.24   2
  13  -3  -2 69391.8 1849.60   1
 -10  13  -2 76835.4 1081.18   1
  10   3  -2 72671.2 2072.61   4
 -10  13  -2 73592.8 1962.04   4
   3 -13   1 2650.62 409.381   1
   3 -13   1 2281.93 463.025   3
   3 -13   1 1825.86 544.363   2
 -10  13   1 2094.99 419.701   3
 -13  10   1 2208.68 505.509   3
  -3 -10   1 2655.33 440.248   1
  13  -3   1 1806.32 461.811   3
  13  -3   1 1955.39 349.371   1
  10   3   1 2335.95 437.547   1
  10   3   1 1844.70 462.916   3
  -3 -10   1 2144.09 519.521   4
  10   3   1 1012.60 474.567   4
  10   3   1 1956.38 535.286   2
   3 -13   1 2149.74 551.363   4
 -13  10   1 2052.63 388.941   1
 -10  13   1 1565.49 504.561   2
  -3 -10   1 2702.59 551.173   2
 -10  13   1 2677.45 563.711   4
   3 -13   4 30369.9 1389.69   2
   3 -13   4 32049.0 1294.74   4
  -3 -10   4 34527.9 1238.70   2
  13  -3   4 33356.4 1312.30   3
  10   3   4 34469.6 1086.08   3
 -10  13   4 30663.5 1310.75   3
   3 -13   4 34644.9 1585.84   3
  13  -3   4 34090.0 959.028   1
  10   3   4 29379.0 1131.27   1
  10   3   4 34816.3 1750.63   2
  -3 -10   4 36224.3 1424.18   4
  10   3   4 31801.8 1482.83   4
 -10  13   4 34853.2 1593.63   1
  13  -3   4 35261.2 1532.84   4
 -13  10   4 33251.9 1361.66   2
 -10  13   4 32965.3 1510.57   2
   3 -13   4 34600.4 1219.01   1
 -13  10   4 34782.2 1537.34   1
  -3 -10   4 32095.3 1314.11   1
 -10  13   4 34397.8 1528.69   4
 -10  13   7-81.8172 485.482   4
  10   3   7 888.871 714.422   2
  13  -3   7 143.828 382.655   3
  10   3   7 408.634 382.638   3
  -3 -10   7-215.963 552.438   1
   3 -13   7 264.230 453.408   1
   3 -13   7 756.758 531.091   2
 -13  10   7 331.427 414.048   2
  10   3   7 194.018 503.605   4
 -10  13   7-329.810 691.424   1
 -13  10   7-90.2935 693.859   1
 -10  13   7 20.1500 502.289   2
  13  -3   7 788.332 478.512   4
  13  -3   7 287.278 649.740   2
   3 -13   7 336.885 358.544   4
  -3 -10   7-130.089 261.978   2
   3 -13  10 18621.2 1810.52   3
 -10  13  10 16801.4 1327.79   2
  10   3  10 20473.3 1209.19   3
 -10  13  10 18134.4 1849.69   1
  10   3  10 17703.3 1218.95   4
  13  -3  10 17275.9 1441.71   1
  -3 -10  10 17002.9 1427.74   1
   3 -13  10 17181.0 1327.48   1
 -13  10  10 20410.1 1862.12   1
  10   3  10 19263.7 1682.59   1
  13  -3  10 16689.7 1668.87   2
  10   3  10 21055.6 1825.14   2
  13  -3  10 19490.0 1368.01   3
  11   2  -9 3483.74 505.140   4
  13  -2  -9 3567.51 631.331   4
  11   2  -6 3514.27 574.204   4
  11   2  -3 13015.2 948.567   4
   2 -13  -3 11343.9 472.917   3
 -11  13  -3 9910.58 373.415   1
 -11  13  -3 13312.1 883.071   4
  13  -2  -3 14275.4 1186.81   3
  11   2  -3 14265.6 708.032   2
  -2 -11   0 696.203 354.926   1
   2 -13   0 1374.10 545.623   2
  -2 -11   0 1695.61 560.308   4
  11   2   0 1887.66 427.634   1
   2 -13   0 973.080 310.509   3
 -13  11   0 654.273 441.108   3
   2 -13   0 710.119 351.432   1
  13  -2   0 1958.12 546.580   3
 -13  11   0 1239.64 271.328   1
 -11  13   0 970.550 509.935   2
  11   2   0 1131.24 466.089   3
  -2 -11   0 502.910 457.570   2
  11   2   0 922.772 496.428   4
  13  -2   0 1707.17 402.849   1
  11   2   0 1624.76 524.642   2
 -11  13   0 953.543 390.702   3
   2 -13   0 1418.48 480.838   4
 -11  13   0 1319.67 475.499   4
   2 -13   3 8128.68 784.769   3
  11   2   3 6516.27 572.671   3
   2 -13   3 8665.26 681.013   1
 -11  13   3 7690.43 764.703   1
 -11  13   3 6132.01 738.214   2
  13  -2   3 5960.91 614.397   3
  11   2   3 8306.58 626.865   1
 -13  11   3 7546.13 774.345   2
  13  -2   3 4592.04 461.364   1
   2 -13   3 6604.12 702.348   4
 -11  13   3 6333.87 679.843   3
  11   2   3 6172.38 754.568   4
  11   2   3 7122.96 899.079   2
  -2 -11   3 8408.44 764.434   4
 -13  11   3 6822.07 722.570   1
  -2 -11   3 6524.54 693.793   2
 -11  13   3 7200.87 828.410   4
   2 -13   3 6624.65 741.400   2
  -2 -11   3 6350.71 659.948   1
 -11  13   6 3131.73 626.450   4
 -13  11   6 2026.70 617.415   1
  13  -2   6 2800.86 537.891   3
  11   2   6 2156.44 437.454   3
   2 -13   6 2590.14 528.060   1
  13  -2   6 1586.37 423.466   1
 -11  13   6 2528.91 637.696   2
  13  -2   6 1722.22 736.026   2
 -13  11   6 2274.18 540.580   2
  13  -2   6 1847.77 544.817   4
  -2 -11   6 1968.59 443.806   2
   2 -13   6 641.858 476.573   2
  11   2   6 3016.38 639.095   4
  11   2   6 2421.68 747.557   2
   2 -13   6 2681.49 515.181   4
 -11  13   6 2438.12 772.415   1
  -2 -11   6 1781.14 547.528   1
  11   2   9 7566.24 830.859   3
 -13  11   9 7385.22 1192.53   1
 -11  13   9 6813.82 922.147   2
 -13  11   9 5041.53 707.206   2
  -2 -11   9 5522.72 860.102   1
   2 -13   9 6877.18 941.059   1
 -11  13   9 6830.35 1238.24   1
  13  -2   9 5251.99 760.329   4
  11   2   9 7050.96 1187.80   2
  13  -2   9 5736.19 1097.98   2
  13  -2   9 7623.19 893.017   3
  11   2   9 6683.59 879.957   4
  13  -2   9 6252.17 937.302   1
  12   1  -7 13746.2 979.124   4
  12   1  -4 856.714 259.538   2
  13  -1  -4 1257.55 321.341   2
  13  -1  -4 998.024 277.917   2
  13  -1  -4 1089.65 612.079   3
  12   1  -4 852.997 456.863   4
  -1 -12  -1 14386.0 555.010   3
   1 -13  -1 14073.8 582.085   3
  12   1  -1 14326.8 873.454   1
  13  -1  -1 14914.7 879.494   1
  13  -1  -1 15032.1 1140.21   3
 -12  13  -1 13034.4 1044.62   2
  12   1  -1 11243.7 973.453   3
  12   1  -1 15724.3 948.779   2
 -12  13  -1 13452.1 449.500   1
 -13  12  -1 10655.2 336.909   1
 -12  13  -1 13837.9 981.620   4
  12   1  -1 13101.4 1004.35   4
   1 -13   2 3758.82 554.690   3
  13  -1   2 4883.48 618.831   3
  -1 -12   2 4574.81 649.381   2
  -1 -12   2 4107.27 631.254   4
 -12  13   2 3675.58 554.251   1
  12   1   2 4438.96 595.088   3
 -13  12   2 4989.98 722.592   2
 -13  12   2 4451.37 584.232   1
 -12  13   2 3756.54 567.012   3
  13  -1   2 4591.08 457.660   1
   1 -13   2 5781.90 542.214   1
 -12  13   2 3628.77 639.586   2
  12   1   2 5160.30 709.818   4
  12   1   2 5296.11 759.397   2
  13  -1   2 4883.83 699.000   4
  -1 -12   2 5555.67 578.722   1
   1 -13   2 5355.84 694.473   4
 -13  12   2 4576.10 687.033   4
  12   1   2 5019.53 507.747   1
   1 -13   2 4928.78 698.531   2
 -12  13   2 4888.56 709.629   4
  13  -1   5 2231.78 713.258   2
 -12  13   5 2691.45 642.565   4
  12   1   5 2655.59 638.281   4
  -1 -12   5 2474.79 516.637   2
  13  -1   5 2256.64 483.309   3
  12   1   5 2318.03 417.459   3
  -1 -12   5 2289.17 514.247   1
  13  -1   5 1913.96 414.287   1
  12   1   5 2327.71 704.770   2
 -12  13   5 849.627 489.266   2
   1 -13   5 2853.17 539.033   1
 -13  12   5 1362.48 502.003   2
  -1 -12   5 3150.17 569.554   4
  13  -1   5 3104.56 630.131   4
 -12  13   5 2756.34 699.118   1
   1 -13   5 2403.01 510.925   4
   1 -13   5 2733.29 587.523   2
 -13  12   5 2158.32 689.659   1
  12   1   8 2448.46 667.309   4
  -1 -12   8 1248.40 697.830   1
 -13  12   8 445.349 743.162   1
   1 -13   8 1157.73 587.085   1
 -12  13   8 1306.87 591.729   2
  12   1   8 1709.49 542.259   3
 -13  12   8 1026.58 534.270   2
  13  -1   8 2044.69 529.929   3
  13  -1   8 2130.15 859.263   2
  12   1   8 938.462 699.375   2
  13  -1   8 1172.48 621.301   4
 -12  13   8 2114.33 888.031   1
  13   0  -8 19679.9 1185.06   4
  13   0  -5 4.99532 121.290   2
   0 -13  -2 43448.4 758.534   3
  13   0  -2 46269.0 1923.23   3
   0 -13   1 88.1389 330.475   3
  13   0   1 438.483 344.989   1
 -13  13   1 380.481 321.051   1
  13   0   1-203.905 457.955   3
 -13  13   1 313.264 459.078   2
   0 -13   1 362.219 340.439   1
  13   0   1 474.372 464.782   4
  13   0   1 582.860 438.674   2
 -13  13   1-298.335 472.941   4
   0 -13   1 14.5696 455.952   2
 -13  13   4 72913.3 2277.47   1
  13   0   4 67663.1 1780.59   3
 -13  13   4 70896.8 2149.30   2
  13   0   4 66776.1 2479.31   2
  13   0   4 68493.6 1589.90   1
  13   0   4 68454.7 2208.30   4
   0 -13   4 69116.5 2005.67   4
   0 -13   4 67249.0 1980.97   2
   0 -13   4 68406.8 1891.95   1
 -13  13   4 70967.7 2254.82   4
   0 -13   7 684.304 487.337   2
   0 -13   7-70.9072 518.993   1
  13   0   7 403.221 392.128   3
 -13  13   7 581.256 497.383   2
  13   0   7 112.816 484.868   4
  13   0   7-592.825 707.172   2
 -13  13   7 834.484 743.584   1
   0 -13  10 17695.9 1420.79   1
  13   0  10 16995.0 1525.76   1
  13   0  10 19209.3 1836.75   2
 -13  13  10 18632.9 1841.36   1
  13   0  10 18701.2 1295.21   3
   0  14  -8 2554.23 418.709   4
 -14   0  -5 170.570 387.677   3
   0  14  -5 337.595 461.153   2
  14 -14  -5 465.208 580.676   3
   0  14  -5 835.974 459.934   4
 -14   0  -2 9558.64 767.412   3
 -14   0  -2 8890.00 682.793   1
  14 -14  -2 10150.8 921.443   3
   0  14  -2 10503.1 901.648   4
   0  14  -2 9137.43 855.155   2
   0  14   1 413.738 461.469   2
  14 -14   1 262.417 406.064   3
 -14   0   1-355.295 353.272   1
   0  14   1 218.395 516.910   4
   0  14   4 2051.89 696.572   2
   0  14   4 2432.74 657.483   4
 -14   0   4 1505.23 543.287   1
  14 -14   4 1014.69 532.211   3
  14 -14   7 193.694 272.533   1
  14 -14   7 180.444 627.876   3
 -14   0   7 150.212 623.088   1
   0  14   7 743.909 699.711   2
   0  14   7 406.185 592.407   4
  14 -14  10 4783.37 996.811   3
 -14   0  10 4626.20 1084.99   1
   0  14  10 4971.10 1115.79   2
   0  14  10 2098.51 774.723   4
  13 -14  -6 140.972 617.087   3
  14 -13  -6-254.949 651.528   3
   1  13  -6 1486.17 447.533   4
  -1  14  -6 1948.86 446.981   4
   1  13  -3 9195.00 810.140   2
 -13  -1  -3 10532.8 690.957   3
  13 -14  -3 10089.9 986.075   3
  14 -13  -3 11176.6 1043.20   3
  -1  14  -3 9367.38 859.807   2
   1  13  -3 9225.02 833.087   4
  -1  14  -3 8997.91 836.115   4
 -14   1  -3 8671.23 720.061   3
  -1  14   0 3695.67 675.327   2
 -14   1   0 4843.95 563.758   1
 -13  -1   0 4088.26 544.333   1
  13 -14   0 4843.78 622.863   3
 -14   1   0 4386.28 596.099   3
 -13  -1   0 4115.70 589.223   3
   1  13   0 4727.14 706.719   2
  14 -13   0 4970.97 692.861   3
   1  13   0 4864.53 728.381   4
  -1  14   0 4170.04 700.146   4
  13 -14   3 7441.17 815.051   3
  14 -13   3 7049.22 810.569   3
  -1  14   3 7384.33 887.443   4
 -14   1   3 6941.07 707.057   1
 -13  -1   3 7860.72 730.568   1
   1  13   3 7556.13 880.894   4
  -1  14   3 7667.55 963.787   2
   1  13   3 7120.61 896.992   2
   1  13   6 687.953 636.296   2
  13 -14   6 19.3051 512.768   3
  14 -13   6 1116.54 220.955   1
  14 -13   6 93.7379 494.200   3
 -13  -1   6 1701.74 645.411   1
   1  13   6 1432.29 601.019   4
  13 -14   6 840.399 246.653   1
 -14   1   6 2435.55 688.263   1
  -1  14   6 1655.48 704.515   2
  -1  14   6 2155.09 657.302   4
  13 -14   6 1073.54 516.309   4
  14 -13   6 1484.77 557.761   4
  -1  14   9 3424.29 914.260   2
  13 -14   9 3137.20 838.411   3
  14 -13   9 2859.31 833.616   3
  13 -14   9 4306.49 625.714   1
 -14   1   9 1985.39 795.396   1
 -13  -1   9 2544.62 941.460   1
   1  13   9 4816.71 1106.49   2
  14 -13   9 2714.96 545.274   1
   1  13   9 4305.32 863.858   4
  -1  14   9 3962.04 790.012   4
   2  12  -7 11836.0 758.384   4
  -2  14  -7 11288.5 711.573   4
  14 -12  -4 6065.34 744.482   2
 -14   2  -4 6553.39 669.883   3
 -12  -2  -4 6062.55 538.669   3
  14 -12  -4 4477.83 807.665   3
  -2  14  -4 5533.26 708.038   2
  12 -14  -4 6452.88 846.605   3
   2  12  -4 6378.40 705.876   4
  -2  14  -4 5424.78 642.599   4
   2  12  -4 6411.16 679.107   2
   2  12  -1 21417.4 1209.19   4
 -14   2  -1 19815.6 1014.27   3
  12 -14  -1 20470.9 1095.92   3
  14 -12  -1 18801.7 1129.82   3
  -2  14  -1 19728.4 1171.90   4
 -14   2  -1 22802.8 898.724   1
 -12  -2  -1 20394.0 948.588   3
  -2  14  -1 19782.8 1181.05   2
 -12  -2  -1 19839.9 931.989   1
  -2  14  -1 19810.0 959.537   1
   2  12  -1 20839.5 1178.11   2
  12 -14   2 11822.1 899.810   3
  -2  14   2 9032.04 940.073   2
  -2  14   2 10281.2 960.116   4
  14 -12   2 10006.0 880.179   3
 -14   2   2 10494.4 754.282   1
 -12  -2   2 8639.06 726.201   1
   2  12   2 10568.6 988.583   2
   2  12   2 9837.05 929.690   4
  12 -14   5 30953.1 770.543   1
  12 -14   5 29234.5 1561.22   3
  14 -12   5 32082.4 1579.15   3
 -12  -2   5 29520.2 1472.42   1
 -14   2   5 30566.5 1533.52   1
  14 -12   5 26358.8 1325.75   4
   2  12   5 29622.9 1593.83   4
  -2  14   5 27261.3 1514.29   4
   2  12   5 29667.7 1725.03   2
  12 -14   5 27362.6 1323.65   4
  -2  14   5 28291.0 1665.07   2
  12 -14   8 12605.6 1270.94   3
   2  12   8 8793.87 444.629   3
  14 -12   8 14385.6 1288.53   3
  14 -12   8 16678.3 895.165   1
 -12  -2   8 14226.1 1305.75   1
  12 -14   8 15267.1 898.019   1
   2  12   8 12520.0 1355.00   2
   2  12   8 15091.9 1228.74   4
  -2  14   8 13560.8 1188.90   4
  -2  14   8 12550.9 1320.16   2
 -14   2   8 12977.8 1311.29   1
   3  11  -8 1414.53 335.183   4
   3  11  -5 4871.16 602.997   4
  14 -11  -5 3049.91 592.677   2
   3  11  -5 5124.44 580.476   2
  11 -14  -5 4593.61 807.113   3
  -3  14  -5 3942.81 650.537   2
  14 -11  -5 3632.30 795.232   3
  -3  14  -5 4531.67 589.486   4
 -14   3  -2 8128.16 535.874   1
 -14   3  -2 6278.83 648.206   3
  -3  14  -2 7105.20 813.448   2
  14 -11  -2 6552.51 737.191   2
  11 -14  -2 6688.67 701.383   3
  14 -11  -2 6449.80 785.815   3
 -11  -3  -2 7257.03 640.428   1
   3  11  -2 7330.33 764.717   4
  -3  14  -2 6387.86 605.427   1
  -3  14  -2 8041.89 785.513   4
 -11  -3  -2 7618.95 574.491   3
   3  11  -2 6745.57 698.915   2
  -3  14   1 6596.09 811.619   2
   3  11   1 5650.73 717.763   4
  11 -14   1 6487.64 700.649   3
  14 -11   1 5520.09 691.332   3
 -11  -3   1 6273.18 710.147   3
   3  11   1 5811.79 728.499   2
 -14   3   1 6494.14 564.010   1
 -11  -3   1 6152.85 612.709   1
  -3  14   1 4665.08 538.605   1
  -3  14   1 6205.06 774.146   4
  14 -11   4 9149.42 894.117   3
  -3  14   4 8908.46 418.846   3
  11 -14   4 11214.1 972.498   3
 -14   3   4 11328.3 921.597   1
 -11  -3   4 10142.4 883.511   1
  11 -14   4 9333.57 400.409   1
   3  11   4 10291.5 991.804   4
  -3  14   4 9954.97 1017.64   2
  -3  14   4 11213.7 994.838   4
   3  11   4 12146.7 1130.59   2
  11 -14   4 9895.81 822.939   4
  14 -11   4 10292.5 871.610   4
   3  11   7 1243.82 145.831   3
  11 -14   7 2703.04 712.415   3
  14 -11   7 2706.41 649.505   3
  -3  14   7 1891.53 655.403   2
  -3  14   7 1688.57 420.223   3
  14 -11   7 2119.60 415.711   1
   3  11   7 1091.02 164.916   3
  11 -14   7 3143.83 491.765   1
 -14   3   7 2378.19 761.558   1
 -11  -3   7 2073.54 710.663   1
   3  11   7 2270.85 675.198   4
  11 -14   7 2258.10 524.395   4
  -3  14   7 1702.00 610.349   4
  14 -11   7 1660.26 540.509   4
   3  11   7 2411.11 863.416   2
 -11  -3  10 2068.55 914.012   1
  -3  14  10 4529.00 1037.46   2
  11 -14  10 4396.24 987.914   3
  14 -11  10 4751.60 977.757   3
 -14   3  10 4455.85 1062.45   1
  -3  14  10 3799.26 1161.32   1
  11 -14  10 4074.21 688.282   1
   3  11  10 6486.05 1188.78   2
  -3  14  10 4198.80 868.467   4
  14 -11  10 4259.17 696.972   1
   3  11  10 4050.76 789.117   4
   4  10  -6 399.013 390.387   4
  14 -10  -6 46.1786 636.454   3
  10 -14  -6-281.794 488.991   3
  14 -10  -6 858.802 509.806   2
  -4  14  -6 597.003 355.223   4
   4  10  -3 5717.33 595.045   2
  -4  14  -3 5538.91 678.580   2
 -14   4  -3 4627.64 584.550   3
  14 -10  -3 6427.94 708.648   2
  -4  14  -3 7249.19 636.694   1
  14 -10  -3 5609.28 804.055   3
 -10  -4  -3 5247.54 409.730   3
   4  10  -3 6722.22 708.443   4
  10 -14  -3 6057.95 735.211   3
  -4  14  -3 6782.67 682.563   4
   4  10   0 864.248 474.065   2
  10 -14   0 886.102 386.147   3
  -4  14   0 2154.61 565.287   2
 -14   4   0 2011.14 488.515   3
  14 -10   0 749.571 471.247   3
  -4  14   0 1183.76 495.036   4
 -10  -4   0 1734.66 416.257   3
  14 -10   0 1015.43 500.686   2
 -14   4   0 1498.75 324.417   1
 -10  -4   0 1186.12 420.980   1
   4  10   0 1143.00 528.426   4
  -4  14   0 1514.23 347.406   1
 -14   4   3 2935.31 506.849   1
  10 -14   3 3240.25 597.012   3
  14 -10   3 3779.87 645.140   3
   4  10   3 3603.05 653.967   4
  10 -14   3 3246.33 299.000   1
  -4  14   3 3047.72 328.516   3
  -4  14   3 4178.27 721.407   2
 -10  -4   3 2935.67 559.716   1
  -4  14   3 3470.25 658.682   4
  10 -14   3 4401.09 662.439   4
  14 -10   3 3403.87 581.106   4
   4  10   3 2744.72 706.621   2
  10 -14   6 2858.91 702.396   3
  14 -10   6 2224.96 577.636   3
 -14   4   6 2921.53 737.221   1
  -4  14   6 2567.57 700.274   2
   4  10   6 3690.39 741.452   4
  10 -14   6 2440.59 417.879   1
 -10  -4   6 3714.71 708.459   1
  10 -14   6 2147.16 496.396   4
  -4  14   6 2785.12 695.521   4
  14 -10   6 2755.26 362.798   1
   4  10   6 2549.36 787.141   2
  -4  14   6 2237.36 391.870   3
  14 -10   6 2634.10 559.746   4
  10 -14   9 5894.27 1065.74   3
 -14   4   9 7060.61 1135.30   1
   4  10   9 5797.46 1119.89   2
  14 -10   9 4396.47 921.812   3
  10 -14   9 6558.94 759.986   1
  14 -10   9 5576.84 624.609   4
 -10  -4   9 5057.62 978.282   1
  14 -10   9 6300.60 748.407   1
  -4  14   9 6590.78 1063.04   2
   4  10   9 4967.08 807.573   4
  -4  14   9 5811.96 874.203   4
  -4  14   9 5684.05 1277.98   1
   5   9  -7 13303.9 796.410   4
  -5  14  -7 12996.7 703.548   4
  -9  -5  -4 2863.14 323.997   3
   5   9  -4 3072.18 455.572   2
  -5  14  -4 3627.58 626.059   2
   9 -14  -4 3288.43 644.755   3
  -5  14  -4 2640.30 511.575   1
  14  -9  -4 3618.14 782.192   3
   5   9  -4 3257.44 528.220   4
  14  -9  -4 3560.12 553.773   2
  -5  14  -4 2910.53 507.145   4
  -5  14  -1 11054.1 685.256   1
  -5  14  -1 11106.2 931.300   2
   5   9  -1 11612.0 864.049   2
  -9  -5  -1 11236.5 648.834   3
  14  -9  -1 11846.9 902.959   2
  14  -9  -1 11434.6 974.515   3
 -14   5  -1 8813.22 553.232   1
   9 -14  -1 10937.0 741.132   3
 -14   5  -1 12454.4 825.577   3
  -9  -5  -1 11102.4 942.923   2
  -9  -5  -1 12176.7 775.870   1
   5   9  -1 10027.2 862.529   4
  -5  14  -1 11274.7 908.653   4
  14  -9  -1 12636.5 726.784   1
  -5  14   2 12757.5 1014.56   2
  -5  14   2 11734.5 623.873   3
   9 -14   2 13510.1 920.879   3
 -14   5   2 13156.7 789.079   1
  -5  14   2 12434.7 825.557   1
  -9  -5   2 10975.9 989.064   3
  14  -9   2 11752.4 889.844   3
   5   9   2 11632.0 1018.08   2
   9 -14   2 13277.5 926.595   4
  -5  14   2 13192.5 997.628   4
   5   9   2 13092.4 1024.86   4
  -9  -5   2 11855.2 821.673   1
  14  -9   2 12081.6 901.921   4
   9 -14   5 15837.4 1172.35   3
 -14   5   5 20391.6 1282.28   1
  14  -9   5 18884.1 1195.90   3
  -5  14   5 19834.1 844.094   3
  14  -9   5 18124.4 620.982   1
  -9  -5   5 19393.9 1182.97   1
  14  -9   5 16096.5 463.355   1
  -5  14   5 17554.0 1201.58   4
  14  -9   5 18563.0 1067.71   4
   5   9   5 20206.0 1280.62   4
   5   9   5 20643.6 1450.91   2
   9 -14   5 18605.2 1031.83   4
   9 -14   5 20562.9 819.661   1
  -5  14   5 18776.4 1330.16   2
 -14   5   8 5799.12 1027.21   1
   9 -14   8 7480.96 1085.95   3
  14  -9   8 6391.31 907.922   3
   5   9   8 6452.20 477.965   3
  -9  -5   8 6885.66 990.076   1
   9 -14   8 6262.51 692.658   1
  14  -9   8 6668.86 689.220   1
   5   9   8 6828.01 908.689   4
   5   9   8 7198.84 1157.95   2
  -5  14   8 6378.05 851.006   4
  -5  14   8 6290.83 974.001   2
  14  -9   8 5757.91 690.407   4
   6   8  -8 1972.57 401.787   4
   6   8  -5 12553.2 616.638   2
   6   8  -5 13865.3 876.021   4
   8 -14  -5 14117.9 977.841   3
  14  -8  -5 11082.2 1154.40   3
  -6  14  -5 11832.5 836.842   1
  -6  14  -5 12932.8 821.802   4
  14  -8  -5 13612.0 845.382   2
   6   8  -2 841.925 371.022   2
 -14   6  -2 560.503 194.782   1
 -14   6  -2 855.528 405.959   3
  -8  -6  -2 774.330 234.861   3
  -6  14  -2 1091.83 323.675   1
   8 -14  -2 476.005 373.313   3
  -8  -6  -2 211.684 369.730   1
  -6  14  -2 352.597 420.299   2
  14  -8  -2 1159.66 403.668   2
  14  -8  -2 724.593 553.153   3
   6   8  -2 984.176 478.202   4
  14  -8  -2 2260.03 509.332   1
  -6  14  -2 422.696 382.519   4
  -6  14   1 49574.2 1341.07   3
  -6  14   1 48026.1 1797.13   2
   8 -14   1 44999.9 1448.71   3
  -8  -6   1 41247.1 1412.40   1
   6   8   1 39782.0 1360.00   1
  14  -8   1 50571.6 1664.96   3
 -14   6   1 46961.4 1219.56   1
  -6  14   1 47130.7 1339.40   1
  -8  -6   1 49545.6 1624.89   3
   8 -14   1 46563.6 1677.08   4
   6   8   1 46640.8 1716.33   2
  -8  -6   1 49613.5 1604.64   2
   6   8   1 47077.5 1721.45   4
  14  -8   1 42639.2 874.931   1
   8 -14   1 48138.9 1811.20   2
  -6  14   1 34406.9 1510.61   4
 -14   6   4 9673.25 859.515   1
   8 -14   4 8419.46 886.418   3
   8 -14   4 8096.24 745.475   4
   8 -14   4 9881.71 604.597   1
  -6  14   4 7689.95 566.366   3
  -6  14   4 5870.28 804.479   2
  14  -8   4 9000.84 803.036   3
  -8  -6   4 8441.27 790.585   1
  14  -8   4 6510.08 361.878   1
   6   8   4 6851.83 780.032   4
   6   8   4 8307.69 935.931   2
  -6  14   4 7901.20 858.247   4
  14  -8   7 1129.10 490.332   4
  14  -8   7 2894.11 509.175   1
  14  -8   7 4384.73 756.584   3
   8 -14   7 1978.75 670.156   3
   8 -14   7 2290.10 467.663   4
 -14   6   7 2301.41 686.059   1
  -6  14   7 2219.56 565.656   3
   8 -14   7 3830.92 578.968   1
   6   8   7 1806.23 374.883   3
   6   8   7 3585.59 724.190   4
  14  -8   7 2170.24 551.538   4
   6   8   7 1949.42 295.960   3
  -8  -6   7 2043.12 690.807   1
  -6  14   7 3248.74 731.676   2
   6   8   7 2937.68 813.811   2
  -6  14   7 1442.48 589.105   4
  14  -8  10 4847.97 953.470   3
  -6  14  10 4420.72 934.379   2
  -6  14  10 2793.04 1115.34   1
 -14   6  10 1980.36 983.935   1
  14  -8  10 3110.39 718.617   1
   8 -14  10 3567.17 1028.49   3
  -6  14  10 2805.50 713.104   4
  14  -8  10 4639.48 1034.13   2
   6   8  10 2265.24 695.677   4
   8 -14  10 2380.73 649.202   1
   6   8  10 2941.17 968.214   2
  -8  -6  10 1978.26 788.401   1
  -7  14  -6 1655.33 518.047   1
  14  -7  -6 1579.19 391.908   2
   7   7  -6 2545.35 473.508   4
  -7  14  -6 2846.80 453.625   4
  -7  14  -3 10407.8 794.365   4
  -7  14  -3 12995.7 699.234   1
   7 -14  -3 13914.6 837.600   3
  -7  14  -3 11955.2 970.378   2
  14  -7  -3 13239.7 1139.00   3
   7   7  -3 12105.8 880.079   4
  14  -7  -3 11561.3 926.354   1
  14  -7  -3 12459.5 806.896   2
   7   7  -3 11997.0 699.989   2
  -7  -7   0 1411.77 414.888   1
   7 -14   0 2870.06 583.261   4
  -7  14   0 3042.57 482.889   3
  -7  -7   0 2410.01 457.614   3
   7 -14   0 2108.39 402.691   3
 -14   7   0 1445.83 437.647   3
  -7  14   0 1979.91 621.186   2
  14  -7   0 2713.44 557.492   3
 -14   7   0 2626.48 316.044   1
   7 -14   0 2208.09 602.225   2
   7   7   0 1792.37 545.647   4
  -7  14   0 2100.99 541.799   4
   7   7   0 1844.87 427.055   1
  -7  14   0 1689.61 333.153   1
  -7  -7   0 1526.33 487.535   2
  14  -7   0 2853.25 396.687   1
   7   7   0 1802.62 518.122   2
  -7  -7   0 2476.31 567.165   4
 -14   7   3 13426.8 893.216   1
   7 -14   3 12045.2 942.230   3
  14  -7   3 12821.1 912.077   3
  -7  14   3 11830.9 965.126   4
  -7  -7   3 12257.5 865.557   1
  -7  14   3 10207.2 937.388   2
   7   7   3 8669.33 365.276   3
   7 -14   3 13650.1 646.758   1
  14  -7   3 10968.9 392.206   1
  -7  -7   3 12133.3 748.306   2
   7   7   3 14374.3 1055.43   4
  -7  14   3 12749.6 733.824   3
   7 -14   3 12037.3 892.957   4
   7   7   3 9650.46 967.961   2
   7 -14   6 2056.44 675.198   3
   7 -14   6 1492.43 439.915   4
  -7  14   6 1096.29 626.493   2
  -7  14   6 2163.69 557.632   3
   7   7   6 1451.09 270.105   3
 -14   7   6 2725.07 755.513   1
  14  -7   6 2525.98 463.230   1
  14  -7   6 1451.54 324.412   1
  -7  -7   6 1443.69 609.514   1
   7 -14   6 2622.31 485.434   1
  14  -7   6 2382.83 578.724   3
   7   7   6 2987.18 787.712   2
   7   7   6 1157.20 529.520   4
  -7  14   6 1602.69 547.513   4
  14  -7   9 872.890 529.112   1
   7 -14   9 1931.46 814.300   3
  14  -7   9 2045.37 711.957   3
   7   7   9 2441.76 473.680   3
  -7  14   9 1755.97 746.814   2
 -14   7   9 2123.16 945.603   1
  14  -7   9 2811.96 884.724   2
  -7  -7   9 2683.38 815.433   1
  14  -7   9 2433.55 563.025   4
  -7  14   9 2671.08 947.014   1
   7   7   9 2327.45 664.116   4
   7   7   9 1243.76 800.500   2
   7 -14   9 2359.92 660.731   1
  -7  14   9 2017.25 659.666   4
   8   6  -7 3673.64 527.854   4
  14  -6  -7 1216.70 212.973   2
  14  -6  -4 9392.67 675.552   2
   6 -14  -4 9243.23 703.712   3
  14  -6  -4 9239.27 1050.32   3
   8   6  -4 10221.4 824.834   4
  -8  14  -4 7492.79 693.454   4
  -8  14  -4 8940.30 600.137   1
   8   6  -4 9732.99 546.453   2
  -8  14  -1 49877.1 1633.90   3
 -14   8  -1 46571.2 1567.27   3
   6 -14  -1 47945.2 1278.34   3
  -8  14  -1 52613.1 1172.92   1
  -8  14  -1 47424.5 1751.73   2
  -6  -8  -1 52848.4 1162.06   3
  14  -6  -1 49459.9 1856.60   3
  -6  -8  -1 50339.2 1525.55   1
 -14   8  -1 56947.5 913.288   1
   8   6  -1 44682.2 1441.07   1
  14  -6  -1 49559.0 1648.17   2
  -6  -8  -1 47574.6 1797.42   2
   8   6  -1 48406.9 1543.90   2
  14  -6  -1 49363.8 1418.15   1
  -8  14  -1 48446.1 1672.25   4
   8   6  -1 48188.3 1728.13   4
  -6  -8   2 1614.73 439.501   2
   6 -14   2 1650.09 509.026   3
  -8  14   2 1417.57 366.090   3
   6 -14   2 1409.86 521.235   2
  -8  14   2 1476.10 564.501   2
 -14   8   2 1211.03 357.222   1
   8   6   2 1072.05 395.326   1
   8   6   2 1324.75 322.838   3
  -6  -8   2 1259.15 506.620   3
  14  -6   2 1501.36 495.870   3
  -6  -8   2 1196.73 507.808   4
   8   6   2 1650.28 516.067   4
  -6  -8   2 2157.04 496.521   1
   6 -14   2 2438.92 542.051   4
   8   6   2 1157.82 531.536   2
   6 -14   2 1784.48 356.129   1
  14  -6   2 1479.81 242.908   1
  -8  14   2 1502.14 493.256   4
   6 -14   5 11286.8 1035.00   3
  -8  14   5 12201.9 1064.02   2
   8   6   5 11837.2 544.332   3
  -8  14   5 11542.9 834.823   3
  14  -6   5 13126.4 569.781   1
 -14   8   5 13808.3 1122.20   1
  -6  -8   5 11232.8 925.338   1
  -6  -8   5 10060.4 563.697   2
   8   6   5 13092.7 1202.25   2
  14  -6   5 13405.2 956.641   3
   8   6   5 11446.9 991.951   4
   6 -14   5 10960.3 816.979   4
  -8  14   5 12166.3 988.474   4
   6 -14   5 12337.6 761.387   1
  14  -6   8 2776.27 597.208   4
   6 -14   8 2719.76 826.814   3
  14  -6   8 3314.48 682.106   3
   8   6   8 2879.94 463.476   3
  -8  14   8 2737.51 686.660   4
   6 -14   8 3705.01 667.715   1
  14  -6   8 2823.19 892.812   2
  -8  14   8 3482.03 817.643   2
   8   6   8 4903.84 774.947   4
  -8  14   8 2535.14 928.762   1
 -14   8   8 4979.45 1030.00   1
   8   6   8 2918.94 893.532   2
  -6  -8   8 2556.49 680.910   1
  14  -6   8 3699.15 646.264   1
   9   5  -8 5540.64 620.776   4
  14  -5  -5 21038.8 837.090   2
   9   5  -5 18326.4 1061.80   4
  14  -5  -5 20391.3 1519.69   3
  -9  14  -5 19530.7 900.949   1
  -9  14  -5 21570.4 1040.30   4
  -9  14  -2 13061.2 1018.79   2
  14  -5  -2 14704.3 1123.18   3
  14  -5  -2 14512.5 888.185   2
  -9  14  -2 15877.8 649.578   1
  14  -5  -2 15117.6 956.213   1
   9   5  -2 14293.6 810.080   2
  -9  14  -2 15533.9 995.168   4
   5 -14  -2 14011.5 711.910   3
  -5  -9  -2 11937.8 344.421   3
   9   5  -2 14648.4 1008.19   4
   5 -14   1 13958.3 1003.77   4
  14  -5   1 12865.4 614.209   1
 -14   9   1 13521.9 699.399   1
   5 -14   1 13715.2 820.206   3
  -9  14   1 12790.6 784.601   3
  -9  14   1 13517.7 1010.65   2
  14  -5   1 13822.1 961.940   3
  -5  -9   1 14279.9 844.395   1
   9   5   1 12410.2 777.940   1
   9   5   1 13004.8 776.397   3
  -5  -9   1 13034.7 876.537   3
   5 -14   1 13216.6 752.857   1
  -5  -9   1 11847.0 966.904   4
   9   5   1 13512.3 1018.44   4
  -5  -9   1 13212.5 953.732   2
  -9  14   1 13133.4 993.589   4
   9   5   1 13309.9 1031.53   2
   5 -14   1 12181.5 992.189   2
   5 -14   4 2719.18 445.752   1
   5 -14   4 2149.03 580.189   3
  14  -5   4 2546.72 322.049   1
  -9  14   4 2683.68 506.458   3
   5 -14   4 2407.62 602.094   2
  14  -5   4 2804.17 537.144   3
   9   5   4 2717.36 357.763   3
  -5  -9   4 2402.74 447.961   2
  -9  14   4 2796.88 622.716   2
  -5  -9   4 2847.00 562.779   1
   5 -14   4 2495.02 526.787   4
  -5  -9   4 3013.56 572.893   4
 -14   9   4 3429.48 636.781   1
   9   5   4 2643.13 698.834   2
   9   5   4 3216.22 641.441   4
  -9  14   4 2924.17 641.368   4
  -9  14   7 12873.6 1170.34   2
  14  -5   7 11081.1 779.222   1
  14  -5   7 13334.6 1011.55   4
  -5  -9   7 14110.6 1164.43   1
  14  -5   7 14202.7 981.396   1
  14  -5   7 12376.5 1045.50   3
   9   5   7 14105.9 1145.58   4
   5 -14   7 13168.5 967.648   1
  14  -5   7 15765.2 1423.43   2
  -9  14   7 13041.8 1433.68   1
   5 -14   7 12273.9 743.764   4
   5 -14   7 11771.2 1204.95   3
 -14   9   7 12847.2 1261.33   1
   9   5   7 14902.1 1393.81   2
  -9  14   7 15373.7 1183.01   4
   9   5   7 13897.2 781.991   3
  14  -5  10 1196.01 730.369   1
   5 -14  10 940.778 897.450   3
  -9  14  10 1944.84 707.857   4
  14  -5  10 1632.09 692.013   3
  -9  14  10 1615.97 786.095   2
 -14   9  10 3810.08 1104.27   1
   9   5  10 96.2177 792.582   1
  -5  -9  10-179.165 686.177   1
   9   5  10 2020.64 939.022   2
  14  -5  10 1670.76 854.621   2
  -9  14  10 1474.96 1024.56   1
   9   5  10 762.773 686.779   4
   5 -14  10 0.67152 614.471   1
  10   4  -9 4389.74 509.137   4
 -10  14  -6 2833.07 522.824   1
  10   4  -6 2822.29 525.608   4
 -10  14  -3 2653.83 314.445   1
   4 -14  -3 3539.89 419.124   3
  14  -4  -3 3046.87 469.385   2
  14  -4  -3 1812.48 648.262   3
 -10  14  -3 3220.46 561.133   4
  10   4  -3 3099.33 417.362   2
  10   4  -3 3741.37 632.808   4
  -4 -10   0 1396.76 408.167   1
  10   4   0 2473.66 569.031   2
 -10  14   0 1541.55 416.264   3
   4 -14   0 1547.00 357.567   3
 -14  10   0 1695.27 280.995   1
  10   4   0 1562.43 424.310   1
 -10  14   0 2832.47 659.920   2
 -10  14   0 1359.05 294.971   1
  14  -4   0 667.969 472.429   3
  14  -4   0 1800.78 373.490   1
  10   4   0 1991.58 553.642   4
  10   4   0 1567.38 476.589   3
  -4 -10   0 1336.92 368.422   3
   4 -14   0 1331.87 500.679   2
   4 -14   0 1868.11 574.179   4
  -4 -10   0 1966.79 577.437   2
 -10  14   0 1591.33 540.161   4
   4 -14   3 5791.01 735.821   2
   4 -14   3 5314.84 700.869   3
 -10  14   3 5599.80 775.231   2
 -10  14   3 5732.92 643.281   3
  -4 -10   3 4942.18 625.984   2
   4 -14   3 6275.41 564.086   1
  10   4   3 6824.40 562.883   3
 -14  10   3 6943.87 756.957   2
  10   4   3 5648.98 840.240   2
 -14  10   3 5706.30 683.191   1
  -4 -10   3 6859.56 759.944   4
  10   4   3 5339.90 752.757   4
  14  -4   3 5881.29 648.896   3
  -4 -10   3 5944.45 654.190   1
  14  -4   3 6318.26 445.614   1
 -10  14   3 5344.72 719.253   4
   4 -14   3 6099.18 700.856   4
   4 -14   6-594.811 619.776   3
 -14  10   6 66.0224 565.117   1
  10   4   6 194.156 471.116   4
  14  -4   6 697.481 473.913   3
   4 -14   6 203.903 535.692   2
  10   4   6 685.976 356.918   3
 -10  14   6-431.079 543.401   2
   4 -14   6 875.257 471.217   1
  14  -4   6 912.425 514.806   4
  -4 -10   6 880.064 522.738   1
 -14  10   6 377.175 431.019   2
  -4 -10   6 539.107 328.634   2
   4 -14   6 397.099 402.941   4
 -10  14   6 315.295 640.573   1
  10   4   6 1265.10 650.432   2
  14  -4   6 362.895 316.709   1
 -10  14   6 82.3391 465.404   4
  14  -4   9 3126.90 679.530   4
 -10  14   9 2550.37 709.551   4
   4 -14   9 1351.09 662.591   1
   4 -14   9 4569.61 1090.62   3
  10   4   9 3184.43 569.692   3
  14  -4   9 2573.74 717.337   1
 -14  10   9 3192.45 1003.56   1
  14  -4   9 2767.92 695.786   3
 -10  14   9 3552.76 805.612   2
  -4 -10   9 712.535 672.408   1
 -14  10   9 1509.58 487.340   2
  10   4   9 2582.02 718.578   4
  14  -4   9 2182.96 838.305   2
  10   4   9 2400.82 922.870   2
 -10  14   9 3859.65 1071.88   1
  11   3  -7 1796.20 536.396   4
  14  -3  -4 10607.2 625.393   2
  14  -3  -4 12734.9 1207.83   3
  11   3  -4 11146.6 905.654   4
 -11  14  -4 10667.8 512.483   1
  11   3  -4 11610.3 571.751   2
  14  -3  -1 6220.05 630.577   1
  11   3  -1 7082.96 702.009   2
 -11  14  -1 5515.05 738.153   2
  14  -3  -1 5786.56 825.221   3
  11   3  -1 6068.08 636.048   1
 -14  11  -1 4958.40 229.143   1
   3 -14  -1 6469.62 459.227   3
 -11  14  -1 6504.88 374.253   1
  -3 -11  -1 5806.19 450.006   3
  11   3  -1 7905.80 840.833   3
  11   3  -1 6976.52 785.138   4
  -3 -11  -1 6785.65 700.189   1
 -11  14  -1 6290.24 743.569   4
   3 -14   2 8842.95 781.414   3
  11   3   2 6432.12 610.982   1
  -3 -11   2 8447.76 749.317   1
 -11  14   2 7646.25 853.510   2
  14  -3   2 7557.89 730.885   3
 -11  14   2 6252.33 674.871   3
  11   3   2 7511.95 661.751   3
 -14  11   2 7546.83 670.053   1
  14  -3   2 7789.72 536.841   1
 -14  11   2 8223.82 806.991   2
  11   3   2 7228.55 814.929   4
  11   3   2 6681.23 844.267   2
  -3 -11   2 6787.58 723.990   2
   3 -14   2 7402.24 761.135   4
  -3 -11   2 7384.45 797.740   4
   3 -14   2 6873.68 565.573   1
 -11  14   2 5939.60 760.610   4
   3 -14   2 6822.01 787.600   2
   3 -14   5 4102.02 591.783   4
   3 -14   5 4343.42 820.220   3
  14  -3   5 4819.68 636.013   3
  11   3   5 4784.99 893.039   2
 -14  11   5 4611.17 673.691   2
 -11  14   5 4871.54 842.937   1
 -11  14   5 5376.24 792.361   2
  14  -3   5 4280.00 463.704   1
  -3 -11   5 5457.19 706.553   1
  11   3   5 5317.19 770.254   4
  14  -3   5 5409.37 739.332   4
   3 -14   5 4646.06 586.918   1
 -14  11   5 6418.18 875.846   1
  -3 -11   5 4049.34 532.348   2
  11   3   5 4957.16 493.491   3
 -11  14   5 5565.15 775.185   4
   3 -14   5 4330.80 712.793   2
  -3 -11   5 4147.30 654.605   4
 -11  14   8 1339.40 650.361   4
  -3 -11   8 2024.39 689.953   1
   3 -14   8 1238.12 762.776   3
   3 -14   8 1382.29 593.164   1
 -14  11   8 1389.16 774.808   1
  14  -3   8 1676.50 629.844   1
  11   3   8 348.759 387.320   3
 -11  14   8 1303.49 600.549   2
 -14  11   8 1628.34 551.789   2
  11   3   8 1353.43 829.263   2
  14  -3   8 398.895 489.865   4
  11   3   8 885.736 536.694   4
  14  -3   8 648.631 725.989   2
  14  -3   8 1379.45 520.240   3
 -11  14   8 770.004 733.347   1
  12   2  -8 13040.1 947.348   4
  14  -2  -5 28998.2 801.480   2
  12   2  -5 29029.7 1411.16   4
   2 -14  -2 9484.30 476.705   3
  14  -2  -2 9596.19 991.478   3
  12   2  -2 9117.77 932.783   3
  12   2  -2 11337.6 961.348   4
 -12  14  -2 9280.26 350.227   1
 -12  14  -2 10922.8 902.833   4
  14  -2  -2 9513.61 844.519   1
  12   2  -2 10685.4 762.023   2
  -2 -12   1 18487.5 1173.11   2
   2 -14   1 19914.9 957.604   1
   2 -14   1 21725.8 1023.46   3
 -12  14   1 16838.0 994.137   3
 -12  14   1 19576.5 1230.71   2
  12   2   1 20738.6 1117.38   3
  14  -2   1 17923.7 818.798   1
  14  -2   1 19446.7 1136.15   3
 -14  12   1 20823.5 1272.26   2
  12   2   1 18022.4 1177.35   4
  -2 -12   1 19548.3 965.988   1
  12   2   1 18588.8 1206.91   2
   2 -14   1 17795.8 1202.08   2
 -14  12   1 20072.8 882.878   1
  12   2   1 18067.4 903.453   1
 -12  14   1 20904.1 1233.68   4
   2 -14   4 7074.00 689.051   1
  14  -2   4 6827.98 682.852   3
  14  -2   4 7340.27 571.694   1
  12   2   4 7676.37 624.813   3
 -14  12   4 7084.32 768.847   2
   2 -14   4 8374.43 795.326   4
  14  -2   4 6696.92 938.024   2
  14  -2   4 7944.00 894.818   4
  -2 -12   4 6599.44 751.524   4
 -12  14   4 6702.12 861.664   1
  12   2   4 8414.94 887.099   4
  12   2   4 8746.39 1043.31   2
  -2 -12   4 6784.54 705.327   2
 -12  14   4 7548.83 846.820   2
  -2 -12   4 7597.44 750.589   1
 -12  14   4 7815.38 879.895   4
 -14  12   4 7957.98 905.500   1
   2 -14   4 6400.13 763.057   2
  14  -2   7 10818.9 1006.83   4
 -14  12   7 13739.3 1315.02   1
  14  -2   7 10738.3 919.021   3
 -12  14   7 10477.7 1037.76   2
  12   2   7 11804.9 825.941   3
 -14  12   7 9644.63 865.112   2
 -12  14   7 10426.9 1215.07   1
   2 -14   7 11394.4 977.999   1
  12   2   7 10335.7 1232.91   2
  14  -2   7 12398.3 1339.09   2
  -2 -12   7 11574.4 1055.43   1
   2 -14   7 9365.39 780.952   4
  -2 -12   7 6505.19 642.758   2
  12   2   7 11827.8 1087.11   4
 -12  14   7 13556.7 1140.48   4
   2 -14   7 7829.00 852.112   2
  -2 -12  10 3897.57 868.813   1
 -12  14  10 2943.72 1145.79   1
   2 -14  10 5704.29 1286.44   3
  14  -2  10 5037.52 840.436   3
  12   2  10 6173.64 809.713   3
  12   2  10 5933.41 1242.37   2
   2 -14  10 5638.89 955.914   1
 -12  14  10 3366.97 765.627   2
  14  -2  10 5755.17 1247.83   2
  12   2  10 4593.71 1013.86   1
  12   2  10 4018.21 796.177   4
 -14  12  10 6802.62 1325.04   1
  14  -2  10 4458.75 978.280   1
  14  -1  -9 2819.65 646.736   4
  13   1  -9 2250.24 542.400   4
  13   1  -6 1262.67 541.330   4
  14  -1  -3 6497.15 606.472   2
  13   1  -3 5477.17 747.275   4
  14  -1  -3 5967.84 850.848   3
  13   1  -3 7181.51 613.713   2
  -1 -13   0 5409.04 493.127   3
   1 -14   0 4777.18 493.286   3
  13   1   0 4323.64 685.379   2
  -1 -13   0 4476.98 596.872   1
  14  -1   0 4995.82 559.611   1
 -13  14   0 4367.66 718.052   2
  13   1   0 5842.31 774.430   3
  13   1   0 4710.81 543.014   1
 -14  13   0 5964.62 442.337   1
  14  -1   0 4311.09 672.489   3
   1 -14   0 4429.98 604.307   1
 -13  14   0 4406.69 444.647   1
 -13  14   0 4525.88 707.209   4
  13   1   0 4789.44 718.098   4
 -14  13   3 9056.60 887.706   4
  -1 -13   3 11448.5 873.465   1
   1 -14   3 9094.37 757.694   1
  14  -1   3 10252.4 977.299   4
 -13  14   3 9886.88 929.762   2
  13   1   3 9495.01 787.254   3
  14  -1   3 9349.53 633.232   1
 -14  13   3 8287.14 861.521   2
   1 -14   3 7397.10 802.720   4
 -13  14   3 10065.6 855.485   1
  14  -1   3 9410.54 1038.14   2
  13   1   3 8657.69 908.034   4
  13   1   3 12086.3 1120.99   2
  -1 -13   3 7920.75 818.060   4
 -14  13   3 9699.00 879.163   1
  -1 -13   3 10171.6 879.030   2
  14  -1   3 9848.31 807.218   3
   1 -14   3 8669.33 866.443   2
 -13  14   3 9630.24 945.484   4
 -14  13   6 2985.87 858.227   1
 -13  14   6 917.799 551.810   4
  -1 -13   6 399.654 465.105   2
   1 -14   6 769.894 486.075   2
  14  -1   6 1695.22 476.743   3
  13   1   6 799.452 403.207   3
   1 -14   6 1099.63 513.678   4
  -1 -13   6 1190.80 551.967   1
   1 -14   6 1724.70 545.436   1
 -13  14   6 2072.49 644.543   2
 -14  13   6 1325.37 521.886   2
  -1 -13   6 727.710 515.693   4
  14  -1   6 1639.35 613.856   4
 -13  14   6 1692.92 770.054   1
  13   1   6 1029.89 722.693   2
  14  -1   6 1099.60 652.555   2
  13   1   6 1280.26 544.786   4
  14  -1   9 6020.54 800.161   3
  13   1   9 5557.03 760.119   3
 -13  14   9 4325.44 801.856   2
 -14  13   9 4187.53 726.522   2
  -1 -13   9 6210.57 919.281   1
   1 -14   9 5402.51 875.303   1
  14  -1   9 5190.47 930.586   1
  14  -1   9 7461.31 1199.14   2
  13   1   9 5557.04 1162.04   2
  14  -1   9 6237.23 880.566   4
 -13  14   9 4792.99 1120.39   1
  13   1   9 6078.65 857.722   4
 -14  13   9 5532.08 1151.44   1
  14   0  -7 908.091 550.089   4
  14   0  -4 1259.48 346.492   2
   0 -14  -1 13.9327 224.137   3
  14   0  -1 289.267 404.660   2
  14   0  -1-503.591 506.279   3
 -14  14  -1 50.7849 135.874   1
 -14  14  -1 230.183 167.663   1
  14   0   2 8110.88 792.307   3
 -14  14   2 7809.94 866.304   2
  14   0   2 9854.34 683.908   1
   0 -14   2 9367.84 740.434   1
  14   0   2 7942.44 939.207   2
 -14  14   2 9961.91 791.826   1
   0 -14   2 8979.77 914.837   2
  14   0   2 9308.10 934.340   4
 -14  14   2 9099.88 927.790   4
 -14  14   5 337.597 509.250   4
   0 -14   5-19.4781 441.707   1
  14   0   5 26.9603 474.677   4
  14   0   5-446.581 370.104   3
 -14  14   5-82.5978 532.650   2
   0 -14   5 622.914 511.719   4
  14   0   5-326.215 563.763   2
   0 -14   5 89.0386 458.359   2
 -14  14   5-32.8578 572.523   1
   0 -14   8 2373.86 717.058   1
  14   0   8 2483.14 560.777   3
 -14  14   8 2210.85 676.940   2
 -14  14   8 2273.33 942.762   1
  14   0   8 2508.81 681.601   4
  14   0   8 2889.41 883.751   2
   0  15  -6 7450.41 762.748   4
   0  15  -6 7114.05 812.825   2
  15 -15  -6 7328.78 1068.70   3
 -15   0  -3-522.177 414.241   3
   0  15  -3 644.477 458.247   4
   0  15  -3 396.638 428.910   2
  15 -15  -3-436.983 525.764   3
  15 -15   0 18951.7 1140.41   3
 -15   0   0 17747.7 982.405   1
   0  15   0 21050.0 1355.22   4
   0  15   0 22147.1 1337.27   2
   0  15   3-445.472 548.513   2
  15 -15   3-11.1341 528.812   3
 -15   0   3-567.037 451.254   1
   0  15   3 796.271 524.353   4
  15 -15   6 16016.1 1296.90   3
 -15   0   6 18291.6 1334.31   1
   0  15   6 17857.7 1375.39   4
   0  15   6 17596.2 1516.49   2
   0  15   9-1559.66 889.775   2
  15 -15   9 620.111 720.748   3
 -15   0   9 742.210 878.635   1
   0  15   9 467.683 642.447   4
  15 -14  -7 9141.99 1184.56   3
  14 -15  -7 10049.9 1205.54   3
   1  14  -7 8604.53 724.435   4
  -1  15  -7 8692.27 745.141   4
 -14  -1  -4 12554.1 817.265   3
 -15   1  -4 10140.7 817.363   3
  -1  15  -4 13422.0 1018.33   2
   1  14  -4 12975.2 966.564   2
   1  14  -4 10978.8 899.000   4
  14 -15  -4 11926.4 1116.21   3
  15 -14  -4 11309.7 1178.99   3
  -1  15  -4 14918.6 1032.47   4
  -1  15  -1 18784.4 1201.90   2
  15 -14  -1 18641.2 1177.40   3
 -15   1  -1 18543.8 1038.19   3
 -14  -1  -1 19165.7 1004.88   3
  14 -15  -1 17967.3 1146.52   3
 -15   1  -1 19915.3 928.393   1
   1  14  -1 17686.5 1151.21   2
   1  14  -1 19461.3 1242.41   4
  -1  15  -1 20323.0 1277.96   4
  14 -15   2 8065.84 855.538   3
  15 -14   2 10471.9 899.255   3
  -1  15   2 10182.2 1037.39   2
 -14  -1   2 9753.69 785.588   1
 -15   1   2 9409.67 758.661   1
   1  14   2 9596.85 969.893   4
  -1  15   2 9753.41 999.430   4
   1  14   2 9691.04 1011.28   2
  14 -15   5 16036.6 1243.86   3
  15 -14   5 18181.1 1279.34   3
 -15   1   5 15828.9 1185.05   1
 -14  -1   5 15517.5 1153.23   1
   1  14   5 17751.6 1328.84   4
   1  14   5 16421.0 1383.96   2
  -1  15   5 18609.8 1495.76   2
  -1  15   5 16708.9 1271.94   4
  -1  15   8 5683.04 1046.44   2
  15 -14   8 5216.84 960.663   3
  15 -14   8 4422.96 488.751   1
  14 -15   8 5567.16 602.441   1
  -1  15   8 5977.96 1009.89   4
 -15   1   8 4381.19 955.487   1
 -14  -1   8 4187.65 850.560   1
   1  14   8 4993.56 891.517   4
  14 -15   8 4630.81 959.962   3
   1  14   8 5368.46 1118.08   2
   2  13  -8 1309.22 411.907   4
  -2  15  -8 1441.39 389.090   4
 -13  -2  -5 1439.52 435.465   3
   2  13  -5 1536.62 454.090   2
  -2  15  -5 1373.99 548.649   2
  13 -15  -5 2016.13 716.239   3
  15 -13  -5 1878.68 720.301   3
   2  13  -5 1085.53 495.104   4
  -2  15  -5 1807.10 479.697   4
 -15   2  -2 3528.42 468.098   1
   2  13  -2 3367.60 591.700   2
  -2  15  -2 3329.32 646.802   2
 -13  -2  -2 3350.44 482.112   3
 -13  -2  -2 4717.23 586.723   1
  13 -15  -2 2761.88 597.795   3
  15 -13  -2 2730.63 650.561   3
 -15   2  -2 3123.79 529.466   3
   2  13  -2 4617.08 693.600   4
  -2  15  -2 4171.71 701.678   4
  -2  15   1 15694.6 1148.04   2
  -2  15   1 12186.8 1062.71   4
  13 -15   1 13618.7 954.149   3
 -13  -2   1 13154.3 991.735   3
   2  13   1 14413.1 1111.97   2
   2  13   1 13627.2 1110.33   4
 -15   2   1 15029.7 838.345   1
  15 -13   1 12706.1 961.434   3
 -13  -2   1 11996.9 826.059   1
   2  13   4 5382.24 869.712   2
  15 -13   4 5294.37 799.853   3
 -15   2   4 4508.01 682.122   1
 -13  -2   4 5737.15 715.270   1
  13 -15   4 3896.04 726.655   3
  -2  15   4 5141.04 812.612   4
  -2  15   4 6978.28 968.388   2
   2  13   4 5561.98 831.872   4
  13 -15   7 8582.13 1063.02   3
 -15   2   7 8287.72 1052.07   1
  15 -13   7 8180.84 491.292   1
  -2  15   7 5389.20 380.115   3
  15 -13   7 6745.60 936.850   3
  13 -15   7 8256.58 587.558   1
   2  13   7 7921.30 976.084   4
   2  13   7 8338.38 1138.47   2
  -2  15   7 8076.03 1019.80   4
 -13  -2   7 6336.06 959.779   1
  -2  15   7 8093.88 1130.15   2
   2  13  10 2134.36 958.998   2
  -2  15  10 97.9426 826.941   2
  13 -15  10 1860.15 837.502   3
  15 -13  10 905.183 738.524   3
 -15   2  10 768.342 843.071   1
 -13  -2  10 1014.96 885.949   1
  -2  15  10 1036.56 923.728   1
   2  13  10-555.435 677.970   4
  -2  15  10 1139.83 759.020   4
  15 -12  -6 3898.31 715.454   2
  12 -15  -6 5792.13 919.335   3
  15 -12  -6 6082.79 984.454   3
   3  12  -6 6132.26 663.187   4
  -3  15  -6 6949.88 678.083   4
 -15   3  -3 559.954 417.323   3
 -12  -3  -3 1203.07 353.448   3
   3  12  -3 844.391 453.249   2
  -3  15  -3 403.126 448.512   2
  15 -12  -3 718.167 466.473   2
  12 -15  -3 1040.83 504.872   3
  15 -12  -3 594.257 586.326   3
   3  12  -3-92.5029 395.696   4
  -3  15  -3 237.227 423.090   4
  -3  15   0 7160.09 836.218   2
  12 -15   0 6490.73 684.307   3
  15 -12   0 6984.96 772.384   3
 -12  -3   0 7790.24 683.107   1
 -12  -3   0 7531.13 701.274   3
  -3  15   0 6965.07 820.858   4
   3  12   0 7941.97 879.718   4
   3  12   0 7418.96 802.028   2
 -15   3   0 8877.73 610.310   1
  -3  15   3 5494.99 378.001   3
  12 -15   3 5637.04 740.249   3
  -3  15   3 6908.04 860.146   4
 -15   3   3 5954.66 669.319   1
 -12  -3   3 5931.28 716.983   1
   3  12   3 5675.03 848.877   2
   3  12   3 6308.15 804.376   4
  15 -12   3 5876.76 725.154   3
  -3  15   3 6010.40 879.929   2
  15 -12   6 954.964 131.567   1
  -3  15   6 1837.24 286.619   3
  12 -15   6 567.729 527.669   3
  15 -12   6 3022.36 731.769   3
  15 -12   6 1734.43 226.369   1
 -15   3   6 1671.96 627.543   1
  12 -15   6 2466.48 360.920   1
  -3  15   6 1509.72 701.136   2
 -12  -3   6 1291.56 608.124   1
  -3  15   6 2769.54 709.115   4
   3  12   6 609.444 631.007   4
   3  12   6 3219.63 883.989   2
  12 -15   6 1916.33 555.894   4
   3  12   9 1259.32 834.604   2
  -3  15   9-176.048 717.256   2
  15 -12   9-61.3157 618.248   3
  12 -15   9 1267.96 527.330   1
  15 -12   9 335.985 438.432   1
 -15   3   9-165.765 805.852   1
  -3  15   9 1000.49 640.670   4
  12 -15   9 1287.99 715.358   3
 -12  -3   9-167.856 707.815   1
   3  12   9 383.071 621.675   4
   4  11  -7 10985.1 793.833   4
  -4  15  -7 11954.2 755.263   4
  15 -11  -4 15398.4 1045.43   2
  -4  15  -4 16939.1 1135.73   2
  11 -15  -4 14940.9 1116.92   3
  15 -11  -4 16545.8 1316.02   3
   4  11  -4 15563.7 907.653   2
 -11  -4  -4 16254.8 734.746   3
  -4  15  -4 17079.4 1033.99   4
   4  11  -4 14201.1 954.110   4
 -15   4  -1 6298.88 665.591   3
  11 -15  -1 7022.89 682.373   3
  15 -11  -1 5363.70 731.419   2
 -11  -4  -1 5495.42 542.783   3
 -15   4  -1 7603.74 558.751   1
  15 -11  -1 6623.95 750.137   3
 -11  -4  -1 5211.06 581.179   1
   4  11  -1 6088.89 738.106   4
   4  11  -1 6310.81 710.592   2
  -4  15  -1 6056.76 742.027   4
  -4  15  -1 5376.92 549.383   1
  -4  15  -1 5606.43 724.746   2
  -4  15   2 7886.00 911.745   2
  15 -11   2 8494.23 795.632   3
   4  11   2 9111.91 906.584   4
 -15   4   2 8640.34 692.328   1
  -4  15   2 8893.63 541.124   3
  -4  15   2 8860.58 906.499   4
   4  11   2 9469.31 968.592   2
 -11  -4   2 7300.46 707.521   1
  11 -15   2 7455.12 789.445   3
  11 -15   5 25305.2 1499.16   3
  11 -15   5 24546.4 818.897   1
  -4  15   5 25460.8 800.995   3
 -15   4   5 27675.8 1476.66   1
  -4  15   5 26350.9 1515.39   4
 -11  -4   5 23390.2 1335.75   1
   4  11   5 28594.9 1566.05   4
   4  11   5 25768.2 1635.00   2
  11 -15   5 24422.0 1262.07   4
  -4  15   5 25892.2 1569.38   2
  15 -11   5 27130.5 1484.07   3
  15 -11   8 6708.83 663.112   1
   4  11   8 8204.16 1005.43   4
  15 -11   8 5071.99 878.494   3
 -15   4   8 5253.41 971.804   1
  11 -15   8 6511.66 664.418   1
  11 -15   8 6229.83 1026.83   3
   4  11   8 6640.61 1098.74   2
 -11  -4   8 4844.14 903.133   1
  -4  15   8 6269.28 940.057   4
  -4  15   8 6010.23 1026.22   2
   5  10  -8 1374.44 401.531   4
   5  10  -5 13691.7 778.431   2
  10 -15  -5 12501.1 1070.39   3
  15 -10  -5 12784.9 1238.41   3
   5  10  -5 13491.1 899.740   4
  -5  15  -5 12755.7 851.724   4
  15 -10  -5 12699.1 926.400   2
 -10  -5  -2 12689.9 654.539   3
  -5  15  -2 12259.5 978.100   2
  15 -10  -2 12956.1 961.034   2
  10 -15  -2 12016.1 864.351   3
  15 -10  -2 12205.8 1065.46   3
 -10  -5  -2 11712.1 813.067   1
   5  10  -2 14409.4 1007.17   4
 -15   5  -2 13984.8 617.881   1
  -5  15  -2 11872.6 919.446   4
   5  10  -2 11192.1 829.264   2
  -5  15  -2 13408.8 775.667   1
  -5  15   1 33228.7 1120.16   3
  10 -15   1 36417.8 1406.87   3
   5  10   1 34896.1 1588.43   2
  15 -10   1 35929.2 1493.31   3
 -10  -5   1 34321.1 1355.00   1
 -10  -5   1 36826.2 1508.99   3
  -5  15   1 35981.2 1641.52   2
 -15   5   1 37012.9 1151.27   1
   5  10   1 35272.6 1601.29   4
  -5  15   1 35866.9 1596.84   4
  -5  15   1 34438.9 1207.79   1
  10 -15   4 13848.4 1096.12   3
  -5  15   4 12707.5 629.978   3
  15 -10   4 12977.6 1016.22   3
  -5  15   4 13651.3 1165.47   2
  10 -15   4 13557.2 578.853   1
 -15   5   4 13739.0 1010.04   1
 -10  -5   4 13109.1 980.865   1
   5  10   4 12334.4 1052.41   4
   5  10   4 12470.3 1172.92   2
  10 -15   4 11381.4 892.368   4
  -5  15   4 11282.4 1010.95   4
  10 -15   7 3679.65 806.848   3
  -5  15   7 2039.88 785.607   2
  15 -10   7 2720.97 704.448   3
   5  10   7 2229.79 671.877   4
  15 -10   7 1678.50 427.747   1
  10 -15   7 1551.99 428.445   1
  -5  15   7 712.197 415.104   3
 -15   5   7 1418.31 660.449   1
   5  10   7 1519.59 717.196   2
  10 -15   7 2929.39 547.465   4
 -10  -5   7 1401.47 721.986   1
  -5  15   7 2307.94 673.105   4
  -5  15  10 1272.61 825.828   2
  15 -10  10 2144.52 797.564   3
  10 -15  10 1561.74 830.068   3
 -10  -5  10 1964.09 856.137   1
  15 -10  10 2102.11 603.731   1
 -15   5  10-396.483 833.216   1
  15 -10  10 730.926 890.010   2
  -5  15  10 3722.89 1144.83   1
  -5  15  10 2895.12 763.755   4
   5  10  10 1920.93 757.803   4
   5  10  10 2099.77 1018.72   2
  10 -15  10 2090.67 648.028   1
  -6  15  -6 5465.60 597.231   4
  15  -9  -6 4850.83 958.127   3
   9 -15  -6 4188.74 702.914   3
   6   9  -6 5275.98 630.137   4
  15  -9  -6 3927.89 608.290   2
  -9  -6  -3 2058.25 276.910   3
  15  -9  -3 3266.34 556.807   2
   6   9  -3 2586.36 444.706   2
   9 -15  -3 1996.47 479.939   3
  -6  15  -3 3043.92 618.736   2
  15  -9  -3 2786.68 770.669   3
  -6  15  -3 2683.00 450.936   1
   6   9  -3 3230.51 568.938   4
  15  -9  -3 2811.24 623.935   1
  -6  15  -3 2670.33 513.129   4
  -6  15   0 6951.89 646.163   3
   9 -15   0 6568.38 624.526   3
  15  -9   0 7014.50 770.529   3
  -6  15   0 7134.79 842.712   2
  -9  -6   0 6498.27 664.434   3
  15  -9   0 6787.31 810.078   2
  -9  -6   0 7856.74 644.000   1
  -6  15   0 6681.65 542.493   1
  -9  -6   0 5841.86 719.538   2
  15  -9   0 7167.48 506.178   1
   6   9   0 6513.57 784.496   4
   6   9   0 6354.44 735.651   2
 -15   6   0 6606.38 510.649   1
  -6  15   0 5718.58 723.442   4
  -6  15   3 4147.84 741.160   2
 -15   6   3 3141.82 561.823   1
   9 -15   3 3575.93 618.865   3
  -6  15   3 2800.60 369.774   3
  15  -9   3 3612.13 636.160   3
  -9  -6   3 2692.84 533.195   1
   6   9   3 3760.99 743.349   2
   6   9   3 2620.23 603.589   4
   9 -15   3 2411.73 570.888   4
  -6  15   3 3226.89 670.024   4
   9 -15   3 3057.23 333.727   1
 -15   6   6 5966.30 901.505   1
   9 -15   6 3608.99 788.406   3
  15  -9   6 4281.94 750.204   3
  -6  15   6 4621.52 548.829   3
  -9  -6   6 4375.18 760.158   1
   9 -15   6 4085.87 614.947   4
   6   9   6 5820.01 946.301   2
   6   9   6 5709.89 852.282   4
  15  -9   6 5838.41 488.788   1
   9 -15   6 5830.70 581.867   1
  15  -9   6 3733.98 323.266   1
  -6  15   6 4910.75 775.756   4
  -6  15   6 6844.41 914.852   2
   9 -15   9 2676.83 631.498   1
   9 -15   9 102.859 712.670   3
  -6  15   9 1224.45 805.918   2
  15  -9   9 2257.92 709.169   3
  15  -9   9 484.733 473.416   1
  -6  15   9 998.657 860.758   1
 -15   6   9 2658.57 976.482   1
   6   9   9 1703.24 892.606   2
  15  -9   9 2341.15 595.479   4
  -9  -6   9 2527.16 796.066   1
   6   9   9 1491.28 632.715   4
  -6  15   9 2417.44 716.202   4
  15  -8  -7 4920.94 500.658   2
   7   8  -7 6232.68 660.135   4
   7   8  -4 13527.1 725.830   2
  -7  15  -4 12464.0 778.601   1
  15  -8  -4 13027.4 883.627   2
   8 -15  -4 13931.1 957.711   3
  -7  15  -4 14851.0 1091.77   2
  15  -8  -4 11860.2 1149.49   3
  -7  15  -4 11175.7 816.742   4
   7   8  -4 13201.0 934.329   4
  -7  15  -1 30202.9 1307.25   3
   8 -15  -1 30179.6 1136.64   3
  -8  -7  -1 32913.5 1012.09   3
  15  -8  -1 29920.7 1488.23   3
  15  -8  -1 32209.3 1436.41   2
   7   8  -1 32750.6 1474.39   4
  15  -8  -1 32752.8 1166.31   1
  -8  -7  -1 31726.8 1232.29   1
   7   8  -1 33713.2 1365.26   2
  -7  15  -1 34792.6 1563.85   2
  -7  15  -1 35123.8 1503.51   4
   8 -15   2 12639.2 929.583   3
  -7  15   2 15775.6 1145.89   2
 -15   7   2 14169.2 821.098   1
  15  -8   2 14070.2 948.962   3
  15  -8   2 10313.4 409.921   1
  -7  15   2 13471.4 747.180   3
   7   8   2 14768.4 1121.20   2
  -8  -7   2 13361.3 1049.77   3
   8 -15   2 13873.3 693.500   1
   7   8   2 14615.3 1081.83   4
   8 -15   2 15155.9 1037.94   4
  -7  15   2 13328.7 1043.04   4
  -8  -7   2 14269.2 904.998   2
  -8  -7   2 14369.1 932.687   1
 -15   7   5 12159.3 1046.69   1
  15  -8   5 9690.66 534.346   1
  -7  15   5 10510.2 720.628   3
  -7  15   5 10001.2 1029.68   2
  15  -8   5 11128.7 954.006   3
  -8  -7   5 8974.87 872.677   1
   7   8   5 9155.80 1096.07   2
   7   8   5 11264.8 1030.39   4
   8 -15   5 9749.06 821.727   4
  15  -8   5 10146.8 425.029   1
  -7  15   5 9916.50 954.671   4
   8 -15   5 11194.1 1075.48   3
   8 -15   5 8667.21 625.853   1
   8 -15   8 5087.43 971.892   3
   8 -15   8 3901.71 630.095   1
   7   8   8 3727.18 429.523   3
  -7  15   8 3161.69 848.229   2
  15  -8   8 4470.55 638.538   1
 -15   7   8 4281.55 952.005   1
  -8  -7   8 4651.25 879.694   1
  15  -8   8 3090.34 703.031   3
  15  -8   8 4525.03 705.167   4
   7   8   8 3861.68 809.132   4
  -7  15   8 3570.38 977.173   1
   7   8   8 4564.26 994.720   2
  -7  15   8 3572.31 721.371   4
   8   7  -8 4909.14 570.461   4
  15  -7  -5 11793.0 766.980   2
   8   7  -5 11223.8 552.821   2
   7 -15  -5 11487.6 861.130   3
   8   7  -5 12824.2 894.720   4
  -8  15  -5 11016.7 804.319   4
  -8  15  -5 10051.0 763.121   1
   7 -15  -2 15094.8 825.718   3
  -8  15  -2 14409.7 1062.77   2
 -15   8  -2 11167.8 389.056   1
  15  -7  -2 16383.3 996.077   2
  -7  -8  -2 12089.7 881.859   1
  15  -7  -2 15739.3 1213.87   3
  -8  15  -2 15355.4 733.792   1
  -7  -8  -2 15717.0 527.813   3
   8   7  -2 14802.5 1028.50   4
   8   7  -2 15158.1 874.496   2
  15  -7  -2 14801.1 946.059   1
  -8  15  -2 13794.2 960.017   4
  15  -7   1 31346.4 884.234   1
  -8  15   1 31689.6 1166.02   3
   7 -15   1 32098.9 1241.49   3
  -8  15   1 37203.6 1646.68   2
  -8  15   1 31339.6 1152.24   1
   8   7   1 32171.9 1508.41   4
 -15   8   1 32907.9 1039.16   1
  15  -7   1 32574.2 1428.95   3
  -7  -8   1 32552.8 1280.11   1
  -7  -8   1 33526.8 1407.40   3
  -7  -8   1 32710.5 1405.90   2
   8   7   1 32263.8 1526.10   2
  -8  15   1 26671.9 1377.37   4
  -7  -8   4 11590.5 721.555   2
   7 -15   4 12138.2 1034.84   3
  -8  15   4 11965.9 1077.64   2
  15  -7   4 13143.3 967.815   3
  -8  15   4 13171.6 821.533   3
   7 -15   4 12491.0 707.361   1
   8   7   4 11230.3 1019.64   4
  -7  -8   4 11602.5 890.505   1
   8   7   4 12450.3 1172.36   2
   7 -15   4 12181.1 912.745   4
   8   7   4 8417.54 392.808   3
  -8  15   4 12061.9 1014.67   4
  15  -7   4 11742.6 469.377   1
 -15   8   4 12100.8 981.935   1
   7 -15   7 7747.23 1015.63   3
  15  -7   7 7310.08 893.031   3
   8   7   7 6106.05 484.237   3
  15  -7   7 4161.39 484.054   1
  -7  -8   7 6461.29 871.908   1
 -15   8   7 7478.10 1088.64   1
  -8  15   7 6515.40 1085.00   1
  15  -7   7 7378.55 834.547   4
  -8  15   7 7522.75 1006.50   2
   7 -15   7 6284.21 626.313   4
   8   7   7 7423.20 923.419   4
   8   7   7 7194.63 1116.69   2
   7 -15   7 7341.95 727.098   1
  -8  15   7 6966.30 906.065   4
  15  -7   7 7333.24 679.399   1
   8   7  10 7623.91 1290.95   2
  15  -7  10 5629.83 955.169   3
  -8  15  10 6113.81 1031.70   2
   7 -15  10 5898.59 887.163   1
  15  -7  10 7330.59 1325.33   2
  -8  15  10 5941.23 1396.90   1
   7 -15  10 7572.14 1381.98   3
   8   7  10 7190.56 987.124   4
  15  -7  10 7454.31 906.518   1
  -7  -8  10 5348.71 1014.44   1
  -8  15  10 7381.29 1020.09   4
 -15   8  10 10554.9 1478.41   1
  -9  15  -6 4190.40 625.627   1
   9   6  -6 5853.88 698.177   4
  15  -6  -6 4404.12 447.600   2
  15  -6  -3 3536.01 532.408   2
  -9  15  -3 4337.72 430.810   1
   6 -15  -3 4030.69 515.840   3
  15  -6  -3 3625.73 791.826   3
  -9  15  -3 3133.68 657.197   2
   9   6  -3 4526.86 670.711   4
   9   6  -3 3756.50 472.491   2
  -9  15  -3 3773.35 601.347   4
  -9  15   0 7040.18 689.276   3
   6 -15   0 7789.90 611.239   3
  -9  15   0 5556.01 744.450   2
  -6  -9   0 6328.93 594.976   3
  15  -6   0 6834.74 802.986   3
 -15   9   0 7578.22 449.262   1
  15  -6   0 6831.15 569.253   1
   9   6   0 7770.25 836.117   4
  -6  -9   0 7208.31 797.313   2
  -6  -9   0 7749.56 682.854   1
  -9  15   0 7140.59 796.055   4
  -9  15   0 7353.00 523.278   1
   9   6   0 8212.99 815.113   2
   9   6   3 2777.43 677.489   2
   6 -15   3 4734.00 676.799   3
  -9  15   3 3135.54 495.133   3
 -15   9   3 2707.42 541.398   1
  -9  15   3 3237.72 669.342   2
   9   6   3 3243.64 379.835   3
  -6  -9   3 2266.81 472.218   2
   6 -15   3 3561.16 426.966   1
  -6  -9   3 2562.58 508.362   1
  15  -6   3 2691.00 296.066   1
  -6  -9   3 3662.71 658.835   4
   9   6   3 2770.56 659.049   4
   6 -15   3 3446.23 597.042   4
  15  -6   3 2044.94 495.363   3
  -9  15   3 2805.09 623.142   4
   6 -15   6 5831.31 660.933   1
  -9  15   6 6895.92 886.170   2
  15  -6   6 6931.85 795.206   3
   9   6   6 5098.28 443.423   3
   9   6   6 6507.05 1035.59   2
   6 -15   6 5392.30 663.802   4
  15  -6   6 8187.62 891.747   4
 -15   9   6 6594.67 995.994   1
  -9  15   6 3849.82 645.246   3
  -6  -9   6 4479.59 728.512   1
  15  -6   6 5247.95 630.130   1
  -6  -9   6 3684.80 341.102   2
   9   6   6 6685.12 855.494   4
  15  -6   6 5091.67 455.846   1
   6 -15   6 5206.57 909.141   3
  -9  15   6 5570.72 835.993   4
   6 -15   9 844.669 793.867   3
   6 -15   9 28.0246 540.243   1
  15  -6   9-334.302 547.107   3
   9   6   9 973.314 455.194   3
  -9  15   9 440.048 657.770   2
 -15   9   9 756.129 823.170   1
  15  -6   9 507.182 805.538   2
  15  -6   9 68.9877 477.363   4
  -9  15   9 944.723 984.884   1
   9   6   9-70.4341 580.558   4
   9   6   9 536.088 812.594   2
  -6  -9   9 59.2336 716.354   1
  15  -6   9 577.899 574.576   1
  -9  15   9 851.629 635.771   4
  10   5  -7 2618.98 549.559   4
 -10  15  -7 1703.23 563.888   1
  15  -5  -4 13637.1 764.127   2
   5 -15  -4 11355.0 685.224   3
  15  -5  -4 12384.2 1203.16   3
  10   5  -4 12945.6 970.420   4
  10   5  -4 14111.0 665.619   2
 -10  15  -4 11471.0 615.440   1
 -10  15  -4 14035.0 937.997   4
   5 -15  -1 37550.7 1102.09   3
 -15  10  -1 39144.8 697.285   1
 -10  15  -1 40231.1 960.913   1
 -10  15  -1 36336.1 1649.06   2
  15  -5  -1 36677.5 1686.84   3
  -5 -10  -1 38325.0 1017.88   3
  -5 -10  -1 37137.1 1384.45   1
  10   5  -1 36570.6 1592.61   4
  10   5  -1 39296.9 1483.90   2
  15  -5  -1 37382.8 1322.40   1
 -10  15  -1 40062.9 1607.10   4
   5 -15   2 12075.6 886.134   3
 -10  15   2 10041.4 756.951   3
  15  -5   2 11165.0 873.143   3
  -5 -10   2 12079.7 906.268   2
  10   5   2 11106.7 704.407   3
  15  -5   2 10545.6 558.127   1
 -10  15   2 12737.7 1053.17   2
  10   5   2 13241.7 1097.07   2
  10   5   2 13539.2 1040.71   4
  -5 -10   2 10017.5 838.509   1
 -10  15   2 13471.8 1040.13   4
   5 -15   2 12678.1 741.532   1
 -15  10   2 12659.3 801.878   1
   5 -15   2 9510.35 868.224   4
   5 -15   5 16613.6 1274.48   3
 -10  15   5 14764.5 1221.96   2
  10   5   5 12797.8 1257.38   2
 -10  15   5 10782.9 875.966   3
  10   5   5 15377.1 724.935   3
  15  -5   5 10959.2 575.393   1
  15  -5   5 14507.2 1003.49   3
   5 -15   5 12064.1 901.984   4
  10   5   5 12608.9 1046.06   4
  -5 -10   5 11680.7 957.625   1
  -5 -10   5 11842.4 740.666   2
 -10  15   5 15216.4 1164.09   4
 -15  10   5 11089.8 1050.66   1
   5 -15   5 11644.2 812.304   1
  -5 -10   8 945.437 671.835   1
   5 -15   8 1636.50 773.471   3
  10   5   8 2396.24 503.583   3
   5 -15   8 2069.87 624.391   1
 -15  10   8 1549.82 813.624   1
 -10  15   8 3324.89 966.551   1
  15  -5   8 2309.46 593.958   3
 -10  15   8 989.359 611.751   2
  15  -5   8 2248.18 875.483   2
  10   5   8 1794.73 636.471   4
  15  -5   8 1641.57 576.464   4
 -10  15   8 2377.78 717.882   4
  10   5   8 2591.43 948.949   2
  15  -5   8 1214.42 595.186   1
  11   4  -8 5782.74 664.976   4
 -11  15  -5 24752.2 929.468   1
  15  -4  -5 28736.2 952.176   2
  15  -4  -5 25908.2 1739.47   3
  11   4  -5 29732.8 1388.59   4
  11   4  -2 7423.62 807.309   4
  15  -4  -2 8820.25 787.018   1
   4 -15  -2 8468.28 534.256   3
 -11  15  -2 6693.84 842.488   2
  15  -4  -2 8534.09 968.456   3
 -11  15  -2 9033.03 464.232   1
  11   4  -2 8081.77 697.865   2
 -11  15  -2 8262.99 817.714   4
   4 -15   1 6133.89 654.656   3
 -11  15   1 5168.33 623.588   3
 -11  15   1 6381.27 847.828   2
  15  -4   1 6423.13 761.222   3
  15  -4   1 5353.03 502.637   1
   4 -15   1 5074.78 556.740   1
  11   4   1 4551.78 607.792   3
  -4 -11   1 6296.65 597.528   1
  11   4   1 5024.67 746.626   4
  -4 -11   1 6585.44 812.364   2
  11   4   1 4796.00 720.012   2
 -15  11   1 6291.45 535.357   1
 -11  15   1 5927.99 782.508   4
   4 -15   4 13750.2 1130.80   3
  11   4   4 15737.0 1303.50   2
  11   4   4 14740.9 777.123   3
 -11  15   4 15544.3 1172.41   2
 -15  11   4 14118.3 1015.84   2
  -4 -11   4 16011.2 1103.49   4
  11   4   4 14052.6 1087.70   4
 -11  15   4 14688.5 978.668   3
   4 -15   4 15036.5 1014.87   4
  -4 -11   4 13304.9 875.745   2
 -15  11   4 16482.6 1122.31   1
  -4 -11   4 12528.5 919.770   1
  15  -4   4 14379.5 977.039   3
 -11  15   4 14439.7 1135.06   4
   4 -15   7 13309.7 1336.52   3
 -11  15   7 10756.7 1106.89   2
  15  -4   7 12893.8 1032.27   3
  11   4   7 13157.8 828.076   3
  11   4   7 11405.0 1333.74   2
 -15  11   7 9526.88 832.933   2
  15  -4   7 12554.3 1319.82   2
  -4 -11   7 7069.54 493.410   2
  -4 -11   7 12417.8 1089.07   1
  15  -4   7 13472.8 1102.18   4
 -11  15   7 14420.3 1204.16   4
 -11  15   7 13338.8 1411.80   1
   4 -15   7 11998.4 990.101   1
 -15  11   7 12598.2 1295.70   1
  11   4   7 12337.0 1129.07   4
   4 -15   7 10211.7 777.793   4
   4 -15  10 8586.95 1364.78   3
 -11  15  10 6956.45 1030.46   2
  15  -4  10 6890.73 961.147   3
  11   4  10 9567.20 1406.80   2
  11   4  10 5934.74 933.890   4
 -15  11  10 9007.06 1400.94   1
  -4 -11  10 6801.64 1090.67   1
  15  -4  10 6777.33 1048.89   1
   4 -15  10 7461.51 991.322   1
  11   4  10 9083.29 1285.71   1
  15  -4  10 11111.0 1522.59   2
 -11  15  10 9145.16 1563.66   1
  12   3  -9-113.710 431.112   4
  12   3  -6 1650.60 505.726   4
  12   3  -3 5687.25 760.920   4
   3 -15  -3 6902.78 462.418   3
  15  -3  -3 7117.85 1015.63   3
  15  -3  -3 6044.14 632.570   2
  12   3  -3 7343.95 616.667   2
 -12  15  -3 4788.52 311.694   1
 -12  15  -3 8740.68 831.497   4
  -3 -12   0 10281.5 780.782   1
  12   3   0 9375.72 883.449   2
   3 -15   0 9790.12 663.245   3
  15  -3   0 7177.90 635.375   1
 -12  15   0 9268.97 941.242   2
  15  -3   0 8182.89 845.194   3
  12   3   0 8990.74 851.331   3
  12   3   0 9398.40 954.745   4
 -12  15   0 9031.49 547.058   1
 -12  15   0 9927.88 922.866   4
 -15  12   0 9731.60 491.519   1
  -3 -12   3 1213.16 470.118   1
 -15  12   3 179.317 434.721   1
   3 -15   3 153.823 427.004   3
  15  -3   3 763.685 415.711   3
 -12  15   3-41.2142 480.192   2
  12   3   3 624.358 371.498   3
 -15  12   3 302.750 459.400   2
  15  -3   3 594.971 289.844   1
  12   3   3 824.582 613.245   2
   3 -15   3 425.855 462.874   4
   3 -15   3 182.551 338.035   1
  12   3   3 1239.22 542.534   4
  -3 -12   3 565.156 450.659   2
 -12  15   3 1078.38 554.310   4
   3 -15   6 6530.39 1025.78   3
 -15  12   6 4952.78 875.777   1
  15  -3   6 5311.97 686.931   3
  12   3   6 5701.56 593.040   3
  12   3   6 5144.15 941.522   2
 -12  15   6 4549.65 766.582   2
  15  -3   6 6138.43 837.635   4
 -15  12   6 5069.69 709.603   2
   3 -15   6 3607.21 631.262   4
 -12  15   6 5293.72 919.969   1
  -3 -12   6 6424.31 806.639   1
  15  -3   6 6091.01 588.624   1
  12   3   6 4225.01 727.194   4
  -3 -12   6 4013.79 574.908   2
   3 -15   6 5807.34 733.682   1
  15  -3   6 6591.95 1002.94   2
 -12  15   6 5776.70 865.667   4
  15  -3   9 865.378 899.025   2
  -3 -12   9-145.351 699.052   1
 -15  12   9 694.966 869.052   1
   3 -15   9 1121.42 690.216   1
  15  -3   9 512.031 535.625   3
  12   3   9 359.074 466.625   3
 -12  15   9 8.86399 606.135   2
 -15  12   9-310.376 489.790   2
  15  -3   9 1215.41 638.449   4
  12   3   9 158.986 604.546   4
   3 -15   9-457.502 787.149   3
  12   3   9 1023.76 822.141   2
  15  -3   9 598.751 605.940   1
 -12  15   9-795.654 925.447   1
  13   2  -7 8215.38 856.222   4
  15  -2  -4 6602.53 557.066   2
  15  -2  -4 6718.25 984.890   3
  15  -2  -4 6013.60 539.021   2
  13   2  -4 6940.58 818.133   4
  13   2  -4 6384.86 511.085   2
  -2 -13  -1 16628.2 653.307   3
  15  -2  -1 14469.5 934.747   1
   2 -15  -1 14314.7 643.394   3
  15  -2  -1 14647.6 1179.00   3
  -2 -13  -1 12930.1 915.872   1
 -13  15  -1 13054.9 1099.53   2
  13   2  -1 13203.6 1055.77   3
 -13  15  -1 12107.9 478.258   1
  13   2  -1 14087.9 1107.19   4
  13   2  -1 12563.5 942.859   2
 -15  13  -1 10800.7 332.518   1
 -13  15  -1 13783.5 1065.53   4
 -13  15   2 2979.64 649.267   4
 -15  13   2 2488.49 510.799   1
   2 -15   2 3075.02 562.360   3
  15  -2   2 2518.56 410.547   1
  15  -2   2 3637.96 625.354   3
  13   2   2 3534.68 595.480   3
  13   2   2 3331.58 706.195   2
  13   2   2 3086.96 634.198   4
 -13  15   2 3305.96 672.434   2
 -15  13   2 2655.82 646.865   2
 -13  15   2 3166.95 542.105   1
   2 -15   2 2926.04 471.715   1
  -2 -13   2 3041.46 503.847   1
  -2 -13   2 2656.36 619.006   2
  13   2   2 2575.33 467.045   1
 -15  13   5 2364.77 718.448   1
   2 -15   5 1697.36 578.313   2
   2 -15   5 975.619 569.599   3
  15  -2   5 1907.01 475.064   3
  13   2   5 2450.57 487.647   3
  15  -2   5 2019.14 707.420   2
 -13  15   5 1114.36 590.968   2
  13   2   5 2370.81 627.880   4
 -15  13   5 1993.21 584.064   2
  -2 -13   5 1283.95 540.703   1
  -2 -13   5 1792.23 587.431   4
  15  -2   5 718.200 534.703   4
 -13  15   5 3098.75 770.423   1
   2 -15   5 1685.93 556.219   4
   2 -15   5 1795.45 501.298   1
  13   2   5 2574.47 798.748   2
 -13  15   5 1854.99 675.734   4
  15  -2   5 1233.96 380.440   1
  -2 -13   5 1378.75 516.205   2
  13   2   8 2032.00 677.017   4
   2 -15   8 1396.49 892.433   3
 -15  13   8 2997.14 954.371   1
  -2 -13   8 830.464 561.088   1
  15  -2   8 1875.77 567.565   3
  13   2   8 1399.95 475.316   3
   2 -15   8 1177.96 595.031   1
 -13  15   8 1802.35 664.532   2
 -15  13   8 1809.75 588.333   2
  15  -2   8 1335.55 556.883   4
  15  -2   8 1795.38 856.100   2
  13   2   8 2425.61 904.513   2
 -13  15   8 1242.87 884.197   1
  15  -1  -8 3913.41 722.571   4
  14   1  -8 4442.08 728.792   4
  15  -1  -5 15299.6 635.086   2
  14   1  -5 12846.7 529.141   2
  14   1  -5 15168.0 1156.69   4
  15  -1  -5 12675.8 578.351   2
  14   1  -5 11816.8 511.260   2
  -1 -14  -2 8849.35 346.146   3
   1 -15  -2 11168.7 483.207   3
  15  -1  -2 11487.1 1120.28   3
  14   1  -2 10038.0 1040.40   3
  15  -1  -2 10146.1 817.176   2
  14   1  -2 11092.8 1018.73   4
  14   1  -2 9789.67 802.131   2
   1 -15   1 20606.3 1052.05   1
   1 -15   1 18111.7 986.055   3
  15  -1   1 19465.9 1208.57   3
 -14  15   1 17964.6 1261.06   2
  14   1   1 17009.4 1118.95   3
 -15  14   1 17598.1 1232.73   2
  15  -1   1 16935.6 872.804   1
  14   1   1 19302.6 1317.16   4
  14   1   1 16044.9 907.077   1
  15  -1   1 18602.8 1284.61   2
  14   1   1 16054.0 1194.72   2
 -14  15   1 16798.5 883.708   1
 -15  14   1 19566.8 896.138   1
  -1 -14   1 19220.7 1029.04   1
 -14  15   1 21062.1 1312.32   4
   1 -15   4 14512.7 1011.00   1
 -15  14   4 12777.6 1107.12   1
 -14  15   4 13412.4 1123.01   2
  15  -1   4 12397.7 919.146   3
  14   1   4 12705.7 896.736   3
 -15  14   4 11388.3 1008.36   2
  14   1   4 12253.0 1080.30   4
  15  -1   4 12685.6 1211.64   2
  15  -1   4 10218.8 1029.33   4
  14   1   4 11478.3 1179.80   2
 -14  15   4 13664.9 1089.06   1
  -1 -14   4 10993.0 943.510   2
  -1 -14   4 12782.5 975.960   1
 -14  15   4 13814.9 1139.69   4
  15  -1   7 10378.2 894.442   3
  14   1   7 10465.8 847.470   3
 -14  15   7 9122.62 985.112   2
 -15  14   7 9500.20 941.401   2
  14   1   7 10435.6 1309.83   2
  15  -1   7 7593.89 1110.68   2
  15  -1   7 8785.56 1012.65   4
  14   1   7 11851.2 1132.94   4
  -1 -14   7 9699.88 1003.39   1
   1 -15   7 8305.66 888.137   1
 -15  14   7 9929.16 1209.30   1
   1 -15  10 683.335 961.882   3
 -14  15  10 561.003 958.898   1
  14   1  10 2676.54 917.798   1
 -15  14  10 2034.34 1120.94   1
  -1 -14  10-43.0704 719.422   1
   1 -15  10 1909.98 829.954   1
  15  -1  10 2941.65 726.229   3
  14   1  10 1983.85 653.793   3
  15  -1  10 2785.68 1064.39   2
  14   1  10 2464.97 1039.57   2
  15  -1  10 376.218 710.163   1
  15   0  -9 211.556 531.636   4
  15   0  -6 19341.1 1320.80   4
  15   0  -3 277.609 386.020   2
  15   0  -3 839.335 652.926   3
   0 -15   0 25469.1 1027.40   3
 -15  15   0 22878.0 1368.09   4
  15   0   0 21584.6 1350.34   3
 -15  15   0 20441.6 1355.37   2
   0 -15   0 21936.0 1145.85   1
  15   0   0 22678.4 1413.82   4
  15   0   0 23368.1 1349.97   2
 -15  15   0 23357.8 839.666   1
  15   0   3 653.434 540.767   4
  15   0   3 1404.58 710.523   2
   0 -15   3 337.534 421.858   1
  15   0   3 573.730 491.203   3
 -15  15   3 259.114 482.004   2
 -15  15   3 573.433 472.892   4
  15   0   3 232.743 381.394   1
 -15  15   3 332.624 472.019   1
  15   0   6 6990.66 725.305   3
  15   0   6 6969.40 933.206   4
 -15  15   6 7989.28 914.792   2
  15   0   6 6622.40 1130.83   2
   0 -15   6 6866.68 850.009   4
 -15  15   6 8390.57 1101.75   1
   0 -15   6 8245.55 887.860   1
   0 -15   6 5361.42 783.427   2
  15   0   9 571.013 676.440   4
 -15  15   9-58.7042 887.005   1
   0 -15   9 427.956 672.056   1
  15   0   9-314.302 471.728   3
 -15  15   9 422.963 606.843   2
  15   0   9-526.088 878.931   2
  16 -16  -7-89.1948 774.928   3
   0  16  -7 891.747 502.222   4
   0  16  -4 15237.6 1129.82   2
  16 -16  -4 13781.5 1309.18   3
   0  16  -4 18017.9 1183.37   4
 -16   0  -1 135.454 400.162   1
   0  16  -1 356.234 516.684   2
  16 -16  -1 221.651 464.994   3
   0  16  -1 915.647 590.569   4
  16 -16   2 28029.1 1496.05   3
   0  16   2 31073.0 1682.13   4
 -16   0   2 30402.1 1323.70   1
   0  16   2 29396.7 1677.39   2
   0  16   5-323.137 621.542   2
  16 -16   5-378.541 552.592   3
 -16   0   5 302.467 518.427   1
  16 -16   8 18828.2 1631.13   3
 -16   0   8 23228.5 1692.59   1
   0  16   8 24291.3 1680.98   4
   0  16   8 20911.3 1789.75   2
   1  15  -8 1721.14 479.186   4
  -1  16  -8 1908.89 483.318   4
 -15  -1  -5 1692.14 491.512   3
   1  15  -5 1871.94 550.795   4
   1  15  -5 2276.07 611.931   2
  -1  16  -5 2386.30 639.656   2
  15 -16  -5 1511.70 775.507   3
  16 -15  -5 1967.33 743.506   3
  -1  16  -5 1961.52 550.127   4
 -16   1  -2 1798.55 433.927   1
   1  15  -2 2688.83 608.328   2
 -15  -1  -2 1557.75 462.280   3
 -15  -1  -2 1327.80 440.928   1
  -1  16  -2 1668.21 580.183   2
  15 -16  -2 1544.75 570.993   3
  16 -15  -2 1535.37 588.833   3
   1  15  -2 1431.34 538.355   4
  -1  16  -2 924.574 546.682   4
  16 -15   1 12635.1 997.491   3
  15 -16   1 9365.51 921.418   3
   1  15   1 13861.3 1159.68   4
  -1  16   1 12782.7 1134.49   4
 -16   1   1 11007.6 797.493   1
   1  15   1 12111.4 1103.73   2
 -15  -1   1 11905.6 852.534   1
  -1  16   1 12488.3 1133.18   2
   1  15   4-110.334 578.305   2
 -15  -1   4 138.231 461.161   1
  -1  16   4 1563.73 723.504   2
  15 -16   4 825.906 551.891   3
  16 -15   4 1215.00 617.088   3
   1  15   4 1417.09 591.574   4
  -1  16   4 474.871 522.113   4
 -16   1   4 935.677 500.352   1
  -1  16   7 1814.80 857.705   2
  15 -16   7 2215.76 787.791   3
  16 -15   7 1827.33 731.738   3
   1  15   7 1805.02 849.934   2
 -15  -1   7 3157.05 796.004   1
 -16   1   7 1868.83 745.076   1
   1  15   7 1961.81 769.044   4
  -1  16   7 3368.26 770.199   4
  16 -15   7 1371.86 187.034   1
  15 -16   7 2049.91 278.586   1
   2  14  -6 5364.19 724.462   2
  14 -16  -6 3936.52 894.253   3
  16 -14  -6 4009.27 963.843   3
   2  14  -6 3982.54 632.890   4
  -2  16  -6 4047.81 640.001   4
   2  14  -3 13600.2 991.192   2
 -14  -2  -3 13381.3 808.292   3
  -2  16  -3 14898.2 1118.32   2
  14 -16  -3 12728.6 1095.16   3
  16 -14  -3 11964.8 1143.81   3
   2  14  -3 14105.0 1064.61   4
  -2  16  -3 14904.7 1076.50   4
 -16   2   0 2725.99 518.310   1
  -2  16   0 2825.51 664.104   4
  -2  16   0 2466.14 656.841   2
  14 -16   0 2911.27 563.173   3
   2  14   0 2392.90 649.532   2
  16 -14   0 2023.30 573.158   3
   2  14   0 3070.52 642.229   4
 -14  -2   0 2424.95 545.254   3
 -14  -2   0 2277.24 489.183   1
  14 -16   3 17300.4 1202.91   3
  16 -14   3 18409.7 1236.09   3
 -16   2   3 17212.1 1053.02   1
 -14  -2   3 18584.9 1114.68   1
   2  14   3 20782.5 1379.93   4
  -2  16   3 21041.4 1382.27   4
   2  14   3 17893.5 1372.56   2
  -2  16   3 17745.9 1345.19   2
   2  14   6 4036.85 959.515   2
  -2  16   6 1662.51 709.929   2
  14 -16   6 1612.05 625.843   3
  16 -14   6 650.506 562.874   3
 -16   2   6 2811.96 754.809   1
   2  14   6 3278.90 783.514   4
  -2  16   6 1804.05 671.570   4
 -14  -2   6 2030.07 722.389   1
  14 -16   6 989.289 172.847   1
   2  14   9 2670.81 947.260   2
  -2  16   9 2626.84 963.518   2
  14 -16   9 3672.48 939.696   3
  16 -14   9 4696.04 972.752   3
   2  14   9 2190.34 730.545   4
 -16   2   9 3130.20 929.793   1
 -14  -2   9 3223.67 923.931   1
  -2  16   9 2716.49 809.373   4
  16 -13  -7 1876.55 813.442   3
   3  13  -7 2652.20 548.742   4
  -3  16  -7 1585.60 464.845   4
 -13  -3  -4 31079.6 1098.55   3
   3  13  -4 31324.5 1359.99   2
  -3  16  -4 32603.7 1572.13   2
  13 -16  -4 34983.5 1728.76   3
  16 -13  -4 29288.9 1731.70   3
   3  13  -4 34580.1 1497.82   4
  -3  16  -4 32199.9 1447.86   4
   3  13  -1 536.345 430.126   2
  -3  16  -1 1160.84 561.133   2
 -13  -3  -1 1053.46 394.107   1
 -13  -3  -1 1127.16 401.147   3
  13 -16  -1 795.140 468.285   3
  16 -13  -1 1306.54 557.655   3
 -16   3  -1 1207.78 360.636   1
   3  13  -1 1474.12 526.535   4
  -3  16  -1 1530.04 573.485   4
  13 -16   2 38126.3 1602.39   3
  16 -13   2 39455.4 1665.65   3
 -16   3   2 38444.1 1377.27   1
   3  13   2 40002.6 1888.22   2
   3  13   2 40638.3 1832.82   4
  -3  16   2 34214.4 1730.75   2
 -13  -3   2 39556.1 1476.54   1
  -3  16   2 39797.9 1800.83   4
   3  13   5 2169.11 796.038   2
  -3  16   5 1200.12 183.602   3
  -3  16   5 3488.29 852.825   2
  13 -16   5 1172.06 569.502   3
 -16   3   5 1054.95 545.367   1
 -13  -3   5 1815.20 596.241   1
  16 -13   5 2623.00 688.101   3
  13 -16   5 1539.13 204.563   1
   3  13   5 1503.52 657.204   4
  -3  16   5 1404.28 641.389   4
  13 -16   8 15909.0 1493.17   3
  16 -13   8 13309.1 1271.75   3
  -3  16   8 16264.7 1349.35   4
 -16   3   8 17441.4 1516.80   1
  16 -13   8 15410.2 748.516   1
   3  13   8 13831.8 1521.59   2
 -13  -3   8 16075.5 1374.88   1
  13 -16   8 15384.7 864.664   1
   3  13   8 15934.3 1383.09   4
  -3  16   8 14811.7 1447.15   2
   4  12  -8 851.124 398.321   4
  -4  16  -8-93.5910 338.745   4
   4  12  -5 7128.25 756.299   4
   4  12  -5 8573.20 732.265   2
  -4  16  -5 8283.88 887.226   2
  12 -16  -5 9066.22 1005.08   3
  16 -12  -5 6215.07 1031.47   3
  -4  16  -5 7615.48 762.365   4
  16 -12  -5 7363.37 855.606   2
  -4  16  -2 3922.75 540.197   1
 -12  -4  -2 5985.90 554.989   3
  12 -16  -2 5244.01 705.417   3
 -12  -4  -2 6177.48 667.076   1
  16 -12  -2 5097.30 792.497   3
  -4  16  -2 2351.37 589.547   2
   4  12  -2 6194.97 758.043   4
  -4  16  -2 5093.53 723.214   4
 -16   4  -2 3792.10 435.427   1
   4  12  -2 5440.96 690.414   2
  -4  16   1 14729.3 1166.49   2
 -12  -4   1 15432.0 976.983   1
  12 -16   1 14671.7 978.851   3
  16 -12   1 14688.6 1045.27   3
 -12  -4   1 13415.4 998.255   3
 -16   4   1 15131.2 815.477   1
  -4  16   1 15783.7 1175.74   4
   4  12   1 14789.8 1137.44   4
   4  12   1 15136.6 1133.87   2
  -4  16   4 3034.23 314.665   3
  12 -16   4 4054.11 699.298   3
  16 -12   4 4318.29 722.348   3
  -4  16   4 3737.38 799.879   2
 -12  -4   4 2864.04 623.672   1
 -16   4   4 4533.59 729.378   1
  12 -16   4 2762.05 283.039   1
   4  12   4 4590.49 781.082   4
  -4  16   4 4568.86 737.266   4
   4  12   4 2808.67 724.410   2
  12 -16   7 8465.30 1063.85   3
  16 -12   7 8048.74 503.396   1
  16 -12   7 8698.04 1045.39   3
 -16   4   7 7149.31 1054.09   1
 -12  -4   7 8250.24 1036.81   1
  12 -16   7 8085.34 616.638   1
   4  12   7 6735.68 980.215   4
   4  12   7 5150.20 1060.55   2
  -4  16   7 8634.04 1011.72   4
  -4  16   7 9404.61 1171.51   2
   4  12  10 2407.53 1032.75   2
  -4  16  10 147.619 781.120   2
  16 -12  10 437.299 729.337   3
 -16   4  10 2398.87 1052.39   1
  12 -16  10 2481.70 900.735   3
 -12  -4  10 2722.94 958.759   1
  -4  16  10 2243.52 1091.03   1
   4  12  10 1094.51 676.619   4
  -4  16  10 1125.12 697.992   4
  16 -11  -6 2400.08 661.850   2
   5  11  -6 1945.74 519.176   4
   5  11  -6 2384.20 432.878   2
  -5  16  -6 2180.61 471.418   4
  11 -16  -6 4024.08 782.567   3
  16 -11  -6 2398.45 794.071   3
   5  11  -3 2115.02 494.628   2
 -11  -5  -3 1611.27 309.646   3
  16 -11  -3 1717.55 537.797   2
  11 -16  -3 1709.86 550.609   3
  -5  16  -3 1998.25 578.802   2
  16 -11  -3 838.437 586.973   3
   5  11  -3 2004.32 554.496   4
  -5  16  -3 362.205 418.924   4
  -5  16  -3 2095.58 500.235   1
  -5  16   0 372.577 298.520   1
  11 -16   0 1508.59 433.286   3
  -5  16   0 1297.38 536.071   2
  16 -11   0 407.861 464.199   3
 -11  -5   0 1052.39 417.932   3
 -16   5   0 613.632 333.036   1
   5  11   0 1844.02 535.913   2
   5  11   0 1261.40 593.280   4
 -11  -5   0 1103.25 412.264   1
  -5  16   0 1207.30 546.267   4
  -5  16   3 2968.81 383.145   3
  11 -16   3 5310.52 745.727   3
  16 -11   3 3999.30 657.846   3
  -5  16   3 3886.36 727.820   2
 -16   5   3 3926.08 624.556   1
 -11  -5   3 3047.00 558.558   1
  -5  16   3 3207.69 715.542   4
   5  11   3 3728.98 695.809   4
   5  11   3 3475.38 759.178   2
  11 -16   6-971.347 599.483   3
  -5  16   6-169.514 605.779   2
  16 -11   6 638.872 576.575   3
  -5  16   6 304.293 330.779   3
   5  11   6-72.8283 530.060   4
  16 -11   6-80.6899 193.025   1
 -16   5   6 79.3772 582.932   1
  16 -11   6 166.197 95.7438   1
  11 -16   6 299.868 317.493   1
  11 -16   6 439.974 488.495   4
  -5  16   6 275.401 588.039   4
   5  11   6 159.852 623.816   2
 -11  -5   6-553.697 591.578   1
  11 -16   9 3524.56 1000.74   3
  -5  16   9 3893.18 951.353   2
  16 -11   9 3199.53 852.118   3
   5  11   9 5085.95 1104.97   2
 -16   5   9 4375.22 984.907   1
  11 -16   9 3056.30 670.547   1
  16 -11   9 2989.70 613.522   4
   5  11   9 3319.00 819.468   4
  -5  16   9 3545.47 1088.82   1
 -11  -5   9 3519.25 867.051   1
  -5  16   9 2997.80 790.222   4
  16 -10  -7 944.282 483.640   2
   6  10  -7 1441.09 492.141   4
  -6  16  -7 859.107 419.197   4
 -10  -6  -4 20201.6 693.909   3
   6  10  -4 23703.0 1043.62   2
  16 -10  -4 21315.3 1169.25   2
  -6  16  -4 23414.5 1153.41   1
   6  10  -4 22916.9 1233.20   4
  -6  16  -4 20120.2 1285.14   2
  10 -16  -4 22259.7 1273.34   3
  16 -10  -4 20085.5 1463.10   3
  -6  16  -4 21389.5 1172.83   4
   6  10  -1 879.746 486.763   2
 -16   6  -1 864.024 324.497   1
  10 -16  -1 341.423 342.742   3
 -10  -6  -1 1064.27 360.947   3
  -6  16  -1 1460.51 558.686   2
  16 -10  -1 1337.95 610.050   3
   6  10  -1 1618.85 531.854   4
  16 -10  -1 1243.59 395.059   1
 -10  -6  -1 1752.51 457.543   1
  -6  16  -1 1735.35 576.074   4
  -6  16  -1 1006.12 377.069   1
  -6  16   2 12543.7 721.534   3
  -6  16   2 10606.1 1007.94   2
  16 -10   2 13519.4 1005.51   3
  10 -16   2 12434.3 938.372   3
 -16   6   2 13840.3 835.842   1
 -10  -6   2 13616.5 920.993   1
   6  10   2 13754.1 1105.25   4
  -6  16   2 14722.7 1141.02   4
   6  10   2 12387.4 1089.26   2
  10 -16   5 5644.88 862.185   3
 -16   6   5 5429.91 789.109   1
  -6  16   5 3805.60 478.408   3
  10 -16   5 3769.40 422.978   1
 -10  -6   5 3929.07 711.459   1
  16 -10   5 3005.23 174.293   1
   6  10   5 3833.37 759.236   4
   6  10   5 4620.65 885.252   2
  10 -16   5 4048.65 689.701   4
  -6  16   5 4646.27 769.797   4
  -6  16   5 5927.16 928.323   2
  16 -10   5 2516.17 213.805   1
  16 -10   5 4489.47 739.920   3
  10 -16   8 14272.0 1407.87   3
 -16   6   8 10881.3 1280.12   1
  10 -16   8 13528.2 940.342   1
 -10  -6   8 12596.0 1240.37   1
  16 -10   8 11249.6 983.016   4
   6  10   8 13894.5 1256.17   4
   6  10   8 12035.2 1404.37   2
  16 -10   8 12839.5 1219.49   3
  -6  16   8 13343.4 1209.23   4
  16 -10   8 12483.2 811.042   1
  -6  16   8 15272.1 1415.47   2
   7   9  -8 3692.13 538.948   4
   7   9  -5 13632.9 739.141   2
   9 -16  -5 13574.5 1004.07   3
  16  -9  -5 14092.8 1349.02   3
   7   9  -5 13640.6 945.968   4
  16  -9  -5 14204.8 957.715   2
  -7  16  -5 14130.5 942.918   4
  -7  16  -5 11570.9 869.929   1
  -9  -7  -2 21754.1 749.329   3
  -7  16  -2 17419.1 1183.42   2
   9 -16  -2 18661.4 1000.37   3
  16  -9  -2 16983.1 1076.44   2
  16  -9  -2 18232.9 1281.35   3
   7   9  -2 19203.7 1179.76   4
  -9  -7  -2 19947.9 1089.44   1
  -7  16  -2 17497.5 854.012   1
   7   9  -2 19120.7 1059.97   2
  -7  16  -2 19157.5 1159.58   4
 -16   7  -2 20722.6 656.697   1
  16  -9  -2 18854.5 1057.61   1
  -7  16   1 5229.36 587.332   3
  -7  16   1 5279.57 830.394   2
   9 -16   1 5027.91 621.675   3
  -7  16   1 4821.67 530.857   1
  -9  -7   1 5703.10 666.856   1
 -16   7   1 6766.40 543.772   1
  -7  16   1 7126.18 836.302   4
  -9  -7   1 5751.66 722.837   3
  -9  -7   1 6253.51 734.267   2
   7   9   1 5684.11 769.133   4
  16  -9   1 5687.96 399.358   1
   7   9   1 6625.95 811.253   2
  16  -9   1 6383.18 763.618   3
  -7  16   4 7259.16 937.061   2
   9 -16   4 6551.55 800.704   3
 -16   7   4 7403.37 833.223   1
  -7  16   4 7372.54 604.429   3
   9 -16   4 7537.19 516.485   1
  -9  -7   4 7897.69 799.724   1
   7   9   4 8300.64 902.126   4
   9 -16   4 7222.30 795.791   4
  16  -9   4 8138.03 864.936   3
   7   9   4 6570.35 955.638   2
  -7  16   4 7721.74 922.075   4
  -7  16   7 5394.16 959.299   2
 -16   7   7 5116.79 953.973   1
  -7  16   7 3659.93 624.336   3
   9 -16   7 4601.60 905.278   3
  16  -9   7 4139.26 773.880   3
   7   9   7 2425.54 205.972   3
   9 -16   7 4479.78 652.024   4
   7   9   7 1984.97 220.727   3
  -9  -7   7 4180.23 818.570   1
   9 -16   7 5233.47 654.013   1
  16  -9   7 3383.35 504.369   1
  16  -9   7 2468.76 362.849   1
   7   9   7 3269.26 733.686   4
  -7  16   7 3568.85 783.469   4
   7   9   7 4371.03 964.177   2
   9 -16  10 3111.13 765.525   1
  16  -9  10 5178.32 972.129   3
  -7  16  10 5407.98 1036.58   2
   7   9  10 3595.20 868.917   4
 -16   7  10 3875.60 1147.38   1
   9 -16  10 1946.22 1037.03   3
  -9  -7  10 3653.30 976.727   1
  16  -9  10 4098.48 1036.76   2
  -7  16  10 3218.35 1212.22   1
   7   9  10 2077.83 939.559   2
  -7  16  10 2530.37 796.201   4
  -8  16  -6 2349.08 509.179   4
  -8  16  -6 1616.35 546.468   1
  16  -8  -6 1855.82 470.767   2
  16  -8  -6 2545.78 843.632   3
   8   8  -6 2343.95 569.070   4
   8   8  -3 207.017 425.741   4
   8   8  -3 339.159 337.086   2
  -8  -8  -3 242.388 122.642   3
   8 -16  -3 335.326 404.540   3
  16  -8  -3 1005.14 461.570   2
  16  -8  -3 91.0532 581.408   3
  -8  16  -3 493.250 558.595   2
  -8  16  -3 519.789 348.089   1
  -8  16  -3 495.121 380.150   4
  -8  16   0 8952.53 758.893   3
  -8  16   0 9563.05 963.398   2
  16  -8   0 7702.90 859.314   3
  -8  -8   0 8942.29 707.640   3
  -8  16   0 6651.10 537.711   1
 -16   8   0 9221.77 531.691   1
  -8  -8   0 8476.22 715.281   1
   8 -16   0 9369.57 732.855   3
  -8  -8   0 7883.68 846.478   2
  16  -8   0 9112.26 629.229   1
   8   8   0 8825.98 902.763   4
   8   8   0 9563.11 882.094   2
  -8  16   0 8983.53 916.178   4
   8 -16   3 1183.50 542.516   3
  -8  16   3 726.873 372.859   3
  -8  16   3 254.571 502.745   2
  16  -8   3 449.914 424.587   3
  16  -8   3 253.961 170.409   1
 -16   8   3 1103.60 475.371   1
  -8  -8   3 404.281 432.969   1
   8   8   3 708.772 484.080   4
  -8  -8   3 1006.37 426.502   2
   8 -16   3 558.326 298.070   1
   8   8   3-33.8369 611.136   2
  -8  16   3-236.573 462.641   4
  -8  -8   6 2341.31 660.003   1
   8 -16   6 1353.09 647.782   3
  16  -8   6 2011.72 599.508   3
  -8  16   6 969.952 710.695   2
   8   8   6 1363.85 189.339   3
  -8  16   6 1358.62 478.850   3
 -16   8   6 2889.30 752.286   1
   8 -16   6 2425.31 486.839   1
   8   8   6 1995.55 681.684   4
   8 -16   6 2222.62 540.005   4
   8   8   6 2477.93 805.664   2
  16  -8   6 1893.08 373.410   1
  -8  16   6 1891.81 652.787   4
  16  -8   6 1363.24 291.210   1
  16  -8   9 1026.49 560.816   1
   8 -16   9 395.285 810.848   3
  -8  16   9-201.408 917.201   1
   8 -16   9 418.202 582.564   1
  16  -8   9 941.680 623.890   3
  -8  16   9 574.334 746.017   2
 -16   8   9 1038.43 808.764   1
  16  -8   9 1570.25 842.430   2
  16  -8   9-51.4758 451.442   4
   8   8   9-265.379 810.718   2
   8   8   9-268.907 593.937   4
  -8  -8   9 154.864 674.059   1
  -8  16   9-285.002 586.600   4
   9   7  -7 4363.74 623.159   4
  16  -7  -7 2457.55 343.348   2
  -9  16  -4 6282.30 567.228   1
  16  -7  -4 6089.51 663.225   2
   7 -16  -4 7944.24 699.785   3
  16  -7  -4 7421.23 1079.65   3
   9   7  -4 6525.65 755.870   4
  -9  16  -4 7917.33 759.924   4
   9   7  -4 7779.25 598.726   2
  -7  -9  -1 5925.33 652.531   1
  -9  16  -1 5730.38 491.684   1
  -9  16  -1 5452.99 773.319   2
  -7  -9  -1 5977.67 486.731   3
  16  -7  -1 4034.12 739.922   3
  16  -7  -1 5120.34 730.052   2
   9   7  -1 5581.92 751.278   4
  16  -7  -1 4683.23 575.390   1
   9   7  -1 6094.42 683.422   2
  -9  16  -1 5082.05 722.378   4
   7 -16  -1 6639.70 573.640   3
 -16   9  -1 5925.25 385.139   1
   7 -16   2 16898.3 1045.42   3
  -7  -9   2 15613.4 1012.64   1
 -16   9   2 16748.3 895.557   1
  16  -7   2 15672.2 611.353   1
  16  -7   2 16282.3 1077.92   3
   7 -16   2 17379.5 834.930   1
  -7  -9   2 16845.2 1184.69   3
   9   7   2 15812.0 727.778   3
  -9  16   2 18471.6 1296.18   2
  -9  16   2 16458.1 901.371   3
  -7  -9   2 17042.0 1056.13   2
   9   7   2 16477.0 1161.18   4
   9   7   2 20020.8 1365.32   2
  -9  16   2 17676.7 1204.83   4
   7 -16   5 12733.3 844.226   1
   7 -16   5 13883.3 1204.08   3
  -9  16   5 12339.2 1125.89   2
  16  -7   5 8819.93 490.989   1
  16  -7   5 12450.7 1008.69   3
  -9  16   5 11554.8 834.643   3
   9   7   5 9187.49 463.212   3
   7 -16   5 12853.3 965.788   4
  -7  -9   5 13794.7 1061.41   1
  -7  -9   5 11623.7 681.126   2
   9   7   5 14224.5 1156.33   4
   9   7   5 13889.1 1327.04   2
  -9  16   5 12486.7 1120.41   4
 -16   9   5 13801.3 1144.75   1
  -7  -9   8 1109.84 630.836   1
   7 -16   8 2967.09 926.290   3
  16  -7   8 3395.31 696.316   4
  16  -7   8 2663.65 679.289   3
  -9  16   8 3420.40 804.971   2
   9   7   8 2381.71 408.826   3
   7 -16   8 3746.53 659.447   1
  16  -7   8 3583.03 636.625   1
 -16   9   8 3585.26 936.501   1
  16  -7   8 2673.61 923.881   2
   9   7   8 3211.02 746.636   4
  -9  16   8 1598.35 923.791   1
   9   7   8 2857.13 893.851   2
  -9  16   8 2951.81 750.015   4
  10   6  -8 11632.6 854.666   4
  16  -6  -5 5234.38 573.696   2
  10   6  -5 3774.03 356.118   2
   6 -16  -5 3825.46 530.447   3
 -10  16  -5 4388.34 521.376   1
  16  -6  -5 3284.38 847.162   3
  10   6  -5 4801.28 662.732   4
 -10  16  -5 4384.34 620.406   4
  -6 -10  -2 12804.5 437.548   3
   6 -16  -2 12765.3 730.762   3
  16  -6  -2 13047.2 976.445   1
 -10  16  -2 14198.9 1125.62   2
  16  -6  -2 13491.0 1188.37   3
  16  -6  -2 12313.4 913.703   2
 -10  16  -2 13599.3 1002.66   4
  10   6  -2 12381.9 1032.25   4
 -10  16  -2 13799.0 670.281   1
  10   6  -2 12533.9 857.739   2
 -10  16   1 786.254 365.881   3
   6 -16   1 846.557 396.258   3
  16  -6   1 1465.20 560.313   3
 -10  16   1 1362.46 590.535   2
  16  -6   1 894.629 309.480   1
 -16  10   1 1078.57 358.824   1
  -6 -10   1 1290.87 486.379   3
  10   6   1 653.972 339.320   3
  10   6   1 1707.50 577.311   4
  -6 -10   1 1488.32 546.890   2
  10   6   1 1365.05 511.354   2
 -10  16   1 441.440 342.820   1
  -6 -10   1 1069.83 382.908   1
 -10  16   1 1425.95 576.361   4
   6 -16   4 21899.8 1412.02   3
  -6 -10   4 21631.2 1204.82   1
 -10  16   4 22820.7 1447.22   2
 -10  16   4 19641.5 1067.56   3
  16  -6   4 21139.3 1225.42   3
  10   6   4 18575.2 754.000   3
  10   6   4 19300.0 1294.48   4
   6 -16   4 21175.3 937.064   1
  -6 -10   4 20353.6 1033.51   2
  10   6   4 22489.4 1526.61   2
   6 -16   4 17909.2 1129.21   4
  16  -6   4 19877.7 699.177   1
 -10  16   4 24635.1 1454.64   4
 -16  10   4 24634.9 1351.16   1
   6 -16   7 49.8768 691.495   3
  -6 -10   7-19.3701 587.708   1
  16  -6   7 635.645 527.439   3
 -16  10   7 2113.01 826.599   1
 -10  16   7 559.934 641.146   2
 -10  16   7 1186.42 860.752   1
   6 -16   7 47.6056 448.467   1
  16  -6   7 561.742 345.696   1
  16  -6   7 2481.11 557.026   1
  16  -6   7 418.953 535.150   4
  10   6   7 1189.58 632.021   4
  10   6   7 866.563 350.621   3
   6 -16   7 1197.72 516.045   4
  10   6   7 284.622 716.367   2
 -10  16   7 750.447 597.495   4
   6 -16  10 5655.02 1284.58   3
  16  -6  10 5814.18 952.704   3
  16  -6  10 5697.64 909.265   1
 -16  10  10 5350.85 1255.55   1
 -10  16  10 3132.14 937.393   2
  -6 -10  10 6096.37 1058.00   1
   6 -16  10 4296.13 876.501   1
  16  -6  10 6406.83 1256.34   2
  10   6  10 6215.80 1005.56   4
  10   6  10 5655.89 1243.18   2
 -10  16  10 4754.92 1262.10   1
 -10  16  10 4446.26 926.668   4
  11   5  -9 2668.20 514.475   4
  16  -5  -6-10.4992 233.582   2
  11   5  -6-402.662 468.575   4
 -11  16  -6 245.407 400.096   1
 -11  16  -3 3449.38 371.487   1
   5 -16  -3 3548.29 455.270   3
  16  -5  -3 3270.23 549.198   2
  16  -5  -3 3353.40 747.353   3
 -11  16  -3 4288.87 716.347   2
  11   5  -3 4355.79 674.792   4
  11   5  -3 3465.23 492.885   2
 -11  16  -3 5548.33 722.406   4
  -5 -11   0 465.483 364.187   1
   5 -16   0 583.437 308.952   3
 -11  16   0 454.128 255.711   1
  16  -5   0 320.127 329.375   1
  16  -5   0 438.942 471.225   3
 -11  16   0 706.755 508.378   2
  -5 -11   0 607.418 372.410   3
  11   5   0 642.422 455.494   3
  11   5   0 405.455 424.096   2
  11   5   0 1728.79 579.538   4
 -16  11   0 570.679 235.614   1
 -11  16   0 1233.01 550.104   4
   5 -16   3 1523.03 569.590   3
   5 -16   3 1544.63 380.514   1
 -16  11   3 1017.78 482.001   1
 -11  16   3 1522.62 473.208   3
  16  -5   3 1436.76 312.327   1
  16  -5   3 2175.97 565.516   3
 -11  16   3 764.607 595.200   2
  11   5   3 1958.92 433.463   3
  11   5   3 716.055 540.875   4
  11   5   3 1856.62 679.251   2
  -5 -11   3 598.225 470.628   2
  -5 -11   3 1592.65 484.593   1
 -11  16   3 1127.33 532.604   4
  16  -5   6 1568.68 372.106   1
   5 -16   6 2743.86 795.190   3
  16  -5   6 2714.64 635.535   3
  -5 -11   6 3387.20 708.281   1
 -11  16   6 3828.78 800.148   2
  11   5   6 2460.36 388.974   3
  16  -5   6 3180.67 716.546   4
   5 -16   6 2826.10 577.471   1
 -11  16   6 3355.90 874.825   1
  -5 -11   6 1706.15 416.561   2
  11   5   6 2526.17 810.889   2
 -16  11   6 4417.70 908.574   1
   5 -16   6 2788.88 595.301   4
 -11  16   6 4090.53 775.736   4
  11   5   6 2550.66 697.443   4
  -5 -11   9 1483.96 672.031   1
   5 -16   9 2229.78 897.637   3
  16  -5   9 2416.22 688.600   3
 -16  11   9 704.377 825.256   1
   5 -16   9 2244.73 665.446   1
  11   5   9 980.008 471.096   3
 -11  16   9 925.615 711.352   2
  16  -5   9 1725.10 733.663   1
  16  -5   9 681.763 794.539   2
  16  -5   9 1910.65 716.587   4
  11   5   9 1208.02 656.063   4
 -11  16   9 2180.56 742.851   4
  11   5   9 1634.23 897.669   2
 -11  16   9-210.645 850.534   1
  12   4  -7 7341.95 811.740   4
  12   4  -4 3840.24 687.696   4
  12   4  -4 4170.71 442.097   2
  16  -4  -4 3224.46 485.428   2
   4 -16  -4 3557.85 386.398   3
  16  -4  -4 2683.14 746.298   3
 -12  16  -4 3862.09 362.556   1
 -12  16  -4 4188.55 631.225   4
   4 -16  -1 17109.8 771.754   3
  12   4  -1 14954.3 992.986   2
 -12  16  -1 15744.6 1186.18   2
 -12  16  -1 16327.2 611.186   1
  16  -4  -1 17189.3 1246.82   3
  -4 -12  -1 16488.0 729.641   3
  12   4  -1 15458.6 1104.97   3
 -16  12  -1 15765.1 422.228   1
  -4 -12  -1 16949.0 1037.04   1
  12   4  -1 17594.8 1222.11   4
 -12  16  -1 16689.2 1166.13   4
  16  -4  -1 16607.2 975.842   1
   4 -16   2 5265.94 695.264   3
  12   4   2 4007.17 689.348   4
 -12  16   2 4967.16 765.492   2
  12   4   2 4214.55 830.014   2
  16  -4   2 4320.84 678.904   3
  -4 -12   2 3150.22 555.635   1
 -16  12   2 5099.60 618.801   1
  12   4   2 4661.84 607.789   3
  16  -4   2 4154.00 445.134   1
  -4 -12   2 3778.60 676.552   2
   4 -16   2 3944.47 505.071   1
 -12  16   2 5284.65 774.513   4
   4 -16   5 7853.35 998.050   3
  12   4   5 8872.58 1150.74   2
 -12  16   5 7859.46 967.529   2
  16  -4   5 6560.58 777.339   3
  -4 -12   5 7718.48 732.378   2
  16  -4   5 5833.47 539.258   1
  12   4   5 8039.59 643.741   3
   4 -16   5 7043.03 735.613   1
 -16  12   5 6443.60 908.283   1
 -16  12   5 7964.44 834.936   2
 -12  16   5 6998.64 879.545   4
  16  -4   5 7424.45 886.586   4
 -12  16   5 8126.87 998.672   1
  12   4   5 8381.62 954.758   4
   4 -16   5 6939.20 782.151   4
  -4 -12   5 7013.91 813.631   1
  16  -4   8-191.129 549.937   1
 -12  16   8 636.838 574.352   4
   4 -16   8 1372.98 832.442   3
  -4 -12   8 495.064 611.837   1
 -16  12   8 1545.94 862.213   1
  16  -4   8 433.794 503.121   3
  12   4   8 326.694 423.854   3
   4 -16   8 249.735 522.501   1
 -12  16   8 1365.62 667.776   2
  12   4   8 1771.88 733.275   4
 -16  12   8 511.103 487.817   2
  16  -4   8 1537.01 663.337   4
  16  -4   8 997.959 737.858   2
  12   4   8 182.075 737.751   2
 -12  16   8 1322.03 805.598   1
  13   3  -8 13117.0 1000.39   4
  16  -3  -5 1971.55 367.686   2
  16  -3  -5 2413.21 394.571   2
  13   3  -5 2441.24 625.437   4
  13   3  -5 1308.70 243.402   2
   3 -16  -2 42437.2 1056.13   3
  16  -3  -2 40067.3 1969.79   3
 -13  16  -2 40366.3 824.521   1
 -13  16  -2 40242.0 1869.03   2
  13   3  -2 42783.4 1875.71   3
  13   3  -2 41811.9 1514.77   2
 -13  16  -2 43170.7 1741.13   4
   3 -16   1 161.670 336.740   3
 -16  13   1 465.097 325.060   1
  -3 -13   1 1235.63 448.313   1
  16  -3   1 1390.98 565.496   3
 -13  16   1 1277.10 598.729   2
  13   3   1 1798.91 551.044   3
  13   3   1 764.924 554.911   2
  13   3   1 804.440 482.579   4
   3 -16   1 616.552 378.801   1
  16  -3   1 780.923 349.909   1
 -13  16   1 1043.87 579.488   4
  16  -3   4 26156.2 1013.77   1
   3 -16   4 35333.5 1712.96   3
   3 -16   4 31557.4 1330.52   1
 -13  16   4 30554.1 1607.98   2
  16  -3   4 31228.9 1409.58   3
  13   3   4 30829.8 1227.03   3
 -16  13   4 31640.8 1547.63   2
  16  -3   4 31849.2 1680.22   4
 -13  16   4 31148.7 1611.25   1
  13   3   4 25349.7 1659.17   2
 -16  13   4 31752.3 1559.86   1
  -3 -13   4 28936.2 1371.56   2
  13   3   4 29375.2 1584.81   4
 -13  16   4 31854.4 1678.97   4
  -3 -13   4 29977.7 1407.04   1
 -13  16   7 2520.15 741.003   4
   3 -16   7 3381.46 915.473   3
 -16  13   7 2677.79 878.122   1
  13   3   7 4664.18 1064.68   2
  16  -3   7 2764.99 618.277   3
  13   3   7 2180.54 497.293   3
  -3 -13   7 2460.27 699.356   1
 -13  16   7 3797.28 958.953   1
 -13  16   7 2099.89 731.488   2
   3 -16   7 2642.45 652.729   1
 -16  13   7 1943.69 613.078   2
  16  -3   7 3179.71 956.909   2
  13   3   7 3061.43 743.442   4
  16  -3   7 2063.99 678.518   4
   3 -16  10 10746.6 1610.95   3
 -13  16  10 11073.9 1655.63   1
  13   3  10 11701.1 1583.26   2
  16  -3  10 8771.62 1020.36   3
 -13  16  10 7474.88 1090.57   2
  -3 -13  10 7679.24 1123.91   1
   3 -16  10 8400.44 1043.34   1
  16  -3  10 7627.15 1365.72   2
  16  -3  10 10372.8 1246.45   1
  13   3  10 10048.2 1188.38   4
 -16  13  10 8672.71 1447.04   1
  16  -2  -9 3303.66 746.383   4
  14   2  -9 2509.28 623.984   4
  14   2  -6 1100.09 586.895   4
   2 -16  -3 14829.0 543.533   3
  16  -2  -3 17549.1 1419.34   3
  14   2  -3 19733.6 1007.57   2
  14   2  -3 18800.3 1296.56   4
 -14  16   0 2610.94 635.402   4
  -2 -14   0 3313.51 463.504   3
  -2 -14   0 2406.05 514.738   1
   2 -16   0 2069.98 401.493   3
   2 -16   0 2063.34 506.963   1
 -16  14   0 3473.21 365.431   1
  16  -2   0 2063.18 611.960   3
  14   2   0 2464.64 612.749   3
 -14  16   0 3029.13 708.733   2
  14   2   0 1905.44 583.891   2
  16  -2   0 2632.73 505.424   1
  14   2   0 2574.94 715.447   4
   2 -16   3 13446.2 1062.93   3
 -14  16   3 12561.4 1108.73   2
  -2 -14   3 14533.1 1005.49   1
  16  -2   3 12521.8 968.999   3
  14   2   3 15327.2 982.868   3
 -16  14   3 13678.4 1116.72   2
   2 -16   3 12707.8 840.798   1
  16  -2   3 14054.5 1268.61   2
  14   2   3 14843.7 1166.06   4
 -14  16   3 14778.5 1053.91   1
  14   2   3 13364.5 1276.69   2
 -16  14   3 15579.3 1055.83   1
  -2 -14   3 12741.6 1044.10   2
  16  -2   3 11511.8 716.673   1
 -14  16   3 15063.7 1215.69   4
  16  -2   3 14936.3 1176.90   4
   2 -16   6 5296.63 979.399   3
  16  -2   6 3972.03 654.711   3
  14   2   6 4510.79 796.488   4
  14   2   6 4224.75 589.246   3
 -16  14   6 4523.40 766.972   2
 -14  16   6 5090.53 953.430   1
  14   2   6 3837.26 904.694   2
 -14  16   6 3812.06 785.410   2
  -2 -14   6 3468.07 658.262   1
  16  -2   6 5545.78 1020.70   2
  16  -2   6 3949.58 814.920   4
   2 -16   6 3773.11 726.214   4
   2 -16   6 4175.00 641.576   1
 -16  14   6 4361.98 944.035   1
  -2 -14   6 3412.55 641.285   2
 -14  16   6 4963.36 836.271   4
 -14  16   9 5374.86 1216.88   1
   2 -16   9 2686.83 933.197   3
 -16  14   9 4828.95 1171.46   1
  14   2   9 3687.74 668.346   3
  16  -2   9 3154.21 822.406   1
  -2 -14   9 3588.45 876.905   1
  16  -2   9 2900.56 685.426   3
  14   2   9 4128.29 877.439   4
 -14  16   9 3274.21 864.853   2
 -16  14   9 3279.42 709.601   2
   2 -16   9 4815.78 870.196   1
  16  -2   9 4362.76 843.729   4
  16  -2   9 3813.75 1146.57   2
  14   2   9 4770.39 1162.96   2
  15   1  -7 2503.53 706.011   4
  16  -1  -7 2316.77 665.093   4
  15   1  -4 906.571 376.478   2
  16  -1  -4 304.935 363.101   2
  16  -1  -4 1986.87 791.358   3
  15   1  -4 2038.76 648.243   4
  16  -1  -4 642.960 368.657   2
  -1 -15  -1 11835.9 578.219   3
   1 -16  -1 12392.5 609.612   3
 -16  15  -1 8829.22 365.842   1
  15   1  -1 11065.7 949.411   2
  16  -1  -1 11904.9 1140.04   3
  15   1  -1 10418.5 1053.05   3
  15   1  -1 11360.0 1070.92   4
  16  -1  -1 14569.1 1079.68   2
 -15  16  -1 10276.8 437.087   1
 -15  16  -1 9847.21 474.534   1
 -16  15  -1 8474.50 337.907   1
 -15  16  -1 11860.9 1009.82   4
 -15  16   2 843.896 608.465   4
   1 -16   2 1535.86 508.663   3
 -16  15   2 1231.94 460.002   1
  16  -1   2 826.531 351.866   1
   1 -16   2 1443.44 450.667   1
  16  -1   2 1466.24 575.008   3
  15   1   2 2042.50 573.015   3
 -15  16   2 646.840 546.110   2
 -16  15   2 1318.95 562.871   2
  16  -1   2 1887.74 607.743   4
  15   1   2 2247.33 642.322   4
  -1 -15   2 512.802 362.471   1
  15   1   2 1498.68 632.679   2
 -15  16   2 2234.65 506.659   1
  16  -1   2 1511.60 634.292   2
 -15  16   5 2348.05 694.188   4
  15   1   5 2302.85 777.767   2
  16  -1   5 2684.85 634.282   3
 -15  16   5 2380.23 685.002   1
  15   1   5 2562.24 530.172   3
 -15  16   5 3547.88 760.409   2
 -16  15   5 2522.02 669.647   2
  16  -1   5 3151.92 694.601   4
  15   1   5 3668.12 751.797   4
 -16  15   5 3620.63 824.517   1
  16  -1   5 3431.58 839.002   2
  -1 -15   5 2663.59 622.119   1
   1 -16   5 2442.98 626.777   1
  -1 -15   5 2035.32 641.407   2
 -15  16   8 2367.25 1005.28   1
  15   1   8 1933.43 713.501   4
  16  -1   8 1266.91 517.926   3
 -16  15   8 1875.65 899.829   1
  15   1   8 1336.95 514.516   3
  -1 -15   8 2054.11 701.466   1
   1 -16   8 2214.30 733.678   1
 -15  16   8 1938.06 710.084   2
 -16  15   8 1461.52 664.642   2
  16  -1   8 3373.72 1005.41   2
  15   1   8 3406.10 1052.83   2
  16  -1   8 2246.27 704.328   4
  16   0  -8 21276.5 1418.28   4
  16   0  -5 28.2980 264.874   2
  16   0  -5 36.4905 546.805   4
  16   0  -5 1058.47 302.039   2
  16   0  -2 29313.8 1382.58   2
  16   0  -2 29006.3 1740.61   3
   0 -16  -2 27948.8 708.773   3
  16   0   1 277.417 545.345   2
 -16  16   1-282.797 515.531   4
   0 -16   1-169.551 358.291   3
   0 -16   1-204.951 395.707   1
  16   0   1 173.200 509.780   3
 -16  16   1 296.173 562.792   2
  16   0   1 434.535 593.417   4
 -16  16   1 381.221 379.757   1
 -16  16   4 15307.1 1263.37   4
   0 -16   4 17139.6 1127.00   1
  16   0   4 16073.6 1068.96   3
 -16  16   4 13890.5 1141.79   2
  16   0   4 14787.8 1272.14   4
  16   0   4 16279.5 1454.14   2
 -16  16   4 17196.1 1226.03   1
 -16  16   7-206.882 745.140   1
  16   0   7 704.393 459.333   3
 -16  16   7-1201.22 677.158   2
   0 -16   7-770.510 576.331   1
  16   0   7-31.3082 617.178   4
  16   0   7 1296.60 869.578   2
   0  17  -8 1936.73 551.941   4
   0  17  -5-183.292 546.835   2
  17 -17  -5 382.836 728.867   3
   0  17  -5 357.332 490.706   4
 -17   0  -2 11909.0 883.961   1
   0  17  -2 9602.47 979.758   2
  17 -17  -2 10592.0 1046.17   3
   0  17  -2 9881.34 1019.58   4
   0  17   1-355.865 568.017   2
 -17   0   1-283.382 434.050   1
  17 -17   1 437.246 518.833   3
   0  17   1-897.651 670.780   4
   0  17   4 1784.51 740.989   2
 -17   0   4 1886.52 621.802   1
  17 -17   4 694.578 552.838   3
   0  17   4 1584.75 651.582   4
   0  17   7 1400.20 846.417   2
  17 -17   7-782.325 648.740   3
 -17   0   7 976.964 750.100   1
   0  17   7 406.760 670.929   4
   1  16  -6 2569.20 669.057   2
  16 -17  -6 1983.70 902.973   3
  17 -16  -6 2321.99 888.464   3
  -1  17  -6 2224.09 676.251   2
   1  16  -6 2590.72 595.444   4
  -1  17  -6 2814.56 601.291   4
 -16  -1  -3 19116.1 1053.79   3
   1  16  -3 16788.9 1183.71   2
  -1  17  -3 17391.8 1251.40   2
  16 -17  -3 18944.2 1379.41   3
  17 -16  -3 15543.0 1293.99   3
   1  16  -3 15755.2 1177.36   4
  -1  17  -3 18940.3 1276.95   4
   1  16   0 4083.16 783.149   4
 -17   1   0 5930.95 674.543   1
  -1  17   0 4695.56 773.453   2
  16 -17   0 5336.85 757.891   3
 -16  -1   0 5222.77 684.003   1
  17 -16   0 4558.74 738.753   3
  -1  17   0 3860.43 785.055   4
   1  16   0 5417.90 835.682   2
  -1  17   3 5696.00 916.057   2
  16 -17   3 7711.64 916.229   3
  17 -16   3 6670.19 862.460   3
   1  16   3 10356.4 1104.41   4
 -17   1   3 6819.83 764.317   1
 -16  -1   3 6831.81 751.021   1
  -1  17   3 7515.39 977.787   4
   1  16   3 7697.26 1033.39   2
  16 -17   6 5138.28 923.069   3
  17 -16   6 4218.48 874.898   3
 -16  -1   6 6120.33 928.614   1
 -17   1   6 4249.24 803.403   1
   1  16   6 5412.82 1058.67   2
   1  16   6 7931.57 1058.72   4
  -1  17   6 5896.27 980.495   4
  -1  17   6 6501.26 1057.12   2
   1  16   9 6606.49 1274.57   2
  16 -17   9 6382.16 1165.47   3
  17 -16   9 6581.99 1131.24   3
 -17   1   9 7010.71 1158.26   1
   1  16   9 7910.34 1095.31   4
  -1  17   9 9733.89 1228.92   4
 -16  -1   9 5893.40 1131.94   1
  -1  17   9 8226.33 1370.21   2
  17 -15  -7 15820.7 1628.75   3
  15 -17  -7 16922.9 1560.73   3
   2  15  -7 15852.9 1014.36   4
  -2  17  -7 15559.8 999.390   4
 -15  -2  -4 1521.95 466.810   3
  15 -17  -4 4044.38 897.740   3
  -2  17  -4 2637.68 686.560   2
   2  15  -4 2347.30 627.565   4
  17 -15  -4 1663.46 742.623   3
   2  15  -4 2424.69 620.456   2
  -2  17  -4 1603.82 573.403   4
  -2  17  -1 8700.52 913.239   2
 -15  -2  -1 8847.21 774.707   3
  15 -17  -1 9556.83 913.368   3
  17 -15  -1 7577.83 905.940   3
 -17   2  -1 11255.5 769.089   1
 -15  -2  -1 10775.7 815.913   1
   2  15  -1 10051.6 984.122   4
  -2  17  -1 8411.02 954.410   4
   2  15  -1 8497.09 887.493   2
  17 -15   2 10030.1 959.425   3
  15 -17   2 9778.82 963.213   3
 -17   2   2 9699.32 807.736   1
   2  15   2 11280.9 1127.19   4
  -2  17   2 12150.0 1108.58   4
 -15  -2   2 10357.2 849.290   1
   2  15   2 8954.26 1044.29   2
  -2  17   2 9981.12 1094.82   2
  15 -17   5 15741.2 1280.85   3
  17 -15   5 13599.7 1199.35   3
 -17   2   5 14088.7 1124.53   1
   2  15   5 14786.7 1417.16   2
 -15  -2   5 12921.6 1108.02   1
   2  15   5 15007.3 1309.29   4
  -2  17   5 15340.5 1311.64   4
  -2  17   5 13847.7 1341.69   2
   2  15   8 2436.05 867.062   2
  -2  17   8 3544.77 1046.95   2
  15 -17   8 2146.75 789.990   3
  17 -15   8 3066.87 892.355   3
 -17   2   8 2552.50 864.884   1
   2  15   8 6023.56 1008.22   4
 -15  -2   8 2029.71 782.477   1
  -2  17   8 2847.89 798.096   4
   3  14  -8 2598.85 523.742   4
  -3  17  -8 3893.33 567.058   4
 -14  -3  -5 661.357 392.137   3
  -3  17  -5 1240.08 531.868   4
   3  14  -5 1132.59 522.183   2
  14 -17  -5 1342.22 739.511   3
  -3  17  -5 1731.14 635.310   2
  17 -14  -5 461.515 688.910   3
   3  14  -5 746.331 522.018   4
   3  14  -2 3627.76 656.455   2
 -14  -3  -2 2621.87 511.725   3
  -3  17  -2 3017.20 676.646   2
  14 -17  -2 3122.13 631.521   3
  17 -14  -2 2585.92 715.417   3
 -14  -3  -2 2028.24 512.960   1
   3  14  -2 4013.47 718.399   4
  -3  17  -2 2191.07 582.292   4
 -17   3  -2 2482.86 453.343   1
  -3  17   1 5154.15 804.603   2
  14 -17   1 5898.93 750.395   3
  17 -14   1 5064.48 736.504   3
   3  14   1 7496.16 947.307   4
   3  14   1 6152.00 851.404   2
 -17   3   1 6387.99 615.442   1
  -3  17   1 4988.07 796.935   4
 -14  -3   1 5461.50 681.287   1
  14 -17   4 6792.81 898.097   3
  17 -14   4 4710.90 825.857   3
 -17   3   4 7417.60 842.124   1
 -14  -3   4 4386.26 717.080   1
  -3  17   4 3792.90 760.865   4
   3  14   4 6474.60 976.790   4
   3  14   4 6607.04 992.491   2
  -3  17   4 4001.62 889.840   2
   3  14   7 2491.75 885.317   2
  14 -17   7 1419.30 323.356   1
  -3  17   7 2119.32 825.273   2
  14 -17   7 1860.43 712.569   3
  17 -14   7 2283.17 733.993   3
  -3  17   7 3618.25 835.253   4
   3  14   7 1915.34 742.780   4
 -17   3   7 1633.95 747.408   1
 -14  -3   7 3141.52 850.940   1
   4  13  -6 1660.74 495.203   2
  13 -17  -6 1361.65 754.035   3
  17 -13  -6 734.937 704.940   3
   4  13  -6 1054.70 514.826   4
  -4  17  -6 1402.20 495.534   4
   4  13  -3 4579.05 649.930   2
 -13  -4  -3 4146.59 501.162   3
  -4  17  -3 4245.57 718.103   2
  13 -17  -3 5922.07 821.002   3
  17 -13  -3 3648.99 903.800   3
   4  13  -3 4358.38 696.963   4
  -4  17  -3 4433.12 724.937   4
   4  13   0 2582.31 659.889   2
  13 -17   0 2753.43 604.200   3
  -4  17   0 2062.22 608.060   2
 -13  -4   0 2592.52 525.571   1
  17 -13   0 2041.98 613.134   3
 -13  -4   0 2609.15 542.244   3
   4  13   0 2455.20 655.256   4
 -17   4   0 2283.21 421.389   1
  -4  17   0 2132.48 607.261   4
  -4  17   3 6233.50 923.053   2
  -4  17   3 3906.97 391.672   3
  13 -17   3 4182.54 726.523   3
  17 -13   3 6337.68 817.588   3
   4  13   3 5333.71 898.687   2
 -17   4   3 5195.72 694.526   1
   4  13   3 6661.71 888.499   4
 -13  -4   3 5483.03 704.696   1
  -4  17   3 4060.58 753.312   4
 -13  -4   6 1214.01 609.899   1
  17 -13   6 2520.10 834.378   3
  -4  17   6 737.169 677.766   2
  13 -17   6 332.090 578.928   3
  -4  17   6 333.750 217.238   3
 -17   4   6 1092.01 666.051   1
  13 -17   6 457.411 240.259   1
   4  13   6 1227.62 652.049   4
  -4  17   6-249.569 582.721   4
   4  13   6 2730.17 840.121   2
   4  13   9 1289.47 814.991   2
  -4  17   9 2208.37 924.316   2
  13 -17   9 1302.25 792.971   3
  17 -13   9 2176.51 891.392   3
 -17   4   9 2730.84 1008.10   1
   4  13   9 1772.59 735.991   4
 -13  -4   9 1648.27 808.056   1
  -4  17   9 423.076 659.175   4
  17 -12  -7 8382.34 1236.13   3
   5  12  -7 9483.72 837.447   4
  -5  17  -7 7933.59 733.118   4
 -12  -5  -4 1983.80 388.710   3
   5  12  -4 2439.18 499.926   2
  12 -17  -4 2931.42 750.932   3
  -5  17  -4 1936.64 627.274   2
  17 -12  -4 3632.96 900.840   3
   5  12  -4 2973.23 624.940   4
  -5  17  -4 2512.69 591.613   4
  -5  17  -1 15106.7 1183.79   2
  12 -17  -1 13222.1 937.135   3
 -12  -5  -1 13551.6 815.549   3
 -17   5  -1 16495.7 801.502   1
  17 -12  -1 14696.7 1205.03   3
   5  12  -1 15564.4 1142.18   4
 -12  -5  -1 13827.6 906.526   1
  -5  17  -1 14785.2 1129.05   4
   5  12  -1 15860.9 1090.85   2
  -5  17   2 3093.14 436.139   3
   5  12   2 4004.98 776.404   2
  17 -12   2 4210.15 688.371   3
  12 -17   2 2404.10 579.497   3
  -5  17   2 3708.78 758.414   2
   5  12   2 4421.51 776.497   4
 -17   5   2 3907.75 535.847   1
 -12  -5   2 2518.30 549.409   1
  -5  17   2 4499.02 755.874   4
  12 -17   5 13186.0 1162.91   3
  -5  17   5 11522.4 586.016   3
  17 -12   5 14991.5 1193.71   3
 -17   5   5 15004.4 1184.10   1
  -5  17   5 15225.6 1265.15   4
 -12  -5   5 14751.6 1152.26   1
  12 -17   5 13123.5 576.273   1
   5  12   5 14133.5 1253.49   4
   5  12   5 13306.6 1323.85   2
  -5  17   5 13432.0 1263.71   2
  17 -12   8 3107.00 445.791   1
  12 -17   8 2061.66 855.761   3
  -5  17   8 2414.18 860.373   2
  17 -12   8 1446.98 699.297   3
 -17   5   8 4351.75 930.629   1
  12 -17   8 3736.52 558.784   1
   5  12   8 3777.93 913.074   4
 -12  -5   8 3701.35 887.802   1
  -5  17   8 3257.97 786.247   4
   5  12   8 4270.83 1118.01   2
   6  11  -8 1708.63 480.841   4
  17 -11  -5 10241.7 932.647   2
   6  11  -5 11810.0 810.576   2
  11 -17  -5 10634.9 1028.62   3
  -6  17  -5 12101.7 1096.13   2
  17 -11  -5 10672.1 1293.34   3
  -6  17  -5 11796.4 895.490   4
   6  11  -5 9403.15 865.452   4
 -11  -6  -2 4875.00 476.795   3
  11 -17  -2 4630.27 638.147   3
   6  11  -2 4023.51 619.299   2
  17 -11  -2 4371.79 798.197   3
 -17   6  -2 3206.03 387.690   1
  -6  17  -2 3709.20 685.920   2
 -11  -6  -2 3826.98 593.492   1
   6  11  -2 4380.34 715.366   4
  -6  17  -2 4717.82 569.502   1
  -6  17  -2 4236.67 715.563   4
  -6  17   1 12596.3 778.079   3
  -6  17   1 12121.1 1092.35   2
  11 -17   1 9967.29 859.678   3
 -11  -6   1 13691.7 966.531   1
  17 -11   1 10649.3 971.126   3
 -11  -6   1 11246.9 946.945   3
 -17   6   1 12330.1 734.827   1
   6  11   1 9422.24 969.062   4
   6  11   1 11092.9 1016.09   2
  -6  17   1 13353.1 1114.71   4
  -6  17   4 7211.44 973.688   2
  11 -17   4 6339.73 866.205   3
  -6  17   4 7201.64 542.443   3
 -11  -6   4 7414.44 846.212   1
  17 -11   4 8773.05 897.989   3
 -17   6   4 8424.88 878.696   1
   6  11   4 6521.15 909.197   4
   6  11   4 8535.71 1077.06   2
  -6  17   4 8930.42 976.501   4
  11 -17   4 6498.83 456.589   1
 -11  -6   7 2922.20 736.219   1
  11 -17   7 2376.75 757.182   3
  -6  17   7 1364.47 682.364   2
  17 -11   7 202.793 558.635   3
  17 -11   7 1270.82 340.153   1
 -17   6   7 2593.81 832.460   1
  11 -17   7 1783.56 449.264   1
   6  11   7 2408.75 795.814   4
  -6  17   7 983.165 603.381   4
   6  11   7 2371.50 904.649   2
  11 -17  10 1751.13 923.224   3
  -6  17  10 1745.51 910.872   2
  17 -11  10 3984.96 950.302   3
 -17   6  10 2541.46 1176.66   1
  17 -11  10 2013.45 980.042   2
   6  11  10 1916.26 772.270   4
 -11  -6  10 2887.26 922.375   1
  -6  17  10 3212.38 1244.20   1
  -6  17  10 2301.64 804.016   4
   6  11  10 2829.69 965.433   2
   7  10  -6 3296.75 388.644   2
  10 -17  -6 4271.83 746.612   3
  17 -10  -6 4077.38 970.964   3
   7  10  -6 5752.31 706.088   4
  17 -10  -6 3503.38 640.390   2
  -7  17  -6 4823.61 649.267   4
 -10  -7  -3 1917.20 272.752   3
   7  10  -3 1856.91 462.063   2
  17 -10  -3 1537.39 535.707   2
  10 -17  -3 2330.73 543.901   3
  -7  17  -3 2197.05 621.254   2
  17 -10  -3 873.194 669.662   3
   7  10  -3 1419.23 557.779   4
  -7  17  -3 2037.91 475.592   1
  -7  17  -3 1937.66 531.973   4
  -7  17   0 2953.29 525.493   3
  10 -17   0 3969.67 571.382   3
  -7  17   0 3584.65 721.378   2
 -10  -7   0 2242.39 476.133   3
  -7  17   0 3401.49 458.449   1
 -10  -7   0 3500.93 541.296   1
   7  10   0 3333.05 668.806   2
  17 -10   0 4149.37 718.900   3
  17 -10   0 3632.08 430.536   1
 -17   7   0 3363.51 405.777   1
   7  10   0 3417.46 667.873   4
  -7  17   0 4970.53 783.490   4
  -7  17   3 1016.76 578.629   4
  -7  17   3 1424.00 399.274   3
  10 -17   3 592.576 522.174   3
  -7  17   3 374.614 536.771   2
  17 -10   3 860.558 528.094   3
  10 -17   3 644.559 298.980   1
 -10  -7   3 919.930 487.972   1
 -17   7   3 997.320 462.650   1
   7  10   3 830.249 585.100   4
   7  10   3-94.3505 620.835   2
  17 -10   6 46.8611 150.757   1
 -10  -7   6-163.921 558.376   1
  10 -17   6 1789.75 679.110   3
  17 -10   6 462.374 239.425   1
  -7  17   6 427.883 660.865   2
  17 -10   6 582.444 606.847   3
  -7  17   6 638.672 403.723   3
  10 -17   6 349.481 506.969   4
 -17   7   6 1383.02 635.192   1
   7  10   6 189.055 571.860   4
   7  10   6 258.568 661.260   2
  -7  17   6 484.867 598.927   4
  10 -17   6 1093.91 425.787   1
  10 -17   9 808.708 826.681   3
  -7  17   9 1505.64 859.930   2
  17 -10   9 3715.29 826.160   3
  10 -17   9 3227.26 666.212   1
 -17   7   9 3145.75 986.683   1
   7  10   9 2260.69 830.189   4
  17 -10   9 1195.36 548.678   4
  -7  17   9 680.996 1023.49   1
   7  10   9 2802.22 946.629   2
 -10  -7   9 1617.52 794.850   1
  -7  17   9 3283.68 821.122   4
   8   9  -7 4101.96 611.565   4
   8   9  -4 8304.55 681.613   2
  17  -9  -4 7591.20 779.321   2
  -8  17  -4 7156.22 689.670   1
   9 -17  -4 7215.21 787.303   3
  -8  17  -4 7558.70 891.042   2
  17  -9  -4 6432.01 1087.98   3
   8   9  -4 7987.38 844.609   4
  -8  17  -4 7901.14 790.645   4
  -9  -8  -1 17070.7 999.566   1
   9 -17  -1 14988.3 875.193   3
  -8  17  -1 15629.9 1185.13   2
  -9  -8  -1 17592.8 821.741   3
  17  -9  -1 14119.3 1159.97   3
   8   9  -1 16873.9 1194.01   4
  17  -9  -1 14458.2 864.402   1
   8   9  -1 16619.6 1074.18   2
  -8  17  -1 17832.7 1187.33   4
  -9  -8   2 6921.49 753.656   1
  -8  17   2 8510.01 966.381   2
  17  -9   2 6748.46 787.678   3
 -17   8   2 7530.41 685.787   1
   9 -17   2 7281.06 771.022   3
  -8  17   2 6110.36 591.612   3
  -9  -8   2 8223.45 800.887   2
   8   9   2 7678.20 919.893   4
   8   9   2 7135.33 938.024   2
  17  -9   2 5124.41 331.814   1
  -8  17   2 8736.69 940.811   4
  -8  17   5 16645.1 1377.46   2
 -17   8   5 17709.9 1255.31   1
   8   9   5 16440.2 1468.19   2
   9 -17   5 16447.6 1286.16   3
  -8  17   5 15789.9 901.030   3
  17  -9   5 16467.4 1169.92   3
   9 -17   5 15371.3 792.552   1
  17  -9   5 11803.6 516.293   1
  -9  -8   5 13635.6 1085.85   1
   8   9   5 16439.7 1265.06   4
  17  -9   5 12943.8 449.187   1
  -8  17   5 18407.5 1353.36   4
  -9  -8   8 1088.20 707.057   1
  17  -9   8 518.093 434.651   1
   9 -17   8 2061.12 830.228   3
  17  -9   8 523.105 609.617   3
  -8  17   8 450.018 661.163   2
 -17   8   8-3.66245 761.734   1
   9 -17   8 820.309 488.874   1
  17  -9   8 1194.86 598.504   4
  -8  17   8 2016.19 991.928   1
   8   9   8 1211.91 637.203   4
   8   9   8 1423.39 871.525   2
  -8  17   8 368.119 619.414   4
   9   8  -8 742.413 473.820   4
  17  -8  -5 14979.9 948.820   2
   9   8  -5 16460.2 770.134   2
   8 -17  -5 17513.3 1079.10   3
  17  -8  -5 15557.0 1443.18   3
   9   8  -5 17110.9 1137.76   4
  -9  17  -5 15196.1 906.572   1
  -9  17  -5 18209.3 1098.57   4
 -17   9  -2 4378.49 288.360   1
  -8  -9  -2 6177.62 400.524   3
   8 -17  -2 6494.43 619.407   3
  -9  17  -2 6498.61 856.710   2
  17  -8  -2 6413.99 790.077   2
  17  -8  -2 4741.17 819.511   3
  17  -8  -2 4996.98 696.674   1
  -9  17  -2 7641.13 591.112   1
  -9  17  -2 7274.88 809.347   4
   9   8  -2 5581.57 796.206   4
  -8  -9  -2 6770.83 747.273   1
   9   8  -2 6126.19 657.081   2
  -8  -9   1 15082.9 1094.84   2
  -9  17   1 15063.7 931.744   3
   8 -17   1 14734.6 972.899   3
  -9  17   1 14384.2 1160.55   2
  17  -8   1 17458.5 1179.12   3
 -17   9   1 16462.1 785.396   1
  -9  17   1 15982.3 885.049   1
  -8  -9   1 16074.3 966.220   1
  -8  -9   1 14277.3 1011.34   3
   9   8   1 16282.3 1204.37   4
   9   8   1 16771.5 1227.44   2
  17  -8   1 14102.9 675.112   1
  -9  17   1 15578.4 1173.10   4
 -17   9   4 6782.32 801.753   1
   8 -17   4 7213.97 896.600   3
  -9  17   4 7329.81 952.698   2
  -9  17   4 4659.17 581.382   3
  17  -8   4 6945.70 811.327   3
  17  -8   4 5083.70 336.255   1
   8 -17   4 5873.78 520.126   1
   9   8   4 7518.46 1040.66   2
  -8  -9   4 6467.64 658.908   2
   9   8   4 6493.28 861.251   4
  -8  -9   4 4038.36 664.179   1
  -9  17   4 7949.19 956.994   4
   8 -17   7 5170.17 1038.24   3
  -8  -9   7 2709.46 722.395   1
  17  -8   7 5361.46 812.992   3
  -9  17   7 2643.94 783.239   2
   9   8   7 2267.14 274.230   3
 -17   9   7 3041.96 829.680   1
   8 -17   7 2899.61 555.829   1
  17  -8   7 4446.39 788.789   4
  -9  17   7 4254.25 1018.34   1
   9   8   7 2819.96 757.240   4
   9   8   7 3319.21 928.400   2
  -9  17   7 4825.95 862.956   4
  17  -8   7 3390.50 527.253   1
   8 -17  10 1988.06 948.519   3
  17  -8  10 958.969 700.083   3
   8 -17  10 2075.24 733.078   1
  -9  17  10 2336.21 823.353   2
 -17   9  10 1530.07 1028.76   1
  17  -8  10 2249.86 1116.39   2
  -8  -9  10 2771.34 935.289   1
   9   8  10 1407.51 761.433   4
  -9  17  10 2438.93 1196.30   1
   9   8  10 1847.99 946.842   2
  -9  17  10 3086.62 844.244   4
 -10  17  -6 702.784 433.336   4
  17  -7  -6 1261.23 433.601   2
  10   7  -6 1033.63 496.433   4
  17  -7  -6 1213.13 794.387   3
 -10  17  -6 790.720 471.664   1
  10   7  -3 837.819 386.643   2
 -10  17  -3 1453.80 535.751   4
   7 -17  -3 1054.54 441.954   3
  17  -7  -3 1129.00 470.382   2
  17  -7  -3 338.695 625.576   3
 -10  17  -3 681.040 546.175   2
  10   7  -3 420.113 482.733   4
 -10  17  -3 465.766 334.698   1
   7 -17   0 3730.27 521.999   3
  17  -7   0 2851.46 458.022   1
  17  -7   0 4031.75 763.791   3
  10   7   0 4049.51 640.461   2
  -7 -10   0 3857.05 526.878   3
 -17  10   0 4332.03 386.476   1
 -10  17   0 2865.04 647.209   2
  10   7   0 3974.01 737.279   4
  -7 -10   0 4478.46 607.587   1
 -10  17   0 2821.00 400.804   1
 -10  17   0 3630.70 684.740   4
   7 -17   3 2392.23 606.582   3
 -10  17   3 2453.07 492.637   3
  17  -7   3 2121.93 541.349   3
  17  -7   3 2240.47 304.547   1
 -10  17   3 2375.58 674.892   2
 -17  10   3 2159.43 560.379   1
   7 -17   3 1599.22 402.806   1
  10   7   3 2098.98 355.554   3
  10   7   3 3013.51 716.469   4
  -7 -10   3 1942.94 549.833   2
  10   7   3 2075.37 729.558   2
  -7 -10   3 2436.23 581.914   1
 -10  17   3 1919.77 619.462   4
   7 -17   6 5012.64 886.451   3
  17  -7   6 3715.05 714.752   3
  17  -7   6 2831.58 381.760   1
  10   7   6 2543.46 334.937   3
 -17  10   6 3011.34 779.840   1
 -10  17   6 3879.03 852.511   2
  17  -7   6 3738.80 534.163   1
  -7 -10   6 3180.83 401.853   2
  10   7   6 3733.63 780.131   4
  -7 -10   6 4788.13 777.035   1
   7 -17   6 3375.65 645.958   4
  10   7   6 3407.34 899.626   2
   7 -17   6 4104.00 590.666   1
 -10  17   6 3818.78 800.071   4
  17  -7   9 1117.31 622.119   1
 -10  17   9 246.134 641.193   4
  -7 -10   9 787.380 689.301   1
   7 -17   9 1295.33 800.947   3
  17  -7   9-560.439 834.733   2
  10   7   9 481.022 771.666   2
  17  -7   9 139.778 622.217   3
 -10  17   9 617.616 704.536   2
 -17  10   9 2598.24 989.381   1
   7 -17   9-225.274 581.563   1
  17  -7   9 993.346 635.378   4
  10   7   9 46.5231 606.686   4
 -10  17   9-576.668 972.737   1
  17  -6  -7 1161.51 197.443   2
  11   6  -7 2588.32 595.030   4
  17  -6  -4 8201.43 724.017   2
   6 -17  -4 8217.06 680.473   3
  17  -6  -4 6565.36 991.645   3
  11   6  -4 6532.36 821.813   4
  11   6  -4 8156.54 609.735   2
 -11  17  -4 7099.61 545.664   1
 -11  17  -4 8546.63 839.018   4
  17  -6  -1 12874.2 894.691   1
   6 -17  -1 12868.6 752.576   3
 -11  17  -1 12511.0 645.012   1
 -11  17  -1 13963.5 1155.86   2
  17  -6  -1 12072.5 1127.06   3
  -6 -11  -1 14406.4 712.973   3
  -6 -11  -1 15086.8 1001.46   1
  11   6  -1 14019.0 1122.41   4
  11   6  -1 13433.0 996.211   2
 -17  11  -1 13722.7 482.270   1
 -11  17  -1 15041.8 1094.90   4
 -17  11   2 3829.78 525.455   1
   6 -17   2 2856.91 600.396   3
 -11  17   2 4394.69 786.245   2
  -6 -11   2 4564.59 633.201   1
  17  -6   2 4047.91 707.562   3
  17  -6   2 3336.55 396.913   1
   6 -17   2 2866.86 468.275   1
  11   6   2 4147.43 526.808   3
  -6 -11   2 3515.60 663.110   2
  11   6   2 3018.48 672.780   4
  11   6   2 4975.28 809.775   2
 -11  17   2 4266.06 588.717   3
 -11  17   2 4225.12 698.545   4
   6 -17   5 10802.3 1135.08   3
 -11  17   5 9158.53 1048.03   2
   6 -17   5 8597.91 785.174   1
  17  -6   5 10126.9 955.579   3
 -17  11   5 9665.62 1049.40   1
  11   6   5 9625.65 616.873   3
  11   6   5 8492.14 1135.51   2
  -6 -11   5 7697.76 688.734   2
  11   6   5 10552.9 1077.48   4
  -6 -11   5 10538.1 950.314   1
 -11  17   5 10576.4 1061.43   4
   6 -17   8 3496.43 967.091   3
  -6 -11   8 2762.15 734.467   1
  11   6   8 3020.49 490.979   3
  17  -6   8 3632.73 767.178   3
 -17  11   8 4124.41 1003.47   1
 -11  17   8 4280.44 879.323   2
   6 -17   8 3636.77 679.376   1
  17  -6   8 2113.55 633.960   4
  17  -6   8 2064.42 854.578   2
  11   6   8 4547.21 1129.59   2
  11   6   8 3513.76 857.661   4
 -11  17   8 4676.97 1154.30   1
  17  -6   8 2491.62 588.322   1
 -11  17   8 3182.67 788.158   4
  12   5  -8 2865.95 603.762   4
  17  -5  -5 12989.8 796.945   2
  17  -5  -5 14511.1 1465.68   3
  12   5  -5 14413.1 1104.85   4
  12   5  -5 11823.2 570.641   2
   5 -17  -2 3612.04 462.204   3
  -5 -12  -2 3892.36 244.994   3
 -12  17  -2 5636.52 853.501   2
  17  -5  -2 5368.91 931.635   3
 -12  17  -2 4467.32 418.108   1
  12   5  -2 4647.82 736.893   4
  12   5  -2 5385.33 663.669   2
 -12  17  -2 3706.39 667.637   4
 -17  12   1 13548.7 731.510   1
   5 -17   1 14729.4 922.296   3
  17  -5   1 10767.8 691.309   1
 -12  17   1 13916.1 1150.68   2
  17  -5   1 13517.1 1098.32   3
  12   5   1 10942.6 870.073   3
  -5 -12   1 13540.1 1001.51   3
  -5 -12   1 12726.2 885.679   1
  12   5   1 14246.5 1151.14   4
  12   5   1 14035.8 1118.76   2
   5 -17   1 13787.2 901.255   1
 -12  17   1 12276.9 1067.58   4
   5 -17   4 1810.15 631.105   3
 -17  12   4 2692.81 680.433   1
  12   5   4 2671.48 671.999   4
  17  -5   4 1792.11 538.628   3
 -12  17   4 1979.14 716.767   2
  12   5   4 2105.73 453.775   3
  17  -5   4 1661.46 341.396   1
  -5 -12   4 2283.22 597.002   1
   5 -17   4 1495.74 419.551   1
  12   5   4 2237.22 751.227   2
  -5 -12   4 1161.85 510.476   2
 -12  17   4 2425.27 690.019   4
   5 -17   7 7630.28 1094.80   3
 -12  17   7 10383.1 1124.15   2
  17  -5   7 11056.7 1031.30   3
  12   5   7 9193.27 1074.79   4
  12   5   7 9561.28 703.617   3
   5 -17   7 10464.6 953.985   1
  17  -5   7 8607.38 1241.69   2
  17  -5   7 11688.1 1109.51   4
 -12  17   7 11128.2 1404.91   1
  -5 -12   7 10275.1 1078.92   1
  12   5   7 12113.5 1416.04   2
 -17  12   7 10946.9 1272.71   1
 -12  17   7 10248.8 1142.95   4
   5 -17  10 1458.53 960.681   3
  -5 -12  10 1178.64 769.227   1
  17  -5  10 2061.11 774.483   3
 -17  12  10 982.784 952.440   1
 -12  17  10 1161.27 779.211   2
  17  -5  10 987.883 907.463   2
   5 -17  10 1057.67 667.338   1
  12   5  10 1055.95 740.853   4
  12   5  10 235.613 909.496   2
 -12  17  10 1767.67 1158.44   1
  17  -5  10 1527.72 758.179   1
  13   4  -9 840.028 529.593   4
  17  -4  -6 1215.90 268.737   2
  13   4  -6 1546.03 563.320   4
  17  -4  -6 836.183 253.391   2
 -13  17  -3 3132.10 285.577   1
   4 -17  -3 4105.05 444.313   3
  17  -4  -3 3658.43 609.635   2
  17  -4  -3 3545.58 885.606   3
  13   4  -3 3320.30 511.234   2
  13   4  -3 4980.42 776.555   4
 -13  17  -3 4168.97 711.968   4
 -17  13   0 3287.07 349.859   1
   4 -17   0 2443.06 434.079   3
  -4 -13   0 902.267 452.550   1
  13   4   0 1935.36 585.536   2
 -13  17   0 1897.56 355.798   1
  17  -4   0 1691.90 629.158   3
  17  -4   0 1742.29 443.435   1
 -13  17   0 2839.39 723.190   2
  13   4   0 2366.64 611.870   3
  -4 -13   0 2160.90 473.473   3
  13   4   0 2930.39 689.190   4
 -13  17   0 2772.82 688.433   4
   4 -17   3 4356.12 712.894   3
  -4 -13   3 5997.29 747.779   1
  17  -4   3 3457.50 666.735   3
  13   4   3 4682.72 619.175   3
 -13  17   3 3892.55 759.636   2
  17  -4   3 4790.43 491.897   1
   4 -17   3 4919.47 610.559   1
  13   4   3 5456.64 865.467   4
  13   4   3 5201.32 931.506   2
  -4 -13   3 5253.48 769.659   2
 -17  13   3 5527.41 702.469   1
 -13  17   3 6029.80 828.294   4
 -13  17   6 1848.49 668.268   4
   4 -17   6 1347.72 732.370   3
 -17  13   6 549.164 622.975   1
 -13  17   6 733.139 667.986   1
  17  -4   6 1002.13 493.200   3
  13   4   6 1175.60 452.290   3
 -13  17   6 1782.25 709.294   2
  -4 -13   6 1687.58 620.402   1
 -17  13   6 1268.81 559.158   2
  17  -4   6 1327.75 404.084   1
  17  -4   6 1142.71 633.609   4
  13   4   6 962.777 592.572   4
   4 -17   6 849.830 510.891   1
  13   4   6 321.729 743.140   2
  17  -4   6 1087.17 791.939   2
  -4 -13   6 1168.35 528.243   2
 -13  17   9 3155.16 785.532   4
   4 -17   9 2598.88 989.903   3
  17  -4   9 4035.11 1037.79   2
 -17  13   9 3964.03 1122.59   1
  -4 -13   9 2713.36 771.932   1
  17  -4   9 1305.78 636.369   3
 -13  17   9 889.103 798.066   2
   4 -17   9 2017.97 682.520   1
  17  -4   9 2403.54 704.080   4
  17  -4   9 3530.91 880.801   1
  13   4   9 1804.44 774.534   4
  13   4   9 3982.59 1089.82   2
 -13  17   9 4283.45 1128.25   1
  14   3  -7 3542.80 724.494   4
  17  -3  -4 5809.60 620.066   2
  17  -3  -4 5174.62 1023.12   3
  14   3  -4 5903.34 822.050   4
 -14  17  -4 3253.63 241.781   1
  14   3  -4 7871.58 619.023   2
  -3 -14  -1 6374.41 479.161   3
  14   3  -1 8193.87 954.156   4
   3 -17  -1 6222.22 508.768   3
 -14  17  -1 5902.61 398.761   1
  17  -3  -1 7680.81 998.603   3
  14   3  -1 5332.92 708.768   2
 -14  17  -1 6070.13 889.111   2
  -3 -14  -1 5685.31 506.332   3
  14   3  -1 7484.04 931.250   3
 -14  17  -1 7842.25 871.323   4
  -3 -14  -1 5992.83 751.812   1
 -14  17   2 3268.43 722.039   4
  17  -3   2 2074.78 436.066   1
   3 -17   2 2983.97 590.572   3
 -14  17   2 4089.47 779.319   2
  17  -3   2 2715.69 628.243   3
  -3 -14   2 3367.01 577.359   1
  14   3   2 2895.14 605.737   3
  14   3   2 2026.17 609.373   4
  14   3   2 3573.78 790.719   2
 -17  14   2 3041.77 534.781   1
   3 -17   2 3131.61 533.159   1
 -14  17   5 1400.18 615.784   4
  14   3   5 753.958 777.367   2
   3 -17   5 680.990 686.284   3
 -17  14   5 529.966 577.986   1
   3 -17   5 542.257 481.219   1
  17  -3   5 40.7755 381.325   1
  17  -3   5 655.462 467.908   3
  14   3   5 403.028 444.772   3
 -14  17   5 1020.84 672.289   2
 -14  17   5 170.586 593.095   1
 -17  14   5-20.1897 533.644   2
  17  -3   5 468.838 536.814   4
  17  -3   5 1331.95 684.588   2
  14   3   5 370.389 528.813   4
  -3 -14   5 847.431 566.769   1
  -3 -14   5-17.6711 510.774   2
 -17  14   8 4243.08 1069.59   1
  14   3   8 3629.09 588.489   3
  17  -3   8 3951.24 735.054   3
  -3 -14   8 3032.38 787.409   1
 -14  17   8 3893.93 869.378   2
   3 -17   8 4058.98 759.290   1
 -17  14   8 3033.96 664.212   2
  17  -3   8 5027.21 922.090   4
  14   3   8 4903.18 915.597   4
  17  -3   8 2545.53 934.191   2
   3 -17   8 5270.90 1119.90   3
  14   3   8 3891.30 1104.76   2
 -14  17   8 2434.89 1099.47   1
 -14  17   8 4827.66 908.727   4
  17  -2  -8 2701.24 741.535   4
  15   2  -8 2844.74 712.352   4
  17  -2  -5 15162.6 757.788   2
  15   2  -5 13554.0 633.913   2
  15   2  -5 12967.8 636.998   2
  15   2  -5 14173.3 1183.91   4
  17  -2  -5 14229.7 747.084   2
  -2 -15  -2 7856.58 326.524   3
   2 -17  -2 10681.7 553.896   3
 -15  17  -2 7508.50 305.435   1
  -2 -15  -2 6851.62 355.690   3
  17  -2  -2 9935.15 1163.85   3
  15   2  -2 9379.73 1041.53   3
  15   2  -2 9174.17 1025.17   4
  15   2  -2 11768.0 914.879   2
 -15  17  -2 11430.0 1029.24   4
   2 -17   1 9099.73 764.235   3
   2 -17   1 8115.18 767.383   1
  17  -2   1 8783.36 955.718   3
 -15  17   1 7600.46 949.760   2
  17  -2   1 7541.66 683.735   1
  15   2   1 9219.26 933.581   3
 -15  17   1 7792.30 696.073   1
  15   2   1 7601.95 945.691   4
  15   2   1 10211.9 1065.01   2
 -17  15   1 8219.77 658.320   1
  -2 -15   1 8551.38 821.088   1
 -15  17   1 6605.72 887.033   4
 -17  15   4 2682.33 659.704   1
  17  -2   4 2049.62 451.107   1
   2 -17   4 2894.19 720.091   3
  -2 -15   4 3907.80 707.997   1
 -15  17   4 3200.15 772.638   4
  17  -2   4 3174.48 660.962   3
  15   2   4 2995.99 712.096   4
  15   2   4 3656.88 607.851   3
 -15  17   4 3697.12 784.558   2
 -17  15   4 1818.24 673.090   2
   2 -17   4 2150.98 553.267   1
  17  -2   4 3477.37 846.410   2
  17  -2   4 2196.99 728.371   4
  15   2   4 3256.65 853.611   2
 -15  17   4 2808.14 695.208   1
   2 -17   7 17697.7 1578.74   3
   2 -17   7 16064.5 1181.48   1
  17  -2   7 19393.1 1242.61   3
  15   2   7 18717.3 1091.21   3
 -15  17   7 14681.8 1274.86   2
 -15  17   7 16219.7 1591.67   1
 -17  15   7 15716.7 1221.24   2
  17  -2   7 16444.0 1692.63   2
  17  -2   7 17764.8 1399.82   4
  15   2   7 18673.3 1731.93   2
  15   2   7 18049.9 1427.02   4
 -17  15   7 18144.6 1603.18   1
  -2 -15   7 17993.4 1300.69   1
 -15  17   7 18269.4 1454.77   4
  16   1  -9 5476.74 866.447   4
  17  -1  -9 4541.96 817.331   4
  16   1  -6 5503.62 862.194   4
  17  -1  -6 5991.35 934.467   4
  17  -1  -3 8118.06 1113.97   3
  16   1  -3 6582.08 1078.52   3
  16   1  -3 7118.92 948.859   4
  17  -1  -3 6956.03 735.673   2
  16   1  -3 7218.25 737.088   2
  -1 -16   0 4668.63 536.680   3
   1 -17   0 4818.39 531.069   3
   1 -17   0 4545.65 675.361   1
  16   1   0 5058.52 808.680   3
 -16  17   0 4547.29 864.716   2
  -1 -16   0 3440.11 626.255   1
  17  -1   0 3471.82 787.539   3
  17  -1   0 4868.21 795.457   2
  16   1   0 5027.83 803.324   2
 -16  17   0 4686.78 492.150   1
  16   1   0 5720.73 864.859   4
 -17  16   0 4634.00 449.286   1
 -16  17   0 4718.10 817.439   4
 -16  17   3 16321.5 1132.90   1
   1 -17   3 18559.7 1262.00   3
  17  -1   3 14825.1 1110.62   3
 -16  17   3 17394.5 1323.36   2
  16   1   3 19175.4 1174.27   3
 -17  16   3 17689.4 1321.23   2
  -1 -16   3 17571.4 1063.15   1
   1 -17   3 14314.3 979.134   1
  17  -1   3 18300.5 1463.40   2
  17  -1   3 17019.1 1355.64   4
  16   1   3 16524.1 1319.68   4
  16   1   3 18205.1 1455.84   2
 -17  16   3 17601.7 1157.02   1
 -16  17   3 16348.3 1318.92   4
  16   1   6 3520.88 816.491   4
 -16  17   6 3071.96 756.033   4
 -17  16   6 4073.48 937.186   1
  17  -1   6 2134.27 724.941   4
  17  -1   6 3357.03 657.449   3
  16   1   6 2857.74 568.170   3
 -16  17   6 1835.01 648.272   2
 -17  16   6 1702.74 597.864   2
  16   1   6 1929.66 798.955   2
  17  -1   6 2460.65 885.273   2
  -1 -16   6 2705.81 657.425   1
   1 -17   6 3305.07 729.077   1
 -16  17   6 3154.44 878.512   1
 -16  17   9 4137.92 1194.52   1
   1 -17   9 2239.36 1088.42   3
 -17  16   9 1318.79 971.098   1
  17  -1   9 2489.15 698.603   3
  16   1   9 2939.08 660.291   3
  17  -1   9 3166.24 1136.35   2
  -1 -16   9 3089.70 871.848   1
   1 -17   9 1691.18 747.279   1
 -16  17   9 2750.28 857.156   2
 -17  16   9 1535.28 733.575   2
  16   1   9 2452.73 1029.35   2
  16   1   9 1483.15 783.995   4
  17  -1   9 2646.30 833.201   4
  17   0  -7 715.352 649.906   4
  17   0  -4 1162.01 646.908   4
  17   0  -4 1683.42 469.635   2
 -17  17  -1 123.540 164.681   1
   0 -17  -1 574.225 277.268   3
  17   0  -1-415.880 531.678   4
 -17  17  -1-49.3691 155.186   1
  17   0  -1 247.454 548.636   2
  17   0  -1-281.772 594.111   3
 -17  17   2 11227.2 1093.38   4
   0 -17   2 10061.5 905.109   3
   0 -17   2 8006.69 782.368   1
  17   0   2 10780.3 1044.21   3
 -17  17   2 9174.70 1031.74   2
  17   0   2 8700.43 1094.01   4
  17   0   2 11829.1 1235.05   2
 -17  17   2 10877.4 873.628   1
  17   0   5 393.825 495.878   3
 -17  17   5 286.653 626.623   2
  17   0   5 481.840 609.336   4
  17   0   5 179.928 705.816   2
   0 -17   5-95.2812 501.243   1
 -17  17   5 777.147 671.081   1
 -17  17   8 1442.40 866.050   1
  17   0   8 1397.51 575.224   3
 -17  17   8 752.477 685.972   2
  17   0   8 2620.02 833.865   4
   0 -17   8 2355.28 737.542   1
  17   0   8 2761.51 999.752   2
   0  18  -6 22910.7 1356.13   4
   0  18  -6 19028.3 1350.25   2
  18 -18  -6 20107.3 1767.97   3
   0  18  -3 147.219 535.349   2
  18 -18  -3 914.127 684.962   3
   0  18  -3 811.034 604.512   4
   0  18   0 10588.0 1140.56   2
  18 -18   0 13269.8 1129.11   3
 -18   0   0 9135.27 847.011   1
   0  18   0 11182.2 1157.07   4
   0  18   3-687.757 625.960   2
  18 -18   3-440.904 571.730   3
 -18   0   3 556.491 495.335   1
   0  18   3 1259.03 642.282   4
  18 -18   6 16794.6 1442.93   3
 -18   0   6 13722.1 1269.80   1
   0  18   6 15538.9 1426.83   4
   0  18   6 16673.2 1602.61   2
   0  18   9-235.950 930.352   2
  18 -18   9-709.463 789.741   3
 -18   0   9 631.384 802.391   1
   0  18   9 213.763 795.038   4
  17 -18  -7 8435.40 1373.29   3
  18 -17  -7 8344.99 1349.23   3
   1  17  -7 8131.85 840.167   4
  -1  18  -7 8251.36 850.542   4
   1  17  -4 1912.00 588.188   2
  -1  18  -4 2066.43 664.210   2
  17 -18  -4 2189.40 790.279   3
  18 -17  -4 2444.33 835.822   3
  -1  18  -4 2213.45 630.577   4
   1  17  -4 2082.72 611.064   4
   1  17  -1 12611.3 1140.39   2
  -1  18  -1 12174.3 1128.45   2
  17 -18  -1 12299.1 1091.34   3
  18 -17  -1 11075.5 1093.21   3
 -18   1  -1 10762.7 827.902   1
 -17  -1  -1 12018.9 899.723   1
   1  17  -1 10260.2 1077.04   4
  -1  18  -1 13074.5 1192.97   4
   1  17   2 3469.46 830.003   2
  17 -18   2 5186.54 790.058   3
  18 -17   2 3042.71 702.408   3
 -18   1   2 3491.64 593.058   1
   1  17   2 3664.21 771.053   4
  -1  18   2 2447.34 706.459   4
 -17  -1   2 4789.96 674.116   1
  -1  18   2 4700.18 893.895   2
  17 -18   5 10861.3 1171.72   3
  18 -17   5 8344.19 1027.44   3
 -18   1   5 9418.12 997.331   1
 -17  -1   5 9256.88 1023.10   1
   1  17   5 10535.4 1220.49   4
  -1  18   5 9978.05 1161.83   4
  -1  18   5 9048.19 1185.46   2
   1  17   5 8628.87 1183.02   2
  17 -18   8 7666.17 1190.89   3
  18 -17   8 9084.75 1212.15   3
 -18   1   8 7859.32 1152.72   1
 -17  -1   8 9229.96 1174.62   1
   1  17   8 10872.9 1284.96   4
  -1  18   8 6828.38 1094.34   4
   1  17   8 9856.56 1399.75   2
  -1  18   8 8072.07 1278.22   2
   2  16  -8 1253.60 527.274   4
  -2  18  -8 880.309 494.507   4
 -16  -2  -5 1332.85 497.480   3
   2  16  -5 2187.88 616.766   4
   2  16  -5 1560.41 593.939   2
  -2  18  -5 3193.12 745.907   2
  16 -18  -5 2855.91 893.840   3
  18 -16  -5 2803.60 890.920   3
  -2  18  -5 2463.91 619.432   4
   2  16  -2 6006.15 829.027   2
  -2  18  -2 6261.58 871.037   2
 -16  -2  -2 4910.06 677.684   1
 -16  -2  -2 4515.70 640.993   3
  16 -18  -2 5706.32 865.799   3
  18 -16  -2 6206.19 945.536   3
 -18   2  -2 6107.13 641.313   1
   2  16  -2 6730.02 912.364   4
  -2  18  -2 6536.41 859.163   4
   2  16   1 543.620 661.200   2
  -2  18   1 564.882 626.618   2
  16 -18   1 605.136 491.141   3
 -16  -2   1 964.891 472.438   1
  18 -16   1 1358.72 547.790   3
 -18   2   1 1157.12 447.008   1
   2  16   1 658.695 635.021   4
  -2  18   1 1445.52 680.444   4
 -18   2   4 894.628 478.170   1
   2  16   4 1247.83 701.929   2
  16 -18   4 1092.30 586.926   3
 -16  -2   4 1865.82 623.330   1
  18 -16   4 1302.53 644.667   3
  -2  18   4 3270.14 836.421   2
   2  16   4 962.072 676.182   4
  -2  18   4 1553.18 722.443   4
   2  16   7-362.796 806.772   2
  -2  18   7 1255.26 884.828   2
  16 -18   7 1636.99 752.365   3
  18 -16   7 1058.65 679.507   3
 -18   2   7 1771.03 769.059   1
   2  16   7-233.808 644.681   4
  -2  18   7 1298.94 708.140   4
 -16  -2   7 604.469 621.014   1
   3  15  -6 6800.47 817.919   2
  -3  18  -6 6038.23 917.925   2
  15 -18  -6 4300.01 920.254   3
  18 -15  -6 5014.63 1125.68   3
   3  15  -6 6308.86 806.052   4
  -3  18  -6 6153.64 773.565   4
 -15  -3  -3 1902.03 468.834   3
   3  15  -3 2409.78 590.202   2
  -3  18  -3 2676.70 696.728   2
  15 -18  -3 1626.74 692.791   3
  18 -15  -3 2510.01 823.862   3
   3  15  -3 1831.00 623.704   4
  -3  18  -3 3682.15 694.009   4
  -3  18   0 13148.4 1196.61   2
  15 -18   0 13937.7 1045.92   3
  18 -15   0 13641.2 1150.29   3
 -15  -3   0 17096.0 1042.86   1
   3  15   0 14944.1 1221.79   4
  -3  18   0 15027.3 1226.78   4
   3  15   0 14382.2 1169.27   2
   3  15   3-664.001 659.295   2
 -18   3   3 993.289 451.975   1
  -3  18   3 232.335 569.719   2
  15 -18   3 476.512 536.043   3
  18 -15   3 715.153 592.159   3
 -15  -3   3-457.046 484.547   1
   3  15   3 789.659 602.693   4
  -3  18   3 258.220 577.867   4
  15 -18   6 8732.11 1087.47   3
  18 -15   6 7951.30 1031.89   3
 -18   3   6 8137.50 1057.71   1
 -15  -3   6 7614.39 949.664   1
   3  15   6 8602.69 1128.76   4
  -3  18   6 9722.41 1134.73   4
   3  15   6 10980.0 1347.44   2
  -3  18   6 8269.07 1175.17   2
   3  15   9 913.512 947.176   2
  -3  18   9 680.601 788.159   2
  15 -18   9 2371.31 837.511   3
  18 -15   9 1412.62 870.100   3
 -18   3   9 1413.80 880.915   1
   3  15   9 245.025 693.378   4
 -15  -3   9-1143.91 911.377   1
  -3  18   9 714.260 757.788   4
  18 -14  -7 3460.10 941.809   3
  14 -18  -7 3888.35 920.407   3
   4  14  -7 4441.28 665.219   4
  -4  18  -7 3348.00 608.358   4
 -14  -4  -4 6809.62 609.845   3
   4  14  -4 9947.33 907.990   2
  -4  18  -4 11074.3 1079.68   2
  14 -18  -4 9855.58 1105.91   3
  18 -14  -4 9858.69 1203.17   3
  -4  18  -4 9574.96 925.357   4
   4  14  -4 9842.41 954.757   4
  -4  18  -1 4147.04 816.201   2
 -14  -4  -1 3823.02 571.554   3
  14 -18  -1 4154.10 676.216   3
 -18   4  -1 5027.15 558.605   1
  18 -14  -1 3106.31 694.271   3
   4  14  -1 4891.93 801.293   4
 -14  -4  -1 4314.39 606.874   1
  -4  18  -1 4979.44 793.954   4
   4  14  -1 4773.35 737.347   2
  -4  18   2 8911.47 1072.22   2
  14 -18   2 10078.6 964.536   3
  18 -14   2 9766.17 953.390   3
 -18   4   2 10120.0 801.120   1
   4  14   2 8083.80 986.258   4
   4  14   2 8072.54 999.598   2
  -4  18   2 10627.1 1077.12   4
 -14  -4   2 8490.68 827.990   1
   4  14   5 3448.43 862.589   2
  -4  18   5 2125.76 243.741   3
  18 -14   5 4776.67 829.687   3
  -4  18   5 3387.58 897.013   2
  14 -18   5 3503.04 738.925   3
   4  14   5 4235.15 840.837   4
 -14  -4   5 4778.27 784.265   1
 -18   4   5 3091.80 723.240   1
  -4  18   5 4781.33 872.158   4
   4  14   8 4171.52 1107.77   2
  -4  18   8 4890.03 1000.66   4
  -4  18   8 2872.67 935.884   2
  14 -18   8 3608.51 897.603   3
  18 -14   8 3340.39 895.154   3
 -18   4   8 3944.82 920.672   1
   4  14   8 2005.45 825.121   4
 -14  -4   8 3035.77 843.393   1
   5  13  -8 5669.97 703.622   4
  -5  18  -8 6803.46 679.858   4
   5  13  -5 2202.79 572.461   2
  13 -18  -5 3186.12 759.995   3
  18 -13  -5 2181.75 871.553   3
  -5  18  -5 2892.05 688.233   2
   5  13  -5 2026.56 582.787   4
  -5  18  -5 3496.41 655.183   4
   5  13  -2 16714.3 1211.73   4
 -13  -5  -2 15171.2 868.469   3
  -5  18  -2 15026.1 1205.90   2
  13 -18  -2 15030.6 1094.53   3
  18 -13  -2 16812.7 1299.75   3
 -13  -5  -2 15996.1 1024.86   1
  -5  18  -2 15363.8 1145.84   4
 -18   5  -2 12472.9 713.375   1
   5  13  -2 14715.0 1053.52   2
  -5  18   1 6823.78 922.988   2
  13 -18   1 5288.67 731.506   3
 -13  -5   1 5659.51 711.673   1
  18 -13   1 7045.45 892.386   3
 -18   5   1 6703.34 593.512   1
   5  13   1 5913.88 818.305   4
  -5  18   1 6898.41 893.071   4
   5  13   1 6930.14 890.104   2
  -5  18   4 7913.72 1044.55   2
  -5  18   4 7080.45 494.928   3
  13 -18   4 7846.06 947.412   3
  18 -13   4 8267.50 951.307   3
 -18   5   4 10008.2 915.741   1
 -13  -5   4 7267.10 859.189   1
   5  13   4 8141.11 1002.60   4
   5  13   4 6315.73 981.060   2
  -5  18   4 7943.42 1014.10   4
  13 -18   7 4134.63 920.388   3
  -5  18   7 3024.40 875.757   2
 -13  -5   7 2249.28 718.989   1
  18 -13   7 2979.81 804.705   3
  13 -18   7 1592.35 415.957   1
 -18   5   7 3559.03 865.346   1
   5  13   7 2953.30 807.673   4
  -5  18   7 4481.04 890.565   4
   5  13   7 3659.26 965.330   2
   6  12  -6 5267.01 592.571   2
  12 -18  -6 5958.08 970.085   3
  18 -12  -6 6358.21 1140.47   3
   6  12  -6 5547.15 734.157   4
  -6  18  -6 5808.29 724.450   4
 -12  -6  -3 4107.53 429.789   3
  -6  18  -3 5169.14 834.451   2
  12 -18  -3 6650.33 812.498   3
  18 -12  -3 6076.20 967.824   3
   6  12  -3 5697.89 767.517   4
  -6  18  -3 6768.95 837.282   4
   6  12  -3 5648.74 705.581   2
  -6  18   0 6446.00 901.957   2
  12 -18   0 7354.47 755.399   3
  18 -12   0 5421.91 788.695   3
 -12  -6   0 6277.25 695.469   3
 -12  -6   0 7395.42 718.840   1
   6  12   0 6676.86 826.679   2
   6  12   0 7421.04 889.456   4
  -6  18   0 8383.16 921.693   4
 -18   6   0 8342.73 611.224   1
   6  12   3 2993.13 776.453   2
  -6  18   3 2475.59 434.035   3
  18 -12   3 3837.37 720.376   3
  12 -18   3 2872.27 619.407   3
  -6  18   3 2309.70 710.151   2
 -12  -6   3 2712.15 602.322   1
   6  12   3 4050.93 800.229   4
 -18   6   3 2864.83 567.898   1
  -6  18   3 3667.27 758.419   4
 -12  -6   6 714.581 530.710   1
  12 -18   6 407.551 638.341   3
  -6  18   6 1904.85 820.898   2
  -6  18   6-356.421 363.955   3
  18 -12   6 592.349 573.818   3
 -18   6   6 1347.65 700.156   1
  12 -18   6 982.356 320.621   1
   6  12   6 1931.81 710.966   4
  -6  18   6 1382.11 705.152   4
   6  12   6 2617.44 876.436   2
  12 -18   9 3839.00 1020.48   3
  -6  18   9 4002.94 1041.40   2
  18 -12   9 4462.07 934.923   3
  12 -18   9 3681.74 643.309   1
 -18   6   9 5298.59 1067.20   1
  -6  18   9 3628.98 1197.92   1
   6  12   9 5170.73 989.086   4
   6  12   9 6936.57 1281.73   2
  -6  18   9 5323.85 942.109   4
 -12  -6   9 3615.65 889.216   1
  18 -11  -7 5458.23 1176.97   3
   7  11  -7 5278.72 704.165   4
  -7  18  -7 5397.47 666.375   4
 -11  -7  -4 10648.6 526.233   3
   7  11  -4 13450.0 891.953   2
  -7  18  -4 12353.2 1118.71   2
  11 -18  -4 14202.5 1129.42   3
  18 -11  -4 12310.1 1284.21   3
   7  11  -4 14405.6 1110.06   4
  -7  18  -4 14371.0 1072.33   4
  -7  18  -1 7633.45 677.487   1
 -11  -7  -1 9436.49 819.875   1
 -18   7  -1 6226.73 561.517   1
  -7  18  -1 7539.80 912.097   2
  11 -18  -1 9199.15 802.997   3
 -11  -7  -1 8621.35 688.332   3
  18 -11  -1 7666.80 921.212   3
  18 -11  -1 7509.62 681.868   1
   7  11  -1 9569.28 970.202   4
  -7  18  -1 9242.21 951.905   4
   7  11  -1 9433.66 922.897   2
 -11  -7   2 15091.7 1032.53   1
  -7  18   2 13695.6 829.126   3
  -7  18   2 14106.7 1215.06   2
  11 -18   2 14838.1 1065.43   3
  18 -11   2 15282.3 1138.89   3
 -18   7   2 14631.9 902.112   1
   7  11   2 15354.2 1239.80   4
   7  11   2 12872.5 1212.58   2
  -7  18   2 16591.2 1278.99   4
  -7  18   5 4610.83 895.883   2
  11 -18   5 4504.72 882.823   3
  -7  18   5 4325.00 523.052   3
 -18   7   5 5276.74 835.558   1
  18 -11   5 5235.48 826.706   3
  11 -18   5 4231.81 453.565   1
 -11  -7   5 4322.75 771.416   1
   7  11   5 5218.65 871.905   4
   7  11   5 5435.57 1013.03   2
  -7  18   5 6635.60 961.754   4
  11 -18   8 3898.80 928.771   3
  -7  18   8 3784.47 1023.93   2
  18 -11   8 3551.49 825.249   3
 -11  -7   8 5519.28 1006.30   1
 -18   7   8 5995.38 1071.24   1
  18 -11   8 5778.08 846.676   4
   7  11   8 4231.32 891.811   4
  11 -18   8 4180.50 622.749   1
   7  11   8 5666.33 1164.84   2
  -7  18   8 4436.67 891.271   4
   8  10  -8 9426.39 824.633   4
  18 -10  -5 6725.17 798.167   2
   8  10  -5 7303.65 652.445   2
  10 -18  -5 6047.92 795.991   3
  18 -10  -5 7860.30 1131.29   3
   8  10  -5 7971.94 862.744   4
  -8  18  -5 8593.05 853.086   4
 -10  -8  -2 17949.0 749.977   3
  10 -18  -2 17906.7 1036.74   3
  -8  18  -2 18368.7 1307.69   2
  18 -10  -2 18351.9 1397.63   3
   8  10  -2 18373.4 1242.16   4
  18 -10  -2 15658.4 1019.69   1
 -10  -8  -2 15676.6 1110.83   1
  -8  18  -2 15334.7 865.129   1
 -18   8  -2 15352.7 612.891   1
  -8  18  -2 17509.0 1226.09   4
   8  10  -2 19545.1 1127.41   2
  -8  18   1 16501.5 988.723   3
  10 -18   1 15582.9 1016.24   3
  -8  18   1 14579.5 1229.31   2
  18 -10   1 16526.8 1185.37   3
 -10  -8   1 15418.4 1024.75   1
 -10  -8   1 15180.3 1084.07   3
 -18   8   1 14842.7 796.718   1
  18 -10   1 13693.1 611.704   1
   8  10   1 13153.2 1110.90   4
   8  10   1 14338.4 1193.32   2
  -8  18   1 17271.3 1270.90   4
  -8  18   4 12103.6 1190.41   2
  10 -18   4 13599.6 1141.51   3
  -8  18   4 11473.9 773.861   3
 -18   8   4 14058.8 1066.29   1
  18 -10   4 16033.4 1206.73   3
   8  10   4 14278.1 1230.86   4
   8  10   4 12475.4 1221.13   2
 -10  -8   4 12784.9 1017.76   1
  -8  18   4 14595.0 1228.60   4
  10 -18   4 12867.5 710.494   1
  -8  18   7 8834.29 1198.75   2
  10 -18   7 9180.19 1187.12   3
 -18   8   7 10331.1 1151.29   1
  18 -10   7 8588.14 1032.57   3
 -10  -8   7 8869.17 1047.75   1
   8  10   7 10503.6 1315.44   2
  18 -10   7 8775.62 587.074   1
  -8  18   7 9065.00 1087.49   4
   8  10   7 9937.88 1170.32   4
  10 -18   7 8463.92 752.496   1
  18  -9  -6 1680.95 541.942   2
   9   9  -6 928.599 243.654   2
   9   9  -6 1576.69 554.233   4
  18  -9  -6 3686.81 973.518   3
   9 -18  -6 1825.28 571.922   3
  -9  18  -6 2970.96 602.589   4
  -9  -9  -3 4368.75 262.604   3
  18  -9  -3 6864.69 794.989   2
   9 -18  -3 5871.10 702.571   3
  -9  18  -3 7866.17 935.388   2
  -9  18  -3 7156.30 654.213   1
  18  -9  -3 9087.57 1117.10   3
   9   9  -3 6658.06 824.104   4
  -9  18  -3 8008.35 835.987   4
   9   9  -3 6161.33 657.204   2
  -9  18   0 689.209 347.822   1
 -18   9   0 873.994 288.525   1
   9 -18   0 535.951 360.742   3
  -9  -9   0 422.991 432.770   1
  18  -9   0 1131.95 559.966   3
  -9  18   0-300.153 582.841   2
  -9  -9   0 1223.82 443.123   3
   9   9   0 129.701 481.865   4
   9   9   0 351.658 472.287   2
  -9  18   0 235.426 496.068   4
  18  -9   0 198.519 356.772   1
   9 -18   3 6720.81 796.978   3
  -9  18   3 7709.28 679.506   3
  -9  18   3 6359.79 940.717   2
 -18   9   3 6338.26 715.780   1
  18  -9   3 6656.43 808.976   3
   9 -18   3 6481.48 561.604   1
  -9  -9   3 6981.96 761.089   2
   9   9   3 6364.90 887.974   4
   9   9   3 5140.65 882.867   2
  -9  18   3 6556.83 917.862   4
  -9  -9   3 7647.22 812.211   1
  18  -9   3 5111.91 319.752   1
   9 -18   6 2335.40 719.828   3
   9 -18   6 1884.81 497.579   1
  18  -9   6 2331.92 656.799   3
  -9  -9   6 2274.16 665.244   1
  -9  18   6 3650.34 874.583   2
  -9  18   6 2303.27 546.600   3
 -18   9   6 2559.40 745.255   1
  18  -9   6 2402.66 384.568   1
   9   9   6 3462.84 775.026   4
   9   9   6 2444.01 910.824   2
  18  -9   6 581.988 253.009   1
  -9  18   6 2980.67 769.514   4
  -9  -9   9 4480.29 919.083   1
   9 -18   9 1166.27 873.801   3
  18  -9   9 2336.69 779.697   3
  -9  18   9 1190.34 834.435   2
 -18   9   9 1838.86 929.158   1
   9 -18   9 1362.11 592.640   1
  18  -9   9 1082.75 807.852   2
  18  -9   9 906.334 553.383   4
  -9  18   9 1996.74 993.542   1
   9   9   9 2608.31 877.453   4
   9   9   9 2070.41 949.522   2
  -9  18   9 1129.88 718.491   4
  10   8  -7 9929.59 890.755   4
 -10  18  -4 10943.4 731.481   1
   8 -18  -4 13002.6 967.596   3
 -10  18  -4 11407.3 1131.14   2
  18  -8  -4 11110.7 1295.17   3
  10   8  -4 11691.9 1002.44   4
  18  -8  -4 10875.7 879.249   2
 -10  18  -4 10885.8 978.393   4
  10   8  -4 12568.5 784.873   2
 -10  18  -1 19207.3 907.738   1
  -8 -10  -1 15718.6 1031.97   1
   8 -18  -1 16260.5 903.974   3
 -10  18  -1 14929.7 1222.71   2
  -8 -10  -1 17056.0 816.612   3
  18  -8  -1 12936.5 1141.37   3
  10   8  -1 14712.3 1148.80   4
  18  -8  -1 15827.3 972.748   1
  10   8  -1 17248.1 1128.64   2
 -10  18  -1 15654.3 1170.72   4
 -18  10  -1 11332.7 562.833   1
 -10  18   2 15721.9 949.909   3
   8 -18   2 16103.4 1069.31   3
 -10  18   2 17106.5 1304.80   2
  -8 -10   2 16677.1 1110.88   1
 -18  10   2 16614.0 926.837   1
  18  -8   2 15965.6 1153.06   3
  -8 -10   2 15735.9 1111.00   2
  10   8   2 17473.2 1280.09   4
  10   8   2 17394.9 1317.02   2
 -10  18   2 16574.1 1270.96   4
  18  -8   2 14994.5 661.851   1
 -18  10   5 8961.38 1028.38   1
   8 -18   5 8258.26 995.855   3
 -10  18   5 7278.15 997.380   2
 -10  18   5 7758.52 762.196   3
  18  -8   5 9005.64 948.155   3
   8 -18   5 7076.23 624.512   1
  10   8   5 7841.62 993.893   4
  -8 -10   5 6097.83 619.496   2
  18  -8   5 5460.87 391.103   1
  10   8   5 9020.30 1206.35   2
  -8 -10   5 8338.37 902.299   1
 -10  18   5 8334.75 1013.78   4
   8 -18   8 14508.6 1502.07   3
 -10  18   8 10194.6 1227.37   2
  18  -8   8 10757.6 1131.82   3
 -18  10   8 12029.4 1330.74   1
  -8 -10   8 10709.3 1174.22   1
  18  -8   8 11080.4 1096.49   4
 -10  18   8 10993.6 1423.48   1
  18  -8   8 9372.38 794.566   1
  10   8   8 10433.9 1198.16   4
  10   8   8 11771.2 1518.18   2
 -10  18   8 12887.4 1238.52   4
   8 -18   8 9720.72 910.363   1
  11   7  -8 3997.99 658.440   4
  11   7  -5 3812.77 445.068   2
  18  -7  -5 3386.02 594.906   2
   7 -18  -5 3654.01 566.358   3
  18  -7  -5 3434.05 956.502   3
  11   7  -5 5022.26 745.610   4
 -11  18  -5 3483.86 529.304   1
 -11  18  -5 4681.99 685.201   4
  -7 -11  -2 14998.0 542.873   3
   7 -18  -2 15890.8 881.936   3
 -11  18  -2 14946.6 760.211   1
 -11  18  -2 15387.7 1252.37   2
  18  -7  -2 15245.8 1089.41   2
  18  -7  -2 15807.9 1334.01   3
  11   7  -2 16405.8 1209.11   4
  11   7  -2 15453.8 1008.41   2
 -11  18  -2 15533.8 1146.43   4
 -11  18   1 9374.39 996.834   4
   7 -18   1 9181.09 805.539   3
 -11  18   1 7584.46 957.951   2
 -18  11   1 9233.71 633.867   1
  18  -7   1 7529.62 864.283   3
  -7 -11   1 9042.60 876.419   3
  -7 -11   1 9327.41 801.105   1
 -11  18   1 8497.91 674.198   1
  11   7   1 10335.0 1009.70   4
  18  -7   1 8616.16 638.427   1
   7 -18   4 15591.4 1204.87   3
 -11  18   4 13023.4 1195.58   2
  18  -7   4 11522.0 1017.30   3
  11   7   4 11015.8 599.112   3
  18  -7   4 9907.17 533.160   1
   7 -18   4 12122.4 779.501   1
  -7 -11   4 11543.0 904.078   2
  11   7   4 11697.5 1145.00   4
  11   7   4 12397.4 1281.60   2
 -11  18   4 12140.5 1146.83   4
  -7 -11   4 12909.8 1035.89   1
 -18  11   4 12676.0 1054.00   1
   7 -18   7 4883.62 1008.92   3
  18  -7   7 4056.13 798.545   3
  11   7   7 2555.27 382.777   3
 -18  11   7 5435.24 991.915   1
 -11  18   7 3887.70 899.695   2
  -7 -11   7 5331.29 892.750   1
  18  -7   7 4197.10 800.589   4
  11   7   7 5041.65 921.182   4
 -11  18   7 4804.67 1056.61   1
  18  -7   7 3069.84 592.373   1
 -11  18   7 3933.51 851.868   4
  11   7   7 2620.97 940.245   2
   7 -18   7 4292.57 688.748   1
  18  -6  -6 1198.43 417.795   2
  12   6  -6 647.633 502.948   4
 -12  18  -6 1281.83 480.742   1
 -12  18  -3 2319.29 388.189   1
   6 -18  -3 2589.70 506.923   3
  18  -6  -3 2746.96 578.581   2
  18  -6  -3 3160.03 799.768   3
 -12  18  -3 3155.33 769.864   2
  12   6  -3 3558.90 714.787   4
  12   6  -3 3193.63 545.345   2
 -12  18  -3 3130.76 662.487   4
   6 -18   0 6982.32 656.492   3
 -12  18   0 9153.26 1030.71   2
 -18  12   0 7844.97 473.398   1
  18  -6   0 8979.76 1000.65   3
  -6 -12   0 7179.81 690.559   3
  12   6   0 6455.22 858.542   4
  12   6   0 7265.67 878.529   2
 -12  18   0 6870.99 542.213   1
  -6 -12   0 6148.91 711.530   1
 -12  18   0 9223.73 987.710   4
  18  -6   0 5985.35 616.690   1
   6 -18   3 5686.32 815.327   3
  -6 -12   3 5217.35 745.039   1
 -12  18   3 6218.28 921.271   2
  18  -6   3 5473.71 784.286   3
  12   6   3 5160.08 570.758   3
  18  -6   3 4656.69 450.398   1
  12   6   3 7441.96 935.406   4
  -6 -12   3 6922.18 847.530   2
  12   6   3 5452.66 931.594   2
   6 -18   3 5437.01 593.837   1
 -12  18   3 6776.61 873.195   4
 -18  12   3 7251.21 810.934   1
   6 -18   6 5938.69 1062.89   3
   6 -18   6 5491.70 725.731   1
 -12  18   6 4853.36 929.923   2
  18  -6   6 2459.14 445.165   1
 -18  12   6 4392.43 874.335   1
  18  -6   6 4273.39 705.001   3
  12   6   6 4851.81 512.958   3
  12   6   6 5197.80 999.282   2
  18  -6   6 5657.09 894.473   4
 -12  18   6 4855.34 989.709   1
  -6 -12   6 4894.95 822.638   1
  -6 -12   6 2989.45 537.162   2
  12   6   6 6236.37 926.017   4
 -12  18   6 5223.66 883.546   4
 -12  18   9 1023.72 738.068   4
   6 -18   9 3809.06 1077.32   3
  -6 -12   9 817.325 757.723   1
  18  -6   9 1784.77 686.884   3
 -18  12   9 1479.24 945.458   1
 -12  18   9 423.302 712.269   2
  18  -6   9 1185.27 857.989   2
 -12  18   9 1488.84 1028.86   1
   6 -18   9 1208.11 682.164   1
  18  -6   9 2211.42 716.076   4
  12   6   9 1741.85 813.720   4
  12   6   9 1854.24 949.629   2
  18  -6   9 2057.64 708.998   1
  13   5  -7 3994.06 726.116   4
  18  -5  -4 6766.54 722.184   2
   5 -18  -4 8084.95 603.961   3
  18  -5  -4 7615.27 1146.84   3
  13   5  -4 9167.24 969.054   4
 -13  18  -4 5774.07 431.927   1
  13   5  -4 7232.72 624.916   2
 -13  18  -4 7922.52 856.988   4
   5 -18  -1 6277.52 563.112   3
 -13  18  -1 5897.16 449.944   1
 -13  18  -1 6986.27 952.041   2
  18  -5  -1 7749.36 1057.90   3
  -5 -13  -1 7445.48 571.437   3
  13   5  -1 7087.33 813.603   2
  -5 -13  -1 5883.67 734.477   1
  13   5  -1 6153.93 868.630   4
 -18  13  -1 6053.08 303.095   1
  18  -5  -1 7008.74 757.685   1
 -13  18  -1 7826.46 916.962   4
   5 -18   2 15985.6 1065.94   3
   5 -18   2 14476.1 897.297   1
 -13  18   2 17407.7 1328.55   2
  18  -5   2 16133.9 1174.08   3
  18  -5   2 13757.9 743.759   1
  -5 -13   2 15984.5 1019.88   1
  13   5   2 16607.8 1000.78   3
  13   5   2 15822.8 1239.18   4
  13   5   2 16888.7 1331.67   2
 -13  18   2 19070.2 1336.77   4
 -18  13   2 14219.9 912.696   1
   5 -18   5 3069.35 751.353   3
 -18  13   5 4169.49 800.576   1
  13   5   5 2971.32 513.580   3
  18  -5   5 2655.31 650.741   3
  -5 -13   5 1791.16 608.288   1
 -13  18   5 3108.01 801.765   2
   5 -18   5 2657.08 559.414   1
  18  -5   5 4679.03 835.693   4
  13   5   5 2599.25 706.947   4
 -13  18   5 2661.72 802.817   1
  13   5   5 2391.22 801.938   2
  -5 -13   5 2536.66 606.994   2
  18  -5   5 2287.90 429.717   1
 -13  18   5 3381.71 823.929   4
   5 -18   8 6722.86 1217.68   3
  18  -5   8 5351.31 827.568   3
  13   5   8 5436.61 621.009   3
 -13  18   8 5360.15 970.136   2
  18  -5   8 8273.14 1353.42   2
  18  -5   8 6308.54 859.726   1
  18  -5   8 6663.84 979.816   4
 -13  18   8 6562.29 1264.61   1
  -5 -13   8 5616.39 934.966   1
  13   5   8 8046.47 1296.41   2
  13   5   8 7160.99 1033.39   4
   5 -18   8 6990.67 874.945   1
 -18  13   8 6979.10 1175.31   1
 -13  18   8 8089.20 1068.63   4
  14   4  -8 2012.23 668.097   4
  18  -4  -5 4026.09 538.365   2
  18  -4  -5 2802.90 898.190   3
 -14  18  -5 2417.38 319.888   1
  14   4  -5 4117.20 751.342   4
  14   4  -5 3526.79 387.084   2
   4 -18  -2 9758.83 617.574   3
  -4 -14  -2 7655.80 329.622   3
  18  -4  -2 8569.70 1095.05   3
 -14  18  -2 9471.61 1054.86   2
 -14  18  -2 9327.25 486.605   1
  14   4  -2 8246.00 972.795   4
  14   4  -2 9249.87 855.113   2
 -14  18  -2 10651.5 1040.25   4
   4 -18   1 4559.63 607.656   3
  18  -4   1 3410.00 522.924   1
 -14  18   1 3684.85 819.150   2
  18  -4   1 4938.61 815.928   3
  14   4   1 4077.55 672.695   3
  14   4   1 4481.86 812.898   2
  14   4   1 2676.19 676.448   4
  -4 -14   1 4308.60 635.897   1
 -14  18   1 4166.09 761.876   4
   4 -18   1 4381.81 630.754   1
 -18  14   1 4459.60 493.935   1
   4 -18   4 9339.96 1013.99   3
  -4 -14   4 9081.77 943.379   1
 -14  18   4 9017.89 1052.94   2
  18  -4   4 8557.26 901.209   3
  14   4   4 9048.97 785.051   3
   4 -18   4 7741.33 718.691   1
  18  -4   4 8827.09 1036.01   4
 -14  18   4 8810.66 1036.62   1
  14   4   4 9695.83 1073.00   4
  14   4   4 9776.18 1229.98   2
  -4 -14   4 7393.04 881.938   2
  18  -4   4 6482.87 569.454   1
 -18  14   4 10697.1 1038.18   1
 -14  18   4 9786.12 1093.45   4
 -14  18   7 4043.24 1010.49   1
   4 -18   7 5745.57 1060.06   3
  18  -4   7 4402.71 773.776   3
  14   4   7 3662.63 579.130   3
 -18  14   7 4515.17 767.853   2
 -14  18   7 3717.08 799.040   2
  18  -4   7 5233.97 876.823   4
  18  -4   7 3555.04 1045.99   2
   4 -18   7 2919.82 654.845   1
  14   4   7 4300.21 837.205   4
  -4 -14   7 6074.14 919.320   1
  14   4   7 4737.99 1066.89   2
 -18  14   7 7475.73 1116.38   1
 -14  18   7 5262.14 956.652   4
  18  -3  -9 395.373 680.419   4
  15   3  -9 1674.31 633.767   4
  18  -3  -6 6144.14 411.309   2
  18  -3  -6 5865.96 424.649   2
 -15  18  -3 1253.66 605.563   4
 -15  18  -3 285.044 103.487   1
   3 -18  -3 255.856 238.632   3
  18  -3  -3 252.489 659.995   3
  15   3  -3 368.436 566.762   4
  15   3  -3 419.807 429.350   2
 -18  15   0 14897.6 625.965   1
  -3 -15   0 12952.5 774.365   3
   3 -18   0 13604.0 830.690   3
  -3 -15   0 11627.7 954.856   1
 -15  18   0 13596.5 1253.53   2
  18  -3   0 14143.0 1250.59   3
 -15  18   0 10598.0 616.500   1
  15   3   0 11523.8 1080.78   3
  15   3   0 11172.6 1090.31   4
  15   3   0 15096.8 1181.55   2
 -15  18   0 14176.5 1209.43   4
 -15  18   3 3780.64 757.891   4
   3 -18   3 2492.31 668.980   3
 -18  15   3 2724.12 640.142   1
  18  -3   3 2446.83 461.830   1
   3 -18   3 2254.99 494.311   1
  15   3   3 3306.46 654.198   3
  18  -3   3 1737.19 547.205   3
 -15  18   3 2993.50 729.101   2
 -18  15   3 2672.31 699.718   2
  15   3   3 2962.08 754.707   4
  15   3   3 2728.02 785.375   2
 -15  18   3 2338.90 607.859   1
  -3 -15   3 1765.80 546.689   1
  18  -3   3 2923.06 724.385   4
   3 -18   6 7972.14 1151.89   3
   3 -18   6 7276.62 880.469   1
  -3 -15   6 6637.39 891.903   1
  18  -3   6 7262.84 893.113   3
 -15  18   6 7591.93 1041.50   2
  15   3   6 6864.88 764.990   3
 -18  15   6 5960.36 830.007   2
  18  -3   6 6814.35 1181.45   2
  18  -3   6 6761.00 936.284   4
  15   3   6 8607.92 1055.52   4
 -15  18   6 7667.55 1170.08   1
  15   3   6 6736.99 1128.57   2
 -18  15   6 8067.85 1065.16   1
 -15  18   6 7742.21 1016.49   4
   3 -18   9 1019.99 934.062   3
 -18  15   9 1143.55 970.772   1
  18  -3   9 856.673 664.002   3
  -3 -15   9 1106.81 688.062   1
 -15  18   9-34.2787 681.831   2
   3 -18   9-273.793 609.857   1
  18  -3   9 1682.80 775.113   4
  18  -3   9 678.207 995.363   2
  15   3   9 728.161 773.236   4
  18  -3   9 743.362 732.605   1
  15   3   9 1064.65 866.945   2
 -15  18   9 754.196 941.176   1
  16   2  -7-91.4323 577.197   4
  18  -2  -4 1254.03 477.338   2
  18  -2  -4 2888.92 875.033   3
  18  -2  -4 1392.16 497.748   2
  16   2  -4 2177.55 473.189   2
  16   2  -4 2534.53 772.888   4
 -16  18  -1 656.657 557.924   4
  -2 -16  -1 434.707 270.098   3
  16   2  -1 945.602 540.298   2
 -16  18  -1 643.298 229.899   1
   2 -18  -1 717.900 314.024   3
  18  -2  -1 1370.12 666.930   3
  18  -2  -1-52.0415 482.102   2
  16   2  -1 1278.83 608.762   3
 -16  18  -1 560.146 611.212   2
  16   2  -1 1849.94 602.679   4
 -16  18  -1 695.406 265.657   1
 -18  16  -1 301.203 152.425   1
 -16  18   2 4026.25 796.667   4
   2 -18   2 5858.37 775.840   3
  18  -2   2 5729.82 816.791   3
 -16  18   2 6331.91 915.409   2
  16   2   2 5943.03 810.970   3
 -18  16   2 5432.65 931.663   2
  18  -2   2 6111.88 926.943   2
  18  -2   2 5675.05 911.645   4
  16   2   2 6319.28 953.273   4
 -16  18   2 5719.20 720.560   1
  16   2   2 5714.63 926.755   2
  -2 -16   2 6396.41 751.656   1
 -18  16   2 7241.15 752.059   1
   2 -18   2 5355.85 671.294   1
 -16  18   5 3352.91 773.640   4
  -2 -16   5 2256.97 678.646   1
 -18  16   5 2868.10 750.701   1
   2 -18   5 3490.72 805.159   3
   2 -18   5 2411.84 607.076   1
  18  -2   5 3151.44 667.261   3
  16   2   5 1801.48 543.285   3
 -16  18   5 2038.49 742.055   2
 -18  16   5 2734.07 718.545   2
  16   2   5 3034.21 810.805   4
  18  -2   5 2002.58 782.719   2
  16   2   5 2581.46 914.909   2
 -16  18   5 2168.49 740.578   1
  18  -2   5 2077.47 708.847   4
   2 -18   8 1249.96 874.003   3
 -18  16   8 773.133 793.693   1
  18  -2   8 721.980 584.213   3
  16   2   8 693.384 460.535   3
 -16  18   8 250.512 667.759   2
  -2 -16   8 833.057 698.709   1
 -18  16   8 103.911 586.670   2
   2 -18   8 835.228 663.575   1
  18  -2   8 625.508 736.513   4
  16   2   8 711.409 717.104   4
  16   2   8-260.497 856.017   2
  18  -2   8-883.532 942.665   2
 -16  18   8 342.107 852.988   1
  18  -1  -8 6241.94 982.633   4
  17   1  -8 8311.88 1003.43   4
  18  -1  -5 7478.00 631.680   2
  17   1  -5 7937.06 605.967   2
  17   1  -5 10176.4 1110.54   4
  17   1  -5 9730.51 628.851   2
  18  -1  -5 8869.23 660.414   2
  -1 -17  -2 2806.39 260.635   3
   1 -18  -2 3331.97 351.231   3
  -1 -17  -2 2345.84 290.851   3
  18  -1  -2 4225.36 936.103   3
  17   1  -2 3962.83 845.977   3
  17   1  -2 4429.26 697.369   2
  17   1  -2 4963.33 827.025   4
  18  -1  -2 2053.88 617.776   2
  -1 -17   1 15614.9 996.146   3
   1 -18   1 16323.4 1058.99   3
  -1 -17   1 12271.2 964.953   1
   1 -18   1 13167.1 985.718   1
  18  -1   1 15305.7 1259.52   3
 -17  18   1 12089.9 1205.04   2
  17   1   1 13490.2 1160.26   3
  18  -1   1 13477.3 1249.30   4
  18  -1   1 15656.6 1295.69   2
  17   1   1 14935.4 1289.62   4
  17   1   1 15260.3 1312.12   2
 -17  18   1 13760.7 882.879   1
 -18  17   1 15667.4 867.593   1
 -17  18   1 13765.6 1220.37   4
 -17  18   4 1856.81 716.856   4
 -18  17   4 1655.46 635.040   1
   1 -18   4 787.734 562.612   3
  18  -1   4 1391.48 565.301   3
  17   1   4 1607.41 610.251   3
 -17  18   4 2126.86 737.370   2
  -1 -17   4 2053.35 571.897   1
 -18  17   4 978.378 636.341   2
  18  -1   4 3370.99 831.725   4
  17   1   4 2053.89 719.506   4
  18  -1   4 841.908 715.124   2
  17   1   4 1832.66 790.069   2
   1 -18   4 1309.82 540.960   1
 -17  18   4 1911.41 668.662   1
   1 -18   7 9100.79 1323.59   3
  18  -1   7 8109.49 901.352   3
  17   1   7 7396.10 882.367   3
 -17  18   7 6632.64 1007.31   2
 -18  17   7 6990.04 986.623   2
  18  -1   7 7707.58 1272.55   2
  18  -1   7 9554.50 1174.84   4
  17   1   7 10373.6 1439.64   2
  17   1   7 6836.58 975.168   4
 -17  18   7 8629.16 1223.79   1
 -18  17   7 9333.41 1205.69   1
   1 -18   7 6787.82 943.239   1
  -1 -17   7 7117.38 971.970   1
  18   0  -9 270.946 694.313   4
  18   0  -6 17131.8 1416.45   4
  18   0  -3 272.886 751.879   3
  18   0  -3 574.946 640.676   4
  18   0  -3-641.957 506.674   2
   0 -18   0 12241.9 794.665   3
  18   0   0 9540.74 1105.83   3
  18   0   0 11541.2 1190.80   4
  18   0   0 12540.8 1175.35   2
 -18  18   0 12489.0 687.597   1
   0 -18   0 11558.1 1011.44   1
   0 -18   3-316.262 503.838   3
   0 -18   3 158.931 472.111   1
  18   0   3-53.9994 621.566   2
  18   0   3 472.060 535.124   3
 -18  18   3 57.6129 593.189   2
  18   0   3 1637.83 654.104   4
 -18  18   3 281.948 500.034   1
   0 -18   6 20012.8 1404.76   1
  18   0   6 19788.2 1286.24   3
 -18  18   6 21390.5 1520.60   2
  18   0   6 22776.8 1634.50   4
  18   0   6 22292.4 1918.00   2
 -18  18   6 21399.9 1652.64   1
   0 -18   9 160.877 896.740   3
 -18  18   9 926.664 963.465   1
  18   0   9 201.403 544.500   3
 -18  18   9-15.8284 697.098   2
   0 -18   9 694.233 673.006   1
  18   0   9 981.352 733.648   4
  18   0   9 467.310 1059.88   2
  19 -19  -7 609.156 998.535   3
   0  19  -7-303.716 518.730   4
   0  19  -4 1042.45 661.579   2
  19 -19  -4-39.7760 740.378   3
   0  19  -4 877.850 590.730   4
 -19   0  -1 442.005 503.432   1
   0  19  -1 529.996 667.687   2
  19 -19  -1 1041.34 612.308   3
   0  19  -1 58.7032 610.754   4
  19 -19   2 14021.7 1263.83   3
   0  19   2 15983.7 1412.34   4
 -19   0   2 15275.8 1094.81   1
   0  19   2 14498.4 1364.67   2
   0  19   5-398.654 699.326   2
 -19   0   5 983.760 607.344   1
  19 -19   5 1161.88 734.157   3
   0  19   5 288.850 661.543   4
  19 -19   8 6095.76 1145.51   3
 -19   0   8 7058.25 1209.63   1
   0  19   8 8354.25 1248.11   4
   0  19   8 10219.3 1535.43   2
   1  18  -8 1230.59 594.765   4
  -1  19  -8 823.646 543.156   4
   1  18  -5-55.6658 590.577   2
  -1  19  -5 751.905 658.191   2
  18 -19  -5-361.790 763.297   3
  19 -18  -5-845.791 793.684   3
   1  18  -5 413.011 552.103   4
  -1  19  -5 1047.17 630.616   4
 -19   1  -2 2080.67 514.738   1
   1  18  -2 2894.87 702.768   2
 -18  -1  -2 2663.55 596.806   1
  -1  19  -2 1757.37 670.194   2
  18 -19  -2 1378.40 622.885   3
  19 -18  -2 2048.80 746.906   3
  -1  19  -2 1827.17 628.774   4
   1  18  -2 1650.76 624.839   4
 -18  -1   1 1991.19 589.569   1
  -1  19   1 2995.20 760.648   2
  18 -19   1 3302.88 739.739   3
  19 -18   1 2222.56 661.445   3
   1  18   1 1790.64 638.206   4
  -1  19   1 2714.60 780.429   4
 -19   1   1 2044.44 527.605   1
   1  18   1 4140.33 877.052   2
   1  18   4 3073.62 848.339   2
 -19   1   4 3269.27 713.846   1
  18 -19   4 2231.57 786.553   3
  19 -18   4 1563.15 657.227   3
 -18  -1   4 4206.54 757.949   1
   1  18   4 3681.07 826.503   4
  -1  19   4 3385.08 855.343   4
  -1  19   4 5781.39 1013.55   2
 -18  -1   7 668.125 753.316   1
   1  18   7 6.92614 795.767   2
  -1  19   7 427.099 893.496   2
  18 -19   7 1034.95 789.710   3
  19 -18   7-298.986 705.731   3
   1  18   7 876.535 765.010   4
  -1  19   7 720.560 679.456   4
 -19   1   7-906.609 807.902   1
   2  17  -6 1919.95 715.970   2
  17 -19  -6 1917.90 854.419   3
  19 -17  -6 4327.13 1104.96   3
  -2  19  -6 3333.30 826.929   2
   2  17  -6 4899.57 770.409   4
  -2  19  -6 5764.53 811.952   4
   2  17  -3 5445.84 815.676   2
  17 -19  -3 5990.38 933.753   3
  -2  19  -3 4369.80 788.016   2
  19 -17  -3 4059.52 903.715   3
  -2  19  -3 6306.84 889.518   4
   2  17  -3 4503.61 779.883   4
   2  17   0 4560.68 820.346   2
 -19   2   0 2801.89 606.701   1
  -2  19   0 3618.25 816.826   2
  19 -17   0 4845.54 823.956   3
 -17  -2   0 3526.77 625.642   1
  17 -19   0 2729.39 644.649   3
  -2  19   0 2841.28 781.750   4
   2  17   0 4585.30 864.998   4
  17 -19   3 5577.98 912.203   3
  19 -17   3 5068.27 847.014   3
 -19   2   3 5740.37 746.286   1
   2  17   3 5934.74 990.008   4
  -2  19   3 6389.88 1004.17   4
 -17  -2   3 4562.42 728.435   1
   2  17   3 6403.42 1013.22   2
  -2  19   3 5546.30 956.924   2
   2  17   6 4162.37 1079.91   2
 -17  -2   6 3706.97 849.117   1
  -2  19   6 3130.76 964.631   2
  17 -19   6 3490.57 867.558   3
  19 -17   6 2794.26 821.018   3
   2  17   6 5016.79 943.148   4
  -2  19   6 2878.28 822.222   4
 -19   2   6 2573.48 771.360   1
   2  17   9 3730.51 1187.64   2
  19 -17   9 5742.69 1130.65   3
  -2  19   9 5340.05 1162.77   2
  17 -19   9 3135.66 1036.14   3
 -19   2   9 1601.86 890.439   1
   2  17   9 3828.08 940.577   4
  -2  19   9 5425.53 1066.20   4
 -17  -2   9 4760.63 1140.90   1
  16 -19  -7 2817.53 938.619   3
  19 -16  -7 3522.28 1054.86   3
   3  16  -7 1801.26 554.434   4
  -3  19  -7 2191.58 609.226   4
 -16  -3  -4 6205.93 677.882   3
   3  16  -4 7791.01 871.291   2
  -3  19  -4 8979.07 1035.42   2
  16 -19  -4 9087.23 1161.51   3
  19 -16  -4 6984.01 1100.55   3
   3  16  -4 9400.03 959.803   4
  -3  19  -4 8868.00 954.166   4
   3  16  -1 2831.65 703.504   2
  -3  19  -1 3680.62 765.255   2
  16 -19  -1 2464.67 616.664   3
 -16  -3  -1 3079.49 595.781   1
  19 -16  -1 2067.14 683.564   3
 -19   3  -1 3331.67 543.924   1
   3  16  -1 3717.95 783.203   4
  -3  19  -1 3759.10 772.779   4
  -3  19   2 8402.18 1132.30   2
   3  16   2 9472.11 1109.16   2
  16 -19   2 9016.09 996.731   3
  19 -16   2 8070.48 932.022   3
 -19   3   2 9047.33 810.920   1
   3  16   2 7736.17 1048.30   4
  -3  19   2 9475.35 1098.97   4
 -16  -3   2 9549.37 896.508   1
   3  16   5 1647.35 779.863   2
  -3  19   5 2967.96 887.577   2
 -16  -3   5 1486.34 610.162   1
  16 -19   5 1134.95 609.726   3
  19 -16   5 1477.74 642.312   3
   3  16   5 2169.57 749.269   4
  -3  19   5 1908.46 763.316   4
 -19   3   5 3130.14 731.896   1
  16 -19   8 6509.80 1115.89   3
  19 -16   8 9726.36 1248.60   3
 -19   3   8 10045.5 1308.68   1
 -16  -3   8 8642.09 1228.49   1
   3  16   8 10238.3 1303.09   4
  -3  19   8 10176.2 1282.44   4
   3  16   8 8751.34 1338.26   2
  -3  19   8 10855.1 1426.24   2
   4  15  -8-175.098 466.590   4
  -4  19  -8 844.039 506.934   4
 -15  -4  -5 4417.04 578.986   3
   4  15  -5 5996.46 793.160   2
  -4  19  -5 5508.70 912.418   2
  15 -19  -5 7447.85 1087.78   3
  19 -15  -5 6424.59 1144.68   3
   4  15  -5 6102.39 820.724   4
  -4  19  -5 5922.51 819.215   4
   4  15  -2 5085.26 774.265   2
  -4  19  -2 4944.69 850.667   2
 -15  -4  -2 7507.32 721.320   3
  15 -19  -2 5614.32 817.482   3
   4  15  -2 5754.60 821.701   4
 -15  -4  -2 5150.70 724.455   1
  19 -15  -2 3599.90 804.529   3
  -4  19  -2 5422.54 823.734   4
 -19   4  -2 4839.15 571.153   1
   4  15   1 2129.62 692.747   2
  -4  19   1 3635.48 780.953   2
 -15  -4   1 2745.87 617.935   1
  15 -19   1 2957.78 656.294   3
  19 -15   1 2540.03 639.154   3
  -4  19   1 2897.11 756.734   4
   4  15   1 3439.19 746.985   4
 -19   4   1 2790.00 514.356   1
   4  15   4 1226.89 725.874   2
  -4  19   4 552.532 593.193   2
  15 -19   4 520.692 596.628   3
  19 -15   4 146.769 533.739   3
 -15  -4   4 813.647 535.385   1
   4  15   4 1356.56 729.522   4
  -4  19   4 282.928 590.153   4
 -19   4   4 6.76632 475.241   1
   4  15   7 2708.23 1006.64   2
 -15  -4   7 3102.99 766.245   1
  15 -19   7 4444.42 955.587   3
  -4  19   7 3398.26 980.398   2
  19 -15   7 3148.63 820.579   3
 -19   4   7 2090.50 798.477   1
   4  15   7 2511.00 787.440   4
  -4  19   7 4263.98 978.840   4
   5  14  -6 1514.80 530.616   2
  14 -19  -6 1433.01 761.599   3
  19 -14  -6 1763.90 903.249   3
   5  14  -6 612.287 515.085   4
  -5  19  -6 1168.98 520.817   4
   5  14  -3 12319.2 1003.99   2
 -14  -5  -3 10485.7 726.114   3
  -5  19  -3 11220.2 1119.09   2
  14 -19  -3 12734.6 1157.19   3
  19 -14  -3 11414.4 1240.94   3
   5  14  -3 12089.4 1063.62   4
  -5  19  -3 12301.8 1083.10   4
   5  14   0 2708.27 719.312   2
  14 -19   0 1236.67 492.643   3
  -5  19   0 1054.31 627.673   2
  19 -14   0 2048.81 655.152   3
 -19   5   0 1013.33 400.367   1
   5  14   0 1509.05 656.179   4
  -5  19   0 1285.30 562.103   4
 -14  -5   0 1542.20 500.938   1
  -5  19   3 9741.38 1153.66   2
  14 -19   3 11507.7 1063.04   3
  19 -14   3 9453.82 1040.19   3
 -19   5   3 9508.47 863.166   1
   5  14   3 9983.56 1117.21   4
 -14  -5   3 9820.08 918.765   1
  -5  19   3 12945.1 1203.06   4
   5  14   3 10935.6 1213.55   2
   5  14   6 178.177 716.942   2
 -14  -5   6 1409.49 655.170   1
  14 -19   6 478.316 644.036   3
  -5  19   6-286.728 692.010   2
 -19   5   6 555.687 612.433   1
  19 -14   6-751.198 652.984   3
  -5  19   6-375.353 607.970   4
   5  14   6 890.781 694.527   4
  14 -19   6 81.9122 219.481   1
   5  14   9 4686.20 1225.33   2
  14 -19   9 2897.47 946.239   3
  -5  19   9 3849.37 1112.12   2
  19 -14   9 4169.61 1026.94   3
 -19   5   9 3119.06 950.357   1
   5  14   9 3507.79 957.915   4
  -5  19   9 2563.86 847.152   4
 -14  -5   9 3825.96 956.183   1
  19 -13  -7 5485.34 1169.63   3
  13 -19  -7 5278.79 957.039   3
   6  13  -7 4210.71 700.048   4
  -6  19  -7 3663.97 633.190   4
 -13  -6  -4 4732.75 481.696   3
   6  13  -4 5952.37 734.328   2
  13 -19  -4 6289.76 917.350   3
  -6  19  -4 4747.61 798.530   2
  19 -13  -4 4959.31 955.979   3
   6  13  -4 4051.70 703.550   4
  -6  19  -4 6381.98 859.706   4
  -6  19  -1 4847.98 866.745   2
 -13  -6  -1 2817.14 525.478   3
 -19   6  -1 4371.71 503.565   1
  13 -19  -1 2267.87 566.070   3
  19 -13  -1 3028.59 737.489   3
   6  13  -1 3586.37 743.487   4
 -13  -6  -1 4106.25 629.839   1
   6  13  -1 4973.37 757.039   2
  -6  19  -1 3106.81 707.030   4
  -6  19   2 16539.4 871.900   3
 -13  -6   2 18639.5 1181.26   1
  -6  19   2 18568.4 1423.87   2
  13 -19   2 17306.9 1212.53   3
  19 -13   2 17202.8 1243.53   3
 -19   6   2 17528.1 989.776   1
   6  13   2 18341.0 1389.74   4
  -6  19   2 19135.7 1389.67   4
   6  13   2 19602.3 1451.21   2
  -6  19   5 658.995 309.554   3
  13 -19   5 1305.63 684.919   3
  -6  19   5 1212.94 620.572   2
  19 -13   5 2027.72 723.658   3
 -13  -6   5 487.731 585.332   1
   6  13   5 1498.05 841.621   2
  13 -19   5 1224.20 298.114   1
 -19   6   5 1051.19 609.552   1
   6  13   5 1879.01 712.284   4
  -6  19   5 1253.35 684.502   4
  -6  19   8 6148.27 1150.79   2
  13 -19   8 5482.90 662.786   1
  13 -19   8 6885.62 1174.00   3
  19 -13   8 6917.62 1058.44   3
 -19   6   8 7874.82 1193.81   1
 -13  -6   8 9907.09 1219.46   1
   6  13   8 6979.05 1103.43   4
   6  13   8 6297.70 1259.21   2
  -6  19   8 7558.80 1106.14   4
   7  12  -8 2671.12 605.784   4
   7  12  -5 9259.45 828.108   2
  12 -19  -5 9359.33 1070.96   3
  -7  19  -5 9727.83 1108.65   2
  19 -12  -5 5984.71 1069.87   3
   7  12  -5 9467.27 935.275   4
  -7  19  -5 9379.62 914.910   4
   7  12  -2 2357.42 571.148   2
 -12  -7  -2 2463.49 453.082   3
 -19   7  -2 1362.57 342.617   1
  12 -19  -2 4177.94 664.858   3
  -7  19  -2 2272.93 665.892   2
  19 -12  -2 3563.69 836.502   3
 -12  -7  -2 2689.17 592.039   1
   7  12  -2 3402.76 694.065   4
  -7  19  -2 2491.25 689.662   4
  -7  19   1 6234.28 659.049   3
  -7  19   1 6442.80 927.756   2
   7  12   1 6521.84 929.768   4
  12 -19   1 6833.40 794.494   3
  19 -12   1 6732.08 901.606   3
 -12  -7   1 6938.77 787.790   1
 -19   7   1 8127.21 643.111   1
   7  12   1 6783.75 924.331   2
  -7  19   1 9210.96 1037.66   4
  -7  19   4 2669.02 447.127   3
  12 -19   4 2254.13 672.394   3
  -7  19   4 3855.56 827.176   4
  -7  19   4 2442.63 795.934   2
  19 -12   4 2531.80 669.738   3
 -19   7   4 3384.13 686.916   1
   7  12   4 4376.49 909.816   4
 -12  -7   4 3224.24 719.464   1
   7  12   4 2660.79 802.215   2
 -12  -7   7 2185.79 806.533   1
  12 -19   7 748.960 711.821   3
  -7  19   7 1155.87 820.021   2
  19 -12   7 2920.08 796.903   3
  12 -19   7 1560.42 437.240   1
 -19   7   7 1361.90 702.824   1
   7  12   7 2731.30 815.892   4
  -7  19   7 1726.00 710.019   4
   7  12   7 1920.46 895.230   2
   8  11  -6 497.762 344.999   2
  11 -19  -6 527.824 596.342   3
  19 -11  -6 86.8399 796.693   3
   8  11  -6 828.102 513.490   4
  -8  19  -6 249.222 460.151   4
 -11  -8  -3 3005.46 342.378   3
  11 -19  -3 4449.24 737.215   3
  -8  19  -3 3733.49 602.291   1
  -8  19  -3 4021.26 795.045   2
  19 -11  -3 2613.03 838.187   3
   8  11  -3 3243.83 706.337   4
  -8  19  -3 3971.02 719.534   4
   8  11  -3 3726.67 610.993   2
 -11  -8   0 1505.33 509.410   1
  11 -19   0 1783.72 510.317   3
  -8  19   0 1081.31 608.946   2
  19 -11   0 1703.94 658.551   3
 -11  -8   0 1422.62 505.554   3
 -19   8   0 1180.04 371.866   1
   8  11   0 886.995 537.869   4
  19 -11   0 1519.59 402.265   1
  -8  19   0 1577.35 640.705   4
   8  11   0 1631.23 577.728   2
  -8  19   3 5276.84 587.283   3
  -8  19   3 5733.60 922.969   2
  11 -19   3 7758.59 897.587   3
  19 -11   3 5948.37 838.150   3
 -19   8   3 6644.42 749.249   1
   8  11   3 6964.50 949.597   4
   8  11   3 5940.06 953.160   2
  -8  19   3 6558.25 953.761   4
 -11  -8   3 6276.94 794.603   1
  11 -19   6-292.847 654.158   3
  -8  19   6-467.573 651.606   2
  19 -11   6 333.720 545.937   3
 -11  -8   6 581.975 547.812   1
 -19   8   6 1399.38 686.596   1
   8  11   6 438.926 599.563   4
  11 -19   6 31.3900 312.112   1
   8  11   6-258.817 791.476   2
  -8  19   6 273.100 666.124   4
 -11  -8   9 3056.47 913.889   1
  11 -19   9 5254.48 1153.57   3
  19 -11   9 3531.13 920.060   3
  -8  19   9 4530.67 1085.10   2
 -19   8   9 4805.55 1124.50   1
  19 -11   9 3431.26 754.163   4
  -8  19   9 2809.78 1175.52   1
   8  11   9 4514.20 999.440   4
  11 -19   9 4477.91 707.884   1
   8  11   9 4533.53 1158.26   2
  -8  19   9 4468.94 946.714   4
   9  10  -7 3902.64 675.949   4
  -9  19  -7 4110.40 630.898   4
  -9  19  -4 4872.05 655.255   1
  10 -19  -4 5836.29 816.052   3
  -9  19  -4 5945.62 902.510   2
  19 -10  -4 5833.49 1069.46   3
  -9  19  -4 6495.54 824.367   4
   9  10  -4 5032.80 748.883   4
   9  10  -4 6228.82 654.432   2
   9  10  -1 6327.45 877.094   4
  -9  19  -1 4147.36 547.104   1
 -10  -9  -1 4993.39 699.629   1
 -19   9  -1 4527.08 437.827   1
  10 -19  -1 5176.74 629.809   3
  -9  19  -1 6806.02 923.701   2
 -10  -9  -1 5052.80 542.263   3
  19 -10  -1 5331.59 801.151   3
  19 -10  -1 4127.27 609.290   1
   9  10  -1 5220.63 766.593   2
  -9  19  -1 6829.86 889.856   4
  -9  19   2 10828.8 822.322   3
  10 -19   2 13023.4 1040.63   3
  -9  19   2 10479.8 1137.90   2
 -10  -9   2 9697.71 906.544   1
  19 -10   2 12788.4 1094.78   3
 -19   9   2 13108.5 850.845   1
   9  10   2 11755.4 1116.79   4
 -10  -9   2 10773.7 955.207   2
  -9  19   2 12288.4 1169.56   4
   9  10   2 13272.3 1232.54   2
  19 -10   2 8885.76 449.438   1
  10 -19   5 3320.81 805.079   3
  10 -19   5 2279.05 412.449   1
  -9  19   5 2221.62 520.274   3
  -9  19   5 1742.46 735.959   2
  19 -10   5 3118.70 714.769   3
 -10  -9   5 2769.92 659.090   1
 -19   9   5 2940.49 763.895   1
   9  10   5 3294.27 784.911   4
   9  10   5 4124.55 943.695   2
  -9  19   5 3614.82 782.859   4
   9  10   8 1532.95 948.151   2
  10 -19   8 2783.77 979.345   3
 -10  -9   8 516.342 638.903   1
  19 -10   8 1596.92 747.688   3
  -9  19   8 1187.75 802.818   2
 -19   9   8 982.952 805.788   1
  19 -10   8 1112.60 715.830   4
  -9  19   8 1104.39 840.005   1
  10 -19   8 1110.35 525.261   1
   9  10   8 2155.74 776.066   4
  -9  19   8 1141.36 753.168   4
  10   9  -8 722.706 507.603   4
 -10  19  -5 1465.68 525.733   1
  10   9  -5 2890.60 461.448   2
  19  -9  -5 2353.76 615.747   2
   9 -19  -5 2344.17 605.700   3
  19  -9  -5 3361.15 1023.99   3
  10   9  -5 3152.10 682.648   4
 -10  19  -5 3896.13 669.632   4
 -19  10  -2 11033.9 454.357   1
  -9 -10  -2 13726.9 617.731   3
   9 -19  -2 13561.3 906.359   3
 -10  19  -2 12308.9 1193.88   2
  19  -9  -2 13219.6 1254.06   3
  10   9  -2 12387.4 1093.79   4
 -10  19  -2 10128.3 719.906   1
  -9 -10  -2 12443.9 1009.27   1
  10   9  -2 15157.9 1031.75   2
 -10  19  -2 15138.9 1167.86   4
   9 -19   1 7692.34 792.333   3
 -10  19   1 6248.66 904.880   2
  19  -9   1 5187.73 782.116   3
 -19  10   1 6413.34 571.669   1
  -9 -10   1 6371.76 830.912   3
  -9 -10   1 5487.05 703.579   1
  10   9   1 4685.61 833.181   4
 -10  19   1 7444.29 952.597   4
  10   9   1 5672.97 888.738   2
  19  -9   1 4995.56 490.527   1
   9 -19   4 5659.42 867.487   3
 -19  10   4 5328.99 788.445   1
 -10  19   4 5961.12 978.850   2
 -10  19   4 4850.45 634.186   3
  19  -9   4 3440.73 292.511   1
  19  -9   4 4318.31 735.066   3
  -9 -10   4 4611.56 663.572   2
  10   9   4 5167.56 872.492   4
   9 -19   4 4265.12 507.374   1
 -10  19   4 6926.76 974.502   4
  -9 -10   4 6055.27 797.707   1
  10   9   4 6920.81 1113.46   2
 -19  10   7 6533.34 1085.84   1
   9 -19   7 7060.49 1110.27   3
   9 -19   7 4893.58 703.072   1
  19  -9   7 5380.14 872.104   3
  -9 -10   7 4442.65 850.874   1
 -10  19   7 5566.59 1028.29   2
  19  -9   7 4909.99 857.283   4
  19  -9   7 4480.92 526.179   1
  10   9   7 6760.98 1041.46   4
  10   9   7 5885.43 1160.53   2
 -10  19   7 6161.95 971.829   4
 -11  19  -6 262.346 461.130   4
  19  -8  -6 29.9905 483.768   2
  19  -8  -6 1309.21 858.971   3
  11   8  -6 777.575 532.364   4
   8 -19  -3 5590.94 674.589   3
 -11  19  -3 5160.87 563.701   1
 -11  19  -3 5550.18 867.687   2
  19  -8  -3 6261.24 1040.80   3
  11   8  -3 5934.85 823.543   4
  11   8  -3 6744.42 681.975   2
 -11  19  -3 7464.52 847.958   4
 -19  11   0 2144.19 337.701   1
  19  -8   0 1514.30 448.597   1
   8 -19   0 2170.65 469.487   3
 -11  19   0 1311.39 367.782   1
  19  -8   0 1372.42 630.017   3
 -11  19   0 1812.39 626.701   2
  -8 -11   0 2070.38 490.624   3
  -8 -11   0 1124.02 461.766   1
  11   8   0 2120.54 656.538   4
  11   8   0 1573.51 558.592   2
 -11  19   0 1922.38 664.797   4
  -8 -11   3 3875.51 710.300   1
 -19  11   3 5213.26 676.449   1
   8 -19   3 3429.92 664.694   3
  19  -8   3 2797.72 343.177   1
   8 -19   3 3620.34 538.431   1
  11   8   3 2937.74 751.346   4
  19  -8   3 3870.29 782.981   3
 -11  19   3 4387.74 864.857   2
  -8 -11   3 4490.51 759.580   2
  11   8   3 2970.60 794.341   2
 -11  19   3 3437.56 745.712   4
   8 -19   6-342.762 670.771   3
  19  -8   6 256.765 530.033   3
 -11  19   6 1376.78 725.931   2
 -19  11   6-370.119 626.591   1
   8 -19   6 857.250 444.897   1
  -8 -11   6 2414.84 701.767   1
  11   8   6 176.022 158.210   3
  11   8   6 1239.44 698.945   4
  11   8   6 96.3329 739.523   2
 -11  19   6-785.478 583.731   4
  19  -8   6 547.218 387.525   1
   8 -19   9 3291.46 1071.90   3
  -8 -11   9 3630.25 916.318   1
  19  -8   9 1833.20 702.486   3
 -11  19   9 3304.75 946.500   2
   8 -19   9 3788.43 756.247   1
  19  -8   9 2951.74 1124.41   2
  19  -8   9 1847.35 733.762   4
  11   8   9 3574.09 904.392   4
 -11  19   9 2755.08 1154.30   1
 -19  11   9 6256.62 1220.87   1
  11   8   9 2413.10 1029.37   2
 -11  19   9 2480.80 815.396   4
  12   7  -7 1406.59 581.997   4
 -12  19  -4 3030.76 655.068   4
  12   7  -4 2567.89 486.740   2
 -12  19  -4 2388.46 425.959   1
  12   7  -4 3612.36 715.441   4
  19  -7  -4 2468.15 571.193   2
   7 -19  -4 3023.98 554.188   3
  19  -7  -4 2752.34 821.892   3
 -12  19  -1 6140.80 562.157   1
   7 -19  -1 6336.13 626.363   3
 -12  19  -1 6079.63 898.892   2
  -7 -12  -1 7332.09 593.768   3
  19  -7  -1 5079.71 957.053   3
  -7 -12  -1 6974.67 786.265   1
  12   7  -1 7675.89 923.059   4
  12   7  -1 6887.22 828.491   2
  19  -7  -1 5669.63 701.124   1
 -12  19  -1 7129.17 902.865   4
 -19  12  -1 5908.45 378.452   1
 -19  12   2 2945.07 515.387   1
  19  -7   2 2965.16 430.606   1
   7 -19   2 2422.04 505.079   1
   7 -19   2 2170.52 553.888   3
  19  -7   2 3445.25 696.893   3
 -12  19   2 3075.75 778.617   2
  12   7   2 2657.60 524.398   3
  -7 -12   2 1967.04 557.380   1
  12   7   2 3963.20 768.636   4
  12   7   2 2470.40 686.796   2
 -12  19   2 3237.31 748.470   4
 -12  19   5 8405.22 1085.13   2
  19  -7   5 8281.86 976.802   3
  12   7   5 5757.81 492.205   3
   7 -19   5 7934.24 720.667   1
  -7 -12   5 7036.04 755.012   2
  12   7   5 9786.65 1105.94   4
  12   7   5 7270.02 1137.71   2
  19  -7   5 5320.93 468.653   1
   7 -19   5 8435.59 1064.70   3
  -7 -12   5 8673.61 948.829   1
 -12  19   5 8249.81 1053.72   4
 -19  12   5 9006.16 1018.54   1
   7 -19   8 3411.51 963.469   3
  19  -7   8 1359.96 672.963   3
  -7 -12   8 1697.40 746.250   1
 -19  12   8 1633.22 902.523   1
 -12  19   8 1666.31 796.334   2
  19  -7   8 2863.08 806.252   4
  19  -7   8 1931.10 921.484   2
   7 -19   8 981.954 627.054   1
  12   7   8 1621.73 770.555   4
 -12  19   8 1902.54 945.910   1
  19  -7   8 1722.91 582.798   1
  12   7   8 825.864 864.531   2
 -12  19   8 553.024 668.211   4
  13   6  -8 6906.93 875.754   4
 -13  19  -5 340.650 507.869   4
  13   6  -5 1051.89 328.042   2
  19  -6  -5 1097.73 511.236   2
   6 -19  -5 1445.09 366.209   3
  19  -6  -5-46.8663 719.036   3
  13   6  -5 1815.17 641.118   4
 -13  19  -5 698.460 359.970   1
   6 -19  -2 17239.0 884.492   3
  -6 -13  -2 16072.2 520.898   3
 -13  19  -2 15714.8 1312.74   2
  19  -6  -2 18304.2 1507.05   3
 -13  19  -2 17224.0 765.578   1
  13   6  -2 17683.1 1310.97   4
  13   6  -2 18194.4 1140.29   2
 -13  19  -2 18663.4 1321.56   4
  19  -6   1 3705.73 542.264   1
 -19  13   1 3919.03 496.540   1
   6 -19   1 3257.79 561.570   3
  -6 -13   1 2609.37 581.812   1
  19  -6   1 3561.91 777.796   3
  -6 -13   1 3592.67 713.244   3
 -13  19   1 2727.42 722.157   2
  13   6   1 3263.91 587.839   3
 -13  19   1 3042.21 521.541   1
  13   6   1 2292.92 687.436   4
  13   6   1 3668.06 741.740   2
 -13  19   1 3311.90 744.990   4
  -6 -13   4 5385.24 793.548   1
   6 -19   4 4652.90 815.429   3
 -13  19   4 5262.73 934.181   2
  19  -6   4 5438.01 808.795   3
  13   6   4 4238.06 564.408   3
  19  -6   4 3746.83 453.218   1
   6 -19   4 4859.26 624.260   1
  13   6   4 5478.71 1003.79   2
  13   6   4 3682.35 803.705   4
  -6 -13   4 2871.17 681.016   2
 -19  13   4 5682.40 828.279   1
 -13  19   4 3792.08 805.683   4
   6 -19   7 4410.75 752.276   1
   6 -19   7 3325.09 930.030   3
  19  -6   7 5082.17 843.486   3
 -19  13   7 5201.64 1019.78   1
 -13  19   7 5743.34 1098.05   1
 -13  19   7 3840.72 906.079   2
  19  -6   7 3778.95 1068.18   2
  13   6   7 3347.25 483.496   3
  -6 -13   7 4409.20 828.108   1
  19  -6   7 4710.08 859.360   4
  13   6   7 6461.91 1036.87   4
  13   6   7 3647.92 1012.23   2
 -13  19   7 3884.66 861.790   4
  19  -5  -6-296.878 314.718   2
  14   5  -6 16.0371 522.865   4
 -14  19  -3 7902.98 469.296   1
   5 -19  -3 9904.94 709.786   3
  19  -5  -3 8198.85 839.387   2
  19  -5  -3 8731.95 1165.98   3
  14   5  -3 8907.90 1007.43   4
  14   5  -3 9090.42 810.841   2
 -14  19  -3 10862.7 1037.78   4
  14   5   0 1958.63 646.936   4
   5 -19   0 2369.24 466.792   3
  -5 -14   0 1828.35 550.117   1
  19  -5   0 1134.47 472.354   1
  19  -5   0 1399.20 713.246   3
 -14  19   0 2364.42 767.939   2
  -5 -14   0 1570.82 521.469   3
  14   5   0 1443.73 595.596   3
 -19  14   0 1612.93 304.374   1
  14   5   0 2625.85 724.501   2
 -14  19   0 1362.74 364.590   1
 -14  19   0 1238.00 609.273   4
   5 -19   3 11710.5 1060.46   3
 -14  19   3 10725.3 1181.70   2
  -5 -14   3 11600.8 982.534   1
  19  -5   3 11105.4 1044.81   3
  14   5   3 10862.6 838.565   3
  19  -5   3 7855.41 622.943   1
  14   5   3 9459.12 1070.26   4
  14   5   3 13169.4 1321.78   2
   5 -19   3 9941.72 798.893   1
 -19  14   3 10935.4 927.920   1
 -14  19   3 12866.8 1205.36   4
 -14  19   6-344.063 633.911   4
   5 -19   6 328.585 717.159   3
 -19  14   6 1052.94 768.710   1
   5 -19   6 590.887 507.380   1
  19  -5   6 223.940 518.384   3
 -14  19   6-358.557 702.241   2
  14   5   6 845.961 464.683   3
  19  -5   6-598.131 601.056   4
  -5 -14   6 317.812 555.828   1
  14   5   6 318.873 626.342   4
  19  -5   6 486.638 702.619   2
 -14  19   6-234.099 681.066   1
  14   5   6-57.0145 748.124   2
   5 -19   9 886.982 926.325   3
 -14  19   9 916.312 747.335   4
 -19  14   9 1659.88 977.353   1
  19  -5   9 1945.12 730.497   3
  -5 -14   9 2041.01 801.205   1
 -14  19   9 1177.90 814.780   2
   5 -19   9 1602.15 796.607   1
  19  -5   9 1624.74 787.691   4
  14   5   9 2842.48 921.279   4
  19  -5   9 1282.39 1031.20   2
  19  -5   9 700.344 629.035   1
  14   5   9 2788.06 1099.31   2
 -14  19   9 3553.71 1172.49   1
  15   4  -7 2324.15 711.593   4
  19  -4  -4 114.187 441.000   2
   4 -19  -4 89.7457 204.325   3
  19  -4  -4 413.409 690.855   3
  15   4  -4-99.6642 513.954   4
 -15  19  -4 376.319 164.874   1
  15   4  -4-94.6153 358.686   2
 -15  19  -1 3090.72 678.285   4
  -4 -15  -1 3962.97 425.257   3
   4 -19  -1 3011.03 437.223   3
 -15  19  -1 2830.45 351.979   1
  -4 -15  -1 3203.51 459.693   3
  15   4  -1 4758.20 825.675   3
  19  -4  -1 2522.59 804.069   3
 -15  19  -1 3182.23 751.283   2
  15   4  -1 3421.51 773.612   4
  15   4  -1 3088.28 661.677   2
  -4 -15  -1 1878.08 543.326   1
   4 -19   2 6412.67 773.580   3
   4 -19   2 5013.83 654.925   1
 -15  19   2 7018.65 955.379   2
  19  -4   2 6416.48 881.039   3
  19  -4   2 4360.28 567.777   1
  15   4   2 6352.34 779.091   3
  15   4   2 6967.07 973.823   2
  -4 -15   2 5131.91 697.525   1
  15   4   2 7484.49 996.247   4
 -19  15   2 6464.49 688.790   1
 -15  19   2 6768.86 965.938   4
  -4 -15   5 5240.54 836.275   1
   4 -19   5 6010.73 976.609   3
  19  -4   5 5650.15 823.617   3
  15   4   5 5721.07 696.574   3
   4 -19   5 4254.55 656.581   1
 -15  19   5 4969.82 899.085   2
  19  -4   5 8022.02 1171.67   2
  19  -4   5 6333.79 992.646   4
 -15  19   5 5249.97 987.251   1
  15   4   5 7599.52 1068.67   4
  15   4   5 5343.49 1085.66   2
 -19  15   5 7591.26 998.086   1
  19  -4   5 4472.23 548.539   1
 -15  19   5 5957.09 950.619   4
 -15  19   8-276.888 617.766   4
  19  -4   8 1306.91 1008.66   2
   4 -19   8 211.276 730.737   3
 -19  15   8-620.918 793.244   1
  19  -4   8 677.069 598.523   3
 -15  19   8 422.301 751.026   2
  19  -4   8 491.199 618.261   4
  -4 -15   8-649.529 678.667   1
  15   4   8-306.784 840.183   2
   4 -19   8 1216.23 617.168   1
  15   4   8-124.074 681.866   4
 -15  19   8 195.229 874.550   1
  19  -3  -8 21193.7 1523.93   4
  16   3  -8 8206.18 985.174   4
  19  -3  -5 872.535 440.355   2
  16   3  -5 844.025 652.202   4
  19  -3  -5 2164.76 493.724   2
  16   3  -5 1324.67 344.703   2
   3 -19  -2 9225.28 591.231   3
  -3 -16  -2 5879.25 334.499   3
 -16  19  -2 7291.20 374.859   1
  19  -3  -2 8507.70 1124.05   3
  16   3  -2 7724.49 1039.93   3
  16   3  -2 9265.83 1067.86   4
  16   3  -2 9293.62 902.894   2
 -16  19  -2 9564.89 1043.05   4
 -16  19   1 3295.75 804.916   4
   3 -19   1 3149.33 596.389   3
 -19  16   1 2382.08 454.173   1
  19  -3   1 2955.41 736.831   3
 -16  19   1 2686.12 806.913   2
  16   3   1 3427.54 729.691   3
 -16  19   1 3352.35 562.505   1
  16   3   1 2458.22 747.652   2
  -3 -16   1 2475.94 584.200   1
   3 -19   1 1493.25 500.534   1
  16   3   1 1990.18 711.737   4
   3 -19   4 7455.35 1019.35   3
  -3 -16   4 8470.04 933.457   1
  19  -3   4 7994.38 944.337   3
 -16  19   4 7576.05 1069.17   2
  16   3   4 7182.83 812.297   3
 -19  16   4 8549.35 1039.50   2
   3 -19   4 6364.76 740.733   1
  19  -3   4 8324.95 1194.24   2
  19  -3   4 8401.85 1058.06   4
  16   3   4 8425.63 1058.73   4
 -16  19   4 7266.77 956.616   1
  16   3   4 6711.78 1090.75   2
 -19  16   4 9021.90 988.270   1
 -16  19   4 7644.01 1028.62   4
 -16  19   7 2712.57 838.408   4
   3 -19   7 3771.71 1051.35   3
 -19  16   7 2721.14 940.546   1
  19  -3   7 1704.79 692.031   3
  16   3   7 1998.27 571.940   3
 -16  19   7 3114.12 879.425   2
 -19  16   7 2129.80 708.926   2
  -3 -16   7 1721.87 692.770   1
  19  -3   7 2263.70 783.089   4
  19  -3   7 3168.61 1020.76   2
  16   3   7 2193.61 849.750   4
  16   3   7 2853.78 1058.05   2
 -16  19   7 2141.28 866.696   1
   3 -19   7 2934.16 746.573   1
  19  -2  -9 4596.74 970.263   4
  17   2  -9 3583.11 873.434   4
  17   2  -6 4191.12 855.790   4
  19  -2  -6 2130.30 306.057   2
  17   2  -3 5657.88 723.009   2
   2 -19  -3 3879.88 308.761   3
  19  -2  -3 4460.98 997.338   3
  19  -2  -3 5453.03 753.503   2
  17   2  -3 5226.20 893.988   4
 -17  19   0 3490.30 788.594   4
  -2 -17   0 4800.29 563.731   3
   2 -19   0 3096.94 490.200   3
 -17  19   0 2001.30 390.533   1
  19  -2   0 4397.14 936.879   3
  17   2   0 4970.47 859.119   3
  -2 -17   0 3525.59 688.401   1
 -17  19   0 3041.89 760.439   2
 -17  19   0 4428.43 539.158   1
  17   2   0 3494.77 769.333   4
  17   2   0 2920.07 730.437   2
 -19  17   0 3677.50 401.235   1
  19  -2   0 3680.77 778.568   2
  -2 -17   3 3258.83 618.260   1
 -17  19   3 3718.05 825.047   4
   2 -19   3 4592.51 786.195   3
 -19  17   3 3679.83 689.031   1
   2 -19   3 4003.38 665.801   1
 -17  19   3 4461.53 743.025   1
 -17  19   3 5066.10 896.900   2
  19  -2   3 4959.53 961.452   2
  19  -2   3 3105.28 677.523   3
  17   2   3 3517.96 739.282   3
 -19  17   3 5152.62 864.282   2
  17   2   3 4788.50 970.085   2
  19  -2   3 3518.95 827.496   4
  17   2   3 4348.67 857.128   4
  -2 -17   6 4242.27 838.310   1
 -17  19   6 4139.88 893.350   4
   2 -19   6 3354.36 922.530   3
 -19  17   6 3551.49 906.684   1
   2 -19   6 3353.40 742.214   1
  19  -2   6 3730.55 745.005   3
 -19  17   6 4529.94 873.023   2
  17   2   6 4333.78 696.134   3
 -17  19   6 4291.13 901.962   2
  19  -2   6 3043.19 793.672   4
  17   2   6 4205.54 905.451   4
  19  -2   6 4626.73 1019.18   2
  17   2   6 3611.69 1052.44   2
 -17  19   6 4599.58 991.541   1
 -17  19   9 4314.79 1288.62   1
   2 -19   9 3426.92 1127.68   3
 -19  17   9 3547.83 1266.17   1
  19  -2   9 2852.93 759.842   3
 -17  19   9 1606.28 818.486   2
  -2 -17   9 2678.84 881.740   1
   2 -19   9 2347.08 807.848   1
  17   2   9 2812.25 923.395   4
  19  -2   9 3724.68 1142.35   2
  17   2   9 3422.26 1182.00   2
  19  -2   9 1986.87 858.870   4
  19  -1  -7 1603.26 773.352   4
  18   1  -7 1374.98 727.067   4
  19  -1  -4 4769.70 1073.71   3
  19  -1  -4 3766.22 879.416   4
  18   1  -4 2176.49 751.133   4
  18   1  -4 4126.39 638.362   2
  19  -1  -4 3312.64 608.194   2
 -19  18  -1 1932.79 194.932   1
  -1 -18  -1 3294.86 395.036   3
   1 -19  -1 3757.77 437.178   3
 -18  19  -1 1781.76 252.298   1
  19  -1  -1 2016.26 781.142   3
  18   1  -1 3118.92 853.125   3
  19  -1  -1 2818.71 810.235   4
  18   1  -1 2750.60 779.656   4
  19  -1  -1 2561.70 694.930   2
 -19  18  -1 2297.57 234.919   1
  18   1  -1 3555.94 742.872   2
 -18  19  -1 2336.23 290.595   1
 -18  19   2 1451.84 705.864   4
 -19  18   2 1632.83 530.495   1
  -1 -18   2 2674.61 612.790   3
   1 -19   2 1529.48 561.933   3
  19  -1   2 3013.76 810.355   3
  18   1   2 1466.16 690.582   3
 -18  19   2 938.465 649.998   2
 -19  18   2 1965.41 743.143   2
  19  -1   2 1360.22 699.310   4
  -1 -18   2 1237.89 512.094   1
  18   1   2 2898.82 791.104   4
  19  -1   2 2062.09 746.926   2
  18   1   2 1323.76 699.640   2
 -18  19   2 1348.30 500.216   1
   1 -19   2 2173.18 546.780   1
 -19  18   5-285.926 636.466   1
  19  -1   5-493.491 624.245   4
   1 -19   5 473.694 617.831   3
  -1 -18   5-107.525 583.296   1
  19  -1   5-194.291 544.554   3
  18   1   5 570.051 551.420   3
 -18  19   5 701.171 652.143   2
 -19  18   5-717.367 622.158   2
   1 -19   5 684.039 511.117   1
  18   1   5-616.942 659.882   4
  19  -1   5 354.014 733.940   2
  18   1   5 889.617 760.800   2
 -18  19   5-332.605 605.321   1
 -18  19   8 701.938 924.414   1
   1 -19   8 2339.28 966.859   3
 -19  18   8 1311.60 1014.59   1
  19  -1   8 888.637 611.047   3
  18   1   8 454.963 579.916   3
 -18  19   8 822.797 718.663   2
 -19  18   8 854.777 740.571   2
  19  -1   8 692.159 692.554   4
  -1 -18   8 1228.72 667.031   1
  18   1   8 1437.77 825.391   4
  19  -1   8 2732.87 1132.33   2
  18   1   8-243.842 849.114   2
   1 -19   8 627.831 678.633   1
  19   0  -8 7639.51 1078.19   4
  19   0  -5 116.952 667.262   4
  19   0  -5-211.331 379.614   2
   0 -19  -2 14022.2 593.246   3
  19   0  -2 14032.0 1393.11   3
  19   0  -2 16113.8 1205.53   2
 -19  19   1-227.507 390.483   1
   0 -19   1 585.498 441.940   3
  19   0   1 573.532 658.794   3
 -19  19   1 1138.82 705.896   2
  19   0   1 342.410 623.225   4
  19   0   1-551.141 585.662   2
   0 -19   1 133.450 484.059   1
 -19  19   4 2710.56 724.141   1
   0 -19   4 2147.76 693.237   3
  19   0   4 2631.47 746.861   3
 -19  19   4 1092.59 721.931   2
  19   0   4 2168.10 786.998   4
  19   0   4 2187.03 885.688   2
   0 -19   4 1515.26 543.915   1
 -19  19   7-1026.66 826.144   1
   0 -19   7-300.758 733.261   3
  19   0   7-492.299 568.162   3
 -19  19   7-8.42446 640.970   2
  19   0   7 254.167 685.227   4
  19   0   7-275.455 895.880   2
   0 -19   7 577.562 657.035   1
  20 -20  -8 1954.72 1248.31   3
   0  20  -5 270.666 659.661   2
  20 -20  -5-1794.93 957.166   3
   0  20  -5-128.405 587.605   4
 -20   0  -2 2524.12 639.406   1
   0  20  -2 1794.31 742.255   2
  20 -20  -2 1880.04 758.305   3
   0  20  -2 4315.14 889.999   4
 -20   0   1 278.600 498.283   1
   0  20   1 1184.63 691.794   2
  20 -20   1-462.645 557.339   3
   0  20   1-152.776 625.689   4
   0  20   4 152.663 685.522   2
  20 -20   4-286.616 643.480   3
 -20   0   4 325.418 552.408   1
   0  20   4 1728.59 752.294   4
 -20   0   7 1673.61 846.332   1
   0  20   7 859.940 934.391   2
   0  20   7 798.684 720.194   4
  20 -20   7-630.542 743.490   3
   1  19  -6 2966.82 804.828   2
  -1  20  -6 1088.59 702.295   2
  19 -20  -6 3278.54 1087.95   3
   1  19  -6 2633.48 738.335   4
  -1  20  -6 1599.12 633.282   4
   1  19  -3 4623.06 856.619   2
  -1  20  -3 6243.53 943.355   2
  19 -20  -3 6642.73 1100.43   3
  20 -19  -3 4568.72 945.031   3
   1  19  -3 4472.78 863.032   4
  -1  20  -3 6276.92 931.622   4
   1  19   0 5515.08 927.215   2
  -1  20   0 4919.55 897.686   2
  19 -20   0 6277.62 922.631   3
  20 -19   0 6252.43 935.759   3
 -20   1   0 5919.13 758.772   1
 -19  -1   0 4640.80 697.371   1
   1  19   0 6511.12 987.208   4
  -1  20   0 6475.21 947.464   4
  19 -20   3 3661.72 827.969   3
  20 -19   3 4260.35 821.365   3
 -20   1   3 3856.56 722.281   1
   1  19   3 5523.06 987.823   4
 -19  -1   3 4382.05 734.140   1
  -1  20   3 4371.22 888.951   4
   1  19   3 6119.24 1070.20   2
  -1  20   3 5299.20 1021.28   2
 -20   1   6 2132.42 772.463   1
   1  19   6 2827.25 1023.06   2
 -19  -1   6 2998.44 810.511   1
  -1  20   6 1479.87 823.732   2
  19 -20   6 1793.18 822.404   3
  20 -19   6 600.848 744.935   3
   1  19   6 2251.27 834.744   4
  -1  20   6 2662.75 896.248   4
  18 -20  -7 1528.54 1070.34   3
  20 -18  -7 4226.84 1173.47   3
   2  18  -7 2577.28 635.860   4
  -2  20  -7 2588.96 659.038   4
   2  18  -4 1611.43 662.976   2
  -2  20  -4-306.432 626.411   2
  18 -20  -4 1454.05 795.491   3
  20 -18  -4 424.910 781.275   3
   2  18  -4 1067.69 632.766   4
  -2  20  -4-1091.13 633.037   4
   2  18  -1 10436.8 1073.81   2
  -2  20  -1 11370.2 1176.65   2
  18 -20  -1 12550.1 1177.44   3
  20 -18  -1 9557.28 1110.88   3
 -20   2  -1 11730.9 876.353   1
 -18  -2  -1 13551.1 1013.68   1
   2  18  -1 11791.2 1189.62   4
  -2  20  -1 11100.3 1180.37   4
   2  18   2 383.385 696.169   2
  -2  20   2 1536.71 805.696   2
  18 -20   2 1626.39 691.485   3
  20 -18   2 1463.43 562.662   3
 -20   2   2 1524.88 563.539   1
  -2  20   2 904.997 675.018   4
 -18  -2   2 1731.83 620.260   1
   2  18   2 1927.80 714.833   4
  18 -20   5 5763.00 966.356   3
  20 -18   5 7344.44 1067.34   3
 -20   2   5 7973.04 1027.64   1
 -18  -2   5 6899.48 966.499   1
   2  18   5 8287.99 1179.27   4
  -2  20   5 7686.50 1110.96   4
   2  18   5 6325.20 1153.83   2
  -2  20   5 8445.94 1273.14   2
 -18  -2   8 3128.63 922.068   1
   2  18   8 1789.63 957.910   2
  -2  20   8 2805.89 1074.05   2
  18 -20   8 2255.69 871.213   3
  20 -18   8 1776.47 885.142   3
 -20   2   8 1764.05 871.164   1
   2  18   8 2039.33 853.412   4
  -2  20   8 273.637 710.188   4
   3  17  -8 1419.92 586.670   4
  -3  20  -8 2143.25 592.991   4
   3  17  -5 1902.57 671.613   2
  -3  20  -5 59.4797 617.779   2
  17 -20  -5 547.183 852.250   3
  20 -17  -5 2239.74 914.985   3
   3  17  -5 573.958 555.192   4
  -3  20  -5 1513.79 615.830   4
 -20   3  -2 2130.25 543.845   1
   3  17  -2 744.865 578.755   2
  -3  20  -2 2547.34 775.101   2
  17 -20  -2 1625.00 602.222   3
  20 -17  -2 1966.04 721.652   3
 -17  -3  -2 2739.91 638.050   1
   3  17  -2 2188.34 716.340   4
  -3  20  -2 2896.28 704.943   4
  -3  20   1 2168.83 795.384   2
 -17  -3   1 1213.81 615.945   1
  17 -20   1 797.914 547.735   3
  20 -17   1 1368.41 636.503   3
 -20   3   1 1023.76 461.291   1
   3  17   1 1899.97 694.666   4
  -3  20   1 185.236 648.086   4
   3  17   4 4221.77 949.854   2
 -20   3   4 3608.38 674.413   1
  -3  20   4 3268.11 883.829   2
  17 -20   4 3125.10 800.488   3
  20 -17   4 3158.98 808.409   3
 -17  -3   4 3433.71 733.369   1
   3  17   4 3392.55 862.897   4
  -3  20   4 3193.67 858.618   4
   3  17   7 2828.91 1044.28   2
 -17  -3   7 1899.99 806.860   1
  -3  20   7 257.127 773.671   2
  17 -20   7 853.488 730.685   3
  20 -17   7 1635.70 778.208   3
 -20   3   7 1513.96 724.710   1
  -3  20   7 634.278 723.589   4
   3  17   7 140.269 692.941   4
   4  16  -6 6703.88 873.192   2
  -4  20  -6 7030.68 991.972   2
  16 -20  -6 8094.56 1220.84   3
  20 -16  -6 7991.99 1344.11   3
   4  16  -6 9088.96 985.833   4
  -4  20  -6 8304.43 910.487   4
 -16  -4  -3 1280.75 489.983   3
   4  16  -3 1610.89 594.911   2
  -4  20  -3 2096.28 681.862   2
  16 -20  -3 2231.28 750.572   3
  20 -16  -3 2092.29 835.545   3
   4  16  -3 3145.53 699.063   4
  -4  20  -3 2363.44 677.464   4
  -4  20   0 5739.54 915.261   2
  16 -20   0 6468.29 846.777   3
  20 -16   0 5340.07 887.693   3
 -16  -4   0 5366.65 694.062   1
   4  16   0 5015.70 892.072   4
  -4  20   0 6700.14 999.377   4
   4  16   0 6965.47 941.989   2
  -4  20   3 5571.96 1049.92   2
  16 -20   3 4727.52 868.261   3
  20 -16   3 5772.35 887.560   3
 -20   4   3 5514.23 746.405   1
   4  16   3 6041.06 973.526   4
  -4  20   3 6004.06 929.784   4
 -16  -4   3 5000.98 771.880   1
   4  16   3 5363.74 1032.37   2
   4  16   6 3030.21 1037.53   2
  -4  20   6 2708.89 926.032   2
 -16  -4   6 98.6852 625.813   1
  16 -20   6 985.866 702.087   3
  20 -16   6 2107.96 786.974   3
 -20   4   6 972.037 661.431   1
   4  16   6 807.909 689.868   4
  -4  20   6 1460.41 750.886   4
  15 -20  -7 8618.54 1220.08   3
  20 -15  -7 6068.62 1334.89   3
   5  15  -7 7514.93 859.984   4
  -5  20  -7 7058.69 822.638   4
 -15  -5  -4 2916.75 486.036   3
   5  15  -4 3549.85 698.568   2
  20 -15  -4 5180.23 1066.85   3
  15 -20  -4 3233.29 853.360   3
  -5  20  -4 4260.51 809.866   2
   5  15  -4 5900.66 874.827   4
  -5  20  -4 4645.64 796.727   4
  -5  20  -1 11902.8 1188.70   2
 -15  -5  -1 13471.2 960.923   3
  15 -20  -1 15165.3 1136.34   3
  20 -15  -1 15215.1 1303.43   3
 -20   5  -1 18736.0 956.710   1
   5  15  -1 15236.0 1302.11   4
 -15  -5  -1 15697.8 1076.01   1
  -5  20  -1 16840.9 1315.33   4
   5  15  -1 15026.6 1201.98   2
  -5  20   2 1726.03 726.891   2
 -20   5   2 1856.08 499.480   1
  15 -20   2 1677.95 606.958   3
  20 -15   2 1978.83 655.414   3
   5  15   2 2342.24 734.253   4
   5  15   2 3490.07 923.689   2
  -5  20   2 3292.25 794.182   4
 -15  -5   2 1941.86 570.234   1
  -5  20   5 12095.4 1341.53   2
  15 -20   5 11824.5 1239.90   3
  20 -15   5 12044.9 1202.78   3
 -20   5   5 12985.1 1136.17   1
 -15  -5   5 10145.7 1073.53   1
   5  15   5 12142.7 1345.27   4
  -5  20   5 13524.3 1319.59   4
   5  15   5 11198.7 1368.05   2
   5  15   8 1189.17 918.701   2
 -15  -5   8 1922.42 823.339   1
  15 -20   8 270.067 753.123   3
  -5  20   8 2351.40 988.755   2
  20 -15   8 1300.83 789.219   3
 -20   5   8 1700.38 815.425   1
   5  15   8 1354.23 838.543   4
  -5  20   8 1083.31 811.615   4
   6  14  -8 358.879 493.165   4
  -6  20  -8 1372.09 553.495   4
   6  14  -5 3371.72 619.261   2
  14 -20  -5 3743.37 933.500   3
  20 -14  -5 3946.47 1080.79   3
  -6  20  -5 4664.52 882.339   2
   6  14  -5 4423.62 770.490   4
  -6  20  -5 3515.40 727.988   4
 -14  -6  -2 13499.9 868.750   3
  -6  20  -2 13690.1 1236.64   2
  14 -20  -2 11982.2 1054.24   3
  20 -14  -2 13229.6 1306.56   3
 -14  -6  -2 11585.2 974.226   1
   6  14  -2 14611.8 1239.44   4
  -6  20  -2 15974.0 1253.37   4
 -20   6  -2 9597.02 680.953   1
   6  14  -2 15248.3 1158.39   2
  -6  20   1 5572.63 964.360   2
  14 -20   1 5708.97 787.078   3
  20 -14   1 6168.63 905.643   3
 -14  -6   1 4691.81 716.357   1
   6  14   1 7021.04 979.614   4
 -20   6   1 5280.55 595.529   1
  -6  20   1 7245.19 991.375   4
   6  14   1 5446.89 914.364   2
  -6  20   4 1353.80 372.361   3
  14 -20   4 2580.96 685.606   3
  -6  20   4 1747.52 721.610   2
  20 -14   4 1966.40 697.468   3
 -14  -6   4 1690.86 657.362   1
   6  14   4 3080.71 785.595   4
 -20   6   4 2635.19 650.206   1
  -6  20   4 3085.38 797.106   4
   6  14   4 3118.55 911.048   2
 -14  -6   7 3803.34 905.055   1
  14 -20   7 3296.67 854.079   3
  14 -20   7 2078.05 362.186   1
  -6  20   7 2628.14 936.854   2
  20 -14   7 4519.99 968.267   3
 -20   6   7 2309.42 825.270   1
   6  14   7 4628.55 1005.53   4
  -6  20   7 2446.99 844.807   4
   6  14   7 5355.56 1150.21   2
   7  13  -6 6713.32 725.762   2
  13 -20  -6 8726.01 1110.71   3
  20 -13  -6 7845.66 1294.11   3
   7  13  -6 8380.94 914.175   4
  -7  20  -6 8821.74 911.592   4
   7  13  -3 1308.10 480.406   2
 -13  -7  -3 1459.12 370.480   3
  13 -20  -3 1494.76 616.119   3
  -7  20  -3 1276.66 633.726   2
  20 -13  -3 1350.15 704.499   3
   7  13  -3 1741.77 686.176   4
  -7  20  -3 3029.20 726.325   4
  -7  20   0 6173.15 974.962   2
  13 -20   0 5105.40 717.987   3
  20 -13   0 7839.53 952.009   3
 -13  -7   0 5540.83 720.614   3
 -13  -7   0 6387.66 735.822   1
   7  13   0 6800.03 956.519   4
  -7  20   0 6169.20 914.923   4
   7  13   0 7484.40 978.997   2
 -20   7   0 6131.04 600.744   1
  -7  20   3 1948.05 462.575   3
  13 -20   3 2394.19 610.115   3
  -7  20   3 2317.04 781.831   2
  20 -13   3 2460.17 632.186   3
 -20   7   3 3395.20 630.395   1
   7  13   3 2612.52 762.023   4
 -13  -7   3 2378.76 620.143   1
  -7  20   3 2074.79 705.000   4
   7  13   3 2264.42 819.433   2
  13 -20   6 1951.38 790.532   3
  -7  20   6 1192.40 698.644   2
  20 -13   6 621.587 645.906   3
 -13  -7   6 537.675 648.508   1
  13 -20   6 1016.98 331.584   1
 -20   7   6 1645.54 709.445   1
   7  13   6 1371.41 719.440   4
  -7  20   6 838.784 711.328   4
   7  13   6 1875.56 907.290   2
 -13  -7   9 949.089 779.890   1
  13 -20   9 2703.29 963.305   3
  -7  20   9 1277.48 879.104   2
  20 -13   9 2849.15 912.651   3
  -7  20   9 964.887 1017.94   1
 -20   7   9 4415.25 1143.97   1
   7  13   9 4149.39 999.906   4
  -7  20   9 1651.64 822.971   4
   7  13   9 240.197 941.078   2
  -8  20  -7 5742.43 743.708   4
  20 -12  -7 6504.96 1233.36   3
   8  12  -7 5181.08 776.826   4
 -12  -8  -4 1121.51 249.947   3
   8  12  -4 1687.44 507.974   2
  12 -20  -4 2191.40 685.154   3
  20 -12  -4 2011.32 837.817   3
  -8  20  -4 2592.60 749.782   2
   8  12  -4 921.242 575.532   4
  -8  20  -4 2375.10 666.092   4
  -8  20  -1 11130.5 1144.72   2
 -20   8  -1 9768.47 671.474   1
  12 -20  -1 10264.8 872.701   3
 -12  -8  -1 10504.9 773.541   3
  20 -12  -1 9508.67 1089.13   3
   8  12  -1 10668.7 1096.77   4
  -8  20  -1 13724.6 1198.78   4
   8  12  -1 12361.6 1104.68   2
 -12  -8  -1 9183.46 905.626   1
  -8  20   2 4666.08 619.226   3
  12 -20   2 5368.44 766.057   3
 -12  -8   2 2541.90 645.739   1
  20 -12   2 4268.55 793.245   3
  -8  20   2 3545.52 839.412   2
   8  12   2 4425.74 848.642   4
 -20   8   2 5191.49 600.254   1
   8  12   2 4950.81 866.305   2
  -8  20   2 5550.04 932.523   4
  12 -20   5 3328.66 438.507   1
  -8  20   5 3953.50 549.101   3
  12 -20   5 4554.57 833.870   3
  -8  20   5 3692.58 876.417   2
  20 -12   5 3187.01 729.613   3
   8  12   5 3858.71 849.680   4
 -12  -8   5 4159.67 753.837   1
 -20   8   5 4452.43 789.520   1
  -8  20   5 5999.23 972.759   4
   8  12   5 3888.92 963.706   2
  12 -20   8 1421.04 765.245   3
 -12  -8   8 1896.23 763.677   1
  -8  20   8 262.962 771.466   2
  20 -12   8 233.749 668.086   3
  12 -20   8 61.7826 461.619   1
 -20   8   8 1715.82 864.823   1
   8  12   8 2253.22 890.338   4
   8  12   8 694.589 878.105   2
  -8  20   8 879.752 778.726   4
   9  11  -8 4735.74 740.684   4
   9  11  -5 5637.91 641.203   2
  11 -20  -5 4422.21 809.042   3
  20 -11  -5 4401.72 1032.40   3
   9  11  -5 5130.81 796.023   4
  -9  20  -5 4801.73 748.156   4
 -11  -9  -2 4079.92 476.415   3
  11 -20  -2 4866.73 701.839   3
 -11  -9  -2 4177.92 700.901   1
  -9  20  -2 2773.30 537.909   1
  -9  20  -2 3721.07 788.465   2
  20 -11  -2 2700.80 881.569   3
   9  11  -2 6528.11 920.514   4
 -20   9  -2 3952.63 381.486   1
  -9  20  -2 5135.59 796.893   4
   9  11  -2 4781.79 718.868   2
  11 -20   1 9010.37 859.809   3
  -9  20   1 7938.91 1027.16   2
  20 -11   1 8864.51 977.309   3
 -11  -9   1 8298.57 815.333   1
   9  11   1 8856.06 1073.26   4
 -20   9   1 9295.26 681.667   1
  20 -11   1 7683.36 523.516   1
   9  11   1 11610.0 1167.34   2
  -9  20   1 9889.14 1101.72   4
  11 -20   4 4005.17 772.758   3
  -9  20   4 3304.44 539.173   3
 -20   9   4 3592.18 698.937   1
  20 -11   4 5712.91 843.328   3
  -9  20   4 3768.21 892.692   2
  11 -20   4 4228.32 533.664   1
 -11  -9   4 4313.41 728.902   1
   9  11   4 5429.15 865.446   4
   9  11   4 2796.16 905.368   2
  -9  20   4 3731.76 869.972   4
  11 -20   7 4387.15 942.041   3
  20 -11   7 2870.71 748.067   3
  -9  20   7 3382.72 910.826   2
 -11  -9   7 4310.04 893.091   1
  11 -20   7 4156.80 560.916   1
 -20   9   7 3195.60 894.236   1
   9  11   7 3664.19 863.057   4
   9  11   7 5183.65 1142.82   2
  -9  20   7 3278.34 815.010   4
 -10  20  -6 3121.42 634.848   4
  10  10  -6 2332.77 401.053   2
  10 -20  -6 4071.67 744.526   3
  20 -10  -6 2700.75 901.949   3
  10  10  -6 3387.17 691.793   4
  10  10  -3 262.442 457.679   2
 -10 -10  -3 281.955 152.435   3
  10 -20  -3 868.151 513.811   3
  20 -10  -3-279.459 681.444   3
 -10  20  -3-1164.26 657.579   2
  10  10  -3-20.1862 497.861   4
 -10  20  -3 738.257 461.209   1
 -10  20  -3 553.624 558.518   4
  10 -20   0 4493.99 624.134   3
  20 -10   0 4476.16 829.167   3
 -10 -10   0 4556.66 654.793   3
 -10  20   0 3727.53 842.273   2
  20 -10   0 4605.38 570.441   1
 -20  10   0 5285.36 505.978   1
  10  10   0 3936.36 774.256   4
 -10 -10   0 3965.44 643.726   1
  10  10   0 5536.89 859.309   2
 -10  20   0 5607.33 862.659   4
  20 -10   3-3.51658 157.323   1
 -10  20   3 466.994 453.172   3
  10 -20   3-813.254 556.055   3
  20 -10   3-61.5621 517.710   3
 -10  20   3-423.790 596.906   2
 -20  10   3-229.716 436.746   1
 -10 -10   3-212.206 500.529   2
  10  10   3-114.447 549.030   4
  10  10   3 887.614 697.255   2
 -10  20   3 784.473 561.356   4
 -10 -10   3 252.477 475.237   1
 -20  10   6 4881.01 923.113   1
  10 -20   6 4172.65 884.715   3
  20 -10   6 3104.50 766.726   3
 -10  20   6 3152.59 802.002   2
 -10 -10   6 3747.49 772.957   1
  20 -10   6 2034.31 293.907   1
  10  10   6 4344.79 917.354   4
  10  10   6 3772.91 998.449   2
  10 -20   6 2909.20 473.221   1
 -10  20   6 2822.17 853.213   4
  10 -20   9-606.290 818.091   3
 -10 -10   9 1524.76 815.035   1
  20 -10   9 713.258 743.057   3
  20 -10   9 633.989 1023.32   2
 -10  20   9-692.197 831.660   2
 -20  10   9-127.247 867.969   1
  20 -10   9 627.105 694.263   4
  10 -20   9-66.6049 539.689   1
 -10  20   9 139.337 912.623   1
  10  10   9 556.021 783.063   4
  10  10   9 301.732 940.133   2
 -10  20   9-189.311 677.975   4
  11   9  -7 2880.58 654.497   4
   9 -20  -4 5194.35 757.899   3
 -11  20  -4 4970.97 957.536   2
 -11  20  -4 3164.38 526.337   1
  20  -9  -4 4425.03 990.387   3
  11   9  -4 5863.87 861.505   4
  11   9  -4 4169.58 554.628   2
 -11  20  -4 3927.84 713.384   4
 -11  20  -1 14208.3 871.851   1
   9 -20  -1 9599.48 777.296   3
  -9 -11  -1 11684.9 966.652   1
 -11  20  -1 10039.2 1099.54   2
  -9 -11  -1 9728.11 693.763   3
  20  -9  -1 7075.54 1025.11   3
  11   9  -1 9476.26 1033.81   4
  20  -9  -1 8371.42 807.672   1
  11   9  -1 12084.6 1026.26   2
 -11  20  -1 9162.79 1025.71   4
   9 -20   2 5232.68 750.593   3
 -11  20   2 4881.67 909.666   2
 -20  11   2 4797.49 619.672   1
  20  -9   2 4094.24 785.209   3
  -9 -11   2 4458.07 713.886   1
  11   9   2 5878.65 916.465   4
  11   9   2 6337.34 931.292   2
  20  -9   2 4295.03 451.968   1
 -11  20   2 4528.16 874.568   4
 -20  11   5 6123.38 879.531   1
   9 -20   5 4815.43 880.227   3
 -11  20   5 6442.99 1019.20   2
  20  -9   5 5258.46 867.263   3
  20  -9   5 2535.92 300.397   1
  -9 -11   5 4323.97 737.474   1
   9 -20   5 3785.27 535.763   1
  -9 -11   5 2663.44 580.969   2
  11   9   5 3855.75 856.333   4
  11   9   5 4520.49 958.017   2
 -11  20   5 5540.19 935.161   4
   9 -20   8 4790.92 749.950   1
 -20  11   8 6807.86 1187.46   1
   9 -20   8 5613.50 1178.26   3
 -11  20   8 5684.39 1136.77   2
  20  -9   8 6638.67 1002.62   3
  -9 -11   8 5091.03 956.004   1
  20  -9   8 7058.75 997.054   4
  11   9   8 6480.15 1101.13   4
 -11  20   8 5357.21 1220.30   1
  11   9   8 6454.64 1228.63   2
 -11  20   8 7619.81 1111.79   4
  12   8  -8 992.058 544.115   4
  12   8  -5 4702.75 532.611   2
 -12  20  -5 2056.48 497.457   1
  20  -8  -5 4141.56 683.693   2
   8 -20  -5 4294.64 627.566   3
  20  -8  -5 4912.31 1038.82   3
  12   8  -5 4177.55 757.352   4
 -12  20  -5 5136.62 750.613   4
  -8 -12  -2 4962.17 384.995   3
   8 -20  -2 3931.45 582.133   3
 -12  20  -2 4838.02 874.191   2
  20  -8  -2 5152.17 964.926   3
  12   8  -2 5946.83 896.599   4
 -12  20  -2 4100.13 515.625   1
  12   8  -2 4043.21 668.535   2
 -12  20  -2 5343.38 827.632   4
   8 -20   1 11813.4 936.045   3
 -12  20   1 12453.4 1241.81   2
  20  -8   1 10767.4 1109.81   3
 -20  12   1 10424.9 697.950   1
  -8 -12   1 10782.5 988.298   3
  -8 -12   1 10763.1 907.701   1
  12   8   1 12900.2 1202.79   4
  12   8   1 10549.6 1115.57   2
  20  -8   1 9245.82 694.478   1
 -12  20   1 13675.8 1196.09   4
   8 -20   4 2251.11 682.734   3
  20  -8   4 3338.33 691.159   3
 -12  20   4 2600.23 760.305   2
 -20  12   4 2836.97 681.930   1
  12   8   4 1360.35 311.819   3
  12   8   4 2622.87 767.484   4
  -8 -12   4 1612.84 604.240   2
  20  -8   4 768.892 282.424   1
   8 -20   4 3094.95 521.776   1
  12   8   4 2189.05 792.263   2
  -8 -12   4 942.804 500.626   1
 -12  20   4 1940.50 729.282   4
   8 -20   7 7713.93 1175.80   3
 -12  20   7 6392.81 1100.42   2
  20  -8   7 5976.36 894.849   3
   8 -20   7 3217.79 654.352   1
  20  -8   7 4749.99 603.908   1
  20  -8   7 7409.84 1036.78   4
  12   8   7 6520.55 1045.24   4
  12   8   7 7875.12 1306.02   2
  -8 -12   7 5407.53 934.398   1
 -12  20   7 4685.93 1073.69   1
 -12  20   7 7419.91 1097.42   4
 -20  12   7 7536.32 1118.31   1
  20  -7  -6 1914.31 946.106   3
  13   7  -6 1043.42 607.777   4
   7 -20  -3 968.717 428.716   3
  20  -7  -3 2690.77 883.727   3
 -13  20  -3 2061.82 729.332   2
  13   7  -3 3603.37 802.660   4
 -13  20  -3 555.887 340.166   1
  13   7  -3 2541.79 560.001   2
 -13  20  -3 2112.62 609.534   4
   7 -20   0 6482.18 685.334   3
 -13  20   0 7088.33 1013.97   2
  20  -7   0 5169.25 914.134   3
  -7 -13   0 8128.45 769.143   3
 -20  13   0 7944.15 505.254   1
  13   7   0 9191.00 1077.59   4
 -13  20   0 6972.63 586.030   1
  13   7   0 7914.00 965.140   2
  20  -7   0 5092.73 660.813   1
 -13  20   0 8094.58 998.047   4
  -7 -13   0 6630.46 772.156   1
   7 -20   3 978.245 577.092   3
  -7 -13   3 2045.81 615.014   1
  20  -7   3 777.217 564.623   3
 -20  13   3 1467.84 528.769   1
   7 -20   3 1224.96 458.767   1
 -13  20   3 850.690 621.506   2
  13   7   3 1038.88 437.835   3
  20  -7   3 1029.65 352.314   1
  13   7   3 941.656 623.199   4
  13   7   3 1634.25 755.772   2
 -13  20   3 1451.28 694.748   4
   7 -20   6 6898.81 1105.03   3
 -13  20   6 6279.88 1026.83   2
  20  -7   6 8539.56 995.758   3
   7 -20   6 7431.87 782.765   1
  13   7   6 6216.56 517.070   3
  20  -7   6 10741.0 1150.29   4
 -13  20   6 9283.97 1291.11   1
  13   7   6 10112.0 1173.32   4
  13   7   6 8020.59 1213.30   2
  -7 -13   6 7783.30 967.940   1
 -13  20   6 8504.74 1111.43   4
 -20  13   6 8752.07 1154.21   1
 -13  20   9 3324.99 856.614   4
   7 -20   9 5766.04 1293.57   3
  20  -7   9 1773.54 754.119   3
 -20  13   9 2824.99 996.861   1
  -7 -13   9 2060.93 895.425   1
 -13  20   9 2192.60 894.695   2
  20  -7   9 1418.64 1043.00   2
  20  -7   9 1302.44 733.470   4
   7 -20   9 1959.41 744.021   1
  13   7   9 1329.66 840.264   4
  13   7   9 5380.18 1283.35   2
 -13  20   9 3873.98 1158.33   1
  14   6  -7 4774.97 826.537   4
  14   6  -4 2248.96 489.939   2
 -14  20  -4 2033.79 630.565   4
 -14  20  -4 1369.60 340.577   1
  20  -6  -4 1737.58 573.285   2
   6 -20  -4 2045.67 467.260   3
  20  -6  -4 3053.94 956.677   3
  14   6  -4 1206.95 696.377   4
   6 -20  -1 6503.14 627.135   3
 -14  20  -1 5129.90 509.975   1
 -14  20  -1 5324.73 897.744   2
  -6 -14  -1 6600.39 591.316   3
  20  -6  -1 5624.97 960.829   3
  -6 -14  -1 5755.30 765.957   1
  14   6  -1 7255.79 958.425   4
  14   6  -1 7155.18 884.090   2
 -20  14  -1 6309.00 334.481   1
 -14  20  -1 8977.60 1009.78   4
 -20  14   2 12613.2 871.223   1
   6 -20   2 12267.5 1035.30   3
  20  -6   2 10438.5 732.333   1
 -14  20   2 13441.6 1269.97   2
  20  -6   2 13348.8 1176.41   3
  -6 -14   2 12992.2 1015.83   1
  14   6   2 13981.3 964.992   3
   6 -20   2 11517.7 892.128   1
  14   6   2 14009.9 1276.51   4
  14   6   2 13293.5 1289.99   2
 -14  20   2 13106.4 1234.86   4
   6 -20   5 4225.08 867.347   3
  20  -6   5 3059.36 659.524   3
  14   6   5 3774.27 578.332   3
 -14  20   5 3309.50 857.380   2
   6 -20   5 3066.09 582.799   1
  20  -6   5 4087.22 881.058   4
  20  -6   5 3065.04 472.974   1
  14   6   5 4199.82 831.979   4
 -14  20   5 2004.57 744.688   1
  14   6   5 4573.78 1044.64   2
  -6 -14   5 3819.29 740.634   1
 -20  14   5 4353.28 840.763   1
 -14  20   5 4102.61 880.375   4
 -14  20   8 2841.50 924.242   4
   6 -20   8 2233.35 949.405   3
 -20  14   8 1806.28 872.185   1
  20  -6   8 1104.99 729.647   3
 -14  20   8-603.286 819.536   2
  -6 -14   8 597.906 735.424   1
  20  -6   8 583.357 662.329   4
  20  -6   8 665.555 938.716   2
  14   6   8 1239.17 802.550   4
  20  -6   8 999.969 643.323   1
  14   6   8-1550.99 999.840   2
 -14  20   8-507.171 970.702   1
   6 -20   8 807.035 588.517   1
  15   5  -8 1599.85 667.880   4
  20  -5  -5 8972.22 792.248   2
  20  -5  -5 12150.0 1467.08   3
  15   5  -5 10267.5 1067.74   4
  15   5  -5 10662.2 664.818   2
 -15  20  -2 2024.91 686.668   4
  15   5  -2 1435.71 651.470   4
 -15  20  -2 1987.02 355.559   1
  -5 -15  -2 1133.21 189.282   3
   5 -20  -2 1969.24 416.597   3
  20  -5  -2 2416.38 873.764   3
 -15  20  -2 2191.67 771.209   2
  15   5  -2 1933.21 600.319   2
 -20  15   1 18334.6 859.335   1
   5 -20   1 16213.8 1058.66   3
  20  -5   1 12455.6 871.922   1
 -15  20   1 14618.2 1312.00   2
  20  -5   1 12964.2 1237.00   3
  15   5   1 16224.0 1174.75   3
  -5 -15   1 13860.4 1110.75   3
  15   5   1 18296.3 1453.48   4
  15   5   1 17566.5 1349.55   2
  -5 -15   1 15258.4 1077.49   1
 -15  20   1 12289.5 843.181   1
 -15  20   1 19022.1 1438.95   4
   5 -20   4 5939.36 907.731   3
  -5 -15   4 3720.08 799.618   1
  20  -5   4 4961.57 810.707   3
 -15  20   4 3607.56 902.598   2
  15   5   4 2949.53 587.949   3
  20  -5   4 3229.16 517.264   1
  20  -5   4 4895.53 945.651   4
  15   5   4 5789.23 1068.42   2
  15   5   4 5682.54 955.820   4
   5 -20   4 3256.58 627.046   1
 -15  20   4 4113.66 804.780   1
 -20  15   4 5934.63 831.189   1
 -15  20   4 2981.88 736.135   4
   5 -20   7 7050.75 1221.75   3
   5 -20   7 10841.2 1076.78   1
 -15  20   7 6754.41 1074.98   2
  20  -5   7 8638.11 1036.78   3
  15   5   7 6329.41 718.583   3
  20  -5   7 6103.72 1179.65   2
  20  -5   7 9124.65 1154.73   4
  15   5   7 8800.99 1168.45   4
  15   5   7 7016.26 1267.00   2
  -5 -15   7 5584.47 962.502   1
 -15  20   7 5838.74 1096.85   1
 -20  15   7 6574.27 1106.77   1
 -15  20   7 10708.4 1291.49   4
  16   4  -6 893.775 623.493   4
  20  -4  -6 1513.33 368.474   2
   4 -20  -3 5723.82 534.876   3
  20  -4  -3 3951.63 941.297   3
  16   4  -3 5993.39 937.457   4
  16   4  -3 7015.58 798.409   2
 -16  20  -3 4901.70 837.692   4
 -16  20   0 4943.40 500.515   1
  -4 -16   0 6729.73 627.834   3
   4 -20   0 6858.64 673.456   3
 -20  16   0 7668.08 473.956   1
  16   4   0 7736.01 960.824   2
  -4 -16   0 5583.13 750.972   1
 -16  20   0 5955.08 967.990   2
  16   4   0 5441.78 844.111   3
  -4 -16   0 5656.59 707.506   3
  20  -4   0 4815.14 926.054   3
  16   4   0 7027.00 944.961   4
 -16  20   0 5697.94 890.915   4
 -16  20   3 1885.85 724.039   4
  20  -4   3 1501.19 437.480   1
   4 -20   3 1968.36 652.709   3
 -20  16   3 1815.38 575.844   1
  20  -4   3 2390.45 650.386   3
 -16  20   3 2121.95 779.585   2
  16   4   3 1875.80 628.654   3
  16   4   3 3139.89 834.508   4
 -16  20   3 2352.77 701.996   1
  16   4   3 2112.89 829.784   2
   4 -20   3 1426.76 503.405   1
  -4 -16   3 1330.47 525.670   1
   4 -20   6 9300.37 1234.43   3
  20  -4   6 7273.54 964.063   3
   4 -20   6 5923.72 795.356   1
  16   4   6 8160.25 846.299   3
 -16  20   6 5172.32 953.437   2
  20  -4   6 7803.17 1323.27   2
  20  -4   6 9269.53 1162.86   4
  16   4   6 8225.38 1137.42   4
 -16  20   6 7236.77 1099.39   1
  16   4   6 10155.4 1410.63   2
 -20  16   6 8732.55 1178.46   1
 -16  20   6 10633.9 1259.08   4
  -4 -16   6 6029.26 909.328   1
  17   3  -7 2648.59 770.918   4
  17   3  -4 3386.13 819.716   4
  20  -3  -4 3256.84 651.841   2
  20  -3  -4 4284.90 1046.86   3
  20  -3  -4 3470.66 626.536   2
  17   3  -4 3517.29 610.156   2
 -17  20  -1 1258.12 616.473   4
  -3 -17  -1 1725.17 344.957   3
   3 -20  -1 752.421 356.089   3
  20  -3  -1 930.700 729.198   3
  -3 -17  -1 997.740 406.871   3
  17   3  -1 1238.78 715.319   3
 -17  20  -1 877.833 689.813   2
 -17  20  -1 1549.21 309.785   1
 -17  20  -1 1086.60 306.292   1
  17   3  -1 2790.45 782.943   4
  17   3  -1 1932.54 689.590   2
 -20  17  -1 609.161 156.704   1
 -17  20   2 1773.57 751.203   4
   3 -20   2 2417.23 594.634   3
 -20  17   2 1066.53 462.395   1
  -3 -17   2 2107.35 586.022   1
  20  -3   2 2487.70 695.908   3
  17   3   2 1393.19 662.246   3
 -17  20   2 744.608 623.838   2
   3 -20   2 1327.74 553.196   1
  20  -3   2 839.232 673.407   4
  17   3   2 1469.30 652.926   4
  20  -3   2 900.558 682.174   2
  17   3   2 2730.28 814.452   2
 -17  20   2 1898.49 606.678   1
 -17  20   5 2429.26 833.017   4
   3 -20   5 1539.53 795.488   3
 -20  17   5 2285.40 758.983   1
  20  -3   5 1216.94 812.929   2
  -3 -17   5 1298.56 625.844   1
  20  -3   5 557.613 544.571   3
  17   3   5 637.148 495.280   3
 -17  20   5 2726.83 818.480   2
 -20  17   5 1986.77 701.904   2
  20  -3   5 1604.77 670.552   4
  17   3   5 2907.21 872.795   4
  17   3   5 1721.42 851.643   2
 -17  20   5 2268.26 833.904   1
   3 -20   5 1502.06 582.185   1
   3 -20   8 1503.49 947.068   3
 -20  17   8 2536.85 991.876   1
  -3 -17   8 2358.59 808.118   1
  20  -3   8 1819.40 721.734   3
 -17  20   8 293.623 735.953   2
 -20  17   8 1333.15 730.486   2
  17   3   8 2760.61 937.055   4
  20  -3   8 2551.84 849.159   4
  20  -3   8 2003.27 941.564   2
  17   3   8 878.060 922.912   2
   3 -20   8 734.209 648.713   1
 -17  20   8 2501.64 997.683   1
  20  -2  -8 1181.81 809.395   4
  18   2  -8 965.206 752.222   4
  18   2  -5 8318.87 1086.04   4
  20  -2  -5 8253.82 737.655   2
  18   2  -5 7824.50 648.984   2
  -2 -18  -2 1345.18 198.808   3
   2 -20  -2 1150.09 318.448   3
  -2 -18  -2 1162.92 239.887   3
  20  -2  -2 3100.96 938.676   3
  18   2  -2 1808.19 833.337   3
  18   2  -2 3252.86 854.301   4
  20  -2  -2 1315.55 624.328   2
  18   2  -2 2645.08 698.744   2
  -2 -18   1 11720.1 921.436   3
   2 -20   1 10347.8 903.029   3
  -2 -18   1 10836.4 984.598   1
  20  -2   1 11416.1 1203.76   3
 -18  20   1 10723.9 831.647   1
 -18  20   1 11389.1 1232.69   2
  18   2   1 9232.87 1082.55   3
  20  -2   1 10848.7 1239.58   4
  20  -2   1 11542.9 1239.33   2
  18   2   1 11839.5 1249.47   4
  18   2   1 13573.6 1316.50   2
   2 -20   1 9835.76 974.358   1
 -20  18   1 11339.8 771.048   1
 -18  20   1 11359.7 1247.42   4
 -18  20   4-682.311 629.835   4
   2 -20   4-706.169 621.239   3
 -20  18   4-152.113 564.474   1
   2 -20   4 501.827 505.907   1
  20  -2   4-337.083 551.540   3
  18   2   4-80.2727 572.264   3
 -18  20   4 1258.84 771.066   2
  20  -2   4 1165.95 756.486   2
 -20  18   4 798.016 704.010   2
  18   2   4 521.931 640.362   4
  20  -2   4-41.4223 598.396   4
  18   2   4-3.01295 772.804   2
  -2 -18   4-134.402 490.127   1
 -18  20   4 617.438 578.053   1
   2 -20   7 3374.85 1023.68   3
 -20  18   7 4197.10 1041.12   1
   2 -20   7 2424.42 776.948   1
  -2 -18   7 4045.24 886.819   1
  20  -2   7 3174.98 762.316   3
  18   2   7 1550.32 587.960   3
 -18  20   7 4036.21 917.366   2
 -20  18   7 3855.03 871.390   2
  20  -2   7 3579.40 893.067   4
  18   2   7 3265.48 963.116   4
  20  -2   7 2779.62 1038.26   2
  18   2   7 2754.28 1066.82   2
 -18  20   7 4336.13 1067.27   1
  20  -1  -6 2249.70 897.913   4
  19   1  -6 1678.05 761.923   4
  20  -1  -3 5234.64 1108.04   3
  19   1  -3 6110.30 1141.79   3
  20  -1  -3 5990.23 987.251   4
  19   1  -3 7641.01 1111.35   4
  20  -1  -3 5638.69 804.039   2
  19   1  -3 7244.68 857.011   2
  -1 -19   0 5863.67 633.900   3
   1 -20   0 6850.46 656.389   3
  20  -1   0 6741.37 1046.96   3
  19   1   0 7829.22 1084.04   3
 -19  20   0 4154.62 486.145   1
  20  -1   0 5345.06 1015.14   4
  19   1   0 5936.49 1023.21   4
  20  -1   0 5824.62 985.612   2
  19   1   0 7422.32 1035.14   2
 -19  20   0 5880.55 562.009   1
  -1 -19   0 5897.02 833.358   1
 -20  19   0 6285.12 521.350   1
 -19  20   3 6958.47 1044.73   4
  -1 -19   3 6830.91 924.143   3
   1 -20   3 6130.98 895.426   3
  20  -1   3 6434.35 947.476   3
  19   1   3 5326.56 890.629   3
 -19  20   3 7209.88 1073.81   2
 -19  20   3 7308.68 882.160   1
 -20  19   3 4796.24 925.651   2
  20  -1   3 6589.97 1044.72   4
  20  -1   3 10081.8 1311.91   2
  19   1   3 6583.53 1037.80   4
  19   1   3 6324.79 1106.70   2
  -1 -19   3 4814.97 728.589   1
 -20  19   3 6378.16 847.808   1
   1 -20   3 6865.35 843.215   1
 -19  20   6 2084.07 867.706   1
   1 -20   6 3552.25 1012.86   3
 -20  19   6 3471.48 985.047   1
  -1 -19   6 3402.35 813.306   1
  20  -1   6 2933.15 701.701   3
  19   1   6 2239.80 650.434   3
   1 -20   6 2300.41 687.130   1
 -19  20   6 1347.31 747.367   2
 -20  19   6 1332.50 784.208   2
  19   1   6 2432.96 831.734   4
  20  -1   6 1833.72 946.938   2
  20  -1   6 2688.05 827.204   4
  19   1   6 1255.32 831.882   2
  20   0  -7 586.664 705.536   4
  20   0  -4 912.143 734.204   4
  20   0  -4 783.329 498.639   2
   0 -20  -1 33.2350 291.398   3
 -20  20  -1-10.8387 144.502   1
  20   0  -1 1316.38 806.035   3
  20   0  -1 775.494 770.096   4
  20   0  -1-100.840 624.392   2
 -20  20  -1-95.5711 168.607   1
   0 -20   2 3082.78 715.221   1
   0 -20   2 2886.73 677.824   3
  20   0   2 2905.60 783.545   3
 -20  20   2 3266.67 882.688   2
  20   0   2 3980.20 823.734   4
 -20  20   2 4379.97 665.363   1
  20   0   2 2701.01 843.167   2
 -20  20   5 631.252 787.017   1
   0 -20   5 882.848 713.122   3
  20   0   5-51.7913 710.764   4
  20   0   5-640.962 632.399   3
 -20  20   5 819.892 776.754   2
  20   0   5 744.821 911.783   2
   0 -20   5-41.2923 527.218   1
   0 -20   8-310.433 703.787   1
   0 -20   8 633.427 930.161   3
 -20  20   8 1234.33 889.521   1
  20   0   8 214.011 638.918   3
 -20  20   8-200.088 787.048   2
  20   0   8 1615.06 887.276   4
  20   0   8 215.147 908.817   2
   0  21  -6 2918.76 880.565   2
  21 -21  -6 3461.33 1187.57   3
   0  21  -6 2748.18 777.668   4
   0  21  -3 1014.97 681.927   2
  21 -21  -3 378.004 755.086   3
   0  21  -3 865.553 646.060   4
   0  21   0 19296.3 1614.56   2
 -21   0   0 17466.6 1168.17   1
   0  21   0 18475.1 1568.52   4
   0  21   3-250.182 713.711   2
  21 -21   3 404.454 644.408   3
 -21   0   3 255.834 536.224   1
   0  21   3 1354.65 782.850   4
 -21   0   6 11637.0 1266.97   1
   0  21   6 12261.8 1415.68   4
   0  21   6 12538.9 1547.04   2
  20 -21  -7 1970.41 998.883   3
  21 -20  -7 1448.07 1083.60   3
   1  20  -7 576.854 743.830   2
   1  20  -7 974.186 657.933   4
  -1  21  -7 954.086 633.597   4
   1  20  -4 1664.46 715.248   2
  -1  21  -4 680.119 648.007   2
  20 -21  -4 713.536 747.737   3
  21 -20  -4 1028.54 837.343   3
   1  20  -4 1421.54 680.452   4
  -1  21  -4 1754.07 753.555   4
   1  20  -1 1890.78 761.638   2
 -21   1  -1 1496.82 545.980   1
  -1  21  -1 2058.88 781.956   2
 -20  -1  -1 1308.94 544.548   1
  20 -21  -1 925.052 667.433   3
  21 -20  -1 2102.15 811.055   3
   1  20  -1 1312.65 771.039   4
  -1  21  -1 911.012 650.039   4
   1  20   2 3107.63 887.399   2
  -1  21   2 1406.40 776.866   2
  20 -21   2 2758.10 818.458   3
  21 -20   2 2645.12 744.968   3
 -21   1   2 4130.83 686.627   1
   1  20   2 2098.48 808.099   4
  -1  21   2 2570.12 840.949   4
 -20  -1   2 2293.97 614.067   1
   1  20   5 1849.76 880.983   2
  -1  21   5 2094.94 856.404   2
  20 -21   5 4516.63 940.610   3
 -21   1   5 1814.91 690.480   1
  21 -20   5 3847.41 998.386   3
 -20  -1   5 2327.53 751.947   1
   1  20   5 1452.51 805.838   4
  -1  21   5 1940.64 865.543   4
  21 -19  -8 2504.92 1169.35   3
  19 -21  -8 1834.58 1209.07   3
   2  19  -5 1515.81 672.227   2
  -2  21  -5 2009.56 795.922   2
  19 -21  -5 25.9873 867.261   3
  21 -19  -5 1918.45 952.133   3
   2  19  -5 3184.76 778.748   4
  -2  21  -5 1128.99 619.593   4
 -21   2  -2 3680.94 651.665   1
   2  19  -2 3887.72 835.812   2
  -2  21  -2 4195.07 852.835   2
  19 -21  -2 2784.07 814.836   3
  21 -19  -2 2424.91 840.198   3
 -19  -2  -2 3352.67 694.130   1
   2  19  -2 5205.27 948.882   4
  -2  21  -2 3943.46 826.023   4
   2  19   1 1286.90 722.453   2
  -2  21   1 3206.53 897.948   2
  19 -21   1 3382.10 743.202   3
 -19  -2   1 2833.47 685.002   1
  21 -19   1 3004.95 789.063   3
   2  19   1 2712.04 836.079   4
  -2  21   1 2095.11 753.840   4
 -21   2   1 2023.84 621.667   1
   2  19   4-633.724 751.767   2
  -2  21   4 271.413 699.551   2
 -21   2   4-366.445 552.935   1
  19 -21   4 904.876 606.585   3
  21 -19   4 51.8427 616.278   3
 -19  -2   4-403.242 588.944   1
   2  19   4 194.038 689.218   4
  -2  21   4 973.804 747.586   4
   2  19   7 2577.36 1089.80   2
 -19  -2   7 1986.27 858.814   1
  -2  21   7 540.393 827.998   2
  19 -21   7 3475.73 911.440   3
  21 -19   7 722.930 710.633   3
   2  19   7 4786.79 1064.89   4
  -2  21   7 2094.52 887.625   4
 -21   2   7 3257.71 916.036   1
   3  18  -6 12492.7 1186.89   2
  -3  21  -6 8970.63 1154.48   2
  18 -21  -6 10472.1 1481.78   3
  21 -18  -6 11986.2 1617.35   3
   3  18  -6 11969.8 1126.52   4
  -3  21  -6 12138.9 1134.98   4
   3  18  -3 936.975 603.678   2
  -3  21  -3 529.254 643.485   2
  18 -21  -3 336.295 690.665   3
  21 -18  -3 211.503 681.696   3
   3  18  -3 389.669 637.226   4
  -3  21  -3 321.450 559.508   4
  -3  21   0 16347.7 1445.07   2
 -21   3   0 12381.9 965.099   1
  18 -21   0 16128.8 1263.57   3
  21 -18   0 17118.5 1390.09   3
 -18  -3   0 16999.1 1117.17   1
   3  18   0 22850.3 1623.84   4
  -3  21   0 18257.2 1453.25   4
   3  18   0 18510.0 1450.54   2
   3  18   3-647.919 734.871   2
  -3  21   3 1239.05 688.871   2
  18 -21   3 116.869 576.244   3
  21 -18   3 1530.70 680.574   3
 -21   3   3-90.7200 484.730   1
 -18  -3   3 259.922 523.075   1
   3  18   3 344.025 709.307   4
  -3  21   3 249.746 680.493   4
  18 -21   6 11299.7 1335.97   3
  21 -18   6 9126.38 1190.55   3
 -21   3   6 11809.0 1201.74   1
 -18  -3   6 9771.66 1150.59   1
   3  18   6 10726.3 1328.16   4
  -3  21   6 10972.3 1340.40   4
   3  18   6 9817.64 1437.20   2
  -3  21   6 8622.03 1276.55   2
  17 -21  -7 1089.59 942.781   3
  21 -17  -7 695.470 947.285   3
   4  17  -7 1979.82 652.461   4
  -4  21  -7 1086.45 608.256   4
   4  17  -4 977.120 620.805   2
  -4  21  -4 373.478 632.986   2
  17 -21  -4 959.046 739.577   3
  21 -17  -4 237.159 887.191   3
   4  17  -4 693.719 557.388   4
  -4  21  -4 1896.19 676.818   4
   4  17  -1 3660.90 802.684   2
  17 -21  -1 4444.23 794.868   3
  -4  21  -1 2347.34 762.334   2
  21 -17  -1 3645.70 898.234   3
 -21   4  -1 3706.36 567.236   1
 -17  -4  -1 3163.46 656.387   1
  -4  21  -1 4597.04 894.402   4
   4  17  -1 4127.53 815.891   4
   4  17   2 2872.23 825.845   2
  -4  21   2 3890.44 850.549   2
  17 -21   2 2172.89 725.579   3
  21 -17   2 1285.30 670.511   3
 -21   4   2 2213.38 552.904   1
   4  17   2 2843.09 798.250   4
  -4  21   2 1444.17 717.646   4
 -17  -4   2 2226.33 641.040   1
   4  17   5 5026.65 1071.29   2
  17 -21   5 4692.86 940.085   3
  21 -17   5 3853.13 952.383   3
  -4  21   5 5987.07 1053.46   2
 -17  -4   5 3254.89 762.349   1
  -4  21   5 5016.28 1000.19   4
   4  17   5 4722.67 979.724   4
 -21   4   5 3102.79 792.641   1
   4  17   8 1411.23 946.685   2
 -17  -4   8 633.633 727.004   1
  -4  21   8 3023.42 1039.05   2
  17 -21   8 1526.29 786.644   3
  21 -17   8 1473.19 865.597   3
   4  17   8 956.963 835.294   4
 -21   4   8-538.547 816.623   1
  -4  21   8 1096.52 780.082   4
   5  16  -8 2859.37 683.702   4
   5  16  -5 109.698 555.327   2
  16 -21  -5 50.9109 729.780   3
  -5  21  -5-489.530 664.862   2
  21 -16  -5 891.269 896.513   3
   5  16  -5 201.353 539.583   4
  -5  21  -5 227.826 519.566   4
   5  16  -2 4670.55 779.043   2
 -16  -5  -2 3972.76 638.962   3
  21 -16  -2 4963.26 942.193   3
  16 -21  -2 4012.86 769.651   3
  -5  21  -2 3868.67 853.871   2
   5  16  -2 4638.88 829.783   4
 -16  -5  -2 4048.63 716.933   1
  -5  21  -2 3908.94 821.113   4
 -21   5  -2 3860.82 559.829   1
   5  16   1 1426.20 698.802   2
  -5  21   1 20.0886 621.994   2
  16 -21   1-607.118 535.390   3
  21 -16   1 720.901 617.436   3
 -16  -5   1 148.331 489.761   1
 -21   5   1 62.3518 408.880   1
   5  16   1 1399.06 679.932   4
  -5  21   1 802.794 630.083   4
  -5  21   4 5541.29 1018.75   2
   5  16   4 4995.33 1014.04   2
  16 -21   4 4625.01 917.672   3
  21 -16   4 3279.37 801.290   3
 -21   5   4 3837.46 751.270   1
   5  16   4 4850.50 975.550   4
  -5  21   4 4497.86 982.507   4
 -16  -5   4 3630.02 812.863   1
   5  16   7 622.986 937.072   2
  16 -21   7-271.016 704.510   3
  -5  21   7-219.815 777.577   2
 -16  -5   7-199.182 686.248   1
  21 -16   7 878.183 790.964   3
 -21   5   7 491.276 677.328   1
   5  16   7 332.766 735.682   4
  -5  21   7 1275.11 759.302   4
   6  15  -6 17765.2 1161.04   2
  15 -21  -6 19030.7 1634.60   3
  21 -15  -6 19731.9 1869.75   3
   6  15  -6 19763.9 1359.03   4
  -6  21  -6 20054.0 1324.42   4
   6  15  -3 4006.57 734.422   2
 -15  -6  -3 3628.25 537.821   3
  15 -21  -3 4470.10 801.906   3
  -6  21  -3 4598.68 876.828   2
  21 -15  -3 3858.20 945.194   3
   6  15  -3 5276.54 870.443   4
  -6  21  -3 5638.58 892.661   4
 -21   6   0 3813.73 601.606   1
 -15  -6   0 2875.89 610.977   1
   6  15   0 2734.03 691.492   2
  15 -21   0 1537.79 574.923   3
  -6  21   0 2969.49 809.383   2
  21 -15   0 3263.99 791.509   3
   6  15   0 3352.92 825.902   4
  -6  21   0 3466.33 819.665   4
   6  15   3 1966.90 794.267   2
 -21   6   3 1932.43 564.669   1
  15 -21   3 1450.27 592.617   3
  -6  21   3 2466.45 768.885   2
  21 -15   3 1657.44 646.987   3
 -15  -6   3 2743.14 654.633   1
   6  15   3 2450.31 751.252   4
  -6  21   3 2788.07 798.515   4
   6  15   6 1152.12 773.716   2
  15 -21   6 2489.60 789.014   3
  -6  21   6 515.447 736.710   2
  21 -15   6-32.8792 635.985   3
 -15  -6   6 885.350 713.634   1
 -21   6   6 1945.63 740.504   1
   6  15   6 1034.67 686.122   4
  -6  21   6 949.538 713.459   4
  21 -14  -7 2012.50 1001.11   3
  14 -21  -7 4004.76 966.943   3
   7  14  -7 2152.26 652.640   4
  -7  21  -7 2417.10 640.859   4
 -14  -7  -4 451.463 309.466   3
   7  14  -4 1514.34 563.587   2
  14 -21  -4 2409.63 794.152   3
   7  14  -4 52.5233 520.190   4
  -7  21  -4 314.883 625.178   2
  21 -14  -4 1340.71 832.267   3
  -7  21  -4 1377.18 629.663   4
   7  14  -1 2300.46 688.348   2
  14 -21  -1 2544.47 598.673   3
 -14  -7  -1 1815.72 508.436   3
  -7  21  -1 2148.42 678.624   2
  21 -14  -1 1748.36 707.927   3
 -21   7  -1 2201.79 442.275   1
   7  14  -1 3341.80 759.933   4
 -14  -7  -1 3025.41 668.110   1
  -7  21  -1 2001.99 657.016   4
   7  14   2 4819.54 908.783   2
 -14  -7   2 2628.79 684.779   1
  21 -14   2 4440.11 848.266   3
  14 -21   2 3466.15 700.314   3
  -7  21   2 3625.58 886.142   2
 -21   7   2 5131.12 629.211   1
   7  14   2 5612.45 964.718   4
  -7  21   2 4446.64 901.818   4
  14 -21   5 2226.69 776.612   3
  -7  21   5 3650.70 945.235   2
  21 -14   5 2554.52 741.728   3
 -21   7   5 5130.83 822.956   1
 -14  -7   5 2509.44 729.773   1
   7  14   5 3222.73 819.703   4
  -7  21   5 1619.15 776.440   4
   7  14   5 3281.17 954.968   2
  -7  21   8 9583.47 1418.81   2
  14 -21   8 4398.32 1084.58   3
 -14  -7   8 4884.81 1033.57   1
 -21   7   8 5516.01 1179.33   1
  21 -14   8 4847.97 998.803   3
   7  14   8 7282.94 1183.92   4
  -7  21   8 6423.58 1149.74   4
   7  14   8 6027.62 1297.04   2
   8  13  -8 4523.64 771.158   4
  -8  21  -8 4155.94 692.009   4
   8  13  -5-268.220 455.079   2
  13 -21  -5-526.712 645.390   3
  -8  21  -5-234.378 678.425   2
   8  13  -5-107.370 552.929   4
  -8  21  -5 382.154 531.564   4
 -13  -8  -2 14806.5 864.743   3
  -8  21  -2 16808.1 1376.46   2
  13 -21  -2 14484.2 1126.22   3
  21 -13  -2 13981.0 1382.67   3
 -13  -8  -2 16482.0 1200.23   1
   8  13  -2 16889.4 1343.90   4
  -8  21  -2 15146.1 1269.42   4
 -21   8  -2 11218.3 662.738   1
   8  13  -2 14508.0 1134.26   2
   8  13   1 3922.42 821.988   2
  13 -21   1 3971.58 707.693   3
  21 -13   1 5338.91 883.082   3
  -8  21   1 4366.49 876.555   2
 -13  -8   1 4254.92 645.346   1
 -21   8   1 4132.29 546.532   1
   8  13   1 4955.38 919.992   4
  -8  21   1 2408.94 765.343   4
  -8  21   4 4159.76 566.007   3
  -8  21   4 5673.17 1008.09   2
  13 -21   4 6494.47 960.225   3
  21 -13   4 6725.32 953.221   3
 -21   8   4 5564.09 765.243   1
   8  13   4 6106.58 990.353   4
  -8  21   4 6119.56 1017.07   4
 -13  -8   4 5275.23 821.950   1
   8  13   4 4579.17 975.798   2
  13 -21   7-593.296 709.039   3
  13 -21   7 834.022 408.697   1
  -8  21   7 312.732 793.105   2
  21 -13   7 344.552 690.689   3
 -13  -8   7 209.452 644.416   1
 -21   8   7-214.664 709.234   1
   8  13   7 1184.67 818.931   4
  -8  21   7-827.871 709.369   4
   8  13   7 570.246 839.850   2
   9  12  -6 2294.54 525.459   2
  12 -21  -6 3213.92 788.295   3
  21 -12  -6 2404.99 1065.75   3
   9  12  -6 4272.46 795.777   4
  -9  21  -6 3388.13 693.570   4
 -12  -9  -3 3047.00 379.906   3
  12 -21  -3 7126.87 859.384   3
  -9  21  -3 6130.99 986.735   2
  21 -12  -3 5027.66 1081.08   3
   9  12  -3 6652.39 946.788   4
  -9  21  -3 6815.49 922.100   4
   9  12  -3 6227.44 757.620   2
  12 -21   0 6917.81 802.136   3
  -9  21   0 6573.69 975.772   2
  21 -12   0 5618.04 914.353   3
 -12  -9   0 4726.58 702.988   3
  21 -12   0 6289.21 613.060   1
   9  12   0 5828.76 892.799   4
 -12  -9   0 5370.41 771.346   1
   9  12   0 8018.59 975.799   2
 -21   9   0 7873.95 613.500   1
  -9  21   0 6852.58 941.705   4
 -12  -9   3 5353.92 859.376   1
  -9  21   3 3861.50 597.108   3
  -9  21   3 8135.45 1128.74   2
  12 -21   3 5225.30 857.224   3
  21 -12   3 5140.70 840.000   3
 -21   9   3 6624.20 786.444   1
   9  12   3 5882.96 934.559   4
   9  12   3 6416.51 1042.05   2
  -9  21   3 6310.45 978.026   4
  12 -21   6 3748.28 916.307   3
  -9  21   6 3564.29 911.994   2
  21 -12   6 2036.54 703.737   3
 -12  -9   6 1680.22 731.951   1
  12 -21   6 2413.13 450.080   1
 -21   9   6 3698.70 891.371   1
   9  12   6 3381.46 922.621   4
  -9  21   6 3797.02 871.141   4
  21 -12   9 1218.08 848.284   3
 -10  21  -7 2041.80 608.837   4
  21 -11  -7 2556.09 1022.52   3
  10  11  -7 2090.59 664.363   4
  11 -21  -4 5662.30 851.917   3
 -10  21  -4 7262.75 1055.28   2
  21 -11  -4 5626.33 1071.88   3
  10  11  -4 6778.08 905.070   4
 -10  21  -4 7129.79 925.427   4
  10  11  -4 7119.25 733.177   2
 -11 -10  -1 6230.04 806.678   1
 -21  10  -1 2578.73 423.034   1
  11 -21  -1 4871.54 671.427   3
 -10  21  -1 4950.08 931.339   2
 -11 -10  -1 3959.23 560.680   3
  21 -11  -1 5544.62 972.487   3
  10  11  -1 4996.82 905.948   4
  10  11  -1 5707.53 822.801   2
  21 -11  -1 3128.41 623.998   1
 -10  21  -1 5983.54 919.329   4
  11 -21   2 11375.1 1029.99   3
 -10  21   2 12008.0 1277.78   2
 -11 -10   2 12744.8 1056.78   1
  21 -11   2 10949.8 1116.12   3
 -21  10   2 12726.1 892.563   1
  10  11   2 14176.0 1316.80   4
  10  11   2 13435.2 1314.82   2
 -10  21   2 12008.6 1226.48   4
  11 -21   5 2333.21 764.202   3
  21 -11   5 1973.67 758.328   3
 -10  21   5 1259.32 820.090   2
 -21  10   5 797.218 684.641   1
 -11 -10   5 716.277 616.764   1
  10  11   5 335.357 603.900   4
  10  11   5 1727.75 831.356   2
 -10  21   5 2290.14 801.422   4
  11 -21   5 1145.10 422.924   1
  11 -21   8 7461.11 1287.39   3
 -10  21   8 7339.48 1239.22   2
 -21  10   8 9476.96 1289.20   1
  21 -11   8 6179.73 1052.83   3
  11 -21   8 4448.47 652.921   1
 -10  21   8 8557.48 1409.02   1
  21 -11   8 8090.91 1111.82   4
 -11 -10   8 8556.41 1179.60   1
  10  11   8 8137.80 1208.78   4
  10  11   8 7613.98 1388.16   2
 -10  21   8 10540.8 1278.44   4
  11  10  -8 8930.50 963.729   4
  11  10  -5 1575.34 473.483   2
  10 -21  -5 1268.81 571.646   3
  21 -10  -5 2430.13 927.917   3
  11  10  -5 1084.39 583.390   4
 -11  21  -5 927.611 557.707   4
 -10 -11  -2 12699.9 642.840   3
  10 -21  -2 13381.7 943.565   3
 -11  21  -2 10952.4 1213.75   2
  21 -10  -2 12008.8 1312.88   3
  11  10  -2 13785.5 1233.22   4
 -11  21  -2 10297.2 768.792   1
 -10 -11  -2 13322.3 1140.99   1
  11  10  -2 13060.1 1063.24   2
 -11  21  -2 15013.2 1223.10   4
  10 -21   1 4628.06 707.218   3
  21 -10   1 6184.23 917.998   3
 -11  21   1 3535.83 888.433   2
 -21  11   1 4186.33 515.442   1
 -10 -11   1 5399.72 716.911   1
  21 -10   1 4194.77 518.130   1
  11  10   1 4572.94 832.484   4
  11  10   1 5974.52 930.477   2
 -11  21   1 5219.50 902.011   4
 -10 -11   4 6023.82 874.345   1
  10 -21   4 5636.64 883.423   3
 -11  21   4 6572.87 1053.23   2
 -21  11   4 7366.10 888.432   1
  21 -10   4 6589.87 932.400   3
  10 -21   4 6482.97 651.948   1
 -11  21   4 6494.97 998.924   4
 -10 -11   4 6379.84 800.911   2
  11  10   4 7753.50 1022.55   4
  11  10   4 4887.56 1026.92   2
  10 -21   7 2149.84 915.931   3
  21 -10   7 2499.90 806.133   3
 -11  21   7 3384.77 971.863   2
 -10 -11   7 1225.69 706.594   1
 -21  11   7 2096.86 814.062   1
  21 -10   7 2098.21 761.818   4
  11  10   7 3461.91 958.855   4
  10 -21   7 2108.15 517.060   1
  11  10   7 3493.44 1020.00   2
 -11  21   7 3610.72 849.599   4
 -12  21  -6 2853.98 662.425   4
  12   9  -6 1742.52 359.173   2
  21  -9  -6 3325.55 1071.72   3
  12   9  -6 4211.25 798.638   4
   9 -21  -3 6561.46 790.481   3
 -12  21  -3 3362.86 561.701   1
 -12  21  -3 6740.14 994.851   2
  21  -9  -3 4642.63 1030.46   3
  12   9  -3 6408.24 914.151   4
  12   9  -3 4879.05 712.741   2
 -12  21  -3 4881.77 815.967   4
   9 -21   0 5749.25 662.295   3
 -12  21   0 5960.85 977.181   2
  -9 -12   0 6631.22 750.938   3
  21  -9   0 5222.37 665.659   1
  21  -9   0 4520.71 897.251   3
 -21  12   0 4810.37 470.547   1
  12   9   0 6344.51 933.982   4
  12   9   0 7401.14 944.294   2
  -9 -12   0 5041.31 767.049   1
 -12  21   0 6415.94 923.362   4
   9 -21   3 6298.52 878.217   3
 -21  12   3 5133.69 680.556   1
 -12  21   3 5381.47 1056.42   2
  -9 -12   3 6759.51 884.560   1
  21  -9   3 4741.15 823.712   3
  12   9   3 6431.53 987.984   4
   9 -21   3 5687.83 661.819   1
  12   9   3 4033.51 915.323   2
 -12  21   3 5336.24 905.440   4
  21  -9   3 4416.68 441.352   1
 -21  12   6 4357.22 935.455   1
   9 -21   6 3185.35 914.283   3
  21  -9   6 2906.06 743.344   3
 -12  21   6 3768.86 948.690   2
   9 -21   6 3713.46 579.156   1
  -9 -12   6 3325.35 791.506   1
  21  -9   6 2671.09 417.699   1
  12   9   6 5254.95 981.015   4
  12   9   6 5361.42 1085.17   2
 -12  21   6 4203.01 959.374   4
   9 -21   9 1070.86 671.894   1
  21  -9   9 1374.67 783.543   3
  21  -9   9 1545.24 772.798   4
  21  -9   9 3458.40 1224.52   2
  12   9   9 2899.21 1137.29   2
  13   8  -7 505.879 565.640   4
 -13  21  -4 4509.90 555.408   1
   8 -21  -4 5426.07 717.371   3
  21  -8  -4 4708.32 1050.92   3
  13   8  -4 6804.90 932.991   4
  13   8  -4 5578.87 660.124   2
 -13  21  -4 7091.05 897.519   4
 -13  21  -1 4143.67 587.552   1
   8 -21  -1 3973.38 596.363   3
 -13  21  -1 6231.72 958.860   2
  -8 -13  -1 4043.88 531.688   3
  -8 -13  -1 3076.07 659.604   1
  21  -8  -1 4794.27 944.469   3
  13   8  -1 4023.16 853.296   4
  13   8  -1 4916.91 813.221   2
 -13  21  -1 4132.21 811.348   4
 -21  13  -1 1363.40 274.606   1
   8 -21   2 17689.9 1214.75   3
 -21  13   2 16130.7 974.070   1
 -13  21   2 17974.3 1462.92   2
  21  -8   2 15151.3 1298.42   3
  -8 -13   2 17039.5 1149.70   1
  13   8   2 15837.0 1350.32   4
  13   8   2 17034.3 1438.66   2
 -13  21   2 15801.5 1363.14   4
  21  -8   2 13540.4 772.104   1
   8 -21   5 325.512 619.594   3
   8 -21   5-88.4123 407.057   1
  21  -8   5-74.9387 578.638   3
 -13  21   5 331.739 816.554   2
 -21  13   5-388.812 651.544   1
  13   8   5 42.0539 265.777   3
  13   8   5 15.5583 662.511   4
  -8 -13   5-772.283 668.189   1
  13   8   5 117.159 724.338   2
 -13  21   5-156.976 620.866   4
   8 -21   8 5815.03 1223.94   3
   8 -21   8 1514.92 687.212   1
  21  -8   8 4311.25 925.784   3
 -13  21   8 5265.76 1034.39   2
 -21  13   8 4266.54 1069.30   1
  -8 -13   8 4772.60 949.399   1
  21  -8   8 5323.48 946.032   4
  21  -8   8 5523.05 1230.07   2
  13   8   8 7067.52 1147.88   4
 -13  21   8 3799.73 1126.47   1
  13   8   8 4501.20 1171.71   2
 -13  21   8 4714.81 986.168   4
  14   7  -8 5649.84 904.903   4
   7 -21  -5 2219.53 456.007   3
  21  -7  -5 3872.73 1029.78   3
  14   7  -5 3998.56 832.686   4
  14   7  -5 2945.98 491.227   2
 -14  21  -5 4632.61 778.467   4
  -7 -14  -2 3040.67 266.076   3
  -7 -14  -2 3786.89 320.863   3
   7 -21  -2 4288.62 596.128   3
  21  -7  -2 3425.13 906.458   3
 -14  21  -2 3988.54 880.925   2
 -14  21  -2 3924.94 481.471   1
  14   7  -2 4537.78 860.163   4
  14   7  -2 5371.19 792.453   2
 -14  21  -2 3270.13 764.624   4
   7 -21   1 2532.52 569.394   3
  21  -7   1 1854.28 521.218   1
  -7 -14   1 3097.69 643.479   1
  21  -7   1 2612.85 763.920   3
 -14  21   1 1791.02 727.790   2
 -21  14   1 2663.08 431.563   1
  14   7   1 1435.35 666.614   4
  14   7   1 2401.64 732.675   2
 -14  21   1 1532.02 652.263   4
   7 -21   4 1683.53 653.105   3
  -7 -14   4 2267.65 695.835   1
  21  -7   4 458.105 603.018   3
 -21  14   4 2256.28 660.362   1
 -14  21   4 1495.94 700.558   2
  14   7   4 1281.69 422.373   3
  14   7   4 998.749 663.176   4
   7 -21   4 472.844 447.887   1
  14   7   4 2080.87 772.150   2
  21  -7   4 804.527 357.730   1
 -14  21   4 2738.01 831.633   4
   7 -21   7 1762.49 903.834   3
  21  -7   7 2025.11 751.547   3
 -21  14   7 2585.94 874.689   1
 -14  21   7 2600.23 940.793   2
   7 -21   7 1978.69 645.657   1
  -7 -14   7 2478.70 796.456   1
  21  -7   7 1992.36 803.758   4
  21  -7   7 3537.48 1063.28   2
  21  -7   7 2273.39 593.280   1
  14   7   7 2372.47 855.284   4
 -14  21   7 2774.89 974.595   1
  14   7   7 5417.67 1168.92   2
 -14  21   7 2966.40 887.402   4
  15   6  -6 1399.99 701.824   4
  21  -6  -6 426.790 440.077   2
 -15  21  -3 2504.61 687.389   4
   6 -21  -3 1718.87 482.572   3
  21  -6  -3 1881.84 847.310   3
 -15  21  -3 1167.36 312.621   1
  15   6  -3 1272.22 642.387   4
  15   6  -3 1960.23 540.751   2
   6 -21   0 3926.05 574.477   3
 -21  15   0 2615.93 352.120   1
  -6 -15   0 2393.92 610.562   1
 -15  21   0 2239.17 420.821   1
  21  -6   0 2804.19 803.946   3
 -15  21   0 2982.75 795.870   2
  -6 -15   0 2280.60 589.824   3
  15   6   0 2770.97 750.946   4
  15   6   0 3383.95 774.419   2
 -15  21   0 2717.18 740.604   4
   6 -21   3 3488.88 759.290   3
   6 -21   3 4082.67 653.446   1
 -15  21   3 4916.67 994.570   2
  21  -6   3 4139.53 889.017   3
  -6 -15   3 4433.16 763.547   1
  15   6   3 4277.43 632.797   3
  15   6   3 5306.19 956.919   4
  21  -6   3 2484.11 497.438   1
  15   6   3 4369.77 974.242   2
 -21  15   3 5566.17 753.527   1
 -15  21   3 3435.36 874.021   4
   6 -21   6 16635.7 1576.23   3
 -15  21   6 15337.2 1473.17   2
  21  -6   6 16993.0 1343.49   3
  15   6   6 12685.4 858.587   3
   6 -21   6 16161.6 1097.50   1
  21  -6   6 18995.3 1780.65   2
  21  -6   6 21035.1 1635.48   4
 -15  21   6 15916.8 1581.43   1
  15   6   6 18522.7 1562.24   4
  15   6   6 17927.5 1761.83   2
 -21  15   6 18334.0 1530.19   1
 -15  21   6 17322.0 1534.63   4
  -6 -15   6 16400.6 1341.97   1
  16   5  -7-245.238 613.398   4
   5 -21  -4 3250.19 405.023   3
  21  -5  -4 4350.97 1048.03   3
  16   5  -4 4977.29 924.307   4
  16   5  -4 5125.81 682.563   2
 -16  21  -1 189.339 578.156   4
  -5 -16  -1 448.536 310.877   3
  -5 -16  -1 532.831 540.888   1
   5 -21  -1 138.360 367.506   3
 -16  21  -1 513.335 295.873   1
  -5 -16  -1 144.627 369.705   3
  21  -5  -1-372.677 649.249   3
 -16  21  -1 1064.53 690.179   2
  16   5  -1 1269.31 693.879   4
  16   5  -1 1784.88 654.443   2
 -16  21   2 3696.62 861.805   4
   5 -21   2 4251.73 712.061   3
  -5 -16   2 2776.90 645.887   1
  21  -5   2 5129.15 937.261   3
  16   5   2 4096.89 718.820   3
  16   5   2 4173.76 858.820   4
 -16  21   2 3911.78 870.597   2
   5 -21   2 4895.27 711.865   1
  21  -5   2 2168.76 520.530   1
  16   5   2 4860.75 921.539   2
 -21  16   2 6069.15 711.813   1
 -16  21   5 369.906 650.773   4
   5 -21   5-244.916 468.769   1
   5 -21   5-258.828 624.740   3
  -5 -16   5 1592.60 663.324   1
 -21  16   5-497.848 647.186   1
  21  -5   5-278.145 570.250   3
 -16  21   5 712.784 756.089   2
  16   5   5 864.338 552.811   3
  21  -5   5 970.247 711.669   4
  21  -5   5 39.9275 724.501   2
  16   5   5 1052.26 785.790   4
 -16  21   5 1337.79 758.180   1
  16   5   5 772.051 714.611   2
 -16  21   8 4740.73 1050.19   4
   5 -21   8 3404.58 1077.20   3
   5 -21   8 3811.44 873.193   1
 -21  16   8 3750.26 1034.12   1
  21  -5   8 3867.89 882.823   3
 -16  21   8 4013.84 984.356   2
  -5 -16   8 2980.87 892.998   1
  21  -5   8 4002.76 973.196   4
  21  -5   8 5376.18 1260.38   2
  16   5   8 4275.32 990.456   4
  16   5   8 6383.40 1312.14   2
 -16  21   8 3073.69 1191.26   1
  17   4  -8 1254.96 713.495   4
  17   4  -5 3452.01 819.955   4
  21  -4  -5 5287.12 1271.03   3
  21  -4  -5 3672.18 626.291   2
  17   4  -5 4453.82 541.581   2
 -17  21  -2 4325.59 815.613   4
   4 -21  -2 2539.61 444.900   3
  -4 -17  -2 1895.64 214.560   3
 -17  21  -2 2091.95 295.537   1
  21  -4  -2 3434.45 966.502   3
  17   4  -2 4023.53 855.992   4
  17   4  -2 2966.17 695.547   2
 -17  21   1 1899.56 675.477   4
  -4 -17   1 1631.63 598.631   1
   4 -21   1 2075.84 561.662   3
 -21  17   1 2895.60 461.238   1
  21  -4   1 3661.22 838.961   3
 -17  21   1 2467.79 828.357   2
  17   4   1 3424.68 770.558   3
  17   4   1 4401.70 898.490   2
  17   4   1 3489.91 871.631   4
 -17  21   4 1197.42 741.144   4
   4 -21   4 2058.17 729.264   3
 -21  17   4 1280.96 615.416   1
  21  -4   4 2721.76 718.145   3
   4 -21   4 665.158 516.846   1
 -17  21   4 2162.45 783.624   2
  17   4   4 1021.75 565.049   3
  -4 -17   4 1255.29 596.336   1
  21  -4   4 1063.68 647.743   4
  21  -4   4 3259.36 859.034   2
  17   4   4 1682.62 768.529   4
  17   4   4 2869.87 1032.52   2
 -17  21   4 1735.43 717.242   1
 -17  21   7 1721.11 809.995   4
   4 -21   7 1601.84 893.899   3
 -21  17   7 1380.83 850.039   1
  21  -4   7 612.002 590.952   3
   4 -21   7 2499.96 744.791   1
 -17  21   7 1420.26 764.230   2
  21  -4   7 1098.60 804.333   4
  21  -4   7 3146.98 1106.25   2
  17   4   7 2570.67 813.221   4
  17   4   7 2185.31 1030.15   2
  -4 -17   7-85.7934 695.958   1
 -17  21   7 1268.32 878.086   1
  18   3  -6 10112.1 1166.02   4
   3 -21  -3 4.24381 246.889   3
  21  -3  -3 8.43302 747.411   3
  18   3  -3-966.417 738.955   4
  21  -3  -3 308.040 584.083   2
  18   3  -3 625.786 525.756   2
 -18  21   0 13935.2 734.711   1
  -3 -18   0 20318.6 1048.77   3
 -21  18   0 18517.7 735.525   1
   3 -21   0 21746.0 1106.72   3
  21  -3   0 21990.3 1675.92   3
 -18  21   0 19032.7 1548.29   2
  18   3   0 22027.2 1555.32   3
  -3 -18   0 17682.6 1142.03   3
  -3 -18   0 17806.2 1262.55   1
  21  -3   0 22451.8 1593.90   2
 -18  21   0 18719.3 932.256   1
  18   3   0 20139.1 1556.67   4
  18   3   0 22525.6 1543.65   2
 -18  21   0 19189.2 1536.22   4
 -18  21   3 1300.92 712.283   4
   3 -21   3 930.080 586.724   3
  -3 -18   3 1170.15 528.757   1
 -21  18   3 40.0852 522.975   1
  21  -3   3 14.5928 642.150   3
  18   3   3 431.031 565.442   3
 -18  21   3-173.656 640.744   2
  21  -3   3 745.408 695.573   4
  18   3   3 479.986 653.325   4
  18   3   3 812.367 789.819   2
 -18  21   3-24.2848 544.742   1
   3 -21   3-819.533 507.948   1
   3 -21   6 9844.74 1319.66   3
  -3 -18   6 10639.7 1174.35   1
  21  -3   6 9481.94 1107.50   3
 -18  21   6 10373.5 1328.45   2
  18   3   6 9557.51 1002.16   3
   3 -21   6 8850.80 980.667   1
  21  -3   6 9155.18 1432.66   2
  21  -3   6 10483.0 1319.55   4
  18   3   6 9666.58 1249.47   4
 -18  21   6 9772.93 1278.49   1
 -21  18   6 11699.6 1284.64   1
  18   3   6 9208.93 1408.82   2
 -18  21   6 11357.7 1304.02   4
  21  -2  -7 3062.93 935.609   4
  19   2  -7 4601.67 970.243   4
  21  -2  -4 1753.94 947.923   3
  19   2  -4 639.754 633.620   4
  21  -2  -4 780.448 523.133   2
  19   2  -4 153.798 470.084   2
  -2 -19  -1 3417.41 421.134   3
   2 -21  -1 2955.34 467.731   3
  -2 -19  -1 4033.34 605.538   3
 -19  21  -1 1502.13 294.517   1
  21  -2  -1 1847.35 879.864   3
  19   2  -1 1621.27 800.737   3
  19   2  -1 3278.38 948.174   4
 -19  21  -1 2618.76 339.714   1
  21  -2  -1 2622.22 737.040   2
  19   2  -1 3603.25 800.303   2
 -19  21   2 3071.64 875.477   4
  -2 -19   2 5911.39 815.568   3
   2 -21   2 4147.78 758.397   3
 -21  19   2 3235.30 605.888   1
   2 -21   2 3461.79 736.587   1
  21  -2   2 5399.92 948.576   3
  19   2   2 3013.32 801.931   3
 -19  21   2 3136.37 886.510   2
  21  -2   2 6521.74 1082.86   2
  19   2   2 5448.95 1043.12   2
  21  -2   2 4042.83 906.526   4
 -19  21   2 4794.00 735.930   1
  19   2   2 3365.44 798.940   4
  -2 -19   2 4194.84 729.316   1
   2 -21   5 1522.49 624.083   1
 -19  21   5 1554.83 781.997   4
   2 -21   5 4.52145 733.854   3
 -21  19   5 3194.37 867.520   1
  21  -2   5 1513.43 690.918   3
  19   2   5 383.878 606.862   3
 -19  21   5 2061.65 816.658   2
 -21  19   5 2154.51 761.675   2
  -2 -19   5 2250.93 708.545   1
  21  -2   5 2350.02 812.925   4
  19   2   5 2093.70 800.754   4
  21  -2   5 1113.67 854.757   2
  19   2   5 2391.72 1037.06   2
 -19  21   5 2298.96 792.665   1
 -19  21   8 277.520 913.414   1
   2 -21   8 188.275 913.792   3
 -21  19   8 3239.61 1079.03   1
   2 -21   8 2366.33 812.207   1
  21  -2   8 2273.09 794.660   3
 -19  21   8 1823.73 851.609   2
 -21  19   8 2252.94 846.191   2
  21  -2   8 2882.14 926.956   4
  19   2   8 2175.09 863.347   4
  21  -2   8 1224.56 1127.68   2
  19   2   8 2801.33 1099.18   2
  -2 -19   8 1272.92 791.042   1
  21  -1  -5 3480.58 940.880   4
  20   1  -5 1939.96 824.093   4
  21  -1  -5 2292.31 543.257   2
  20   1  -5 2682.17 524.197   2
  -1 -20  -2 2008.57 262.118   3
   1 -21  -2 1932.58 340.271   3
  -1 -20  -2 1328.58 287.591   3
  21  -1  -2 2790.32 926.666   3
  20   1  -2 3116.43 982.844   3
  21  -1  -2 3315.15 861.802   4
  20   1  -2 4559.38 842.980   2
  20   1  -2 1941.99 786.442   4
  21  -1  -2 2108.63 724.583   2
   1 -21   1 1625.30 635.776   1
  -1 -20   1 2635.35 588.724   3
   1 -21   1 22.2609 451.880   3
 -21  20   1 1023.76 431.402   1
  -1 -20   1 2304.22 660.212   1
  21  -1   1-135.994 728.504   3
  20   1   1 1069.44 709.135   3
 -20  21   1 2056.95 875.534   2
  21  -1   1 53.0588 728.448   4
  20   1   1 692.825 691.483   4
  21  -1   1 2905.94 879.154   2
  20   1   1 2104.14 826.728   2
 -20  21   1 937.468 465.154   1
  -1 -20   4 2306.97 802.208   3
 -21  20   4 738.366 612.408   1
  -1 -20   4 983.435 626.032   1
   1 -21   4 1703.02 747.191   3
   1 -21   4 1862.53 666.445   1
  21  -1   4 848.866 686.408   3
  20   1   4 2864.70 781.854   3
 -20  21   4 4396.85 952.172   2
 -21  20   4-247.000 718.693   2
  20   1   4 1369.84 764.729   4
  21  -1   4 1847.20 903.850   2
  20   1   4 1501.02 927.499   2
  21  -1   4 1601.27 767.237   4
 -20  21   4 1648.24 663.955   1
 -20  21   7 317.334 820.065   1
  -1 -20   7 1264.56 893.248   3
   1 -21   7 1483.77 874.009   3
 -21  20   7 866.978 931.244   1
  -1 -20   7 1280.07 787.239   1
  20   1   7 1585.54 905.641   4
   1 -21   7 2415.70 817.897   1
  21  -1   7 1033.49 708.157   3
  20   1   7 142.090 630.632   3
  21  -1   7 1152.23 757.050   4
 -20  21   7 114.721 715.118   2
 -21  20   7 1037.66 776.545   2
  21  -1   7 2570.99 1036.16   2
  20   1   7 986.131 916.714   2
  21   0  -6 10049.4 1306.02   4
  21   0  -3 567.547 868.342   3
  21   0  -3 313.633 663.319   4
  21   0  -3 701.823 594.993   2
   0 -21   0 21257.0 1083.44   3
  21   0   0 18322.8 1600.97   3
  21   0   0 22577.3 1778.04   4
  21   0   0 21820.8 1645.16   2
 -21  21   0 18314.7 815.481   1
 -21  21   3 714.685 572.457   1
   0 -21   3-24.0493 594.344   3
  21   0   3-454.076 703.351   4
  21   0   3 1209.46 717.437   3
 -21  21   3-74.9037 714.350   2
   0 -21   3 273.879 536.951   1
  21   0   3 115.237 772.536   2
   0 -21   6 3801.91 1004.82   3
  21   0   6 2979.00 791.442   3
 -21  21   6 4545.84 988.779   2
  21   0   6 3225.04 895.244   4
   0 -21   6 2592.92 766.930   1
 -21  21   6 5511.16 1133.54   1
  21   0   6 3056.29 1060.10   2
  22 -22  -7 858.388 1173.10   3
   0  22  -7-111.755 735.788   2
   0  22  -7 347.392 631.266   4
   0  22  -4 451.355 705.320   2
  22 -22  -4 816.292 837.338   3
   0  22  -4 113.200 627.991   4
   0  22  -1 1284.74 750.469   2
  22 -22  -1-551.470 695.385   3
 -22   0  -1-278.849 540.316   1
   0  22  -1 1157.81 755.887   4
   0  22   2 1919.52 886.596   2
  22 -22   2 3308.59 892.968   3
   0  22   2 3018.39 953.319   4
 -22   0   2 1834.24 652.059   1
   0  22   5 229.273 805.094   2
  22 -22   5-32.7783 685.363   3
 -22   0   5 706.887 693.098   1
   0  22   5 84.8506 740.904   4
   1  21  -5 2234.15 789.749   2
  -1  22  -5 2302.33 784.931   2
  21 -22  -5 3229.63 1089.50   3
  22 -21  -5 1885.10 977.249   3
   1  21  -5 2319.27 782.849   4
  -1  22  -5 1288.46 674.361   4
   1  21  -2 1607.68 784.896   2
 -22   1  -2 264.883 525.302   1
  -1  22  -2 568.071 689.580   2
  21 -22  -2 2253.25 775.804   3
  22 -21  -2 1805.25 922.118   3
 -21  -1  -2 3608.67 766.920   1
   1  21  -2 336.333 692.333   4
  -1  22  -2 1977.18 768.850   4
   1  21   1 3340.19 931.256   2
 -22   1   1 1050.76 624.265   1
  -1  22   1 4387.58 990.875   2
  21 -22   1 3788.59 856.928   3
  22 -21   1 5007.93 924.480   3
 -21  -1   1 1417.83 654.163   1
   1  21   1 4715.44 1038.89   4
  -1  22   1 3380.15 877.147   4
   1  21   4 1911.74 882.361   2
  -1  22   4 2274.73 935.712   2
  21 -22   4 965.197 675.441   3
  22 -21   4 1774.45 862.503   3
 -22   1   4 1830.42 709.302   1
 -21  -1   4 1748.82 675.319   1
   1  21   4 2182.92 882.118   4
  -1  22   4 3416.37 1038.47   4
 -22   1   7 3207.67 964.926   1
   1  21   7 3828.96 1172.63   2
  -1  22   7 3906.60 1183.05   2
 -21  -1   7 4169.03 1072.97   1
  21 -22   7 2994.94 976.525   3
  22 -21   7 1432.64 849.483   3
   1  21   7 3546.33 1065.48   4
  -1  22   7 3868.70 1053.31   4
   2  20  -6 1507.68 763.925   2
  -2  22  -6 1989.94 853.397   2
  20 -22  -6 2281.34 1101.43   3
  22 -20  -6 1979.43 1025.79   3
   2  20  -6 2079.74 731.627   4
  -2  22  -6 2074.91 718.327   4
   2  20  -3 6351.50 957.388   2
  -2  22  -3 5619.25 963.612   2
  20 -22  -3 5873.09 1055.92   3
  22 -20  -3 6509.50 1183.27   3
   2  20  -3 6940.11 1038.62   4
  -2  22  -3 5471.19 956.151   4
   2  20   0 1453.35 712.246   2
  -2  22   0 1777.24 852.778   2
  20 -22   0 2687.86 787.899   3
  22 -20   0 2097.23 821.723   3
 -22   2   0 3351.63 657.937   1
   2  20   0 3118.96 858.382   4
  -2  22   0 3566.64 891.490   4
 -20  -2   0 3041.52 657.298   1
  -2  22   3 9388.47 1338.57   2
  20 -22   3 7622.36 1186.89   3
  22 -20   3 9317.96 1211.87   3
   2  20   3 9766.40 1251.42   4
 -22   2   3 7842.95 917.345   1
  -2  22   3 8542.35 1216.97   4
 -20  -2   3 7199.94 934.486   1
   2  20   3 6298.61 1131.27   2
 -22   2   6 4271.72 942.639   1
  20 -22   6 5005.54 1060.88   3
  22 -20   6 5464.81 1059.82   3
 -20  -2   6 4907.48 1016.37   1
   2  20   6 6380.73 1160.55   4
  -2  22   6 7330.55 1209.70   4
   2  20   6 6433.92 1309.99   2
  -2  22   6 8311.48 1273.10   2
   3  19  -7 917.522 697.368   2
  19 -22  -7-52.4730 1053.13   3
  22 -19  -7-262.604 1000.50   3
   3  19  -7 1438.23 724.932   4
  -3  22  -7 1416.39 662.812   4
   3  19  -4 1050.48 640.868   2
  -3  22  -4 2528.55 792.736   2
  19 -22  -4 1349.99 842.454   3
  22 -19  -4 572.074 838.034   3
   3  19  -4 1100.63 679.718   4
  -3  22  -4 1565.12 719.333   4
 -22   3  -1 2361.73 565.882   1
   3  19  -1 773.155 628.785   2
  -3  22  -1 3260.17 879.913   2
  19 -22  -1 2159.44 704.781   3
  22 -19  -1 1371.87 694.614   3
 -19  -3  -1 1543.78 588.223   1
   3  19  -1 743.505 747.284   4
  -3  22  -1 1738.67 792.622   4
 -19  -3   2 2828.82 693.745   1
   3  19   2 2589.56 887.683   2
  -3  22   2 676.091 724.238   2
  19 -22   2 1936.92 708.394   3
  22 -19   2 2640.40 740.269   3
   3  19   2 1935.48 732.119   4
  -3  22   2 851.689 741.132   4
 -22   3   2 1137.56 557.760   1
   3  19   5 1739.23 876.408   2
 -22   3   5 1925.95 683.476   1
  -3  22   5 817.696 808.994   2
  19 -22   5 564.284 688.255   3
  22 -19   5 901.438 699.789   3
 -19  -3   5 86.2871 632.651   1
   3  19   5 124.584 698.094   4
  -3  22   5 1984.36 865.469   4
  22 -18  -8 1033.40 1111.50   3
  -4  22  -5 5326.94 996.609   2
   4  18  -5 3348.79 774.638   2
  18 -22  -5 5429.77 1181.65   3
  22 -18  -5 3904.44 1140.88   3
   4  18  -5 3452.68 794.904   4
  -4  22  -5 3700.72 784.730   4
 -22   4  -2 1240.12 488.473   1
   4  18  -2 1614.22 670.246   2
  -4  22  -2 1594.38 748.549   2
  18 -22  -2 2373.05 754.871   3
  22 -18  -2 243.527 757.696   3
 -18  -4  -2 1364.09 579.912   1
   4  18  -2 1350.30 627.735   4
  -4  22  -2 1783.80 663.560   4
  22 -18   1 3475.01 894.639   3
  -4  22   1 2268.96 819.461   2
  18 -22   1 3115.28 726.028   3
 -18  -4   1 2618.23 654.095   1
   4  18   1 2859.59 891.812   4
 -22   4   1 2557.08 552.795   1
  -4  22   1 2996.00 835.271   4
   4  18   1 5181.53 1024.86   2
   4  18   4 425.462 747.204   2
 -22   4   4-635.127 541.567   1
  -4  22   4-336.325 759.729   2
  18 -22   4 911.165 680.335   3
  22 -18   4 776.476 683.411   3
 -18  -4   4-838.881 612.022   1
   4  18   4-95.8148 682.472   4
  -4  22   4 131.884 684.991   4
   4  18   7 2463.25 1004.58   2
  -4  22   7 1174.22 840.875   2
  18 -22   7 2022.83 832.196   3
 -18  -4   7 3224.06 947.496   1
  22 -18   7 2179.92 961.339   3
   4  18   7 2068.42 880.157   4
 -22   4   7 1565.20 864.601   1
  -4  22   7 599.781 767.785   4
   5  17  -6 1332.53 700.621   2
  17 -22  -6 857.633 856.970   3
  22 -17  -6 1351.41 1032.66   3
  -5  22  -6 2624.46 915.714   2
   5  17  -6 1673.72 708.504   4
  -5  22  -6 1062.03 598.918   4
   5  17  -3 5562.35 875.888   2
  -5  22  -3 6851.67 1040.65   2
  17 -22  -3 6585.24 1033.74   3
  22 -17  -3 6373.82 1193.57   3
   5  17  -3 6270.40 962.418   4
  -5  22  -3 7045.44 996.571   4
 -17  -5   0 836.982 483.127   1
   5  17   0 1211.45 689.905   2
 -22   5   0-141.281 451.559   1
  -5  22   0 371.384 668.110   2
  17 -22   0 10.0252 506.944   3
  22 -17   0 1607.38 765.355   3
   5  17   0 317.099 646.026   4
  -5  22   0 628.656 672.730   4
  -5  22   3 4388.45 977.855   2
  17 -22   3 4414.84 832.971   3
  22 -17   3 4047.48 823.395   3
 -22   5   3 5026.98 755.916   1
   5  17   3 4284.30 966.066   4
  -5  22   3 5800.23 1055.01   4
   5  17   3 6075.32 1139.61   2
 -17  -5   3 4075.85 782.669   1
   5  17   6 1645.21 997.227   2
  -5  22   6 2565.65 979.927   2
  17 -22   6 1386.55 746.543   3
  22 -17   6 486.939 642.649   3
 -17  -5   6 1448.17 752.266   1
   5  17   6 1901.31 864.024   4
 -22   5   6 2089.96 766.117   1
  -5  22   6 1100.14 773.712   4
  16 -22  -7 526.007 825.048   3
  22 -16  -7 1120.27 1015.73   3
   6  16  -7 1068.01 667.921   4
  -6  22  -7 619.645 570.480   4
   6  16  -4 3348.52 696.855   2
  16 -22  -4 3471.23 903.985   3
  -6  22  -4 3487.23 851.626   2
  22 -16  -4 908.993 811.545   3
   6  16  -4 2622.96 765.467   4
  -6  22  -4 4601.89 827.373   4
  -6  22  -1 9531.20 1191.12   2
  16 -22  -1 7761.29 917.772   3
  22 -16  -1 7711.68 1038.99   3
 -22   6  -1 10269.9 800.305   1
   6  16  -1 9823.41 1148.36   4
  -6  22  -1 10203.4 1159.28   4
 -16  -6  -1 7116.49 831.297   1
   6  16  -1 8075.07 988.065   2
   6  16   2 4001.13 906.995   2
  16 -22   2 4624.19 794.555   3
 -16  -6   2 2429.02 709.594   1
  22 -16   2 4754.76 931.232   3
  -6  22   2 2832.94 798.849   2
 -22   6   2 3636.92 627.005   1
   6  16   2 3882.45 897.636   4
  -6  22   2 3839.82 846.684   4
   6  16   5 1869.17 943.463   2
  16 -22   5 888.117 683.788   3
  -6  22   5 1803.99 855.796   2
  22 -16   5 2585.68 847.795   3
 -16  -6   5 2013.13 689.701   1
   6  16   5 2725.04 852.878   4
 -22   6   5 1599.57 704.622   1
  -6  22   5 2040.55 831.275   4
   6  16   8 796.183 939.639   2
  16 -22   8 884.189 754.242   3
  -6  22   8-138.698 814.157   2
 -16  -6   8 635.011 847.052   1
  22 -16   8 792.039 796.919   3
 -22   6   8-1682.91 910.265   1
   6  16   8 339.315 803.040   4
  -6  22   8-557.128 758.992   4
   7  15  -8 1224.88 633.246   4
   7  15  -5 1932.31 631.312   2
  -7  22  -5 3061.61 1041.63   2
  15 -22  -5 2924.84 917.517   3
  22 -15  -5 386.994 825.931   3
   7  15  -5 2406.16 670.392   4
  -7  22  -5 3676.73 789.891   4
 -15  -7  -2 3708.37 614.648   3
  15 -22  -2 4002.24 778.784   3
  -7  22  -2 4405.31 886.112   2
  22 -15  -2 4038.39 911.824   3
 -15  -7  -2 4123.29 776.409   1
   7  15  -2 6076.26 929.584   4
 -22   7  -2 3408.82 517.100   1
  -7  22  -2 3419.37 783.610   4
   7  15  -2 4513.82 780.628   2
  -7  22   1 6162.69 1052.29   2
  15 -22   1 5165.14 821.336   3
  22 -15   1 4383.77 884.625   3
 -15  -7   1 5871.68 778.283   1
   7  15   1 5887.15 952.379   4
 -22   7   1 5283.69 647.764   1
  -7  22   1 7963.53 1098.62   4
   7  15   1 4850.73 955.586   2
   7  15   4 608.182 783.179   2
  15 -22   4-72.0259 617.886   3
  -7  22   4 1585.49 848.719   2
  22 -15   4 1256.92 724.758   3
 -15  -7   4 285.535 595.380   1
   7  15   4 290.354 614.751   4
 -22   7   4-230.795 526.339   1
  -7  22   4 1325.54 735.115   4
   7  15   7 4548.17 1157.74   2
  15 -22   7 2963.80 937.489   3
  -7  22   7 1541.70 945.572   2
  22 -15   7 3462.55 950.905   3
 -22   7   7 6133.61 1150.72   1
 -15  -7   7 2355.62 823.636   1
   7  15   7 3820.07 967.785   4
  -7  22   7 3396.91 947.246   4
   8  14  -6 633.547 541.305   2
  14 -22  -6 1197.54 856.808   3
  22 -14  -6-503.618 970.525   3
   8  14  -6 557.014 541.018   4
  -8  22  -6-21.7462 535.422   4
 -14  -8  -3 5152.24 538.094   3
  -8  22  -3 7862.72 1076.89   2
  14 -22  -3 7923.46 1003.19   3
  22 -14  -3 6455.16 1109.34   3
   8  14  -3 7317.31 978.536   4
  -8  22  -3 8744.32 1049.29   4
   8  14  -3 9105.72 943.645   2
   8  14   0 356.132 617.989   2
 -14  -8   0 1167.66 528.049   1
  14 -22   0 946.303 578.426   3
  -8  22   0 1055.47 712.241   2
  22 -14   0 50.0192 635.492   3
   8  14   0 915.913 665.965   4
 -22   8   0 68.8171 357.727   1
  -8  22   0 416.100 658.632   4
  -8  22   3 4360.06 624.803   3
 -14  -8   3 5753.77 857.298   1
  -8  22   3 7171.53 1114.31   2
  14 -22   3 6770.04 943.121   3
  22 -14   3 5628.73 932.061   3
 -22   8   3 5769.26 753.760   1
   8  14   3 7376.88 1016.40   4
   8  14   3 6838.05 1094.33   2
  -8  22   3 6802.90 1014.50   4
  14 -22   6 744.641 674.053   3
  14 -22   6 1171.35 373.181   1
  -8  22   6 653.639 772.086   2
  22 -14   6 1858.18 785.945   3
 -14  -8   6 863.382 622.689   1
 -22   8   6 1635.24 700.234   1
   8  14   6 766.745 768.020   4
  -8  22   6 2101.19 893.616   4
   8  14   6 2815.11 1032.77   2
  22 -13  -7 1708.08 1083.88   3
   9  13  -7 3635.81 753.706   4
  -9  22  -7 3968.44 770.873   4
   9  13  -4 3561.75 675.893   2
 -13  -9  -4 2168.82 289.308   3
  -9  22  -4 5432.18 1015.84   2
  13 -22  -4 4614.82 891.715   3
  22 -13  -4 4547.78 1023.74   3
   9  13  -4 5136.66 876.791   4
  -9  22  -4 4952.03 809.716   4
   9  13  -1 1266.19 626.141   2
 -13  -9  -1 1469.29 565.768   1
 -22   9  -1 2367.35 464.724   1
  13 -22  -1 1708.32 549.175   3
 -13  -9  -1 2428.41 570.008   3
  -9  22  -1 1930.51 754.150   2
  22 -13  -1 2017.03 795.905   3
   9  13  -1 2175.49 754.937   4
  -9  22  -1 1523.06 690.332   4
 -22   9   2 336.916 414.048   1
  13 -22   2-297.509 541.290   3
  -9  22   2 649.201 720.534   2
  22 -13   2 350.184 598.158   3
 -13  -9   2 432.551 519.052   1
   9  13   2 201.634 644.273   4
  -9  22   2-474.936 612.117   4
   9  13   2 238.981 637.307   2
  13 -22   5 3791.77 863.491   3
  22 -13   5 4020.32 947.893   3
  -9  22   5 2769.24 917.282   2
 -13  -9   5 3220.26 780.260   1
 -22   9   5 2734.19 714.014   1
   9  13   5 3633.74 886.002   4
  -9  22   5 2479.33 822.582   4
   9  13   5 2340.43 890.301   2
  13 -22   8 2400.89 961.858   3
  22 -13   8 2066.36 870.640   3
  -9  22   8 2462.75 1017.35   2
 -13  -9   8 2862.35 889.078   1
 -22   9   8 3538.39 1022.11   1
   9  13   8 2816.26 1058.21   4
   9  13   8 3292.20 1187.51   2
  -9  22   8 3873.17 1011.47   4
  10  12  -8 1356.93 666.211   4
  10  12  -5 2165.48 543.751   2
  12 -22  -5 4031.36 895.174   3
  22 -12  -5 2622.78 969.963   3
 -10  22  -5 3472.99 875.529   2
 -10  22  -5 3068.60 731.331   4
 -12 -10  -2 5640.77 573.074   3
  12 -22  -2 5486.98 755.805   3
 -12 -10  -2 4584.47 778.264   1
 -10  22  -2 5171.62 953.089   2
  22 -12  -2 5032.74 976.667   3
  10  12  -2 5711.00 910.056   4
 -10  22  -2 5321.06 892.858   4
  10  12  -2 5628.19 830.572   2
 -22  10  -2 4661.80 436.764   1
  12 -22   1 5047.26 752.043   3
 -10  22   1 4311.28 950.372   2
  22 -12   1 5295.97 922.797   3
 -12 -10   1 4687.37 722.753   1
 -22  10   1 3895.42 551.633   1
  22 -12   1 3000.84 427.439   1
  10  12   1 6274.02 988.331   4
  10  12   1 5854.16 970.492   2
 -10  22   1 4265.60 887.321   4
 -10  22   4 4297.50 1023.05   2
  12 -22   4 3299.72 757.763   3
  22 -12   4 4671.55 863.711   3
  10  12   4 5065.89 961.144   4
 -22  10   4 4263.30 741.856   1
 -12 -10   4 2801.62 722.940   1
  10  12   4 4501.63 974.838   2
 -10  22   4 4283.22 920.756   4
  12 -22   7 4929.88 1111.40   3
 -10  22   7 6147.70 1181.68   2
 -22  10   7 5198.55 1068.72   1
  12 -22   7 2880.31 526.830   1
  22 -12   7 4424.87 973.414   3
  10  12   7 6759.47 1123.81   4
 -12 -10   7 6312.00 1017.04   1
  10  12   7 6513.58 1293.41   2
 -10  22   7 5486.84 1073.74   4
 -11  22  -6-105.699 520.104   4
  11  11  -6 23.4442 366.885   2
  11 -22  -6 379.074 629.987   3
  22 -11  -6-112.301 873.205   3
  11  11  -6 369.234 588.062   4
  11 -22  -3 8169.40 924.632   3
 -11  22  -3 8532.68 1162.13   2
  22 -11  -3 7084.91 1176.53   3
  11  11  -3 10495.5 1128.18   4
  11  11  -3 11150.7 958.350   2
 -11  22  -3 9786.25 1075.54   4
  11 -22   0 4026.61 659.353   3
  22 -11   0 4030.27 868.819   3
 -11  22   0 3379.73 839.602   2
 -11 -11   0 1385.75 526.378   3
  22 -11   0 3159.73 569.346   1
  11  11   0 3904.43 891.198   4
 -22  11   0 4914.88 492.899   1
 -11 -11   0 3723.61 708.227   1
 -11  22   0 4435.64 941.871   4
  11  11   0 2442.66 683.291   2
  11 -22   3 10332.1 1098.90   3
 -11  22   3 10572.9 1271.59   2
 -11 -11   3 6491.59 884.388   1
  22 -11   3 9705.36 1132.79   3
 -22  11   3 10393.1 916.724   1
  11  11   3 12040.7 1297.36   4
  11  11   3 9579.41 1235.69   2
 -11  22   3 10285.3 1174.42   4
  11 -22   6 213.690 663.128   3
  22 -11   6 34.3875 632.461   3
 -11  22   6 311.877 719.999   2
  11 -22   6 477.367 409.353   1
 -22  11   6 1030.32 711.310   1
 -11 -11   6 188.938 609.844   1
  11  11   6-805.086 707.988   4
  11  11   6 870.336 858.573   2
 -11  22   6 269.889 696.298   4
  12  10  -7 4612.93 843.717   4
 -12  22  -4 4881.30 977.393   2
  10 -22  -4 3026.75 694.501   3
 -12  22  -4 2488.27 586.567   1
  22 -10  -4 3377.83 1018.01   3
  12  10  -4 3992.83 801.401   4
 -12  22  -4 4309.87 808.116   4
  12  10  -4 4241.52 647.155   2
 -22  12  -1 1750.62 363.276   1
 -10 -12  -1 2826.83 525.529   3
  10 -22  -1 3339.16 569.732   3
 -10 -12  -1 4487.38 742.492   1
  22 -10  -1 2568.12 811.687   3
 -12  22  -1 3262.25 861.651   2
  12  10  -1 4402.62 875.191   4
  22 -10  -1 3597.84 718.988   1
  12  10  -1 3897.27 780.670   2
 -12  22  -1 3907.09 840.763   4
  10 -22   2 7034.41 917.432   3
 -12  22   2 6204.54 1056.88   2
  22 -10   2 6037.91 947.955   3
 -22  12   2 6499.18 690.670   1
 -10 -12   2 5373.65 817.486   1
  12  10   2 7419.87 1046.21   4
  22 -10   2 5424.53 521.763   1
  12  10   2 7410.31 1068.92   2
 -12  22   2 5829.31 1010.12   4
  10 -22   5 2771.91 777.624   3
  22 -10   5 2149.19 711.341   3
 -12  22   5 3182.90 899.284   2
 -22  12   5 3988.79 825.018   1
  12  10   5 2885.04 832.856   4
  22 -10   5 879.883 217.690   1
 -10 -12   5 1742.08 716.172   1
  12  10   5 1394.88 761.171   2
  10 -22   5 1935.53 483.913   1
 -12  22   5 4234.70 964.680   4
  10 -22   8 568.729 840.894   3
  22 -10   8 2274.01 871.880   3
 -12  22   8 2169.28 992.961   2
 -10 -12   8 1683.90 801.337   1
 -22  12   8 2549.62 870.414   1
  22 -10   8 3762.40 895.923   4
  10 -22   8 1549.81 565.504   1
 -12  22   8 3929.88 1185.21   1
  12  10   8 2512.43 915.680   4
  12  10   8 2857.21 1073.61   2
 -12  22   8 244.222 748.687   4
  13   9  -8 2562.12 718.300   4
 -13  22  -5 3464.99 753.610   4
  13   9  -5 3426.56 530.089   2
   9 -22  -5 3596.93 700.018   3
  22  -9  -5 4516.64 1107.82   3
  13   9  -5 3034.56 747.604   4
 -13  22  -2-1143.26 443.159   1
  -9 -13  -2-348.920 252.177   3
   9 -22  -2 360.991 442.772   3
  22  -9  -2 253.353 782.583   3
 -13  22  -2-393.348 719.180   2
  13   9  -2-790.075 657.754   4
  13   9  -2 14.0902 482.560   2
 -13  22  -2 607.023 596.402   4
  22  -9   1 1486.37 504.338   1
   9 -22   1 1755.99 610.415   3
  -9 -13   1 2268.85 655.003   1
  22  -9   1 556.883 628.879   3
 -13  22   1 2127.85 784.243   2
  13   9   1 2386.46 752.029   4
 -22  13   1 1872.19 414.292   1
  13   9   1 1995.74 757.112   2
 -13  22   1 1681.12 724.311   4
   9 -22   4 6510.74 937.432   3
  -9 -13   4 4284.96 861.777   1
   9 -22   4 4259.96 624.885   1
  22  -9   4 3212.43 754.849   3
 -13  22   4 3149.34 914.802   2
 -22  13   4 3875.78 731.020   1
  22  -9   4 2005.26 353.147   1
  13   9   4 3861.31 889.668   4
  13   9   4 5197.15 1047.17   2
 -13  22   4 5819.74 1033.17   4
   9 -22   7 1890.00 851.975   3
  22  -9   7 1117.02 735.606   3
 -13  22   7 2102.09 894.592   2
 -22  13   7 3741.57 1016.01   1
  -9 -13   7 1589.91 697.684   1
  22  -9   7 1103.42 758.410   4
 -13  22   7 1837.67 923.352   1
  13   9   7 1644.50 858.068   4
  13   9   7 2624.85 988.014   2
   9 -22   7 1105.92 499.871   1
 -13  22   7 3476.52 930.882   4
  22  -8  -6 366.670 890.985   3
  14   8  -6 1800.63 686.730   4
   8 -22  -3 4880.38 686.913   3
 -14  22  -3 5816.72 1018.60   2
  22  -8  -3 4273.03 985.350   3
  14   8  -3 5432.52 917.563   4
 -14  22  -3 2905.63 496.620   1
  14   8  -3 5404.25 745.634   2
 -14  22  -3 6013.51 919.376   4
  -8 -14   0 132.260 537.939   1
 -22  14   0 393.861 287.059   1
  22  -8   0 587.443 533.496   1
   8 -22   0 250.172 420.417   3
  22  -8   0 345.480 662.165   3
 -14  22   0-499.915 665.185   2
  -8 -14   0 493.224 516.144   3
  14   8   0 60.1073 614.564   4
  14   8   0 83.9588 565.892   2
 -14  22   0 1621.84 734.453   4
   8 -22   3 6892.98 934.323   3
  22  -8   3 4930.88 551.785   1
 -22  14   3 7748.84 868.932   1
 -14  22   3 6589.65 1120.30   2
  22  -8   3 7212.32 997.786   3
  -8 -14   3 5013.20 779.376   1
   8 -22   3 4648.27 676.752   1
  14   8   3 6121.51 1000.79   4
  14   8   3 8867.73 1257.93   2
 -14  22   3 7019.91 1024.16   4
   8 -22   6-90.4045 462.867   1
   8 -22   6 957.166 756.923   3
  22  -8   6 296.986 587.217   3
 -22  14   6-274.499 686.925   1
 -14  22   6 936.634 783.485   2
  22  -8   6 781.676 732.847   4
  -8 -14   6 145.150 635.408   1
 -14  22   6 350.158 837.871   1
  14   8   6 407.666 730.080   4
  14   8   6 431.729 898.770   2
 -14  22   6 1748.49 800.608   4
  15   7  -7 2760.65 749.734   4
 -15  22  -4 975.004 579.255   4
  15   7  -4 768.517 496.349   2
 -15  22  -4 674.015 348.411   1
   7 -22  -4 979.232 489.683   3
  22  -7  -4 1053.40 856.696   3
  15   7  -4 1342.17 690.680   4
 -15  22  -1 4533.99 591.004   1
   7 -22  -1 4900.92 622.085   3
  -7 -15  -1 4751.88 565.874   3
  22  -7  -1 4582.93 1027.31   3
 -15  22  -1 3241.75 841.025   2
  15   7  -1 5396.73 963.938   4
  15   7  -1 4043.46 761.085   2
  -7 -15  -1 3519.33 712.147   1
 -15  22  -1 4527.39 876.954   4
  22  -7   2 4230.17 595.109   1
   7 -22   2 4601.20 723.704   3
  -7 -15   2 3518.73 658.019   1
 -22  15   2 5685.09 649.908   1
 -15  22   2 5287.90 968.962   2
  22  -7   2 3825.72 871.268   3
  15   7   2 4879.06 689.785   3
  15   7   2 5556.10 962.551   2
  15   7   2 3640.32 872.895   4
 -15  22   2 4662.48 961.636   4
  -7 -15   5 3285.61 768.841   1
   7 -22   5 2489.49 811.396   3
 -22  15   5 2609.13 767.271   1
  22  -7   5 2308.53 776.772   3
   7 -22   5 2182.11 559.429   1
 -15  22   5 4250.01 970.574   2
  15   7   5 2165.82 483.505   3
  22  -7   5 4102.61 953.111   4
  15   7   5 2171.03 791.190   4
 -15  22   5 1228.64 709.536   1
  15   7   5 1428.11 855.892   2
 -15  22   5 3310.09 907.833   4
 -15  22   8 851.513 726.185   4
  22  -7   8-243.748 704.946   4
   7 -22   8 533.857 901.893   3
  22  -7   8-1295.63 779.288   3
 -22  15   8-382.874 870.218   1
 -15  22   8 1071.78 878.631   2
   7 -22   8-13.4152 604.508   1
  -7 -15   8 2446.32 860.679   1
  22  -7   8 2326.46 1075.05   2
  15   7   8 1016.04 861.228   4
 -15  22   8 373.005 934.644   1
  15   7   8-1022.96 973.552   2
  16   6  -8-103.545 667.192   4
  16   6  -5 2270.70 471.082   2
  22  -6  -5 1273.21 867.027   3
  16   6  -5 2931.16 804.831   4
 -16  22  -2 4530.06 839.422   4
   6 -22  -2 5122.41 609.980   3
  -6 -16  -2 3032.06 263.710   3
  22  -6  -2 5875.38 1064.85   3
 -16  22  -2 3358.97 438.114   1
 -16  22  -2 4044.60 927.521   2
  16   6  -2 6091.03 988.404   4
  16   6  -2 6033.83 860.324   2
   6 -22   1 9796.51 898.718   3
 -22  16   1 8244.06 648.489   1
 -16  22   1 9929.89 1202.40   2
  22  -6   1 8499.02 1104.80   3
  16   6   1 8168.85 913.195   3
  16   6   1 9126.88 1159.38   4
  16   6   1 7621.42 1156.34   2
  -6 -16   1 7185.77 873.531   1
 -16  22   1 7099.96 1043.89   4
   6 -22   4 1953.61 684.419   3
 -22  16   4 1914.97 680.609   1
  22  -6   4 3029.14 804.848   3
 -16  22   4 1555.40 801.923   2
  -6 -16   4 2953.32 734.100   1
  16   6   4 2859.65 615.918   3
  16   6   4 2909.99 770.130   4
 -16  22   4 862.128 640.723   1
   6 -22   4 2168.54 563.174   1
  16   6   4 2861.17 877.224   2
 -16  22   4 3731.86 909.125   4
 -16  22   7 2810.36 976.059   4
   6 -22   7 2259.60 923.596   3
 -22  16   7 2093.70 910.225   1
  22  -6   7 1488.69 683.614   3
 -16  22   7 223.131 754.394   2
  22  -6   7 941.171 796.191   4
  22  -6   7 2437.61 1032.09   2
   6 -22   7 620.757 549.658   1
  16   6   7 742.053 794.779   4
  -6 -16   7 1855.73 756.192   1
  16   6   7 1125.82 834.525   2
 -16  22   7 772.453 848.338   1
  17   5  -6 1319.86 770.130   4
  22  -5  -6 995.027 450.408   2
   5 -22  -3 4135.08 552.809   3
  22  -5  -3 3736.26 1055.91   3
  17   5  -3 5166.85 933.577   4
  17   5  -3 4149.87 708.607   2
 -17  22  -3 3854.42 876.729   4
 -17  22  -3 2141.47 238.261   1
 -17  22   0-46.9941 604.076   4
  -5 -17   0-752.618 535.951   1
  -5 -17   0 1298.45 435.729   3
   5 -22   0 624.713 413.411   3
 -17  22   0 334.489 339.041   1
  22  -5   0 693.878 722.327   3
 -17  22   0-41.1958 671.692   2
  -5 -17   0-337.603 513.114   3
  17   5   0 672.316 582.196   3
  17   5   0 1318.20 705.836   4
 -22  17   0 272.145 243.301   1
  17   5   0 456.549 598.854   2
   5 -22   3 6084.63 896.599   3
   5 -22   3 6470.65 811.990   1
  22  -5   3 6377.73 977.623   3
  17   5   3 9779.81 917.021   3
  -5 -17   3 5262.51 768.153   1
 -17  22   3 4950.40 998.583   2
 -17  22   3 5796.97 913.720   1
  17   5   3 5845.64 1012.36   4
  17   5   3 9643.34 1247.52   2
 -17  22   3 8324.60 1146.75   4
 -22  17   3 7195.81 833.501   1
 -17  22   6 414.719 760.609   4
  -5 -17   6 2326.81 825.333   1
   5 -22   6 873.925 793.306   3
 -22  17   6 2571.06 953.577   1
  22  -5   6 2088.68 759.790   3
 -17  22   6 2394.97 866.068   2
  17   5   6 396.225 528.781   3
  22  -5   6 1885.83 798.216   4
  22  -5   6 2230.37 947.888   2
  17   5   6 2063.47 839.459   4
  17   5   6 3284.79 1037.96   2
 -17  22   6 1947.80 881.845   1
   5 -22   6 1218.27 564.527   1
  18   4  -7 732.984 694.438   4
  18   4  -4 630.263 671.008   4
  22  -4  -4 1003.04 575.454   2
  22  -4  -4-114.063 828.637   3
  18   4  -4 1447.43 538.629   2
 -18  22  -1 3959.98 888.647   4
  -4 -18  -1 4198.28 462.552   3
   4 -22  -1 4073.99 537.863   3
 -18  22  -1 1979.77 403.770   1
  18   4  -1 4509.69 946.949   3
  22  -4  -1 3619.35 963.930   3
  -4 -18  -1 2684.56 504.130   3
 -18  22  -1 4248.30 918.016   2
 -18  22  -1 3658.89 467.259   1
  18   4  -1 4468.56 881.718   4
  18   4  -1 4557.02 835.287   2
 -18  22   2 1405.87 792.892   4
   4 -22   2 975.525 543.222   3
 -22  18   2 1797.81 512.228   1
  22  -4   2 1484.42 767.102   3
 -18  22   2 1623.69 797.049   2
  18   4   2 1532.58 627.569   3
  -4 -18   2 1282.05 574.541   1
  22  -4   2 2872.76 888.023   2
   4 -22   2 463.417 508.621   1
  18   4   2 1694.80 794.055   4
 -18  22   2 2333.76 645.878   1
  18   4   2 1254.69 760.676   2
 -18  22   5 3600.24 895.793   4
   4 -22   5 5252.41 1033.80   3
   4 -22   5 3942.05 711.234   1
  18   4   5 4797.34 802.082   3
  22  -4   5 3051.33 790.153   3
  -4 -18   5 3310.02 789.854   1
 -18  22   5 5295.32 1010.59   2
  22  -4   5 6095.95 1110.00   4
  22  -4   5 4413.46 1089.11   2
  18   4   5 3775.52 888.989   4
  18   4   5 3157.58 1101.90   2
 -22  18   5 4831.49 972.687   1
 -18  22   5 4778.06 922.114   1
   4 -22   8 582.861 897.961   3
 -22  18   8 1455.92 992.294   1
  22  -4   8 733.040 775.764   3
   4 -22   8 248.652 698.870   1
 -18  22   8 2656.15 977.539   2
  22  -4   8 785.986 841.601   4
  22  -4   8-413.664 943.032   2
  18   4   8 197.372 833.551   4
  18   4   8 49.7991 949.120   2
  -4 -18   8 397.570 764.668   1
 -18  22   8 40.3172 940.855   1
  19   3  -5 721.622 732.412   4
  22  -3  -5 902.832 542.495   2
  19   3  -5 186.913 396.256   2
   3 -22  -2 1463.66 389.511   3
  -3 -19  -2 711.004 191.269   3
  22  -3  -2 1663.57 904.921   3
  19   3  -2 1555.84 727.925   4
  22  -3  -2 2178.28 727.232   2
 -19  22  -2 665.971 141.280   1
  19   3  -2 2750.48 732.815   2
 -19  22   1 1445.14 747.491   4
  -3 -19   1 876.869 507.267   3
   3 -22   1 725.348 457.677   3
 -22  19   1 1841.69 449.793   1
  22  -3   1 1727.77 833.557   3
  -3 -19   1 1357.60 619.432   1
  19   3   1 1502.71 721.304   3
 -19  22   1 2531.37 802.419   2
  22  -3   1 1309.16 759.413   4
  22  -3   1 1936.10 802.747   2
  19   3   1 1856.20 773.625   4
  19   3   1 2177.73 833.569   2
 -19  22   1 1828.65 539.536   1
 -19  22   4 2084.33 754.332   4
   3 -22   4 1192.35 674.170   3
 -22  19   4 2226.42 712.067   1
  22  -3   4 1140.97 708.531   3
  19   3   4 1579.46 696.638   3
 -19  22   4 1764.05 792.323   2
   3 -22   4 262.352 507.746   1
  22  -3   4 3380.92 899.919   4
  22  -3   4 2426.19 976.417   2
  19   3   4 3203.54 852.272   4
  19   3   4 2255.76 964.231   2
 -19  22   4 1394.52 705.150   1
  -3 -19   4 2628.77 710.810   1
   3 -22   7 2100.27 997.273   3
  -3 -19   7 1006.70 756.994   1
 -22  19   7-904.910 926.081   1
  22  -3   7 2206.04 784.848   3
 -19  22   7 861.299 847.093   2
   3 -22   7 651.057 668.175   1
  22  -3   7 702.796 782.048   4
  19   3   7 1540.62 896.354   4
  22  -3   7 1011.45 976.460   2
  19   3   7 2579.66 1082.56   2
 -19  22   7 57.3732 865.367   1
  22  -2  -6 6976.17 1246.36   4
  20   2  -6 7626.52 1170.90   4
  22  -2  -3 8100.74 1397.94   3
  22  -2  -3 8659.52 1280.67   4
  20   2  -3 9903.02 1238.24   4
  22  -2  -3 10468.0 1127.69   2
  20   2  -3 10515.2 1051.93   2
 -22  20   0 2588.43 361.201   1
  -2 -20   0 2901.93 550.397   3
   2 -22   0 3669.58 585.129   3
  -2 -20   0 1771.90 714.478   1
  22  -2   0 1946.49 868.732   3
  20   2   0 431.871 707.646   3
  22  -2   0 3104.93 885.267   4
  20   2   0 2085.33 796.944   4
  22  -2   0 2401.33 819.501   2
  20   2   0 2784.15 850.667   2
 -20  22   0 2645.16 489.927   1
 -20  22   0 807.867 362.088   1
   2 -22   3 4627.15 810.507   1
 -20  22   3 9127.01 1189.64   4
  -2 -20   3 7901.27 1042.50   3
   2 -22   3 7699.16 1031.80   3
  22  -2   3 8412.27 1201.21   3
 -20  22   3 9218.67 1276.08   2
  20   2   3 6349.84 919.576   3
  22  -2   3 9025.63 1274.32   4
  22  -2   3 5904.11 1148.57   2
  20   2   3 5654.88 1066.19   4
  20   2   3 8283.66 1232.53   2
 -20  22   3 8772.79 988.440   1
  -2 -20   3 6112.77 893.246   1
 -22  20   3 7393.74 867.903   1
   2 -22   6 3459.92 990.237   3
 -22  20   6 1586.32 797.395   1
  22  -2   6 1868.37 810.668   3
  20   2   6 2157.79 711.679   3
  -2 -20   6 2121.61 747.934   1
 -20  22   6 3423.00 910.861   2
 -22  20   6 2431.54 833.749   2
  22  -2   6 1134.00 813.462   4
  20   2   6 2368.11 822.476   4
  22  -2   6 2072.05 1098.11   2
  20   2   6 4143.94 1137.06   2
   2 -22   6 1694.33 640.756   1
 -20  22   6 3460.03 1014.78   1
  22  -1  -7 2882.29 956.414   4
  21   1  -7 3287.12 976.798   4
  21   1  -4 1948.14 863.906   4
  22  -1  -4 1640.73 614.959   2
  21   1  -4 1301.40 592.877   2
 -21  22  -1 1279.87 288.636   1
  -1 -21  -1 4083.81 489.956   3
   1 -22  -1 3780.75 500.231   3
  22  -1  -1 3143.70 965.878   3
  21   1  -1 3877.25 1009.51   3
  22  -1  -1 6036.85 1099.92   4
  21   1  -1 4740.24 1006.84   4
  22  -1  -1 4399.13 899.594   2
  21   1  -1 4472.90 896.556   2
 -21  22  -1 2215.02 258.628   1
  -1 -21   2 1144.96 632.892   3
   1 -22   2 531.019 515.838   3
 -22  21   2 788.905 543.660   1
  -1 -21   2 453.951 563.423   1
  22  -1   2-482.435 735.016   3
  21   1   2 1172.49 691.711   3
 -21  22   2 1331.18 705.564   2
  22  -1   2 1415.92 726.924   4
  21   1   2 1552.78 781.892   4
  22  -1   2 22.4129 708.171   2
  21   1   2-489.674 728.234   2
   1 -22   2 1482.54 637.044   1
 -21  22   2 591.063 515.599   1
 -21  22   5 2263.55 834.945   1
  -1 -21   5 1787.03 850.737   3
   1 -22   5 3041.67 968.466   3
 -22  21   5 3504.59 892.806   1
   1 -22   5 1618.89 640.964   1
  22  -1   5 1795.50 758.404   3
  21   1   5 1410.05 685.257   3
 -21  22   5 2836.56 971.732   2
 -22  21   5 1094.50 781.060   2
  22  -1   5 2429.05 901.482   4
  21   1   5 3019.64 897.696   4
  22  -1   5 1719.24 1018.97   2
  21   1   5 1305.64 920.146   2
  -1 -21   5 2173.63 678.082   1
  22   0  -5-989.171 833.562   4
  22   0  -5 365.386 487.382   2
   0 -22  -2 1410.55 285.534   3
  22   0  -2 941.907 866.782   3
  22   0  -2 1702.57 839.043   4
  22   0  -2 2058.92 699.108   2
 -22  22   1 677.420 456.525   1
   0 -22   1 648.949 492.466   3
   0 -22   1 811.275 636.789   1
  22   0   1 405.075 752.708   3
  22   0   1 702.235 766.373   4
  22   0   1 522.545 763.013   2
 -22  22   4 1222.85 681.044   1
   0 -22   4 1315.03 760.519   3
   0 -22   4-202.577 608.119   1
  22   0   4 672.484 786.100   3
 -22  22   4 399.276 715.736   2
  22   0   4 527.134 703.382   4
  22   0   4-1064.04 897.260   2
   0 -22   7 1651.96 1021.99   3
 -22  22   7 721.418 900.018   1
  22   0   7 197.907 688.978   3
 -22  22   7 547.503 773.880   2
   0 -22   7 129.199 685.427   1
  22   0   7 824.244 828.562   4
  22   0   7 907.914 1027.88   2
   0  23  -5 271.371 710.404   2
  23 -23  -5 2045.16 1103.86   3
   0  23  -5-342.745 715.153   4
   0  23  -2 4567.88 958.824   2
  23 -23  -2 3389.80 954.877   3
 -23   0  -2 3648.97 785.676   1
   0  23  -2 6338.25 1086.68   4
   0  23   1 718.925 837.612   2
  23 -23   1 61.7874 713.441   3
 -23   0   1-1042.87 608.496   1
   0  23   1 431.597 803.073   4
   0  23   4 1910.92 890.870   2
  23 -23   4 2208.19 939.448   3
 -23   0   4 2510.84 768.671   1
   0  23   4 3558.77 1023.29   4
   1  22  -6 2246.70 884.940   2
  -1  23  -6 2317.59 879.846   2
  22 -23  -6 645.193 1100.71   3
  23 -22  -6-313.761 1053.25   3
   1  22  -6 2865.84 820.575   4
  -1  23  -6 2424.16 759.130   4
  -1  23  -3 5632.01 1098.57   2
   1  22  -3 4850.70 959.790   2
  22 -23  -3 4245.47 1019.78   3
  23 -22  -3 4588.80 1072.88   3
   1  22  -3 5853.94 1022.79   4
  -1  23  -3 7361.35 1100.89   4
   1  22   0 3305.62 986.885   2
  -1  23   0 3531.14 909.966   2
  22 -23   0 3014.17 859.683   3
  23 -22   0 1664.78 822.579   3
 -22  -1   0 3428.28 717.533   1
   1  22   0 4061.39 935.779   4
  -1  23   0 2740.65 893.234   4
 -23   1   0 3249.74 721.976   1
  -1  23   3 6648.49 1179.01   2
   1  22   3 5710.51 1146.83   2
  22 -23   3 5743.62 1041.47   3
  23 -22   3 5602.68 1011.55   3
   1  22   3 9211.01 1246.96   4
  -1  23   3 6332.90 1141.37   4
 -23   1   3 6222.22 904.341   1
 -22  -1   3 6367.76 889.890   1
   1  22   6 919.633 872.156   2
  -1  23   6 2066.99 961.969   2
 -23   1   6 1074.27 764.956   1
  22 -23   6 972.563 838.019   3
  23 -22   6 3295.32 1032.76   3
 -22  -1   6 1562.17 809.964   1
   1  22   6 1481.97 968.884   4
  -1  23   6 2444.99 1017.93   4
  21 -23  -7 3110.84 1276.07   3
  23 -21  -7 2419.89 1255.88   3
   2  21  -7 1639.44 744.048   4
  -2  23  -7 87.4966 694.479   4
   2  21  -4-112.125 630.617   2
  -2  23  -4 585.638 670.774   2
  21 -23  -4-420.561 791.971   3
  23 -21  -4-181.221 909.834   3
   2  21  -4 1096.33 760.579   4
  -2  23  -4 398.594 617.762   4
   2  21  -1 228.711 648.788   2
 -23   2  -1 1175.38 575.048   1
  -2  23  -1 2293.38 888.089   2
  21 -23  -1 626.567 653.969   3
  23 -21  -1 767.634 731.169   3
 -21  -2  -1 1660.97 590.379   1
   2  21  -1 439.854 757.409   4
  -2  23  -1 2323.89 791.610   4
 -21  -2   2 1663.40 687.934   1
   2  21   2 2814.85 902.035   2
  -2  23   2 2656.88 877.295   2
  21 -23   2 4072.62 933.247   3
  23 -21   2 2969.58 905.915   3
 -23   2   2 2607.73 657.979   1
   2  21   2 2034.98 835.438   4
  -2  23   2 2072.83 866.106   4
   2  21   5 4305.26 1149.85   2
  -2  23   5 4269.36 1135.54   2
  21 -23   5 2147.72 885.532   3
 -23   2   5 3874.44 855.311   1
  23 -21   5 1859.06 894.730   3
 -21  -2   5 2982.81 839.151   1
   2  21   5 2847.71 949.981   4
  -2  23   5 4266.53 1035.64   4
   3  20  -5-82.2583 640.886   2
  -3  23  -5 1346.42 814.934   2
  20 -23  -5 913.594 988.353   3
  23 -20  -5 1705.03 1025.54   3
   3  20  -5 806.462 646.075   4
  -3  23  -5 1156.52 688.116   4
 -23   3  -2 6818.02 862.126   1
   3  20  -2 5004.13 911.122   2
  20 -23  -2 6105.29 1023.25   3
 -20  -3  -2 5398.33 850.334   1
  23 -20  -2 6992.71 1120.91   3
  -3  23  -2 4995.76 994.446   2
   3  20  -2 7052.33 1079.84   4
  -3  23  -2 7223.61 1031.03   4
 -23   3   1 1108.93 578.243   1
   3  20   1 2419.00 856.887   2
  -3  23   1 890.005 742.578   2
  20 -23   1 1679.54 720.922   3
  23 -20   1 1006.09 681.326   3
 -20  -3   1 1753.81 657.210   1
   3  20   1 2365.31 892.040   4
  -3  23   1 2382.31 830.954   4
   3  20   4 1442.03 901.357   2
  -3  23   4 2079.57 903.488   2
  20 -23   4 1496.75 759.908   3
  23 -20   4 3457.40 907.501   3
 -23   3   4 1828.64 625.600   1
 -20  -3   4 2385.22 735.776   1
   3  20   4 443.029 722.669   4
  -3  23   4 3577.38 983.287   4
 -23   3   7 2587.93 876.164   1
   3  20   7 1326.89 1016.99   2
  -3  23   7 3219.19 985.812   2
  20 -23   7-81.2248 762.564   3
  23 -20   7 240.791 887.237   3
 -20  -3   7 1289.92 811.946   1
   3  20   7 1248.16 986.951   4
  -3  23   7 1162.53 842.811   4
   4  19  -6 5109.74 952.875   2
  19 -23  -6 7664.50 1426.09   3
  23 -19  -6 4845.26 1304.61   3
  -4  23  -6 5811.19 1082.66   2
   4  19  -6 6033.89 941.567   4
  -4  23  -6 6483.95 958.830   4
   4  19  -3 7218.71 973.322   2
  -4  23  -3 7572.34 1063.36   2
  19 -23  -3 9242.35 1150.84   3
  23 -19  -3 8599.11 1246.84   3
   4  19  -3 9698.44 1149.77   4
  -4  23  -3 8917.61 1114.68   4
  -4  23   0 8783.75 1161.41   2
  19 -23   0 5744.30 950.633   3
 -23   4   0 8254.09 858.472   1
  23 -19   0 5142.40 958.910   3
 -19  -4   0 4575.38 755.934   1
   4  19   0 7320.17 1141.40   4
  -4  23   0 8292.76 1157.67   4
   4  19   0 6035.10 979.176   2
  -4  23   3 7903.40 1214.98   2
  19 -23   3 8468.48 1067.28   3
  23 -19   3 6394.09 1045.92   3
 -23   4   3 8250.51 891.544   1
   4  19   3 11727.0 1371.37   4
  -4  23   3 8747.79 1270.44   4
   4  19   3 7831.36 1186.29   2
 -19  -4   3 8175.34 982.246   1
 -23   4   6 2350.72 799.882   1
   4  19   6 1572.93 948.633   2
  -4  23   6 1055.37 851.647   2
  19 -23   6 894.067 759.751   3
  23 -19   6 1209.79 813.550   3
 -19  -4   6 3104.59 890.160   1
   4  19   6 4152.21 1087.76   4
  -4  23   6 4012.11 1035.14   4
  18 -23  -7 3222.46 1135.70   3
  23 -18  -7 2514.20 1253.26   3
   5  18  -7 1294.44 674.546   4
  -5  23  -7 3302.43 794.605   4
   5  18  -4 1086.78 595.375   2
  18 -23  -4 2791.86 870.947   3
  -5  23  -4 2321.11 755.889   2
  23 -18  -4 1868.85 983.437   3
   5  18  -4 1112.44 719.758   4
  -5  23  -4 1112.04 686.510   4
  18 -23  -1 4703.16 872.605   3
  -5  23  -1 5415.08 977.661   2
  23 -18  -1 3933.43 925.058   3
 -23   5  -1 3041.44 625.044   1
   5  18  -1 7043.46 1061.16   4
  -5  23  -1 6683.12 1047.31   4
 -18  -5  -1 6019.32 838.325   1
   5  18  -1 7002.16 1044.19   2
   5  18   2 898.987 869.884   2
 -18  -5   2 794.889 622.448   1
  -5  23   2 697.370 761.804   2
  18 -23   2 513.933 619.365   3
  23 -18   2 843.439 719.347   3
 -23   5   2 668.770 462.586   1
   5  18   2 2083.93 769.423   4
  -5  23   2 1284.51 736.852   4
   5  18   5 4632.03 1118.88   2
  -5  23   5 5201.04 1074.11   2
  18 -23   5 4254.28 981.150   3
  23 -18   5 3393.52 913.901   3
 -23   5   5 4992.01 886.622   1
 -18  -5   5 4869.43 855.073   1
   5  18   5 6461.72 1086.13   4
  -5  23   5 4566.47 991.944   4
   6  17  -5 3194.20 746.932   2
  17 -23  -5 3946.17 1133.50   3
  23 -17  -5 3582.60 1085.03   3
  -6  23  -5 4017.69 997.018   2
   6  17  -5 3377.95 809.560   4
  -6  23  -5 3264.75 807.349   4
   6  17  -2 4500.38 832.444   2
  -6  23  -2 5827.89 1042.19   2
 -17  -6  -2 3171.14 716.849   1
  17 -23  -2 3473.96 751.254   3
  23 -17  -2 4207.92 984.367   3
   6  17  -2 4637.55 882.606   4
  -6  23  -2 6215.43 1039.62   4
 -23   6  -2 4166.22 622.694   1
   6  17   1 3191.51 900.186   2
  17 -23   1 4013.84 797.451   3
  -6  23   1 4163.84 955.543   2
  23 -17   1 2368.83 788.831   3
 -23   6   1 3022.55 581.736   1
 -17  -6   1 3119.59 708.241   1
   6  17   1 3559.91 906.164   4
  -6  23   1 2310.24 828.569   4
   6  17   4 3765.09 1088.26   2
 -23   6   4 2096.39 682.306   1
  17 -23   4 1637.30 760.320   3
  -6  23   4 2151.23 890.211   2
  23 -17   4 2465.50 794.181   3
 -17  -6   4 2369.98 729.445   1
   6  17   4 1965.33 804.981   4
  -6  23   4 2207.35 915.078   4
  -6  23   7 5277.11 1277.93   2
   6  17   7 5283.88 1289.39   2
  17 -23   7 2763.78 923.239   3
  23 -17   7 2634.06 943.615   3
 -17  -6   7 2076.34 810.220   1
 -23   6   7 2966.33 892.146   1
   6  17   7 3051.87 1006.78   4
  -6  23   7 2528.98 937.138   4
   7  16  -6 5220.45 830.965   2
  16 -23  -6 7261.06 1219.69   3
  23 -16  -6 6263.79 1323.70   3
  -7  23  -6 3845.13 974.025   2
   7  16  -6 5791.57 947.936   4
  -7  23  -6 7494.85 956.030   4
   7  16  -3 7235.28 926.563   2
 -16  -7  -3 4431.49 628.945   3
  -7  23  -3 6433.39 973.153   2
  16 -23  -3 5163.36 940.875   3
  23 -16  -3 5582.04 1126.32   3
   7  16  -3 6474.54 990.519   4
  -7  23  -3 6135.94 965.157   4
   7  16   0 2795.00 762.139   2
 -23   7   0 371.601 462.735   1
 -16  -7   0 2194.45 642.388   1
  16 -23   0 3269.40 703.811   3
  -7  23   0 1649.88 798.226   2
  23 -16   0 3190.68 817.900   3
   7  16   0 2890.67 836.821   4
  -7  23   0 2818.57 844.888   4
   7  16   3 1772.35 885.705   2
 -23   7   3 229.498 500.056   1
  16 -23   3 1830.05 679.464   3
  -7  23   3 666.162 699.930   2
  23 -16   3 1468.08 677.183   3
   7  16   3 1056.57 746.650   4
  -7  23   3 804.954 777.257   4
 -16  -7   3 1630.65 682.367   1
   7  16   6 3494.74 1085.11   2
  16 -23   6 3949.82 975.828   3
  -7  23   6 5333.96 1106.71   2
  23 -16   6 2978.26 850.935   3
 -16  -7   6 3295.10 904.827   1
   7  16   6 5281.75 1133.69   4
 -23   7   6 3292.07 896.403   1
  -7  23   6 5586.76 1100.76   4
  15 -23  -7 5575.90 1187.58   3
  23 -15  -7 3601.21 1228.88   3
   8  15  -7 6550.36 947.573   4
  -8  23  -7 5974.54 863.512   4
   8  15  -4 1429.65 557.556   2
  15 -23  -4 1027.47 730.238   3
  23 -15  -4 1114.91 816.339   3
  -8  23  -4 2497.96 842.264   2
   8  15  -4 1564.96 690.991   4
  -8  23  -4 1438.74 695.584   4
 -15  -8  -1 3760.69 726.385   1
   8  15  -1 3725.64 820.591   2
  15 -23  -1 5203.26 778.663   3
 -23   8  -1 5633.86 599.798   1
  -8  23  -1 3522.50 846.825   2
  23 -15  -1 4169.12 919.957   3
   8  15  -1 3946.72 900.353   4
  -8  23  -1 5998.43 996.277   4
   8  15   2 212.153 702.501   2
 -23   8   2 1188.21 510.643   1
  15 -23   2 365.182 614.199   3
  -8  23   2-758.367 747.097   2
  23 -15   2 72.1704 637.296   3
 -15  -8   2 528.148 606.494   1
   8  15   2 5.42670 647.519   4
  -8  23   2 1696.21 765.674   4
  -8  23   5 5785.03 1149.10   2
  15 -23   5 6516.66 1074.06   3
  23 -15   5 5756.36 1008.81   3
 -23   8   5 6154.77 908.862   1
   8  15   5 7045.02 1134.55   4
   8  15   5 6843.13 1266.21   2
  -8  23   5 6081.48 1089.20   4
 -15  -8   5 6305.57 966.321   1
   8  15   8 2191.33 1075.76   2
  15 -23   8 900.167 884.254   3
  -8  23   8 1326.74 947.474   2
  23 -15   8 2090.10 927.744   3
 -15  -8   8 2004.91 896.210   1
 -23   8   8 2532.99 974.022   1
   8  15   8 4742.99 1128.42   4
  -8  23   8 924.838 899.720   4
   9  14  -8 533.077 645.464   4
   9  14  -5 7564.23 864.360   2
  14 -23  -5 7150.22 1128.53   3
  -9  23  -5 7588.22 1142.97   2
  23 -14  -5 9564.80 1375.47   3
   9  14  -5 7939.59 1040.06   4
  -9  23  -5 7754.48 975.564   4
   9  14  -2 995.463 575.402   2
 -14  -9  -2-6.57817 442.907   3
  14 -23  -2-211.076 481.135   3
  -9  23  -2 1310.60 732.335   2
  23 -14  -2 747.277 826.774   3
 -14  -9  -2 1331.21 630.594   1
   9  14  -2 658.961 636.513   4
 -23   9  -2 403.519 321.006   1
  -9  23  -2 500.624 685.121   4
  -9  23   1 6885.44 1125.61   2
  14 -23   1 5769.30 837.038   3
  23 -14   1 7111.45 1045.38   3
 -14  -9   1 6541.30 829.448   1
   9  14   1 7709.61 1084.71   4
 -23   9   1 7016.87 674.329   1
   9  14   1 5007.66 941.180   2
  -9  23   1 7576.34 1098.10   4
  14 -23   4 108.919 593.198   3
  -9  23   4 1953.81 855.473   2
  23 -14   4-917.559 643.163   3
   9  14   4 1227.69 732.910   4
 -23   9   4 472.141 530.037   1
 -14  -9   4 779.487 639.674   1
  -9  23   4 1250.48 767.058   4
   9  14   4-876.058 744.178   2
  14 -23   7 4201.29 1014.35   3
  -9  23   7 3905.27 1063.50   2
  23 -14   7 4405.47 990.644   3
 -14  -9   7 3623.61 890.237   1
 -23   9   7 4277.54 962.944   1
   9  14   7 5797.22 1149.48   4
  -9  23   7 5000.43 1000.18   4
   9  14   7 3748.21 1123.66   2
  10  13  -6 5633.89 718.082   2
  13 -23  -6 6988.17 1050.84   3
  10  13  -6 6466.33 989.599   4
 -10  23  -6 7915.38 969.197   4
  10  13  -3 575.024 569.234   2
 -13 -10  -3 135.856 265.193   3
  13 -23  -3 1012.23 594.934   3
  23 -13  -3-220.944 758.619   3
 -10  23  -3-1251.46 726.570   2
  10  13  -3-244.031 603.953   4
 -10  23  -3 486.139 624.444   4
  13 -23   0 10357.7 966.542   3
 -10  23   0 6712.58 1105.93   2
  23 -13   0 8681.02 1113.30   3
  10  13   0 12681.9 1300.06   4
 -13 -10   0 10006.3 1008.27   1
  10  13   0 10598.2 1145.84   2
 -10  23   0 10888.4 1171.73   4
 -23  10   0 9416.57 719.291   1
 -13 -10   3 431.981 594.415   1
  13 -23   3 1602.05 655.268   3
 -10  23   3 2114.27 785.904   2
  23 -13   3 2408.31 831.258   3
  10  13   3 2067.74 766.684   4
 -23  10   3 1527.18 547.479   1
 -10  23   3 2623.87 816.890   4
  10  13   3 1724.92 818.373   2
  13 -23   6 3021.72 934.952   3
 -23  10   6 6814.72 1070.04   1
  23 -13   6 4125.39 981.470   3
 -10  23   6 3100.37 999.545   2
  13 -23   6 2889.42 476.341   1
  10  13   6 4332.62 934.429   4
 -13 -10   6 5501.96 953.851   1
 -10  23   6 5154.18 1082.38   4
  10  13   6 2850.39 1012.61   2
 -11  23  -7 3445.03 743.989   4
  23 -12  -7 3635.78 1178.35   3
  11  12  -7 4228.56 786.010   4
  11  12  -4 1083.66 520.668   2
  12 -23  -4 206.133 639.838   3
  23 -12  -4-1036.40 837.245   3
 -11  23  -4-340.652 667.621   2
  11  12  -4 690.112 606.116   4
 -11  23  -4 228.925 582.525   4
 -23  11  -1 9540.80 650.899   1
 -12 -11  -1 8458.57 933.487   1
  12 -23  -1 9161.41 883.081   3
 -11  23  -1 11144.7 1282.10   2
 -12 -11  -1 8496.16 766.063   3
  23 -12  -1 11129.8 1299.37   3
  23 -12  -1 7015.26 814.031   1
  11  12  -1 11188.2 1273.77   4
  11  12  -1 10592.0 1129.58   2
 -11  23  -1 10016.0 1120.17   4
  12 -23   2 2269.41 663.075   3
  23 -12   2 2481.19 805.136   3
 -11  23   2 2391.78 810.446   2
 -12 -11   2 2060.30 625.549   1
  11  12   2 1944.58 737.757   4
  23 -12   2 1164.27 246.393   1
  11  12   2 2475.54 825.896   2
 -11  23   2 1707.37 727.082   4
 -23  11   2 2515.54 551.180   1
  12 -23   5 8591.38 1169.36   3
 -11  23   5 9117.17 1284.22   2
  23 -12   5 9028.20 1117.72   3
 -23  11   5 8193.40 992.529   1
  12 -23   5 6974.16 700.485   1
  11  12   5 8439.87 1202.59   4
  11  12   5 6252.85 1195.94   2
 -11  23   5 7068.24 1135.93   4
 -12 -11   5 7455.49 984.397   1
  12 -23   8 372.524 836.689   3
  23 -12   8 760.161 783.958   3
 -11  23   8 3380.29 1089.45   2
 -12 -11   8 795.994 760.212   1
 -23  11   8 445.268 883.356   1
  23 -12   8 1969.13 893.061   4
 -11  23   8 1491.06 1029.40   1
  11  12   8 2449.67 1006.57   4
  11  12   8 3718.45 1215.90   2
 -11  23   8 2804.32 983.071   4
  12  11  -8 2006.48 661.038   4
  12  11  -5 8865.95 799.738   2
  11 -23  -5 6913.23 984.290   3
  23 -11  -5 9496.98 1432.24   3
  12  11  -5 9031.10 1067.99   4
 -12  23  -5 10291.3 1107.55   4
  12  11  -2 1667.09 629.581   2
 -11 -12  -2 2879.80 439.715   3
  11 -23  -2 3078.77 638.307   3
 -23  12  -2 1408.48 247.001   1
  23 -11  -2 2009.10 848.072   3
 -12  23  -2 2114.68 770.245   2
  12  11  -2 2844.06 762.737   4
 -11 -12  -2 1870.63 676.140   1
 -12  23  -2 1688.02 698.493   4
  11 -23   1 10784.4 1034.45   3
 -12  23   1 10072.8 1259.07   2
  23 -11   1 9904.18 1178.48   3
 -23  12   1 10348.4 736.237   1
 -11 -12   1 9669.19 966.585   1
  12  11   1 9860.63 1183.34   4
  23 -11   1 9417.07 704.994   1
  12  11   1 12575.5 1279.36   2
 -12  23   1 13684.8 1372.13   4
 -11 -12   4 167.413 576.799   1
  11 -23   4 418.284 588.231   3
  23 -11   4 1329.09 675.760   3
 -12  23   4 600.344 737.648   2
 -23  12   4 69.7926 535.626   1
  12  11   4 1563.57 816.299   4
  12  11   4 2280.74 857.988   2
 -12  23   4 1723.58 836.481   4
  11 -23   7 3919.34 1009.67   3
  11 -23   7 2064.00 535.889   1
  23 -11   7 3517.29 913.070   3
 -12  23   7 4390.61 1123.79   2
 -23  12   7 3067.63 955.430   1
 -11 -12   7 4207.64 945.812   1
  12  11   7 6547.12 1148.10   4
 -12  23   7 6505.64 1124.33   4
  12  11   7 3300.95 1032.61   2
  10 -23  -6 3089.10 698.293   3
  23 -10  -6 3087.61 1111.08   3
  13  10  -6 3876.29 825.732   4
 -13  23  -6 4793.26 846.327   4
  13  10  -3 1677.28 594.769   2
  10 -23  -3 1860.15 644.299   3
  23 -10  -3 1159.59 808.553   3
 -13  23  -3 2092.72 852.456   2
  13  10  -3 1131.97 725.805   4
 -13  23  -3 520.692 459.341   1
 -13  23  -3 1751.04 720.709   4
  10 -23   0 9095.11 879.433   3
 -13  23   0 8242.50 1160.38   2
  23 -10   0 8726.31 1213.38   3
 -10 -13   0 8058.19 841.137   3
  13  10   0 9811.60 1165.50   4
  23 -10   0 6633.26 793.196   1
 -23  13   0 9943.37 639.273   1
  13  10   0 8320.64 1048.31   2
 -13  23   0 11951.5 1260.94   4
 -10 -13   0 10496.6 1019.37   1
  10 -23   3 116.220 538.945   3
  23 -10   3 201.590 332.157   1
  23 -10   3 483.025 713.850   3
 -13  23   3 1311.75 769.272   2
 -10 -13   3 759.834 611.743   1
 -23  13   3 186.574 488.940   1
  13  10   3 745.820 718.490   4
  13  10   3 566.593 722.666   2
 -13  23   3 1543.92 805.841   4
  10 -23   6 7033.30 1146.04   3
 -23  13   6 7809.77 1077.86   1
 -13  23   6 8347.19 1280.63   2
  23 -10   6 8874.17 1139.30   3
  13  10   6 6571.75 1072.69   4
  13  10   6 10131.1 1519.62   2
  10 -23   6 5646.14 687.728   1
 -13  23   6 6970.52 1154.13   4
 -10 -13   6 6070.89 1028.28   1
  14   9  -7 3494.07 824.023   4
 -14  23  -4 745.492 630.351   4
  14   9  -4 1183.31 536.419   2
   9 -23  -4 731.576 568.871   3
  23  -9  -4-395.948 827.230   3
  14   9  -4 467.662 632.654   4
 -14  23  -1 3466.55 575.953   1
   9 -23  -1 6522.15 734.012   3
  -9 -14  -1 5581.89 616.477   3
 -14  23  -1 6166.96 1066.01   2
  -9 -14  -1 5258.28 857.097   1
  23  -9  -1 5005.73 995.760   3
  14   9  -1 7328.48 1041.44   4
  14   9  -1 7429.58 960.626   2
 -14  23  -1 8126.24 1081.83   4
  -9 -14   2 972.178 565.968   1
   9 -23   2 346.104 528.474   3
  23  -9   2 112.361 447.400   1
  23  -9   2 218.367 691.068   3
 -14  23   2-73.8905 657.364   2
 -23  14   2-124.380 406.952   1
  14   9   2 518.122 656.273   4
  14   9   2 548.210 685.667   2
 -14  23   2 1133.63 710.870   4
  -9 -14   5 6237.12 1022.33   1
   9 -23   5 7695.40 1095.25   3
 -23  14   5 7737.61 1038.15   1
 -14  23   5 6373.10 1134.22   2
  23  -9   5 6943.03 1061.19   3
  14   9   5 6947.91 1150.56   4
  14   9   5 9336.35 1345.30   2
 -14  23   5 7881.02 1136.04   4
   9 -23   5 5544.49 688.977   1
   9 -23   8 2013.57 1002.72   3
  23  -9   8 878.543 693.127   3
 -14  23   8 1850.87 945.948   2
 -23  14   8 1681.88 901.445   1
  -9 -14   8 2439.93 818.493   1
  23  -9   8-332.765 747.724   4
  23  -9   8 1659.38 1091.25   2
  14   9   8 840.183 803.595   4
 -14  23   8 771.985 943.249   1
   9 -23   8 1199.46 590.241   1
  14   9   8 3194.68 1073.81   2
 -14  23   8 1966.33 953.755   4
  15   8  -8 1850.28 759.454   4
   8 -23  -5 4781.82 629.224   3
  23  -8  -5 6456.78 1335.43   3
  15   8  -5 5934.18 1012.80   4
  15   8  -5 5384.15 638.022   2
 -15  23  -5 6230.99 898.273   4
  -8 -15  -2 498.679 194.618   3
 -15  23  -2-38.7506 392.742   1
  -8 -15  -2 495.016 218.034   3
   8 -23  -2 451.131 482.074   3
  23  -8  -2 438.916 805.988   3
 -15  23  -2 2120.77 874.111   2
  15   8  -2 877.019 665.421   4
  15   8  -2 1632.37 589.315   2
 -15  23  -2 99.1080 636.522   4
   8 -23   1 4074.47 717.620   3
 -23  15   1 4777.77 538.246   1
  23  -8   1 3893.81 962.006   3
 -15  23   1 3904.07 957.730   2
  -8 -15   1 3553.70 737.577   1
  15   8   1 3289.25 842.705   4
  15   8   1 4629.84 938.471   2
  23  -8   1 4209.71 673.915   1
 -15  23   1 4138.81 893.912   4
   8 -23   4 2607.59 776.313   3
  23  -8   4 1992.53 755.922   3
  -8 -15   4 1199.63 638.967   1
 -15  23   4 2002.70 832.774   2
 -23  15   4 1971.93 653.123   1
  15   8   4 1875.15 487.007   3
   8 -23   4 1232.07 514.635   1
  15   8   4 2284.67 761.299   4
  15   8   4 1604.01 898.511   2
 -15  23   4 1820.43 807.835   4
   8 -23   7 5590.36 1149.18   3
  23  -8   7 6273.59 1014.80   3
 -23  15   7 6524.97 1095.74   1
 -15  23   7 5052.78 1081.11   2
   8 -23   7 4625.62 720.864   1
  23  -8   7 7058.24 1173.72   4
 -15  23   7 6289.78 1277.52   1
  23  -8   7 7301.42 1358.62   2
  15   8   7 8221.45 1241.18   4
  -8 -15   7 4957.23 943.723   1
  15   8   7 6067.39 1268.28   2
 -15  23   7 7564.18 1192.44   4
  23  -7  -6 4008.68 1174.08   3
  16   7  -6 4901.56 934.178   4
 -16  23  -3 1350.16 747.635   4
   7 -23  -3 1437.26 531.271   3
  23  -7  -3 1189.42 784.972   3
 -16  23  -3 475.775 353.119   1
  16   7  -3 156.357 674.307   4
  16   7  -3 887.183 523.600   2
   7 -23   0 2689.27 583.083   3
 -23  16   0 2870.33 368.970   1
  23  -7   0 2315.86 966.348   3
  -7 -16   0 1996.71 623.318   3
 -16  23   0 3390.05 963.135   2
  -7 -16   0 1888.53 657.999   1
  16   7   0 3772.28 892.745   4
  16   7   0 3525.05 839.781   2
 -16  23   0 3088.41 844.449   4
 -23  16   3 7750.24 851.556   1
   7 -23   3 8600.67 1031.34   3
  -7 -16   3 4827.57 818.181   1
  23  -7   3 5116.65 943.589   3
  16   7   3 4989.06 714.090   3
 -16  23   3 5322.11 1051.64   2
   7 -23   3 5823.68 761.668   1
  16   7   3 6803.29 1107.72   4
  16   7   3 8438.00 1242.99   2
 -16  23   3 7460.59 1118.85   4
  -7 -16   6 8481.50 1140.03   1
   7 -23   6 8669.49 1240.73   3
 -16  23   6 7022.13 1183.19   2
  23  -7   6 7578.09 1067.70   3
  23  -7   6 7397.77 1339.22   2
  23  -7   6 6579.91 1116.24   4
   7 -23   6 5437.42 770.607   1
  16   7   6 5720.68 1075.69   4
 -16  23   6 5646.53 1110.05   1
  16   7   6 6046.36 1250.48   2
 -16  23   6 8644.99 1303.35   4
 -23  16   6 7075.66 1107.58   1
  17   6  -7 3241.54 842.788   4
 -17  23  -4 1913.15 754.149   4
   6 -23  -4 1075.63 412.718   3
  23  -6  -4 3124.96 1044.51   3
  17   6  -4 2026.79 762.791   4
  17   6  -4 1844.29 571.681   2
 -17  23  -1 2088.09 781.137   4
  -6 -17  -1 3142.49 448.420   3
   6 -23  -1 3924.06 586.104   3
  -6 -17  -1 3026.42 527.422   3
  23  -6  -1 3009.62 866.149   3
 -17  23  -1 1935.25 877.591   2
  17   6  -1 4391.44 939.706   4
  -6 -17  -1 1383.20 649.820   1
  17   6  -1 2730.75 769.766   2
 -17  23  -1 2382.66 469.918   1
 -23  17   2 5039.92 647.875   1
   6 -23   2 7041.96 884.458   3
  23  -6   2 5687.34 969.015   3
  17   6   2 5142.22 823.451   3
 -17  23   2 5369.71 1046.73   2
  17   6   2 7468.60 1146.03   4
  -6 -17   2 4647.43 815.906   1
  17   6   2 5259.58 977.180   2
 -17  23   2 6130.86 1096.31   4
 -17  23   5 3370.05 946.052   4
   6 -23   5 3664.66 895.828   3
 -23  17   5 2907.63 777.581   1
  -6 -17   5 2697.02 794.934   1
  23  -6   5 4053.45 861.462   3
 -17  23   5 3582.46 971.453   2
  17   6   5 3154.70 638.858   3
   6 -23   5 3219.09 694.218   1
  23  -6   5 3924.78 988.219   4
  23  -6   5 2893.90 1051.74   2
  17   6   5 2888.93 922.515   4
 -17  23   5 3660.22 946.572   1
  17   6   5 3063.10 999.644   2
  23  -5  -5 4802.45 1152.73   3
  23  -5  -5 4527.57 747.982   2
  18   5  -5 5823.19 1036.23   4
  18   5  -5 5227.94 626.085   2
 -18  23  -2 1898.61 786.110   4
 -18  23  -2 752.009 304.671   1
   5 -23  -2 1084.52 420.799   3
  -5 -18  -2 719.155 159.762   3
  23  -5  -2 556.706 921.500   3
  18   5  -2 1841.44 749.471   4
  18   5  -2 1549.36 683.160   2
  -5 -18   1 5307.20 819.256   1
   5 -23   1 5020.32 740.642   3
 -23  18   1 5810.87 578.334   1
  23  -5   1 6309.50 1128.15   3
 -18  23   1 4647.37 1042.25   2
  18   5   1 3602.80 777.104   3
  18   5   1 7529.42 1133.46   4
  18   5   1 5789.22 1013.26   2
 -18  23   1 6527.91 1101.16   4
 -18  23   4 1317.59 872.689   4
   5 -23   4 2481.76 787.650   3
 -23  18   4 3574.43 746.977   1
  23  -5   4 1705.65 714.557   3
 -18  23   4 1515.18 804.262   2
  18   5   4 1548.61 638.002   3
  23  -5   4 2060.30 911.128   4
  23  -5   4 3521.53 988.780   2
  18   5   4 3184.86 894.258   4
 -18  23   4 1406.40 720.032   1
  18   5   4 1991.05 918.878   2
  -5 -18   4 1820.64 663.392   1
   5 -23   4 3645.52 710.933   1
 -18  23   7 2057.53 879.274   4
  -5 -18   7 2146.64 850.290   1
   5 -23   7 3119.56 1068.03   3
 -23  18   7 2313.33 998.929   1
  23  -5   7 3031.29 929.550   3
 -18  23   7 3653.50 1031.98   2
  23  -5   7 3023.90 935.913   4
  23  -5   7 2791.77 1116.60   2
  18   5   7 3653.38 961.219   4
  18   5   7 1762.58 1012.39   2
   5 -23   7 1331.16 621.482   1
 -18  23   7 2399.27 1049.30   1
  19   4  -6 1239.55 790.820   4
   4 -23  -3 6012.43 548.162   3
  23  -4  -3 9796.68 1502.49   3
  23  -4  -3 9687.78 1087.01   2
  19   4  -3 8511.82 1175.34   4
  19   4  -3 9961.65 1036.78   2
  -4 -19   0 8648.23 766.974   3
   4 -23   0 8310.77 774.209   3
 -23  19   0 7466.69 500.036   1
  23  -4   0 7276.01 1223.09   3
 -19  23   0 7075.53 1187.71   2
  -4 -19   0 5919.38 837.473   3
  19   4   0 7548.23 1109.76   3
  23  -4   0 8245.99 1194.43   2
 -19  23   0 6161.97 674.881   1
  19   4   0 7776.97 1171.31   4
  19   4   0 10112.9 1205.46   2
  -4 -19   0 7637.77 1008.48   1
 -19  23   0 4217.36 509.478   1
 -19  23   0 9622.05 1211.85   4
   4 -23   3 8073.71 1018.86   3
   4 -23   3 7216.99 892.484   1
  23  -4   3 7434.71 1131.92   3
 -19  23   3 8999.20 1231.51   2
  19   4   3 7640.99 952.659   3
  23  -4   3 9410.81 1355.03   2
  23  -4   3 9072.43 1288.39   4
  19   4   3 7143.60 1133.68   4
 -19  23   3 6790.52 977.550   1
  19   4   3 9494.28 1320.81   2
  -4 -19   3 5525.10 867.866   1
 -23  19   3 8027.88 882.718   1
 -19  23   3 8705.92 1186.95   4
   4 -23   6 7424.00 1276.19   3
  -4 -19   6 7239.51 1122.16   1
  23  -4   6 3609.79 886.609   3
  19   4   6 4087.68 765.618   3
 -19  23   6 3526.57 1039.70   2
   4 -23   6 7072.84 913.279   1
  23  -4   6 8017.25 1447.26   2
  23  -4   6 5539.84 1125.87   4
 -19  23   6 5696.43 1191.02   1
  19   4   6 5826.78 1086.50   4
  19   4   6 4902.88 1192.24   2
 -23  19   6 5820.04 1082.19   1
 -19  23   6 6161.27 1092.74   4
  23  -3  -7 2561.82 1075.59   4
  20   3  -7 1908.64 921.303   4
  23  -3  -4 2838.47 1060.46   3
  20   3  -4 2834.53 914.262   4
  23  -3  -4 2125.26 665.817   2
  20   3  -4 2207.83 647.435   2
  -3 -20  -1 2756.99 412.933   3
   3 -23  -1 2551.18 476.597   3
  23  -3  -1 1610.54 870.739   3
  20   3  -1 3296.74 910.402   3
  20   3  -1 2419.80 886.794   4
  23  -3  -1 2908.89 816.050   2
  20   3  -1 3248.10 843.987   2
 -20  23  -1 1573.81 344.591   1
  -3 -20   2 6885.57 895.755   3
   3 -23   2 5751.01 845.902   3
  20   3   2 6046.42 1002.64   3
  23  -3   2 5683.78 1051.13   3
 -20  23   2 4092.75 1052.33   2
   3 -23   2 4774.78 817.073   1
  23  -3   2 6355.06 1135.53   4
  23  -3   2 6593.01 1220.98   2
  20   3   2 5747.65 1044.81   4
  20   3   2 6464.44 1145.19   2
 -20  23   2 6276.69 810.458   1
 -23  20   2 4633.76 716.884   1
  -3 -20   2 3955.60 783.821   1
 -20  23   2 7132.92 1135.14   4
 -20  23   5 1061.99 811.680   4
   3 -23   5 810.716 778.050   3
 -23  20   5 676.576 743.591   1
   3 -23   5 1090.38 584.068   1
  23  -3   5 1798.30 778.886   3
  20   3   5 766.826 668.829   3
 -20  23   5 205.937 775.365   2
  23  -3   5 902.489 824.253   4
  20   3   5 604.144 800.748   4
  23  -3   5 1228.49 999.414   2
  20   3   5 698.204 926.979   2
  -3 -20   5 133.007 606.831   1
 -20  23   5 2193.07 848.894   1
  23  -2  -5 4199.17 1097.49   4
  21   2  -5 4424.29 992.794   4
  23  -2  -5 2979.32 643.138   2
  21   2  -5 3640.60 626.126   2
  21   2  -2 2160.10 827.893   4
   2 -23  -2 1525.04 359.503   3
  23  -2  -2 1835.25 866.917   3
  21   2  -2 3850.24 1049.82   3
  23  -2  -2 2826.12 914.069   4
  23  -2  -2 1892.87 823.461   2
  21   2  -2 1945.31 761.185   2
  -2 -21   1 1172.92 586.967   3
   2 -23   1 935.090 521.069   3
 -23  21   1 1062.80 433.338   1
  -2 -21   1 2081.59 713.464   1
  23  -2   1 1207.12 871.234   3
  21   2   1 642.540 693.647   3
 -21  23   1 1973.57 920.643   2
  23  -2   1 1919.31 909.620   4
  21   2   1 1459.86 858.118   4
  23  -2   1 1052.05 767.822   2
  21   2   1 772.045 761.672   2
 -21  23   1 1737.53 549.543   1
  -2 -21   4 842.348 793.875   3
   2 -23   4 794.004 721.966   3
 -23  21   4 330.987 609.915   1
  -2 -21   4 485.228 605.683   1
  23  -2   4 1308.02 724.114   3
  21   2   4 261.753 685.542   3
 -21  23   4-969.298 803.199   2
  23  -2   4-525.425 816.772   4
  21   2   4 737.928 731.407   4
   2 -23   4 876.064 645.123   1
  23  -2   4 1083.18 907.137   2
  21   2   4 1629.78 928.323   2
 -21  23   4 195.530 647.996   1
 -21  23   7 1493.31 943.347   1
  -2 -21   7 293.509 933.981   3
   2 -23   7 400.964 977.605   3
 -23  21   7 676.808 816.333   1
  23  -2   7 886.692 816.950   3
  -2 -21   7 936.339 793.457   1
 -21  23   7 2207.30 981.123   2
  23  -2   7 429.246 810.855   4
  21   2   7 1483.18 931.022   4
  23  -2   7 617.008 1016.71   2
  21   2   7 565.044 998.747   2
   2 -23   7 208.234 627.862   1
  23  -1  -6 1735.85 920.986   4
  22   1  -6 1251.50 887.803   4
  23  -1  -3 9566.42 1459.71   3
  23  -1  -3 8971.97 1342.61   4
  22   1  -3 7240.05 1242.29   4
  23  -1  -3 8592.12 1042.50   2
  22   1  -3 8738.99 1038.94   2
  -1 -22   0 4411.29 626.716   3
   1 -23   0 3222.11 585.484   3
 -22  23   0 2543.03 447.252   1
  23  -1   0 3842.58 1052.00   3
  22   1   0 3020.74 981.662   3
  23  -1   0 2799.19 920.286   4
  22   1   0 3793.26 969.915   4
  23  -1   0 3546.88 922.221   2
  22   1   0 4269.22 1026.47   2
 -23  22   0 3473.50 427.671   1
  -1 -22   3 7683.98 1050.91   3
   1 -23   3 7688.87 1060.93   3
   1 -23   3 5103.57 863.296   1
  22   1   3 6114.92 1052.56   3
 -22  23   3 7627.97 1208.88   2
  23  -1   3 3868.82 970.955   3
  22   1   3 7740.87 1205.05   4
  22   1   3 6936.70 1327.21   2
  23  -1   3 4339.12 952.955   4
 -22  23   3 6124.79 877.705   1
  23  -1   3 5570.03 1186.07   2
 -23  22   3 6718.32 906.288   1
  -1 -22   3 4714.69 877.197   1
   1 -23   6 732.948 604.220   1
 -22  23   6 2484.01 902.824   1
  -1 -22   6 3523.02 1014.74   3
   1 -23   6 2802.64 1019.00   3
 -23  22   6 1924.42 907.041   1
  23  -1   6 2611.08 854.343   3
  22   1   6 1116.19 826.627   3
 -22  23   6 2698.18 966.461   2
 -23  22   6 3757.31 1003.12   2
  23  -1   6 4025.73 1106.44   4
  22   1   6 2550.24 965.340   4
  23  -1   6 1746.77 1109.80   2
  22   1   6 2591.38 1147.98   2
  -1 -22   6 2607.66 789.584   1
  23   0  -4 2754.90 1054.13   4
  23   0  -4 2471.85 729.283   2
   0 -23  -1-115.214 333.409   3
  23   0  -1 1168.62 936.570   3
  23   0  -1 1997.75 988.950   4
  23   0  -1 117.109 690.926   2
   0 -23   2 3961.12 821.367   3
   0 -23   2 3876.51 835.058   1
  23   0   2 3304.86 979.280   3
  23   0   2 4386.91 1023.69   4
  23   0   2 4599.56 1065.51   2
 -23  23   2 4359.79 717.841   1
 -23  23   5-86.7328 757.043   1
   0 -23   5 846.356 807.082   3
   0 -23   5 783.013 664.661   1
  23   0   5 332.953 768.159   3
 -23  23   5-916.538 866.851   2
  23   0   5 109.122 783.108   4
  23   0   5-586.632 888.266   2
   0  24  -3-548.119 740.449   2
  24 -24  -3 725.942 883.842   3
   0  24  -3-206.941 715.649   4
   0  24   0 7238.82 1215.21   2
  24 -24   0 6920.51 1175.99   3
 -24   0   0 6188.70 893.955   1
   0  24   0 7668.58 1171.00   4
   0  24   3 1072.99 848.564   2
  24 -24   3-162.172 795.967   3
 -24   0   3 668.212 670.419   1
   0  24   3-210.600 754.335   4
   1  23  -4 1307.68 784.552   2
  -1  24  -4-686.344 757.511   2
  23 -24  -4 475.377 957.443   3
  24 -23  -4-1026.69 965.435   3
   1  23  -4-573.043 759.273   4
  -1  24  -4-197.160 686.189   4
   1  23  -1 2868.10 884.526   2
  -1  24  -1 638.440 760.125   2
  23 -24  -1 453.393 751.810   3
  24 -23  -1 2261.19 947.626   3
 -24   1  -1 763.493 567.184   1
 -23  -1  -1 2424.55 706.023   1
   1  23  -1 2207.89 889.548   4
  -1  24  -1 1442.13 800.588   4
 -24   1   2 572.784 603.076   1
 -23  -1   2-587.826 713.802   1
   1  23   2 1337.89 892.983   2
  -1  24   2-52.9619 780.172   2
  23 -24   2-458.901 687.351   3
  24 -23   2 424.107 666.182   3
   1  23   2-1315.51 862.954   4
  -1  24   2-612.559 751.461   4
   1  23   5 295.045 820.426   2
  -1  24   5 2654.25 1079.30   2
  23 -24   5 1024.04 886.965   3
  24 -23   5 2074.67 978.694   3
 -24   1   5 844.704 721.787   1
 -23  -1   5 853.019 655.677   1
   1  23   5 919.959 901.098   4
  -1  24   5 300.814 781.617   4
   2  22  -5 726.239 746.239   2
  -2  24  -5 2720.48 898.308   2
  22 -24  -5 1754.41 1091.54   3
  24 -22  -5 1951.02 1138.41   3
   2  22  -5 2222.35 824.856   4
  -2  24  -5 1263.29 741.078   4
   2  22  -2 852.288 732.612   2
  -2  24  -2 967.881 783.267   2
  22 -24  -2 639.415 790.641   3
  24 -22  -2 198.980 743.557   3
 -24   2  -2 1478.82 621.186   1
 -22  -2  -2 2285.83 783.859   1
   2  22  -2 665.336 722.579   4
  -2  24  -2 806.583 737.228   4
   2  22   1 1943.24 930.582   2
  -2  24   1 2213.77 898.132   2
 -24   2   1 1380.58 636.265   1
  22 -24   1 2396.99 808.023   3
  24 -22   1 3182.49 857.431   3
 -22  -2   1 2058.97 673.357   1
   2  22   1 2193.36 878.957   4
  -2  24   1 2127.99 851.216   4
   2  22   4 804.302 850.668   2
  -2  24   4-962.762 777.015   2
  22 -24   4 2016.97 890.686   3
  24 -22   4 783.819 755.536   3
 -24   2   4 604.027 629.012   1
 -22  -2   4 991.934 699.706   1
   2  22   4 2224.27 908.460   4
  -2  24   4 302.386 834.853   4
   3  21  -6 7532.16 1132.79   2
  -3  24  -6 8248.91 1272.26   2
  21 -24  -6 9241.90 1633.08   3
  24 -21  -6 9293.91 1651.68   3
   3  21  -6 9154.53 1176.26   4
  -3  24  -6 7383.00 1087.70   4
   3  21  -3 1485.07 742.348   2
  -3  24  -3 317.408 661.027   2
  21 -24  -3 589.380 728.720   3
  24 -21  -3-127.939 810.092   3
   3  21  -3 1088.49 723.047   4
  -3  24  -3 3260.31 896.536   4
   3  21   0 11000.4 1324.89   2
  -3  24   0 6262.70 1102.23   2
  21 -24   0 5554.21 979.208   3
  24 -21   0 9147.77 1245.19   3
 -24   3   0 6111.82 781.910   1
 -21  -3   0 6435.46 855.393   1
   3  21   0 9651.84 1286.44   4
  -3  24   0 10081.7 1307.68   4
   3  21   3 1310.41 816.501   2
  -3  24   3 226.549 779.115   2
  21 -24   3-130.290 668.708   3
  24 -21   3 369.205 716.319   3
 -24   3   3 1351.79 661.745   1
   3  21   3 575.491 826.047   4
  -3  24   3 1563.41 867.834   4
 -21  -3   3 347.660 599.279   1
   3  21   6 5143.12 1290.08   2
 -24   3   6 4797.48 1000.24   1
  -3  24   6 5593.33 1225.24   2
  21 -24   6 2226.85 1005.10   3
  24 -21   6 4073.07 980.093   3
 -21  -3   6 2583.41 856.379   1
  -3  24   6 7550.90 1286.02   4
   3  21   6 4842.34 1144.04   4
  20 -24  -7 682.632 1132.43   3
  24 -20  -7 2234.58 1215.58   3
   4  20  -7 569.347 666.206   4
  -4  24  -7 1913.61 746.326   4
   4  20  -4 1189.32 677.063   2
  -4  24  -4 1357.03 757.956   2
  20 -24  -4 946.388 838.817   3
  24 -20  -4 1547.15 973.574   3
   4  20  -4 1061.68 713.389   4
  -4  24  -4 1605.83 747.269   4
 -24   4  -1 547.766 493.413   1
   4  20  -1 2359.44 797.672   2
  -4  24  -1 917.683 810.641   2
  20 -24  -1 1028.04 692.514   3
  24 -20  -1 1847.04 823.296   3
 -20  -4  -1 1873.70 638.582   1
   4  20  -1 3344.80 895.329   4
  -4  24  -1 3554.32 912.762   4
   4  20   2 1445.26 842.572   2
  -4  24   2 1376.42 893.234   2
 -20  -4   2 392.530 611.905   1
  20 -24   2-237.121 640.654   3
  24 -20   2 840.259 695.705   3
 -24   4   2 1126.43 527.380   1
   4  20   2-534.094 770.410   4
  -4  24   2 125.573 716.545   4
   4  20   5 1908.16 988.524   2
 -24   4   5 3675.17 884.633   1
  -4  24   5 2644.11 1020.38   2
  20 -24   5 1890.11 821.394   3
  24 -20   5 1129.07 766.388   3
 -20  -4   5 1678.47 784.407   1
   4  20   5 896.473 771.535   4
  -4  24   5 1640.05 837.490   4
   5  19  -5 457.247 631.465   2
  19 -24  -5 2146.46 1091.42   3
  -5  24  -5 1602.31 777.155   2
  24 -19  -5 1617.51 1108.50   3
   5  19  -5 2170.65 779.796   4
  -5  24  -5 549.683 662.646   4
 -19  -5  -2 1304.90 618.955   1
 -24   5  -2 1113.57 536.765   1
   5  19  -2 1897.39 734.171   2
  19 -24  -2-209.297 669.178   3
  -5  24  -2 2410.90 872.685   2
  24 -19  -2 1031.95 763.252   3
   5  19  -2 3182.19 865.355   4
  -5  24  -2 1382.37 752.489   4
   5  19   1 3000.58 929.745   2
  -5  24   1 3104.73 944.015   2
  19 -24   1 2179.21 741.086   3
  24 -19   1 4301.15 979.128   3
 -19  -5   1 2341.76 656.429   1
   5  19   1 3436.80 947.972   4
  -5  24   1 3473.42 905.489   4
 -24   5   1 2751.00 648.393   1
   5  19   4 4354.32 1158.23   2
 -24   5   4 3059.90 758.102   1
  -5  24   4 1619.79 854.883   2
  19 -24   4 3573.05 901.815   3
  24 -19   4 3835.91 929.582   3
 -19  -5   4 2846.29 790.815   1
   5  19   4 4835.11 1020.68   4
  -5  24   4 2694.64 922.198   4
   5  19   7 3227.37 1149.89   2
  -5  24   7 3204.33 1135.73   2
  19 -24   7 2027.45 928.737   3
  24 -19   7 965.781 873.829   3
 -19  -5   7 559.830 793.748   1
   5  19   7 2428.10 944.911   4
  -5  24   7 1312.53 852.728   4
 -24   5   7 1896.52 875.018   1
   6  18  -6 3682.79 810.835   2
  18 -24  -6 5280.51 1197.79   3
  24 -18  -6 3988.38 1254.98   3
  -6  24  -6 3148.59 1038.13   2
   6  18  -6 3047.49 810.529   4
  -6  24  -6 4157.45 872.591   4
   6  18  -3 1971.37 720.274   2
  18 -24  -3 1186.93 715.015   3
  -6  24  -3 3527.82 863.594   2
  24 -18  -3 2897.53 942.508   3
   6  18  -3 975.402 697.196   4
  -6  24  -3 2084.17 802.793   4
  -6  24   0 8926.37 1223.41   2
 -24   6   0 4586.11 747.586   1
  18 -24   0 8778.74 1038.58   3
  24 -18   0 6628.29 1088.74   3
 -18  -6   0 5695.65 838.388   1
   6  18   0 10297.7 1257.21   4
  -6  24   0 7650.47 1114.03   4
   6  18   0 7953.75 1138.93   2
 -18  -6   3 2270.82 722.325   1
   6  18   3 2550.89 959.497   2
  18 -24   3 2267.41 711.088   3
  -6  24   3 2639.33 947.809   2
 -24   6   3 2089.54 629.707   1
  24 -18   3 2179.97 817.468   3
   6  18   3 1122.25 761.862   4
  -6  24   3 2207.07 853.548   4
   6  18   6 4183.63 1154.87   2
  18 -24   6 8431.92 1267.05   3
  24 -18   6 6903.60 1149.20   3
  -6  24   6 5560.42 1204.87   2
 -24   6   6 7496.75 1091.65   1
 -18  -6   6 3766.49 955.696   1
   6  18   6 6408.13 1185.80   4
  -6  24   6 5609.86 1105.20   4
  17 -24  -7 1689.32 1011.25   3
  24 -17  -7 1180.10 1117.43   3
   7  17  -7 1074.19 715.412   4
  -7  24  -7 1352.40 707.767   4
   7  17  -4 2428.73 694.384   2
  17 -24  -4 1763.92 892.557   3
  -7  24  -4 2109.91 920.173   2
  24 -17  -4 2073.89 984.091   3
   7  17  -4 2385.33 774.593   4
  -7  24  -4 2735.41 851.946   4
   7  17  -1-511.018 643.375   2
  17 -24  -1 570.093 622.778   3
  -7  24  -1 1399.00 796.589   2
  24 -17  -1 1692.53 748.880   3
   7  17  -1 1009.40 692.020   4
  -7  24  -1 612.618 753.997   4
 -17  -7  -1 397.422 558.383   1
 -24   7  -1 715.055 456.929   1
   7  17   2 72.1847 750.441   2
  17 -24   2-625.541 649.238   3
  -7  24   2 213.446 782.828   2
  24 -17   2 804.380 701.620   3
 -24   7   2-126.841 463.601   1
 -17  -7   2 29.2065 566.562   1
   7  17   2-1137.92 767.667   4
  -7  24   2 777.125 693.274   4
   7  17   5 1329.43 924.254   2
  17 -24   5 1013.09 787.888   3
  -7  24   5 2520.76 952.917   2
  24 -17   5 1029.87 772.725   3
 -17  -7   5 2056.56 797.446   1
   7  17   5 3403.18 976.418   4
  -7  24   5 938.770 769.411   4
 -24   7   5 738.148 630.673   1
   8  16  -5 1753.24 645.360   2
  16 -24  -5 158.293 811.245   3
  24 -16  -5 1435.06 990.034   3
  -8  24  -5 2433.46 897.390   2
   8  16  -5 1772.95 769.370   4
  -8  24  -5 1884.61 750.807   4
  16 -24  -2 5621.15 908.999   3
  24 -16  -2 5029.40 1136.37   3
  -8  24  -2 5108.14 995.215   2
 -16  -8  -2 6299.15 931.486   1
   8  16  -2 4800.17 917.593   4
  -8  24  -2 5488.02 992.505   4
   8  16  -2 5302.91 895.214   2
 -24   8  -2 5177.12 613.144   1
   8  16   1 3681.97 934.306   2
  16 -24   1 3364.60 762.565   3
  -8  24   1 4378.43 1001.02   2
  24 -16   1 3166.69 894.392   3
 -24   8   1 3560.60 575.238   1
   8  16   1 3812.97 922.365   4
  -8  24   1 5004.29 1051.32   4
 -16  -8   1 3376.19 694.654   1
  16 -24   4 6400.45 1061.99   3
  -8  24   4 3204.19 950.110   2
  24 -16   4 5234.50 947.118   3
 -24   8   4 5074.98 839.790   1
   8  16   4 5826.47 1059.93   4
   8  16   4 6986.32 1219.94   2
  -8  24   4 6830.29 1145.89   4
 -16  -8   4 4096.36 841.109   1
   8  16   7-141.132 959.231   2
  16 -24   7 2429.60 924.036   3
  -8  24   7 138.113 839.546   2
  24 -16   7 1452.01 923.243   3
 -16  -8   7 2870.06 934.428   1
 -24   8   7 1665.60 822.844   1
   8  16   7 4783.55 1169.27   4
  -8  24   7 2021.57 893.507   4
   9  15  -6 5359.32 784.100   2
  24 -15  -6 7363.05 1451.88   3
  15 -24  -6 5297.70 1109.91   3
   9  15  -6 6134.68 948.556   4
  -9  24  -6 5661.14 933.011   4
  15 -24  -3 3769.53 859.057   3
  -9  24  -3 4353.29 948.867   2
  24 -15  -3 2423.37 913.567   3
   9  15  -3 4334.26 890.114   4
  -9  24  -3 5063.45 891.733   4
   9  15  -3 5262.21 842.677   2
 -24   9   0 4824.55 661.562   1
  -9  24   0 6086.10 1074.30   2
  15 -24   0 3873.66 780.253   3
  24 -15   0 5628.20 1027.14   3
 -15  -9   0 3241.07 710.977   1
   9  15   0 6751.29 999.941   4
  -9  24   0 5957.46 988.748   4
   9  15   0 5303.02 986.561   2
   9  15   3 477.323 704.006   2
 -24   9   3 143.113 496.022   1
 -15  -9   3 235.121 688.201   1
  15 -24   3 1424.78 724.189   3
  -9  24   3 29.9085 713.118   2
  24 -15   3 85.2674 690.214   3
   9  15   3 1431.19 795.156   4
  -9  24   3 1830.78 878.096   4
  15 -24   6 1467.18 781.117   3
  -9  24   6 1407.02 917.209   2
  24 -15   6 1351.23 893.047   3
 -15  -9   6 1468.66 764.777   1
 -24   9   6 2032.20 828.778   1
   9  15   6 2168.93 868.076   4
  -9  24   6 855.234 731.958   4
   9  15   6 4048.00 1197.33   2
  24 -14  -7 916.519 1034.03   3
  14 -24  -7 1064.23 868.652   3
  10  14  -7 743.136 736.478   4
 -10  24  -7 605.719 622.869   4
  10  14  -4 1509.36 604.637   2
  14 -24  -4 2585.40 797.512   3
  24 -14  -4 1469.87 939.535   3
 -10  24  -4 2426.36 843.891   2
  10  14  -4 2161.31 790.924   4
 -10  24  -4 2421.94 726.212   4
  10  14  -1 930.651 718.430   2
 -14 -10  -1 390.033 534.558   1
  14 -24  -1 1841.66 637.929   3
 -14 -10  -1 60.4029 480.985   3
 -10  24  -1-626.483 672.684   2
  24 -14  -1-939.609 710.289   3
 -24  10  -1-459.475 372.480   1
  10  14  -1-498.916 668.062   4
 -10  24  -1 1413.27 737.259   4
  14 -24   2 2381.20 700.638   3
 -10  24   2 2332.36 810.215   2
  24 -14   2 2939.70 786.308   3
 -24  10   2 4005.20 617.591   1
 -14 -10   2 2839.21 716.724   1
  10  14   2 3822.17 903.156   4
 -10  24   2 4131.87 945.209   4
  10  14   2 4046.45 873.794   2
  14 -24   5 2050.91 769.888   3
 -10  24   5 884.730 859.983   2
  24 -14   5-777.597 701.517   3
 -24  10   5 954.710 653.571   1
  10  14   5 1600.48 845.375   4
 -14 -10   5 134.803 622.647   1
 -10  24   5 679.780 696.097   4
  10  14   5 1608.95 873.569   2
  11  13  -5 2309.50 658.104   2
  13 -24  -5 467.037 770.259   3
  24 -13  -5 3555.73 1211.96   3
 -11  24  -5 3865.25 1008.76   2
  11  13  -5 1983.64 750.745   4
 -11  24  -5 2726.43 795.729   4
 -24  11  -2 4024.44 434.768   1
 -13 -11  -2 4318.00 567.552   3
  13 -24  -2 3213.66 704.573   3
  24 -13  -2 3902.01 1034.25   3
 -11  24  -2 3669.09 921.129   2
  11  13  -2 5436.91 970.729   4
 -13 -11  -2 4256.34 807.350   1
  11  13  -2 5740.76 882.094   2
 -11  24  -2 3866.74 875.677   4
 -13 -11   1 3437.69 725.622   1
  13 -24   1 1329.58 578.833   3
 -24  11   1 1904.14 506.248   1
  24 -13   1 1645.02 779.306   3
 -11  24   1 2051.25 816.275   2
  11  13   1 2484.39 856.981   4
 -11  24   1 2535.81 814.552   4
  11  13   1 2386.14 826.213   2
 -13 -11   4 4268.44 859.332   1
 -11  24   4 6005.66 1149.97   2
  13 -24   4 4040.40 872.303   3
  24 -13   4 2862.83 871.110   3
  11  13   4 3688.69 954.891   4
 -24  11   4 3014.47 714.899   1
  11  13   4 4279.24 1103.59   2
 -11  24   4 2753.82 883.328   4
  13 -24   7 227.561 777.464   3
  24 -13   7 932.378 779.708   3
 -11  24   7 416.127 834.436   2
 -13 -11   7-736.933 760.451   1
 -24  11   7 482.619 774.350   1
  11  13   7 794.975 828.261   4
  11  13   7 472.873 865.901   2
 -11  24   7 1173.17 850.452   4
 -12  24  -6 1910.03 692.150   4
  12 -24  -6 2069.64 732.222   3
  12  12  -6 1796.66 712.200   4
  12  12  -3 1832.26 641.070   2
  12 -24  -3 2350.88 675.731   3
  24 -12  -3 1075.83 843.937   3
 -12  24  -3 2282.77 773.530   2
  12  12  -3 2332.03 810.953   4
 -12  24  -3 2699.60 786.094   4
  12 -24   0 1821.35 542.785   3
  24 -12   0 2234.02 823.169   3
 -12  24   0 1566.34 847.224   2
 -24  12   0 1306.49 413.263   1
  12  12   0 1934.74 762.434   4
 -12 -12   0 839.588 554.886   1
  24 -12   0 1587.12 550.716   1
 -12  24   0 1435.59 769.511   4
  12  12   0 2257.36 784.600   2
  12 -24   3 3586.42 786.979   3
  24 -12   3 817.318 651.379   3
 -12  24   3 2239.45 822.594   2
 -12 -12   3 1860.73 690.015   1
  12  12   3 2612.23 766.539   4
 -24  12   3 2848.32 651.216   1
  12  12   3 2062.28 859.312   2
 -12  24   3 3782.77 903.722   4
  12 -24   6 214.181 734.384   3
  24 -12   6 1659.67 829.959   3
 -12  24   6 3058.98 1047.22   2
  12 -24   6 694.351 455.884   1
 -24  12   6 2819.45 852.146   1
 -12 -12   6 1221.24 730.469   1
  12  12   6 3670.80 980.775   4
  12  12   6 2585.47 1030.56   2
 -12  24   6 3224.86 1052.73   4
  24 -11  -7 1621.16 1024.15   3
  13  11  -7-113.635 636.093   4
  11 -24  -4 3697.76 840.334   3
  24 -11  -4 3142.76 1029.83   3
 -13  24  -4 4938.72 991.891   2
  13  11  -4 3858.32 864.455   4
  13  11  -4 4053.47 691.697   2
 -13  24  -4 4573.18 877.874   4
 -11 -13  -1 1884.40 666.207   1
  11 -24  -1 2275.73 578.694   3
 -11 -13  -1 716.856 460.851   3
 -24  13  -1 1360.99 366.244   1
  24 -11  -1 1636.90 846.134   3
 -13  24  -1 2994.61 897.112   2
  13  11  -1 1398.18 725.279   4
 -13  24  -1 2662.83 790.530   4
  13  11  -1 1894.92 686.940   2
  11 -24   2 5965.57 869.415   3
 -24  13   2 4582.52 644.310   1
  24 -11   2 3872.30 865.565   3
 -13  24   2 4822.73 983.133   2
  13  11   2 6088.58 1061.71   4
 -13  24   2 6664.16 1117.93   4
  13  11   2 5630.78 996.713   2
 -11 -13   2 3499.76 748.266   1
  11 -24   5 2637.26 948.019   3
  11 -24   5 2044.31 570.121   1
  24 -11   5 1624.91 846.482   3
 -13  24   5 1989.62 931.040   2
 -24  13   5 1491.59 722.793   1
  13  11   5 3067.05 961.718   4
  13  11   5 2311.45 958.885   2
 -11 -13   5 1521.32 726.429   1
 -13  24   5 2907.37 938.193   4
 -14  24  -5 1259.49 721.375   4
  14  10  -5 901.424 478.305   2
  10 -24  -5 26.4134 595.049   3
  24 -10  -5 2050.80 1110.58   3
  14  10  -5 1494.45 754.117   4
 -10 -14  -2 2427.60 371.992   3
  10 -24  -2 2259.32 600.227   3
  24 -10  -2 4042.63 1085.81   3
 -14  24  -2 2393.26 842.697   2
  14  10  -2 4297.25 892.282   4
 -14  24  -2 3348.65 805.053   4
  14  10  -2 4053.50 781.083   2
 -24  14   1 1235.21 431.778   1
  24 -10   1-126.093 483.762   1
  10 -24   1 432.677 497.723   3
  24 -10   1 1665.11 879.880   3
 -10 -14   1 1046.14 623.751   1
 -14  24   1 42.6479 709.066   2
  14  10   1 1731.87 678.744   4
  14  10   1 1406.50 744.204   2
 -14  24   1-768.572 707.738   4
  10 -24   4 1812.85 702.104   3
 -10 -14   4 702.490 684.701   1
  10 -24   4 1717.38 550.695   1
  24 -10   4 3616.14 858.471   3
 -14  24   4 2219.24 870.658   2
 -24  14   4 3103.85 738.249   1
  14  10   4 1682.52 769.551   4
  14  10   4 1095.85 758.037   2
 -14  24   4 1116.04 791.600   4
  10 -24   7-734.221 842.057   3
  24 -10   7 500.575 814.512   3
  10 -24   7 731.557 554.435   1
 -14  24   7 1618.52 877.171   2
 -24  14   7-310.388 825.471   1
  24 -10   7-277.120 746.219   4
 -10 -14   7 292.669 731.338   1
 -14  24   7 1406.94 970.485   1
  14  10   7 436.497 775.933   4
  14  10   7-462.760 850.954   2
 -14  24   7 1950.53 899.311   4
  24  -9  -6 2110.74 1118.04   3
  15   9  -6 1486.05 724.538   4
  15   9  -3 1494.33 619.484   2
   9 -24  -3 566.322 509.829   3
  24  -9  -3 2336.52 953.082   3
 -15  24  -3 675.297 752.328   2
  15   9  -3 536.658 667.707   4
 -15  24  -3 654.401 639.298   4
  -9 -15   0 5567.63 840.289   1
   9 -24   0 4883.50 735.276   3
  24  -9   0 3530.19 930.186   3
  -9 -15   0 3852.81 720.362   3
 -15  24   0 4477.08 996.286   2
  15   9   0 5575.06 1007.99   4
 -24  15   0 5665.43 515.073   1
  15   9   0 4573.06 932.359   2
 -15  24   0 4131.76 943.676   4
   9 -24   3 3268.23 758.684   3
 -24  15   3 4809.88 712.038   1
  24  -9   3 3525.60 859.458   3
 -15  24   3 4080.36 920.808   2
  15   9   3 6446.14 1174.41   2
  15   9   3 3913.21 938.964   4
  -9 -15   3 3972.57 791.374   1
 -15  24   3 6121.56 1064.90   4
   9 -24   6 7286.25 1186.70   3
 -24  15   6 9080.16 1145.66   1
 -15  24   6 7119.64 1253.53   2
  24  -9   6 5622.23 1039.78   3
  24  -9   6 7537.08 1212.17   4
 -15  24   6 6689.16 1237.85   1
  15   9   6 6313.57 1126.81   4
  15   9   6 7702.51 1355.43   2
   9 -24   6 4317.26 716.288   1
 -15  24   6 7193.85 1217.41   4
  -9 -15   6 4275.41 935.586   1
  16   8  -7 874.474 688.941   4
 -16  24  -4 3545.37 863.872   4
   8 -24  -4 3712.06 690.897   3
  24  -8  -4 5404.75 1236.08   3
  16   8  -4 4562.09 923.390   4
  16   8  -4 5747.85 762.883   2
 -24  16  -1 1367.76 250.682   1
   8 -24  -1 2566.72 537.205   3
  -8 -16  -1 3446.86 571.182   3
  -8 -16  -1 2721.93 742.483   1
  24  -8  -1 2841.57 956.260   3
 -16  24  -1 4082.50 1024.39   2
  16   8  -1 2961.81 820.004   4
  16   8  -1 4696.14 893.731   2
 -16  24  -1 4530.93 959.229   4
   8 -24   2 6359.16 891.253   3
 -24  16   2 6628.65 724.043   1
 -16  24   2 6576.68 1141.64   2
  24  -8   2 7203.16 1093.28   3
  16   8   2 5832.45 1023.98   4
  -8 -16   2 5824.84 866.780   1
  16   8   2 6533.02 1106.33   2
 -16  24   2 6325.44 1082.82   4
   8 -24   5 1428.04 565.473   1
   8 -24   5 193.850 670.931   3
  -8 -16   5 389.439 713.349   1
  24  -8   5 1746.83 760.001   3
 -24  16   5 2178.89 752.290   1
 -16  24   5 1823.02 850.092   2
  24  -8   5 1961.67 853.231   4
  16   8   5 1704.17 831.741   4
 -16  24   5 1809.04 856.169   1
  16   8   5 816.995 902.746   2
 -16  24   5 2025.20 913.116   4
  17   7  -5 1202.58 481.907   2
  24  -7  -5 1606.34 1049.46   3
  17   7  -5 1947.54 811.413   4
 -17  24  -2 78.2875 640.002   4
  -7 -17  -2 309.398 157.701   3
   7 -24  -2-388.737 419.183   3
  24  -7  -2 1007.12 894.563   3
 -17  24  -2 729.483 733.725   2
  17   7  -2 1320.10 679.357   4
  17   7  -2 1038.93 608.186   2
   7 -24   1 1242.35 555.426   3
  24  -7   1 1146.72 859.489   3
 -17  24   1 1406.85 894.872   2
  17   7   1-258.085 703.319   4
 -24  17   1 183.068 340.230   1
  17   7   1 1164.67 723.218   2
  -7 -17   1-623.382 610.497   1
 -17  24   1 473.453 697.550   4
   7 -24   4 3521.53 865.195   3
  24  -7   4 2430.32 803.093   3
 -24  17   4 2708.73 724.204   1
 -17  24   4 2032.41 809.564   2
  17   7   4 1536.69 543.784   3
   7 -24   4 2621.91 628.378   1
  17   7   4 4119.32 936.308   4
  -7 -17   4 3162.73 802.788   1
 -17  24   4 2298.81 774.148   1
  17   7   4 2813.07 980.503   2
 -17  24   4 5408.57 1095.68   4
 -17  24   7 2252.08 913.867   4
   7 -24   7-893.046 624.587   1
   7 -24   7-543.075 835.669   3
  24  -7   7 1120.38 789.732   3
 -24  17   7 2171.77 934.000   1
 -17  24   7 727.383 924.215   2
  24  -7   7 487.190 771.063   4
  24  -7   7 2232.10 1191.52   2
  17   7   7 604.517 825.026   4
 -17  24   7-451.657 881.823   1
  17   7   7 2596.53 1183.85   2
  -7 -17   7-907.075 741.273   1
  18   6  -6 3828.92 951.248   4
 -18  24  -3 3407.65 900.009   4
   6 -24  -3 1772.20 515.379   3
  24  -6  -3 1085.51 948.777   3
  18   6  -3 1841.17 806.302   4
  18   6  -3 1857.29 649.990   2
  -6 -18   0 7749.89 762.726   3
   6 -24   0 8676.47 840.364   3
 -18  24   0 8396.16 1234.88   2
  24  -6   0 8385.36 1286.20   3
 -24  18   0 7697.40 493.784   1
  -6 -18   0 7485.41 974.360   1
  18   6   0 10315.1 1266.96   4
  18   6   0 11968.2 1326.31   2
 -18  24   0 10279.3 1263.57   4
 -18  24   3 2725.00 921.197   4
  -6 -18   3 2323.02 655.614   1
   6 -24   3 2116.17 665.967   3
 -24  18   3 2276.37 632.925   1
  24  -6   3 2753.65 827.636   3
 -18  24   3 1455.06 881.042   2
  18   6   3 2053.17 619.641   3
   6 -24   3 1432.50 563.026   1
  18   6   3 2245.46 826.009   4
 -18  24   3 2689.93 791.337   1
  18   6   3 1286.52 909.911   2
 -18  24   6 5063.06 1118.11   4
   6 -24   6 5224.27 1131.58   3
  -6 -18   6 4045.25 978.248   1
 -24  18   6 4085.14 998.828   1
   6 -24   6 3453.32 737.553   1
  24  -6   6 3005.50 893.961   3
 -18  24   6 3650.02 1006.18   2
  24  -6   6 4456.72 1073.39   4
  24  -6   6 5401.62 1238.26   2
  18   6   6 5303.62 1112.61   4
  18   6   6 3292.76 1127.31   2
 -18  24   6 4841.14 1113.02   1
  19   5  -7 2760.31 913.986   4
  24  -5  -4 4046.61 1239.02   3
  24  -5  -4 3292.86 765.470   2
  19   5  -4 3638.62 918.914   4
  19   5  -4 3148.82 656.013   2
 -19  24  -1 4389.25 975.535   4
  -5 -19  -1 4349.27 505.590   3
   5 -24  -1 3499.18 565.505   3
  24  -5  -1 3369.07 1036.86   3
 -19  24  -1 2926.99 903.700   2
  19   5  -1 3642.96 901.151   4
 -19  24  -1 2632.27 475.701   1
  19   5  -1 3305.89 854.654   2
 -19  24   2 1811.20 885.222   4
   5 -24   2 69.9876 512.440   3
 -24  19   2 1085.95 518.023   1
  24  -5   2-73.6354 685.203   3
 -19  24   2 1022.40 725.814   2
  19   5   2 511.836 580.107   3
  24  -5   2 495.582 723.382   2
  19   5   2 1022.77 763.029   4
  -5 -19   2 1383.83 646.591   1
 -19  24   2 2040.01 645.640   1
  19   5   2 1797.17 888.726   2
 -19  24   5 724.954 769.353   4
   5 -24   5 1963.86 765.635   3
 -24  19   5 1025.29 690.871   1
  24  -5   5 1682.52 779.734   3
 -19  24   5-24.7036 796.636   2
  19   5   5 1854.19 682.094   3
  24  -5   5 1963.36 917.350   4
   5 -24   5 1999.37 692.880   1
  24  -5   5 760.762 920.782   2
  19   5   5 1028.85 792.697   4
  -5 -19   5 112.999 599.294   1
  19   5   5 1613.81 960.282   2
 -19  24   5 812.686 734.256   1
  24  -4  -5 489.497 1003.80   3
  20   4  -5 315.267 814.714   4
  24  -4  -5 708.857 598.772   2
  20   4  -5 1611.46 530.170   2
  20   4  -2 742.939 830.316   4
   4 -24  -2 1433.36 455.387   3
  24  -4  -2 2810.78 1035.95   3
  24  -4  -2 1660.40 746.886   2
  20   4  -2 830.037 673.822   2
 -20  24   1 1210.72 730.852   4
  -4 -20   1 1664.57 594.563   3
   4 -24   1 3171.77 645.722   3
 -24  20   1 1903.03 430.751   1
  24  -4   1 1597.09 842.840   3
 -20  24   1 1497.32 877.669   2
  20   4   1 2100.32 783.379   3
  24  -4   1 3266.98 1015.32   4
  24  -4   1 3207.72 1008.45   2
  20   4   1 1677.20 785.194   4
  -4 -20   1 1341.67 669.999   1
  20   4   1 3085.24 909.409   2
 -20  24   1 1923.99 565.010   1
 -20  24   4 825.588 757.948   4
   4 -24   4 419.011 637.084   1
  -4 -20   4 3478.37 788.814   1
   4 -24   4 922.916 696.866   3
 -24  20   4 1717.62 751.320   1
  24  -4   4-157.930 721.210   3
 -20  24   4 1102.40 817.777   2
  20   4   4 183.886 614.749   3
  24  -4   4 895.251 710.483   4
  24  -4   4-628.319 1006.88   2
  20   4   4 1311.07 841.732   4
  20   4   4 850.051 881.060   2
 -20  24   4 657.960 716.597   1
   4 -24   7 948.020 700.281   1
  -4 -20   7 1992.55 872.109   1
  24  -4   7 522.915 778.587   3
 -20  24   7 239.278 920.283   2
  24  -4   7 2836.64 1024.16   4
  24  -4   7 235.365 1000.14   2
  20   4   7 791.153 845.406   4
  20   4   7 1312.90 1009.14   2
  24  -3  -6 5724.95 1277.75   4
  21   3  -6 3060.89 948.217   4
  24  -3  -3 1485.51 1011.57   3
  24  -3  -3 1110.02 800.515   4
  21   3  -3 588.151 806.604   4
  24  -3  -3 1214.00 738.466   2
  21   3  -3 1420.19 695.374   2
  -3 -21   0 9533.60 800.117   3
   3 -24   0 10476.9 869.591   3
 -24  21   0 7158.05 490.051   1
  24  -3   0 7770.22 1257.41   3
  21   3   0 7754.93 1138.71   3
  -3 -21   0 9754.40 1185.23   1
 -21  24   0 6954.11 1181.53   2
  24  -3   0 11468.6 1469.15   4
  24  -3   0 10521.9 1326.02   2
  21   3   0 9465.14 1277.54   4
  21   3   0 10778.7 1323.44   2
 -21  24   0 8400.76 712.200   1
 -21  24   3 1749.78 840.390   4
  -3 -21   3 902.166 678.916   3
   3 -24   3 2184.79 785.153   3
 -24  21   3 1058.01 605.885   1
  24  -3   3 1535.90 856.689   3
  21   3   3 1515.46 789.983   3
 -21  24   3 291.096 746.408   2
  -3 -21   3 1248.86 671.534   1
  24  -3   3 742.574 847.743   4
  21   3   3 1938.02 884.225   4
  24  -3   3 601.801 856.154   2
  21   3   3 1.13699 816.533   2
   3 -24   3 586.016 607.528   1
 -21  24   3 2310.94 786.013   1
   3 -24   6 10554.1 1467.93   3
  24  -3   6 8820.23 1210.60   3
 -21  24   6 10685.1 1401.10   2
  -3 -21   6 7489.67 1046.39   1
   3 -24   6 8537.53 1085.32   1
  24  -3   6 10921.2 1437.58   4
  24  -3   6 10444.9 1656.86   2
  21   3   6 14013.3 1585.35   4
  21   3   6 11171.1 1662.21   2
 -21  24   6 13040.6 1459.70   1
 -24  21   6 9951.05 1324.14   1
  24  -2  -4 1094.06 994.463   3
  24  -2  -4 25.5561 807.658   4
  22   2  -4 304.149 766.107   4
  24  -2  -4 1718.54 699.947   2
  22   2  -4 399.737 569.474   2
  -2 -22  -1 2433.08 423.096   3
 -22  24  -1 1219.54 233.922   1
   2 -24  -1 2327.07 474.160   3
  24  -2  -1 1843.03 910.947   3
  22   2  -1 1461.56 813.902   3
  24  -2  -1 2400.14 958.021   4
  22   2  -1 2923.02 896.743   4
  24  -2  -1 2166.07 816.417   2
  22   2  -1 1420.76 742.483   2
  -2 -22   2 3763.98 803.629   3
   2 -24   2 1128.28 618.980   3
 -24  22   2 903.679 512.105   1
  -2 -22   2 1240.45 707.701   1
  24  -2   2 879.003 853.562   3
  22   2   2-369.722 725.576   3
 -22  24   2 1015.64 879.030   2
  24  -2   2 2525.97 927.386   4
  22   2   2 193.468 792.379   4
  24  -2   2 466.759 887.736   2
  22   2   2 1306.23 871.589   2
   2 -24   2 2814.97 820.192   1
 -22  24   2 605.550 526.185   1
 -22  24   5 731.433 750.927   1
  -2 -22   5-174.931 792.668   3
  -2 -22   5 1286.06 612.502   1
   2 -24   5 1997.13 903.768   3
 -24  22   5 409.563 712.213   1
  24  -2   5 1101.38 790.257   3
   2 -24   5 372.680 616.155   1
  22   2   5 1344.79 819.374   3
 -22  24   5 1149.55 797.614   2
  24  -2   5 1142.86 818.236   4
  22   2   5 1802.29 886.389   4
  24  -2   5 1599.96 1023.72   2
  22   2   5 2650.33 1152.99   2
  24  -1  -5 934.090 916.206   4
  23   1  -5 501.533 882.663   4
  24  -1  -2 1714.04 939.269   3
  23   1  -2 298.372 883.767   3
  24  -1  -2 2200.95 957.416   4
  23   1  -2 809.455 812.336   4
  24  -1  -2 997.891 734.070   2
  23   1  -2 1510.67 771.077   2
 -23  24   1 508.779 461.638   1
  -1 -23   1 859.270 552.905   3
   1 -24   1 822.086 533.980   3
 -24  23   1 688.989 426.034   1
  24  -1   1 2043.25 932.862   3
  23   1   1 517.726 708.800   3
  24  -1   1 240.983 747.844   4
  23   1   1 14.3395 731.883   4
  -1 -23   1 1202.58 775.489   1
  24  -1   1 2918.60 1025.04   2
  23   1   1 1581.45 837.461   2
 -23  24   4 130.473 719.097   1
  -1 -23   4 379.587 773.448   3
   1 -24   4-351.977 751.686   3
 -24  23   4 766.859 661.818   1
  24  -1   4 1247.51 870.061   3
  23   1   4 242.783 771.024   3
 -23  24   4 1480.38 831.303   2
  -1 -23   4 603.513 624.249   1
  24  -1   4 1974.87 904.974   4
  23   1   4 1338.26 864.660   4
  24  -1   4-188.939 941.631   2
  23   1   4 642.468 938.343   2
   1 -24   4-238.160 616.067   1
  24   0  -3-324.083 837.593   4
  24   0  -3-8.84904 649.961   2
   0 -24   0 6964.64 756.834   3
  24   0   0 9107.17 1361.41   3
  24   0   0 8129.67 1293.87   4
  24   0   0 8984.94 1329.13   2
 -24  24   0 5862.39 496.700   1
   0 -24   3 297.096 661.430   3
 -24  24   3-233.741 645.538   1
   0 -24   3 605.940 680.168   1
  24   0   3-20.9042 754.501   3
  24   0   3-89.8185 744.180   4
  24   0   3-191.008 867.910   2
   0  25  -4 934.830 843.282   2
  25 -25  -4 2464.33 1080.34   3
   0  25  -4 2263.89 925.769   4
   0  25  -1 566.993 833.984   2
  25 -25  -1 209.648 732.420   3
 -25   0  -1 20.1709 606.973   1
   0  25  -1 756.557 729.503   4
   0  25   2 2917.98 949.829   2
 -25   0   2 1613.64 729.262   1
  25 -25   2 2144.42 922.853   3
   0  25   2 4575.39 1161.90   4
   1  24  -5 1866.14 858.008   2
  -1  25  -5 1709.73 870.788   2
  24 -25  -5-638.263 1038.20   3
  25 -24  -5 2569.51 1167.97   3
   1  24  -5 1464.90 784.780   4
  -1  25  -5 1628.02 837.875   4
   1  24  -2 1843.86 818.221   2
  -1  25  -2 2812.96 949.841   2
  24 -25  -2 1402.65 863.786   3
  25 -24  -2 2328.11 921.176   3
 -25   1  -2 1861.52 723.840   1
   1  24  -2 3357.50 948.334   4
  -1  25  -2 2449.15 917.178   4
 -24  -1  -2 3336.12 843.671   1
   1  24   1 2910.14 1001.33   2
  -1  25   1 1220.63 899.560   2
  24 -25   1 2506.73 901.751   3
  25 -24   1 2668.70 992.990   3
 -25   1   1 851.484 608.903   1
 -24  -1   1 1011.56 626.492   1
   1  24   1 2542.13 959.017   4
  -1  25   1 891.318 833.999   4
   1  24   4 103.354 986.642   2
  -1  25   4 1051.13 871.439   2
  24 -25   4 786.134 801.970   3
  25 -24   4 1576.21 890.654   3
 -25   1   4 200.892 642.195   1
 -24  -1   4 1569.03 750.108   1
   1  24   4 583.824 927.040   4
  -1  25   4-258.060 826.481   4
  -2  25  -3 7733.78 1219.70   2
   2  23  -3 3906.06 962.100   2
  23 -25  -3 5954.94 1184.93   3
  25 -23  -3 1944.21 934.023   3
   2  23  -3 9693.34 1318.78   4
  -2  25  -3 6456.44 1060.70   4
 -23  -2   0 3894.84 777.810   1
   2  23   0 3660.73 982.178   2
  -2  25   0 1297.73 862.176   2
  23 -25   0 3817.66 971.953   3
  25 -23   0 3189.08 932.351   3
   2  23   0 3859.59 947.491   4
  -2  25   0 3704.45 995.091   4
 -25   2   0 2650.44 702.646   1
 -23  -2   3 4217.31 940.167   1
  23 -25   3 7523.74 1221.66   3
  -2  25   3 6490.81 1223.35   2
  25 -23   3 5586.89 1085.12   3
   2  23   3 8049.13 1323.04   4
  -2  25   3 8339.55 1298.97   4
 -25   2   3 6084.42 918.799   1
   2  23   3 6783.09 1320.31   2
   3  22  -4 1693.04 788.837   2
  -3  25  -4 2413.55 921.667   2
  22 -25  -4 1534.06 1020.38   3
  25 -22  -4 1533.85 986.946   3
   3  22  -4 385.976 707.895   4
  -3  25  -4 249.806 707.671   4
   3  22  -1 1542.39 785.879   2
  -3  25  -1-420.982 750.124   2
  22 -25  -1 969.020 719.565   3
 -25   3  -1 1366.09 586.368   1
  25 -22  -1 1675.88 812.113   3
 -22  -3  -1 741.899 637.372   1
   3  22  -1 1686.04 848.632   4
  -3  25  -1 858.928 816.264   4
   3  22   2 359.576 819.976   2
  -3  25   2 1350.46 940.921   2
  22 -25   2 211.709 717.707   3
 -22  -3   2 621.088 614.781   1
  25 -22   2 1985.31 841.221   3
   3  22   2 2194.96 923.548   4
  -3  25   2 111.280 700.093   4
 -25   3   2 1905.28 728.631   1
   3  22   5 509.239 835.613   2
  -3  25   5 134.631 842.053   2
  22 -25   5-354.163 775.924   3
  25 -22   5 891.008 842.158   3
 -25   3   5 3133.59 849.178   1
 -22  -3   5 1725.00 792.719   1
   3  22   5 1547.09 874.625   4
  -3  25   5-42.5648 808.730   4
   4  21  -5 2065.55 827.432   2
  -4  25  -5 175.897 764.341   2
  21 -25  -5 271.777 998.965   3
  25 -21  -5 3287.24 1195.79   3
   4  21  -5 1803.02 834.300   4
  -4  25  -5 1532.36 786.490   4
 -21  -4  -2 1464.05 670.670   1
   4  21  -2 1940.89 800.218   2
 -25   4  -2 2833.92 716.874   1
  -4  25  -2 2297.93 904.187   2
  21 -25  -2 3590.20 905.950   3
  25 -21  -2 3459.52 999.192   3
   4  21  -2 4069.04 972.089   4
  -4  25  -2 4322.29 945.275   4
   4  21   1 3002.23 872.947   2
 -25   4   1 1142.57 638.100   1
  -4  25   1 1549.69 861.137   2
  21 -25   1 1029.02 736.816   3
  25 -21   1 2997.11 942.733   3
   4  21   1 1386.64 835.027   4
 -21  -4   1 2049.62 709.094   1
  -4  25   1 3468.77 966.709   4
   4  21   4 4331.51 1177.91   2
  -4  25   4 4083.31 1073.27   2
  21 -25   4 4188.60 1039.30   3
  25 -21   4 1306.71 875.119   3
 -25   4   4 2652.31 792.542   1
 -21  -4   4 3281.47 870.374   1
   4  21   4 4300.18 1078.02   4
  -4  25   4 3564.55 1031.38   4
   5  20  -6 458.937 719.567   2
  20 -25  -6 729.434 1117.57   3
  25 -20  -6 1926.81 1165.29   3
  -5  25  -6 34.1169 833.024   2
   5  20  -6 1290.11 759.904   4
  -5  25  -6-692.092 753.876   4
   5  20  -3 6592.77 1017.06   2
  -5  25  -3 9014.02 1269.87   2
  20 -25  -3 6702.87 1117.73   3
  25 -20  -3 8061.69 1399.03   3
   5  20  -3 11032.0 1304.92   4
  -5  25  -3 8224.90 1156.26   4
   5  20   0 2254.08 874.007   2
 -20  -5   0 2107.49 666.673   1
  -5  25   0 3638.77 984.329   2
  20 -25   0 2333.00 775.154   3
  25 -20   0 820.642 746.731   3
 -25   5   0 2327.84 655.568   1
   5  20   0 3116.78 901.911   4
  -5  25   0 3824.76 995.610   4
 -20  -5   3 6336.20 959.718   1
  20 -25   3 7545.24 1129.78   3
  25 -20   3 7193.50 1129.67   3
  -5  25   3 5542.23 1127.97   2
   5  20   3 7650.80 1221.44   4
 -25   5   3 7833.76 926.170   1
  -5  25   3 9193.13 1345.33   4
   5  20   3 9570.07 1323.69   2
   5  20   6 5117.65 1311.82   2
 -25   5   6 3986.85 959.691   1
  -5  25   6 1767.04 949.623   2
  20 -25   6 3260.43 961.076   3
  25 -20   6 2991.48 1039.11   3
 -20  -5   6 4374.23 946.961   1
   5  20   6 2299.87 1006.22   4
  -5  25   6 4357.94 1171.67   4
   6  19  -4 2481.56 749.626   2
  19 -25  -4 2078.96 940.822   3
  -6  25  -4 1575.91 869.775   2
  25 -19  -4 3280.44 1117.14   3
   6  19  -4 2312.37 898.803   4
  -6  25  -4 608.188 752.259   4
 -25   6  -1 1135.04 500.100   1
   6  19  -1 1132.36 680.618   2
  19 -25  -1 847.802 616.985   3
  -6  25  -1 487.643 678.720   2
  25 -19  -1 578.971 774.791   3
   6  19  -1 1670.88 829.407   4
  -6  25  -1 1976.27 827.870   4
 -19  -6  -1 1428.59 659.429   1
   6  19   2 54.3819 730.914   2
  19 -25   2 227.667 708.746   3
  -6  25   2 310.691 797.071   2
  25 -19   2 1058.30 796.393   3
 -19  -6   2 358.740 606.603   1
 -25   6   2 265.933 492.067   1
   6  19   2 671.769 771.733   4
  -6  25   2 1194.49 873.238   4
   6  19   5 1586.03 1001.23   2
 -25   6   5 1639.01 760.070   1
  19 -25   5 2936.49 965.988   3
  -6  25   5 3061.28 1022.88   2
  25 -19   5 2642.52 960.023   3
 -19  -6   5 2813.22 841.113   1
   6  19   5 2676.78 1051.65   4
  -6  25   5 3962.66 1061.11   4
   7  18  -5 1868.63 756.624   2
  18 -25  -5 1674.64 1017.66   3
  25 -18  -5 3159.02 1170.66   3
  -7  25  -5 2701.16 912.154   2
   7  18  -5 3573.86 862.013   4
  -7  25  -5 2612.56 790.012   4
 -25   7  -2 1796.92 518.937   1
   7  18  -2 4198.94 879.497   2
  18 -25  -2 338.636 657.186   3
  -7  25  -2 3864.99 946.378   2
  25 -18  -2 2365.22 917.574   3
 -18  -7  -2 3450.84 870.491   1
   7  18  -2 3789.14 995.226   4
  -7  25  -2 4609.60 983.299   4
  -7  25   1 6249.50 1151.96   2
  18 -25   1 5682.32 983.347   3
  25 -18   1 4853.52 1032.62   3
 -18  -7   1 5420.16 830.496   1
   7  18   1 8001.68 1231.49   4
   7  18   1 6920.58 1142.94   2
  -7  25   1 5263.27 1027.58   4
 -25   7   1 5748.58 729.571   1
   7  18   4 4149.64 1103.49   2
 -25   7   4 3614.67 786.377   1
  18 -25   4 3323.78 918.201   3
  -7  25   4 2679.41 1019.71   2
  25 -18   4 2794.90 860.381   3
   7  18   4 2725.19 974.563   4
 -18  -7   4 2088.00 725.297   1
  -7  25   4 4943.08 1094.95   4
   8  17  -6 879.786 622.673   2
  17 -25  -6 2323.28 1101.86   3
  25 -17  -6-519.563 1002.90   3
  -8  25  -6 1203.51 869.807   2
   8  17  -6 1124.91 758.755   4
  -8  25  -6 1627.95 741.231   4
   8  17  -3 11744.2 1178.89   2
  -8  25  -3 10788.7 1311.79   2
  17 -25  -3 9402.18 1210.75   3
  25 -17  -3 10784.8 1447.95   3
   8  17  -3 13672.8 1370.52   4
  -8  25  -3 11899.2 1319.84   4
   8  17   0 623.656 692.628   2
 -25   8   0 505.238 476.413   1
  17 -25   0 1107.21 644.262   3
  -8  25   0 1344.15 780.930   2
  25 -17   0 1899.72 804.854   3
 -17  -8   0 449.000 568.152   1
   8  17   0 2685.11 882.638   4
  -8  25   0 464.990 685.787   4
   8  17   3 6321.47 1164.07   2
  -8  25   3 6384.42 1182.11   2
  17 -25   3 4992.80 954.512   3
 -17  -8   3 2394.29 751.199   1
  25 -17   3 4826.09 1012.96   3
 -25   8   3 4283.44 733.438   1
   8  17   3 7854.45 1186.28   4
  -8  25   3 4492.10 1028.79   4
   8  17   6 1795.30 1068.39   2
  17 -25   6 2501.52 930.109   3
  -8  25   6 2870.78 1118.50   2
  25 -17   6 1607.77 777.718   3
 -17  -8   6-270.728 724.721   1
   8  17   6 2542.41 985.532   4
 -25   8   6 1469.99 813.952   1
  -8  25   6 2217.51 882.872   4
  16 -25  -7 2193.71 1018.86   3
  25 -16  -7 1661.30 1194.95   3
   9  16  -7 1593.06 784.368   4
  -9  25  -7 1426.43 744.856   4
   9  16  -4 947.662 615.141   2
  16 -25  -4 522.546 758.549   3
  25 -16  -4 962.077 941.797   3
  -9  25  -4 1762.34 892.281   2
   9  16  -4 409.677 702.290   4
  -9  25  -4 253.445 639.684   4
   9  16  -1 2191.96 750.474   2
 -16  -9  -1 1812.06 663.299   1
  16 -25  -1 1377.30 615.752   3
  -9  25  -1 1929.24 840.913   2
  25 -16  -1 17.1914 755.495   3
   9  16  -1 2239.09 896.030   4
 -25   9  -1 1919.53 491.585   1
  -9  25  -1 1308.86 809.360   4
   9  16   2 1926.84 917.949   2
  16 -25   2 682.992 589.162   3
 -25   9   2 1205.79 494.238   1
  -9  25   2 1487.25 807.916   2
  25 -16   2 677.122 709.386   3
 -16  -9   2 1606.68 686.205   1
   9  16   2 1590.73 797.777   4
  -9  25   2 2114.46 869.776   4
   9  16   5 3772.21 1211.56   2
  16 -25   5 1735.49 849.336   3
  -9  25   5 2335.39 955.966   2
  25 -16   5 1896.69 869.467   3
 -16  -9   5 1404.63 696.342   1
   9  16   5 2496.49 976.002   4
 -25   9   5 3265.47 806.292   1
  -9  25   5 2892.51 993.172   4
  10  15  -5 5035.80 791.561   2
  15 -25  -5 7353.88 1236.10   3
 -10  25  -5 6221.34 1157.09   2
  25 -15  -5 4653.74 1183.59   3
  10  15  -5 6815.18 1049.71   4
 -10  25  -5 5813.63 1024.91   4
 -25  10  -2 3668.45 498.260   1
 -15 -10  -2 4125.19 879.561   1
  15 -25  -2 3966.48 835.684   3
 -10  25  -2 3745.22 898.042   2
  25 -15  -2 4242.16 1130.43   3
  10  15  -2 6218.86 1049.56   4
 -10  25  -2 5959.99 1023.41   4
  10  15  -2 4937.59 891.046   2
  10  15   1 3987.69 966.469   2
 -15 -10   1 2204.56 678.067   1
  15 -25   1 3031.69 746.853   3
 -10  25   1 3555.53 945.674   2
  25 -15   1 2836.40 881.019   3
 -25  10   1 3468.89 583.967   1
  10  15   1 3557.74 913.237   4
 -10  25   1 4859.66 1001.38   4
 -15 -10   4 2568.89 817.817   1
  15 -25   4 2780.22 844.840   3
 -10  25   4 3111.22 999.437   2
  25 -15   4 3283.42 874.272   3
  10  15   4 3496.45 1004.18   4
 -25  10   4 3518.50 753.442   1
 -10  25   4 3175.59 939.515   4
  10  15   4 4365.36 1128.91   2
  15 -25   7 3152.16 1052.79   3
  25 -15   7 2107.10 867.230   3
 -10  25   7 3138.13 1120.88   2
 -15 -10   7 4470.98 1027.07   1
 -25  10   7 3925.80 1034.86   1
  10  15   7 2625.08 1027.23   4
 -10  25   7 4936.30 1149.15   4
  10  15   7 1897.99 1043.01   2
  14 -25  -6 840.983 871.286   3
  25 -14  -6 1047.48 1033.89   3
  11  14  -6 101.662 697.468   4
 -11  25  -6 767.133 685.899   4
  14 -25  -3 4609.64 859.529   3
  25 -14  -3 2918.30 1043.18   3
 -11  25  -3 4332.43 965.990   2
  11  14  -3 3882.43 896.677   4
  11  14  -3 5336.05 832.396   2
 -11  25  -3 4082.59 934.205   4
  11  14   0 1177.16 742.358   2
  14 -25   0 1415.01 589.573   3
  25 -14   0-133.901 704.788   3
 -11  25   0 2102.97 819.447   2
 -14 -11   0 238.901 548.007   1
  11  14   0 1565.55 778.453   4
 -25  11   0 1324.67 475.141   1
 -11  25   0 1989.90 781.109   4
  14 -25   3 598.332 662.397   3
  25 -14   3 2870.09 905.118   3
 -11  25   3-6.47423 758.543   2
 -14 -11   3 559.620 629.738   1
  11  14   3 1618.88 910.529   4
 -11  25   3 1030.78 747.989   4
  11  14   3-57.4131 709.208   2
 -25  11   3 468.801 530.435   1
  14 -25   6 1163.62 768.558   3
  25 -14   6 508.614 725.711   3
 -11  25   6 3477.49 1124.64   2
 -25  11   6 2634.96 840.892   1
 -14 -11   6 1847.22 789.248   1
  11  14   6 3212.29 955.234   4
  11  14   6 1374.93 908.487   2
 -11  25   6 1548.90 903.072   4
 -12  25  -7 1266.56 683.848   4
  25 -13  -7 2505.76 1200.78   3
  12  13  -7 1477.17 799.743   4
  12  13  -4 2408.02 665.302   2
  13 -25  -4 1590.13 781.555   3
  25 -13  -4 1431.45 990.169   3
 -12  25  -4 2815.01 926.413   2
  12  13  -4 2549.23 816.739   4
 -12  25  -4 1841.23 712.550   4
  12  13  -1 2587.45 782.531   2
  13 -25  -1 1495.09 593.934   3
  25 -13  -1 2782.40 941.376   3
 -12  25  -1 1742.49 789.480   2
 -25  12  -1 2031.77 422.713   1
  12  13  -1 1491.30 755.532   4
 -13 -12  -1 1451.64 624.518   1
 -12  25  -1 2955.59 832.815   4
  13 -25   2 5576.44 893.065   3
 -12  25   2 7557.73 1196.10   2
  25 -13   2 8027.10 1149.38   3
 -13 -12   2 4303.62 800.340   1
 -25  12   2 6093.11 709.756   1
  12  13   2 8075.37 1214.74   4
  12  13   2 7027.87 1136.61   2
 -12  25   2 7238.77 1134.53   4
  13 -25   5 1219.54 822.632   3
  25 -13   5-476.734 783.774   3
 -12  25   5 2692.81 1018.06   2
 -25  12   5 2730.37 777.902   1
  12  13   5 2443.45 939.093   4
  12  13   5 211.686 809.425   2
 -13 -12   5 1609.96 716.630   1
 -12  25   5 1296.17 835.161   4
  13  12  -5 832.537 498.688   2
  12 -25  -5 1312.60 765.414   3
  25 -12  -5 1778.45 1101.38   3
  13  12  -5 2210.01 814.782   4
 -13  25  -5 990.401 713.991   4
  12 -25  -2 5134.62 794.658   3
 -13  25  -2 6677.05 1118.10   2
  25 -12  -2 3924.01 1012.38   3
 -12 -13  -2 5129.73 892.512   1
  13  12  -2 5609.48 1027.01   4
  13  12  -2 6893.30 991.395   2
 -13  25  -2 7070.84 1043.68   4
 -25  13   1 2576.20 508.232   1
  12 -25   1 2334.77 670.720   3
 -12 -13   1 3577.90 767.933   1
  25 -12   1 3088.85 967.895   3
 -13  25   1 1786.76 840.360   2
  13  12   1 4223.40 980.405   4
  13  12   1 2584.37 826.067   2
 -13  25   1 3611.91 938.201   4
  12 -25   4 1953.40 744.218   3
 -12 -13   4 3448.30 857.817   1
  25 -12   4 1523.33 769.314   3
 -13  25   4 3595.00 1073.13   2
 -25  13   4 2747.96 695.495   1
  13  12   4 2819.90 878.807   4
  13  12   4 2981.39 1048.00   2
 -13  25   4 3876.63 989.847   4
  12 -25   7 970.487 833.596   3
  25 -12   7 1755.89 896.042   3
 -13  25   7 4022.97 1143.73   2
 -25  13   7 637.223 829.761   1
 -12 -13   7 1164.43 786.338   1
  13  12   7 1056.68 927.454   4
  13  12   7 2165.73 1040.39   2
 -13  25   7 2488.14 945.705   4
 -14  25  -6 1143.20 701.859   4
  25 -11  -6 1486.72 1167.55   3
  14  11  -6 2273.25 832.691   4
  14  11  -3 1276.46 589.111   2
  11 -25  -3 1747.75 662.583   3
  25 -11  -3 1236.78 834.715   3
 -14  25  -3 670.433 750.367   2
  14  11  -3 469.712 682.772   4
 -14  25  -3 1791.96 748.893   4
 -11 -14   0 1520.06 655.682   1
  11 -25   0 1648.10 563.974   3
  25 -11   0 3575.78 994.046   3
 -14  25   0 755.261 712.461   2
 -25  14   0 1999.12 414.262   1
  14  11   0 1382.54 779.276   4
  14  11   0 1779.08 820.393   2
 -14  25   0 2818.73 877.458   4
  11 -25   3 5622.90 970.758   3
  25 -11   3 2955.63 856.239   3
 -14  25   3 3212.53 1022.89   2
  14  11   3 4321.89 954.131   4
 -25  14   3 3192.42 632.627   1
 -11 -14   3 3214.24 789.833   1
  14  11   3 3546.53 970.597   2
 -14  25   3 4586.56 1036.73   4
  11 -25   6-449.629 789.758   3
  25 -11   6 1081.97 711.366   3
 -14  25   6 1143.30 888.313   2
  11 -25   6 114.045 480.189   1
 -25  14   6 1384.29 784.649   1
  14  11   6 277.943 709.273   4
 -11 -14   6 1600.52 832.872   1
  14  11   6 3567.18 1187.86   2
 -14  25   6 2340.28 972.190   4
  15  10  -7 5871.56 1006.83   4
 -15  25  -4 4458.59 931.761   4
  10 -25  -4 3373.93 756.051   3
  25 -10  -4 3115.63 1034.25   3
  15  10  -4 2770.01 855.431   4
  15  10  -4 4210.27 741.799   2
  10 -25  -1 2421.52 598.922   3
  25 -10  -1 3633.36 939.375   3
 -25  15  -1 1464.18 309.082   1
 -15  25  -1 3318.08 976.224   2
 -10 -15  -1 2308.76 724.552   1
  15  10  -1 3405.77 880.233   4
  15  10  -1 3784.44 859.345   2
 -15  25  -1 4760.85 956.656   4
  10 -25   2 3446.82 781.171   3
 -15  25   2 5442.62 1124.69   2
 -25  15   2 3716.03 615.420   1
  25 -10   2 3020.44 894.163   3
 -10 -15   2 4311.06 805.420   1
  15  10   2 4068.72 925.954   4
  15  10   2 5383.36 1026.82   2
 -15  25   2 4524.83 1007.17   4
  10 -25   5 2445.61 675.884   1
  10 -25   5 5276.70 1058.78   3
 -25  15   5 6290.54 963.210   1
 -10 -15   5 5502.57 1028.06   1
  25 -10   5 4888.09 1015.61   3
 -15  25   5 5610.42 1143.69   2
  15  10   5 7216.86 1346.58   2
  15  10   5 5568.29 1054.54   4
 -15  25   5 7696.45 1215.19   4
  16   9  -5 3479.04 614.212   2
  25  -9  -5 1740.72 1019.96   3
  16   9  -5 2180.89 816.117   4
 -16  25  -5 4384.03 942.459   4
  -9 -16  -2 360.450 189.392   3
   9 -25  -2 766.018 493.285   3
  25  -9  -2-1139.31 836.340   3
 -16  25  -2 1644.56 818.739   2
  16   9  -2 1050.28 766.255   4
  16   9  -2 1218.88 662.680   2
 -16  25  -2 1228.38 724.355   4
   9 -25   1 1520.72 569.336   3
  25  -9   1 1858.92 769.712   3
 -16  25   1 1896.17 849.939   2
  16   9   1 1502.27 704.210   4
  -9 -16   1 1325.80 598.051   1
  16   9   1 1548.71 772.611   2
 -25  16   1 1179.45 426.712   1
 -16  25   1-279.610 698.854   4
   9 -25   4 1355.99 580.842   1
   9 -25   4 1661.59 694.994   3
  25  -9   4 3058.99 897.881   3
 -16  25   4 1219.22 906.187   2
 -25  16   4 837.344 611.314   1
  -9 -16   4-111.084 598.958   1
  16   9   4 1556.41 839.703   4
  16   9   4-24.2719 808.783   2
 -16  25   4 499.535 704.636   4
 -16  25   7 2450.95 1049.85   4
   9 -25   7 1832.63 973.844   3
  25  -9   7 487.980 743.323   3
 -16  25   7 692.533 837.809   2
 -25  16   7 905.283 895.366   1
   9 -25   7 857.451 617.667   1
  25  -9   7 3266.35 1007.16   4
  25  -9   7-855.626 1031.07   2
  16   9   7 1232.86 914.458   4
 -16  25   7-40.8813 931.810   1
  16   9   7 4573.89 1307.85   2
  -9 -16   7 2935.06 915.451   1
  25  -8  -6 1054.76 985.671   3
  17   8  -6 2881.18 911.125   4
   8 -25  -3 4099.19 707.681   3
  25  -8  -3 5765.34 1241.38   3
  17   8  -3 4675.72 1003.37   4
  17   8  -3 6627.38 937.994   2
 -17  25  -3 8128.79 1097.22   4
   8 -25   0 1724.18 534.359   3
 -25  17   0 1218.33 321.436   1
  25  -8   0 1541.74 839.297   3
 -17  25   0 1190.56 751.711   2
  17   8   0 50.8592 717.504   4
  -8 -17   0 777.766 575.974   1
  17   8   0 2267.75 808.168   2
 -17  25   0 1364.15 822.785   4
   8 -25   3 12592.0 1225.47   3
 -25  17   3 12841.2 1043.08   1
 -17  25   3 11643.9 1436.95   2
  25  -8   3 10475.7 1298.14   3
  -8 -17   3 10561.8 1122.00   1
  17   8   3 11008.0 1334.04   4
  17   8   3 12494.1 1482.00   2
 -17  25   3 10885.7 1356.09   4
 -17  25   6 1295.96 904.355   4
   8 -25   6 378.216 782.741   3
  -8 -17   6-120.136 740.134   1
  25  -8   6 744.821 738.460   3
 -25  17   6 804.331 804.657   1
 -17  25   6 869.051 828.569   2
  25  -8   6 807.071 816.650   4
  25  -8   6 1301.25 949.918   2
   8 -25   6 1261.98 624.955   1
  17   8   6 1377.00 897.777   4
 -17  25   6 1012.26 870.411   1
  17   8   6 3216.27 1145.73   2
  18   7  -4 2532.35 639.477   2
  25  -7  -4 3209.96 1143.95   3
  18   7  -4 2797.08 883.674   4
 -18  25  -4 5407.75 971.996   4
  -7 -18  -1 6410.62 576.123   3
   7 -25  -1 5827.17 730.896   3
  -7 -18  -1 6622.42 998.915   1
 -18  25  -1 7556.10 1260.93   2
  25  -7  -1 5875.74 1148.30   3
  18   7  -1 8746.75 1209.07   4
  18   7  -1 7975.79 1084.26   2
 -18  25  -1 6534.33 1100.94   4
 -18  25   2 3305.21 985.996   4
   7 -25   2 3291.59 723.077   3
 -25  18   2 3364.59 588.797   1
  25  -7   2 2828.53 939.745   3
 -18  25   2 2324.88 931.503   2
  -7 -18   2 3642.54 759.965   1
  18   7   2 3027.04 952.444   4
  18   7   2 3067.01 916.763   2
 -18  25   5 2760.86 946.089   4
   7 -25   5 3709.14 980.784   3
   7 -25   5 1109.41 589.051   1
  25  -7   5 3295.19 854.020   3
 -25  18   5 1768.39 795.733   1
 -18  25   5 1675.51 925.990   2
  -7 -18   5 1903.08 764.099   1
  25  -7   5 4112.22 1099.15   4
  25  -7   5 1753.16 991.844   2
  18   7   5 1226.87 809.660   4
 -18  25   5 3417.39 1045.21   1
  18   7   5 3962.17 1142.22   2
  25  -6  -5 1359.82 948.690   3
  25  -6  -5 3105.11 751.462   2
  19   6  -5 2367.26 868.124   4
 -19  25  -2 143.515 653.621   4
   6 -25  -2-62.3848 422.365   3
  25  -6  -2-760.132 876.869   3
  19   6  -2 1273.13 832.964   4
  19   6  -2 965.717 646.015   2
 -19  25   1 2045.85 831.383   4
   6 -25   1 605.951 515.016   3
  -6 -19   1 1859.50 728.300   1
  25  -6   1 3142.62 1017.55   3
 -19  25   1 1806.47 853.313   2
  19   6   1 990.027 642.913   3
  19   6   1 1247.41 805.484   4
 -25  19   1 1576.00 425.512   1
  19   6   1 1847.32 890.476   2
 -19  25   4 966.730 763.039   4
  -6 -19   4 641.727 618.041   1
   6 -25   4 1395.04 775.519   3
 -25  19   4 1491.58 666.460   1
  25  -6   4 3143.42 948.033   3
 -19  25   4 2167.57 971.293   2
  19   6   4 972.143 575.646   3
  25  -6   4 3292.42 1006.49   4
  25  -6   4 2497.95 1020.40   2
  19   6   4 2891.31 1004.57   4
   6 -25   4 1933.86 656.351   1
 -19  25   4 2506.62 901.353   1
  19   6   4 2827.74 1013.89   2
  20   5  -6 2789.11 953.903   4
   5 -25  -3 4912.06 597.106   3
  25  -5  -3 8557.86 1404.16   3
  25  -5  -3 8477.63 1116.93   2
  20   5  -3 8768.13 1278.98   4
  20   5  -3 7028.87 981.452   2
 -20  25   0 3378.13 997.312   4
  -5 -20   0 3562.53 610.629   3
   5 -25   0 3474.46 657.743   3
  -5 -20   0 2537.07 829.396   1
 -25  20   0 2865.35 346.438   1
  25  -5   0 3069.10 1064.99   3
 -20  25   0 2007.31 864.501   2
  20   5   0 2686.61 842.199   3
  25  -5   0 1589.16 853.156   2
  20   5   0 2897.36 874.908   4
 -20  25   0 1846.12 512.465   1
  20   5   0 4174.87 966.748   2
 -25  20   3 9723.51 964.406   1
   5 -25   3 8647.97 1082.27   3
  25  -5   3 7593.07 1189.57   3
 -20  25   3 8871.93 1327.95   2
  20   5   3 8249.13 1013.87   3
   5 -25   3 6482.24 990.708   1
  25  -5   3 8528.90 1383.40   2
  25  -5   3 11388.2 1477.94   4
  20   5   3 9818.91 1301.86   4
 -20  25   3 9705.45 1107.94   1
  20   5   3 11009.7 1449.06   2
  -5 -20   3 8364.11 1049.28   1
 -20  25   3 7066.52 1220.53   4
 -20  25   6-995.542 872.525   4
   5 -25   6 1011.87 878.897   3
 -25  20   6 433.484 840.677   1
  25  -5   6 315.999 774.322   3
   5 -25   6 411.472 641.989   1
 -20  25   6 747.659 827.520   2
  -5 -20   6-917.157 709.099   1
  25  -5   6 1721.12 921.737   4
  25  -5   6 776.915 953.844   2
  20   5   6 761.903 845.193   4
  20   5   6 1257.55 983.669   2
 -20  25   6 1364.41 880.437   1
  25  -4  -4 2018.20 1129.61   3
  21   4  -4 2887.81 1007.62   4
  25  -4  -4 2671.50 827.804   2
  21   4  -4 1188.45 607.704   2
  -4 -21  -1 1778.51 374.861   3
   4 -25  -1 2601.38 525.666   3
  25  -4  -1 2511.46 1001.63   3
  21   4  -1 3951.06 1082.62   4
  25  -4  -1 1592.48 871.602   2
  21   4  -1 2629.24 839.859   2
 -21  25  -1 1668.26 376.686   1
 -21  25   2 4309.21 1006.84   4
  -4 -21   2 2676.45 731.136   3
   4 -25   2 3096.50 743.571   3
  -4 -21   2 2430.34 791.541   1
 -25  21   2 2054.80 580.498   1
  25  -4   2-300.510 875.893   3
  21   4   2 1693.60 753.523   3
 -21  25   2 2568.40 948.893   2
  25  -4   2 4435.56 1088.87   4
  25  -4   2 3435.55 1030.28   2
  21   4   2 2625.29 958.678   4
  21   4   2 2057.00 964.331   2
 -21  25   2 2345.57 683.539   1
  -4 -21   5 2711.24 797.512   1
 -21  25   5 2294.03 921.525   4
   4 -25   5 1829.25 876.581   3
 -25  21   5 3370.97 891.051   1
  25  -4   5 2871.73 922.111   3
  21   4   5 1620.10 694.750   3
 -21  25   5 2502.36 954.834   2
  25  -4   5 3305.88 1032.14   4
  25  -4   5 2442.95 1174.84   2
  21   4   5 1139.96 902.014   4
  21   4   5 1580.89 1017.90   2
   4 -25   5 4927.44 938.559   1
 -21  25   5 992.183 856.225   1
  25  -3  -5 1134.76 924.877   4
  22   3  -5 668.716 820.120   4
   3 -25  -2 1390.36 420.336   3
  25  -3  -2 1853.30 1042.39   3
  25  -3  -2 2010.20 909.393   4
  22   3  -2 2017.73 850.371   4
  25  -3  -2 388.364 761.147   2
  22   3  -2 1540.18 736.033   2
  -3 -22   1 624.017 542.027   3
   3 -25   1 183.432 492.828   3
 -25  22   1-235.536 416.251   1
  25  -3   1 546.039 874.034   3
  22   3   1 1462.74 891.324   3
 -22  25   1 1647.86 903.401   2
  25  -3   1 760.784 823.720   4
  -3 -22   1-526.204 639.516   1
  22   3   1 286.162 767.590   4
  25  -3   1 1303.08 876.846   2
  22   3   1 214.687 735.055   2
 -22  25   1-69.4479 492.383   1
  -3 -22   4 2962.44 941.251   3
   3 -25   4 2767.48 870.418   3
 -25  22   4 2365.94 778.016   1
   3 -25   4 1070.38 705.590   1
  -3 -22   4 1511.07 736.380   1
  25  -3   4 2574.45 980.506   3
  22   3   4 429.389 765.967   3
 -22  25   4 1885.03 982.375   2
  25  -3   4 2315.52 971.084   4
  22   3   4 3381.69 999.508   4
  25  -3   4 552.909 941.276   2
  22   3   4 335.225 934.299   2
 -22  25   4 746.030 757.583   1
  25  -2  -3 6486.88 1411.65   3
  25  -2  -3 9497.79 1421.30   4
  25  -2  -3 5930.66 1029.57   2
  23   2  -3 5949.79 1206.97   4
  23   2  -3 5919.61 986.885   2
 -23  25   0 1807.63 431.111   1
  -2 -23   0 2114.71 524.746   3
   2 -25   0 3507.99 617.524   3
  25  -2   0 4853.92 1174.61   3
  23   2   0 3634.11 999.638   3
  25  -2   0 872.505 885.635   4
  23   2   0 3741.25 1106.55   4
  25  -2   0 2381.08 977.172   2
  23   2   0 2829.10 904.381   2
  -2 -23   3 6776.41 1050.62   1
   2 -25   3 3699.79 831.437   1
  -2 -23   3 7055.90 1103.37   3
   2 -25   3 5889.58 1028.13   3
  23   2   3 6256.27 1101.21   3
  25  -2   3 5483.64 1175.06   3
 -23  25   3 4623.98 1144.82   2
  23   2   3 8696.18 1288.42   4
  23   2   3 7544.91 1401.95   2
  25  -2   3 5662.44 1208.17   4
 -23  25   3 7168.95 975.759   1
  25  -2   3 6628.91 1310.01   2
 -25  23   3 7432.89 968.761   1
  25  -1  -4 1548.64 953.425   4
  24   1  -4 426.400 830.718   4
  25  -1  -4-534.282 653.033   2
  24   1  -4 868.628 699.418   2
  -1 -24  -1 2765.86 465.908   3
   1 -25  -1 440.227 386.371   3
  25  -1  -1 1259.02 943.686   3
  24   1  -1 2244.91 1052.20   3
  25  -1  -1 3617.28 1118.24   4
  24   1  -1 2967.48 1046.52   4
  25  -1  -1 2407.00 927.801   2
  24   1  -1 3551.95 986.368   2
 -24  25   2 1344.81 588.465   1
  -1 -24   2 2835.92 790.789   3
   1 -25   2 2897.20 741.086   3
   1 -25   2 1407.13 742.118   1
 -25  24   2 2642.72 646.953   1
  -1 -24   2 1887.72 717.380   1
  25  -1   2 908.903 835.486   3
  24   1   2 2626.71 951.616   3
  25  -1   2 1301.89 894.188   4
  24   1   2 2508.00 985.987   4
  25  -1   2 2803.00 1092.53   2
  24   1   2 1337.57 964.453   2
 -24  25   5 2422.42 885.224   1
  -1 -24   5 2100.96 1017.18   3
   1 -25   5 1696.05 901.341   3
 -25  24   5 1927.33 848.452   1
  -1 -24   5 1983.06 824.106   1
  25  -1   5 844.386 828.189   3
  24   1   5 3763.41 1080.54   3
 -24  25   5 2878.09 1156.28   2
   1 -25   5 1398.71 762.400   1
  25  -1   5 2376.96 1086.97   4
  24   1   5 3432.80 1071.15   4
  25  -1   5 2770.17 1169.96   2
  24   1   5 1767.72 1156.16   2
  25   0  -2 3208.88 1169.00   3
  25   0  -2 2284.58 1004.34   4
  25   0  -2 3932.33 982.018   2
   0 -25   1 579.018 546.496   3
 -25  25   1 111.075 441.504   1
  25   0   1-695.707 829.288   3
  25   0   1 480.296 859.681   4
  25   0   1 1222.60 896.098   2
   0 -25   4 2676.32 856.880   1
   0 -25   4 1588.57 844.376   3
 -25  25   4 1646.13 792.555   1
  25   0   4 3701.72 1071.77   3
  25   0   4 3457.83 983.491   4
  25   0   4 1424.37 987.726   2
 -26   0  -2 2020.54 793.348   1
   0  26  -2 2798.33 1015.46   2
  26 -26  -2 2433.33 1054.48   3
   0  26  -2 4781.96 1099.40   4
   0  26   1 183.144 881.228   2
  26 -26   1-949.211 916.598   3
 -26   0   1-495.006 612.609   1
   0  26   1 887.881 887.639   4
  -1  26  -3 6172.32 1191.03   2
   1  25  -3 4086.18 1016.68   2
  25 -26  -3 5113.24 1254.42   3
  26 -25  -3 4254.76 1200.16   3
   1  25  -3 5319.89 1104.75   4
  -1  26  -3 4579.87 1030.71   4
 -26   1   0 241.324 583.207   1
 -25  -1   0 375.859 657.459   1
   1  25   0 563.253 785.508   2
  -1  26   0 1454.98 836.831   2
  25 -26   0 1244.62 857.615   3
  26 -25   0 282.907 783.715   3
   1  25   0 232.642 857.852   4
  -1  26   0 1161.11 846.966   4
 -25  -1   3 2969.21 888.323   1
   1  25   3 3475.15 1137.76   2
  -1  26   3 4633.95 1331.69   2
  25 -26   3 4611.90 1115.63   3
  26 -25   3 3137.55 959.856   3
  -1  26   3 6379.38 1248.52   4
 -26   1   3 3526.39 821.840   1
   2  24  -4 847.306 778.689   2
  -2  26  -4 1510.37 914.471   2
  24 -26  -4 487.053 998.562   3
  26 -24  -4 550.505 1021.01   3
   2  24  -4 922.831 854.140   4
  -2  26  -4 2528.83 923.011   4
   2  24  -1 915.983 825.807   2
  -2  26  -1 2364.77 985.124   2
  24 -26  -1 192.273 747.588   3
  26 -24  -1 368.836 855.307   3
 -26   2  -1 1339.20 661.268   1
 -24  -2  -1 2274.07 750.511   1
   2  24  -1-84.3271 787.931   4
  -2  26  -1 722.176 754.880   4
 -26   2   2 1175.79 730.657   1
   2  24   2 2068.70 1002.45   2
  -2  26   2 2134.78 1130.08   2
  24 -26   2 2021.20 919.122   3
  26 -24   2 2147.85 882.307   3
 -24  -2   2 258.604 642.821   1
   2  24   2 2338.02 997.078   4
  -2  26   2 1140.65 784.599   4
   3  23  -5 355.095 723.928   2
  -3  26  -5 218.208 871.005   2
  23 -26  -5 1807.67 1128.80   3
  26 -23  -5 1033.79 1099.93   3
   3  23  -5 21.0765 779.749   4
  -3  26  -5-259.089 795.722   4
 -23  -3  -2 4332.35 902.138   1
   3  23  -2 5118.03 1060.26   2
  -3  26  -2 3564.54 961.186   2
  23 -26  -2 3808.19 982.056   3
  26 -23  -2 5061.59 1197.98   3
 -26   3  -2 3820.16 816.854   1
  -3  26  -2 6706.68 1137.41   4
   3  23  -2 3514.84 991.141   4
   3  23   1 1359.92 883.160   2
  -3  26   1 52.0609 787.761   2
  23 -26   1 1190.76 830.619   3
  26 -23   1 1059.63 872.527   3
 -26   3   1 233.465 602.891   1
   3  23   1 1130.49 888.400   4
  -3  26   1 740.008 884.349   4
 -23  -3   1 788.739 669.851   1
   3  23   4 3404.42 1176.01   2
  -3  26   4 2502.82 1027.97   2
  23 -26   4 110.724 803.235   3
  26 -23   4 2385.88 949.365   3
 -26   3   4 3885.75 873.069   1
   3  23   4 4083.99 1060.53   4
 -23  -3   4 4525.80 933.817   1
  -3  26   4 3184.74 1026.05   4
   4  22  -3 3165.07 925.783   2
  -4  26  -3 4748.97 1044.69   2
  22 -26  -3 6023.81 1114.67   3
  26 -22  -3 3926.71 1079.39   3
   4  22  -3 5052.48 1075.47   4
  -4  26  -3 4734.65 1039.26   4
   4  22   0 552.249 788.642   2
 -22  -4   0 733.248 607.673   1
  -4  26   0 1161.80 867.450   2
  22 -26   0 1201.77 775.981   3
  26 -22   0-78.1464 728.705   3
   4  22   0 450.267 756.151   4
 -26   4   0 1231.49 593.439   1
  -4  26   0 1032.17 879.490   4
 -22  -4   3 2590.65 867.992   1
   4  22   3 4833.06 1213.36   2
  -4  26   3 4940.17 1159.06   2
  22 -26   3 5249.71 1121.51   3
  26 -22   3 3351.32 1035.03   3
 -26   4   3 2344.86 734.435   1
   4  22   3 6482.19 1235.44   4
  -4  26   3 3792.89 1089.42   4
   5  21  -4-1090.52 689.390   2
  -5  26  -4-754.488 791.502   2
  21 -26  -4 1240.86 932.702   3
  26 -21  -4-1275.48 998.518   3
   5  21  -4 1808.75 820.762   4
  -5  26  -4 1605.84 830.133   4
   5  21  -1 296.368 758.870   2
 -26   5  -1 1762.09 620.929   1
  -5  26  -1 218.444 776.719   2
  21 -26  -1 274.407 676.223   3
  26 -21  -1 550.715 772.867   3
   5  21  -1 920.198 838.020   4
  -5  26  -1 2563.75 949.554   4
 -21  -5  -1 36.5672 674.523   1
   5  21   2 1417.37 855.247   2
  -5  26   2 1293.29 869.435   2
  21 -26   2 625.299 754.202   3
  26 -21   2 1330.32 782.363   3
 -21  -5   2-18.0938 607.711   1
 -26   5   2 152.645 524.403   1
   5  21   2 1328.51 895.804   4
  -5  26   2 2584.67 1007.10   4
   5  21   5 1584.75 1035.33   2
  -5  26   5 124.766 871.329   2
  21 -26   5-1135.72 881.859   3
 -26   5   5 1841.72 821.146   1
  26 -21   5 449.096 761.075   3
 -21  -5   5 134.102 774.955   1
   5  21   5 2071.88 945.944   4
  -5  26   5-489.164 828.685   4
   6  20  -5 2894.11 861.790   2
  20 -26  -5 3085.71 1188.16   3
  -6  26  -5 2281.28 977.999   2
  26 -20  -5 1257.81 1017.64   3
   6  20  -5 2316.56 875.026   4
  -6  26  -5 3162.81 959.500   4
   6  20  -2 3247.12 905.460   2
 -26   6  -2 3563.99 684.609   1
  20 -26  -2 3103.42 880.766   3
  -6  26  -2 1924.28 878.104   2
  26 -20  -2 3549.46 1041.43   3
 -20  -6  -2 2360.89 824.181   1
   6  20  -2 6229.27 1080.90   4
  -6  26  -2 5837.44 1107.72   4
 -26   6   1 2588.77 720.641   1
   6  20   1 4865.86 1067.14   2
  20 -26   1 3515.89 870.022   3
  -6  26   1 1986.18 922.951   2
  26 -20   1 2703.26 908.127   3
 -20  -6   1 4444.48 864.733   1
   6  20   1 1007.71 779.361   4
  -6  26   1 3010.34 945.409   4
   6  20   4 2467.96 1015.36   2
  20 -26   4 3471.26 959.140   3
  -6  26   4 5886.46 1232.11   2
  26 -20   4 2917.60 893.820   3
 -26   6   4 5500.29 922.651   1
   6  20   4 6475.37 1214.08   4
  -6  26   4 4093.93 1054.56   4
 -20  -6   4 3241.87 898.604   1
  19 -26  -6 2337.36 1141.10   3
  26 -19  -6 1918.71 1219.45   3
  -7  26  -6 1550.53 922.996   2
   7  19  -6 1881.17 821.148   4
  -7  26  -6 1989.51 789.131   4
   7  19  -3 2054.52 760.960   2
  19 -26  -3 3031.20 877.056   3
  -7  26  -3 2829.21 960.875   2
  26 -19  -3 3002.30 1075.11   3
   7  19  -3 4860.08 1055.74   4
  -7  26  -3 5891.06 1080.77   4
 -26   7   0 3846.64 707.446   1
  19 -26   0 4224.21 890.099   3
  -7  26   0 5397.21 1073.32   2
  26 -19   0 5648.17 1125.69   3
 -19  -7   0 5105.19 901.978   1
   7  19   0 6619.37 1245.23   4
  -7  26   0 5468.70 1115.87   4
   7  19   0 5103.67 1030.23   2
   7  19   3 5078.03 1152.01   2
  19 -26   3 5694.68 1057.47   3
 -19  -7   3 3068.67 818.490   1
  -7  26   3 3948.79 1038.02   2
  26 -19   3 3951.38 995.643   3
 -26   7   3 3727.19 770.226   1
   7  19   3 5781.99 1162.74   4
  -7  26   3 5006.93 1107.54   4
 -26   7   6 47.6362 728.103   1
   7  19   6 1627.80 1059.90   2
  19 -26   6-291.087 886.833   3
  -7  26   6 3485.61 1121.37   2
  26 -19   6 629.850 876.115   3
 -19  -7   6 3748.84 924.856   1
   7  19   6 1484.20 976.113   4
  -7  26   6 2276.60 1001.37   4
   8  18  -4 1617.04 713.110   2
  18 -26  -4 1279.76 890.918   3
  -8  26  -4 1567.27 853.808   2
  26 -18  -4 2560.10 1187.88   3
   8  18  -4 1179.20 785.441   4
  -8  26  -4 1070.65 737.886   4
 -18  -8  -1 4875.44 878.642   1
   8  18  -1 2695.47 833.013   2
  18 -26  -1 3577.81 827.503   3
  -8  26  -1 4490.54 999.214   2
  26 -18  -1 2428.46 914.116   3
 -26   8  -1 4457.65 668.626   1
   8  18  -1 4445.95 1006.84   4
  -8  26  -1 3446.79 975.521   4
   8  18   2-495.641 740.105   2
  18 -26   2 297.809 651.019   3
  -8  26   2 315.072 782.237   2
  26 -18   2 1036.83 816.452   3
 -26   8   2 137.786 498.080   1
 -18  -8   2 55.4911 571.193   1
   8  18   2-142.864 709.927   4
  -8  26   2 995.185 830.832   4
   8  18   5 3164.37 1082.74   2
 -26   8   5 1168.49 677.375   1
  18 -26   5 965.052 813.664   3
  -8  26   5 2296.22 1021.09   2
  26 -18   5 2463.37 892.675   3
   8  18   5 3225.74 1025.62   4
 -18  -8   5 2947.20 887.158   1
  -8  26   5 2839.86 1005.21   4
   9  17  -5 3722.59 831.327   2
  17 -26  -5 2662.96 1032.61   3
  26 -17  -5 2815.30 1193.59   3
  -9  26  -5 3135.87 1094.93   2
   9  17  -5 6151.04 1029.60   4
  -9  26  -5 3549.82 898.042   4
   9  17  -2 3809.17 833.372   2
 -26   9  -2 1791.53 495.533   1
  17 -26  -2 1906.03 736.536   3
  -9  26  -2 2075.30 921.234   2
  26 -17  -2 1728.81 900.425   3
   9  17  -2 4283.28 960.026   4
 -17  -9  -2 3520.75 877.887   1
  -9  26  -2 2076.36 792.436   4
   9  17   1 3889.78 970.392   2
 -17  -9   1 2710.15 730.070   1
  -9  26   1 7374.36 1254.14   2
  17 -26   1 7660.26 1035.41   3
  26 -17   1 5615.50 1108.43   3
   9  17   1 7944.50 1243.72   4
  -9  26   1 7259.65 1213.10   4
 -26   9   1 5921.15 731.591   1
   9  17   4-366.011 879.190   2
 -26   9   4 100.566 599.993   1
 -17  -9   4 1507.72 739.771   1
  17 -26   4 1163.73 748.379   3
  -9  26   4 664.087 910.935   2
  26 -17   4 425.023 840.631   3
   9  17   4 1248.87 797.856   4
  -9  26   4 1258.32 815.083   4
  16 -26  -6 3845.90 1134.81   3
  26 -16  -6 2267.35 1279.35   3
  10  16  -6 4831.74 986.063   4
 -10  26  -6 3228.90 839.534   4
  10  16  -3 703.861 585.265   2
  16 -26  -3 2114.81 797.352   3
 -10  26  -3 1550.47 882.331   2
  26 -16  -3 1179.61 997.715   3
  10  16  -3 1788.91 824.004   4
 -10  26  -3 2601.59 935.253   4
  10  16   0 3004.51 884.430   2
 -26  10   0 932.944 485.133   1
  16 -26   0 3903.70 794.713   3
 -10  26   0 5074.34 1097.25   2
  26 -16   0 3943.63 958.207   3
 -16 -10   0 3705.92 802.101   1
  10  16   0 6534.38 1142.40   4
 -10  26   0 4792.67 1065.57   4
  10  16   3 2429.44 968.050   2
 -26  10   3 2269.89 635.114   1
  16 -26   3 2078.57 790.737   3
 -10  26   3 941.863 807.836   2
  26 -16   3 1410.92 803.760   3
 -16 -10   3 908.575 676.905   1
  10  16   3 3166.36 970.185   4
 -10  26   3 2528.51 899.526   4
  10  16   6 4607.60 1309.49   2
  16 -26   6 6971.92 1156.66   3
 -10  26   6 3770.12 1033.78   2
  26 -16   6 5148.14 1158.32   3
 -26  10   6 6861.20 1107.08   1
  10  16   6 6232.90 1179.73   4
 -10  26   6 8203.71 1331.50   4
 -16 -10   6 6255.53 1057.82   1
  11  15  -4-818.023 648.888   2
  15 -26  -4 1416.54 848.848   3
  26 -15  -4 1073.71 943.700   3
 -11  26  -4 243.698 752.008   2
  11  15  -4-16.5661 662.777   4
 -11  26  -4 255.374 677.403   4
  15 -26  -1 4805.73 828.526   3
 -15 -11  -1 5610.62 896.003   1
 -11  26  -1 5560.40 1128.26   2
 -26  11  -1 3987.77 531.955   1
  26 -15  -1 5053.66 1076.97   3
  11  15  -1 5308.98 1033.12   4
 -11  26  -1 6531.39 1119.48   4
  11  15  -1 7452.68 1066.06   2
  11  15   2 1611.10 848.915   2
  15 -26   2 488.711 600.008   3
 -26  11   2 500.438 491.625   1
  26 -15   2-440.022 785.943   3
 -11  26   2 1147.25 804.794   2
  11  15   2-669.967 755.657   4
 -15 -11   2 460.019 581.798   1
 -11  26   2 683.016 811.744   4
  15 -26   5 2851.48 915.596   3
  26 -15   5 907.670 746.802   3
 -11  26   5 1800.04 1038.32   2
  11  15   5 2269.70 911.522   4
 -26  11   5 1471.35 745.977   1
 -11  26   5 2587.21 1016.07   4
 -15 -11   5 2546.39 866.359   1
  11  15   5 3220.81 1079.06   2
  12  14  -5 4526.96 769.023   2
  14 -26  -5 4091.03 1051.49   3
  26 -14  -5 6985.41 1407.85   3
 -12  26  -5 6444.66 1198.95   2
  12  14  -5 5840.76 971.829   4
 -12  26  -5 6886.44 1082.38   4
  12  14  -2 705.597 700.890   2
 -14 -12  -2 637.773 622.445   1
  14 -26  -2 539.791 578.315   3
  26 -14  -2 498.071 768.878   3
 -12  26  -2 2278.93 858.140   2
 -26  12  -2 695.717 313.813   1
  12  14  -2 293.311 694.987   4
 -12  26  -2 558.398 695.451   4
  12  14   1 3972.23 954.600   2
  14 -26   1 3871.63 779.275   3
 -14 -12   1 4123.36 798.459   1
  26 -14   1 4657.48 1000.50   3
 -12  26   1 4928.57 1121.66   2
  12  14   1 4790.71 1014.12   4
 -26  12   1 4573.35 641.234   1
 -12  26   1 4888.78 1053.39   4
  14 -26   4 53.7923 697.616   3
 -14 -12   4 847.602 743.197   1
  26 -14   4-129.803 701.136   3
 -12  26   4-85.1703 803.954   2
  12  14   4 298.956 778.870   4
 -26  12   4 891.535 608.689   1
 -12  26   4-583.222 736.136   4
  12  14   4 593.076 920.244   2
  13 -26  -6 4141.19 928.127   3
  26 -13  -6 4410.50 1444.30   3
  13  13  -6 4523.76 942.038   4
 -13  26  -6 5794.73 998.671   4
  13  13  -3-230.612 623.936   2
  13 -26  -3 647.105 652.043   3
  26 -13  -3 1419.76 919.201   3
 -13  26  -3-836.081 888.394   2
  13  13  -3 608.289 690.145   4
 -13  26  -3 2248.40 827.223   4
 -13 -13   0 3440.11 789.526   1
  13 -26   0 4186.12 762.762   3
  26 -13   0 5087.48 1104.42   3
 -13  26   0 4335.51 1033.03   2
  13  13   0 6697.74 1103.03   4
  13  13   0 5785.85 1033.60   2
 -13  26   0 5208.02 1018.49   4
 -26  13   0 4459.90 590.457   1
  13 -26   3 1063.64 681.199   3
  26 -13   3 1460.95 805.612   3
 -13  26   3 2343.54 995.238   2
 -13 -13   3 2222.22 761.182   1
  13  13   3 1332.77 738.579   4
 -26  13   3 1168.38 560.419   1
  13  13   3 608.570 846.133   2
 -13  26   3 1788.26 861.435   4
 -13 -13   6 6313.52 1092.49   1
 -13  26   6 6690.86 1333.20   2
  13 -26   6 4512.78 1030.08   3
  26 -13   6 4338.91 1021.22   3
 -26  13   6 4979.80 958.229   1
  13  13   6 5980.96 1172.63   4
  13  13   6 4462.24 1281.72   2
 -13  26   6 5520.80 1165.62   4
  14  12  -4 606.763 563.953   2
  12 -26  -4 818.160 715.558   3
  26 -12  -4 419.700 820.205   3
 -14  26  -4 71.9149 815.592   2
  14  12  -4-363.989 746.774   4
 -14  26  -4 1039.86 741.668   4
  14  12  -1 4289.26 898.618   2
 -26  14  -1 2865.19 406.108   1
  12 -26  -1 3965.46 714.362   3
 -12 -14  -1 3541.86 808.295   1
  26 -12  -1 3791.61 1088.04   3
 -14  26  -1 3360.06 959.702   2
  14  12  -1 4900.20 972.368   4
 -14  26  -1 3427.43 931.372   4
 -26  14   2 1876.35 539.470   1
 -12 -14   2 145.938 568.398   1
  12 -26   2 542.697 585.652   3
  26 -12   2 403.678 758.720   3
 -14  26   2 924.727 880.234   2
  14  12   2 1074.46 796.710   4
  14  12   2 913.797 791.267   2
 -14  26   2 1000.88 808.050   4
  12 -26   5 4210.20 1009.34   3
 -26  14   5 5478.36 986.861   1
  26 -12   5 4877.78 1067.17   3
 -14  26   5 6319.76 1228.72   2
  14  12   5 7602.36 1221.67   4
  14  12   5 6633.24 1356.60   2
 -14  26   5 6333.94 1234.85   4
 -15  26  -5 906.960 715.529   4
  15  11  -5 3112.39 662.779   2
  11 -26  -5 2341.14 793.598   3
  26 -11  -5 823.304 1044.85   3
  15  11  -5 2828.03 915.623   4
  15  11  -2-264.262 604.403   2
  11 -26  -2-613.804 524.870   3
  26 -11  -2 2167.95 993.081   3
 -15  26  -2 631.779 755.570   2
  15  11  -2 565.677 760.415   4
 -15  26  -2-10.3104 742.066   4
  11 -26   1 6690.55 927.686   3
  26 -11   1 5386.96 1078.30   3
 -15  26   1 5452.56 1120.53   2
 -26  15   1 4892.66 581.733   1
  15  11   1 6556.37 1098.10   4
  15  11   1 9289.71 1245.30   2
 -11 -15   1 5166.21 873.298   1
 -15  26   1 6147.56 1168.12   4
  11 -26   4-238.115 645.813   3
  26 -11   4-182.621 736.921   3
 -15  26   4 408.264 752.089   2
 -11 -15   4 572.062 660.166   1
 -26  15   4 765.410 604.440   1
  15  11   4 692.538 751.897   4
  15  11   4 451.595 827.989   2
 -15  26   4 1264.94 795.313   4
  26 -10  -6 4546.31 1300.71   3
  16  10  -6 5890.80 1082.68   4
 -16  26  -3 3506.30 937.011   4
  16  10  -3 2492.93 736.597   2
  10 -26  -3 1863.96 690.374   3
  26 -10  -3 2068.02 959.781   3
 -16  26  -3 1948.74 982.754   2
  16  10  -3 1892.70 830.753   4
  10 -26   0 5855.51 816.226   3
 -10 -16   0 5375.12 914.289   1
 -16  26   0 4963.30 1198.58   2
  26 -10   0 3968.66 1054.02   3
  16  10   0 5975.00 1062.20   4
 -26  16   0 6337.89 535.145   1
 -16  26   0 6562.24 1141.74   4
  16  10   0 4274.48 972.685   2
 -10 -16   3 1074.43 685.917   1
  10 -26   3 190.986 615.719   3
  26 -10   3 2454.41 958.627   3
 -16  26   3 1927.34 1009.19   2
 -26  16   3 2491.78 629.334   1
  16  10   3 1952.51 813.321   4
  16  10   3 809.395 868.724   2
 -16  26   3 4192.31 1023.12   4
  10 -26   6 4309.62 765.629   1
  10 -26   6 4562.56 1080.05   3
 -10 -16   6 4342.08 986.962   1
  26 -10   6 4759.68 1042.85   3
 -16  26   6 3761.20 1081.70   2
 -26  16   6 4292.34 1011.04   1
  26 -10   6 3171.27 1006.87   4
 -16  26   6 4793.15 1171.07   1
  16  10   6 4154.56 1109.22   4
  16  10   6 2714.26 1111.60   2
 -16  26   6 6525.30 1220.32   4
 -17  26  -4 1668.53 760.258   4
  17   9  -4 1340.33 635.978   2
   9 -26  -4 835.494 627.059   3
  26  -9  -4-96.0847 918.555   3
  17   9  -4 279.628 697.822   4
   9 -26  -1 4076.11 697.108   3
 -17  26  -1 6959.02 1199.14   2
  26  -9  -1 3374.09 987.158   3
  17   9  -1 8083.78 1268.16   4
  17   9  -1 7060.22 1080.72   2
  -9 -17  -1 3639.77 865.165   1
 -17  26  -1 7100.14 1152.84   4
   9 -26   2 4043.61 827.548   3
 -26  17   2 3395.25 599.024   1
  26  -9   2 3084.18 985.949   3
  -9 -17   2 2596.36 775.887   1
 -17  26   2 2497.08 960.911   2
  17   9   2 3999.47 1021.48   4
  17   9   2 4955.85 1089.35   2
 -17  26   2 4161.40 1028.38   4
   9 -26   5 2547.14 679.306   1
   9 -26   5 4199.92 1039.88   3
  26  -9   5 4714.38 1035.84   3
 -17  26   5 5286.61 1215.68   2
 -26  17   5 3105.83 853.657   1
  -9 -17   5 2901.62 890.091   1
  26  -9   5 3530.70 1091.75   4
  17   9   5 4971.93 1127.67   4
 -17  26   5 2300.71 979.992   1
  17   9   5 4212.74 1112.26   2
 -17  26   5 4456.27 1070.45   4
  26  -8  -5 1526.13 1136.24   3
  18   8  -5 2948.08 959.851   4
 -18  26  -2 843.961 754.168   4
   8 -26  -2 868.249 511.663   3
  26  -8  -2 930.728 1007.76   3
 -18  26  -2 483.882 828.896   2
  18   8  -2 666.894 736.968   4
  18   8  -2 333.381 679.980   2
  -8 -18   1 3746.79 834.600   1
   8 -26   1 3975.74 773.262   3
 -26  18   1 3693.35 505.097   1
  26  -8   1 5034.32 1099.30   3
 -18  26   1 5170.84 1114.80   2
  18   8   1 4992.37 1068.45   4
  18   8   1 2864.60 928.192   2
 -18  26   1 6201.39 1132.48   4
 -18  26   4 1414.64 917.958   4
   8 -26   4 3392.75 897.043   3
  26  -8   4 365.935 809.055   3
 -18  26   4-516.978 807.155   2
 -26  18   4 1556.87 673.882   1
  18   8   4 1523.37 813.636   4
 -18  26   4 754.282 833.041   1
  18   8   4 1705.25 978.551   2
  -8 -18   4-222.991 618.344   1
   8 -26   4 674.317 608.508   1
  19   7  -6 1652.61 803.848   4
 -19  26  -3 3661.59 930.601   4
   7 -26  -3 5137.75 729.872   3
  26  -7  -3 4458.41 1298.94   3
  19   7  -3 3814.56 1042.85   4
  19   7  -3 5055.85 879.423   2
  -7 -19   0 5357.76 684.668   3
   7 -26   0 6063.12 769.104   3
 -19  26   0 6504.67 1196.18   2
  26  -7   0 5879.89 1186.71   3
  -7 -19   0 6270.92 997.391   1
 -26  19   0 5690.79 445.976   1
  19   7   0 6394.80 1134.42   4
  19   7   0 5833.29 1051.84   2
 -19  26   0 6191.35 1177.43   4
 -19  26   3 5573.06 1153.61   4
   7 -26   3 4409.22 866.965   3
  -7 -19   3 3705.68 847.817   1
  26  -7   3 4566.77 1057.56   3
 -19  26   3 3041.69 956.057   2
 -26  19   3 3090.46 686.821   1
  19   7   3 2700.86 739.824   3
  19   7   3 4932.70 1036.19   4
 -19  26   3 4347.50 891.048   1
  19   7   3 4016.53 1072.21   2
 -19  26   6 1218.81 896.676   4
   7 -26   6 2308.06 924.073   3
  26  -7   6 254.239 753.570   3
 -26  19   6 2500.43 878.144   1
 -19  26   6 1994.53 936.650   2
  -7 -19   6 1128.60 787.574   1
  26  -7   6 3093.87 1029.12   4
  26  -7   6 2134.11 1128.95   2
  19   7   6 3978.86 1104.40   4
 -19  26   6 2737.27 1058.21   1
   7 -26   6 789.346 649.059   1
  19   7   6 3133.83 1234.79   2
  26  -6  -4 2185.52 1103.95   3
  26  -6  -4 3968.64 883.518   2
  20   6  -4 4279.75 1083.29   4
  20   6  -4 2778.84 704.083   2
 -20  26  -1 3459.85 969.791   4
  -6 -20  -1 3899.89 470.848   3
   6 -26  -1 2470.86 550.902   3
  26  -6  -1 4291.60 1092.97   3
 -20  26  -1 2623.06 955.847   2
  20   6  -1 5272.07 1039.82   4
 -20  26  -1 1950.60 489.194   1
  20   6  -1 4137.61 948.514   2
 -20  26   2 4094.48 1024.84   4
   6 -26   2 5996.19 920.596   3
 -26  20   2 3930.87 659.471   1
  26  -6   2 3680.00 1057.14   3
 -20  26   2 2696.41 1031.51   2
  20   6   2 1415.15 706.624   3
  20   6   2 5282.05 1121.62   4
  26  -6   2 5964.26 1175.27   2
 -20  26   2 3402.45 782.691   1
  20   6   2 5396.91 1157.72   2
  -6 -20   2 3915.09 868.774   1
 -20  26   5 3313.52 1040.81   4
   6 -26   5 1096.79 820.149   3
   6 -26   5 3452.12 784.663   1
 -26  20   5 3005.63 847.701   1
  26  -6   5 4234.38 1072.02   3
 -20  26   5 2210.55 1014.88   2
  20   6   5 4779.63 1180.30   4
  26  -6   5 3145.93 1060.89   4
  26  -6   5 4232.30 1233.70   2
  20   6   5 2161.35 1079.91   2
 -20  26   5 501.264 811.234   1
  -6 -20   5 2316.51 802.146   1
  26  -5  -5 1473.90 1112.29   3
  21   5  -5 833.122 854.131   4
   5 -26  -2 884.589 472.735   3
  26  -5  -2-1181.02 965.318   3
  26  -5  -2 747.001 729.506   2
  21   5  -2-234.041 795.827   4
  21   5  -2 1324.14 725.430   2
 -21  26   1 883.673 730.479   4
  -5 -21   1-508.540 556.650   3
  -5 -21   1 1210.90 735.673   1
   5 -26   1 455.521 529.393   3
  26  -5   1 187.670 884.247   3
 -21  26   1 157.472 816.995   2
  21   5   1 1423.75 740.732   3
  26  -5   1 1065.33 808.345   4
 -26  21   1 476.416 385.424   1
  26  -5   1 923.903 904.087   2
  21   5   1-601.358 792.985   4
 -21  26   1 769.875 524.809   1
  21   5   1 1583.65 860.986   2
 -21  26   4 740.808 865.432   4
   5 -26   4-77.1546 681.063   3
  -5 -21   4-1246.17 678.900   1
 -26  21   4-44.1888 603.797   1
  26  -5   4 34.0723 824.596   3
 -21  26   4-1526.94 976.821   2
  21   5   4 790.296 727.018   3
  26  -5   4 586.260 877.323   4
  21   5   4-10.2904 725.371   4
  21   5   4 22.8395 843.103   2
 -21  26   4 161.313 747.639   1
   5 -26   4 558.440 592.511   1
  26  -4  -3 6093.03 1297.94   3
  26  -4  -3 7348.82 1349.11   4
  26  -4  -3 6378.89 1076.00   2
  22   4  -3 6762.90 1197.91   4
  22   4  -3 5534.41 950.754   2
  -4 -22   0 658.592 476.012   3
   4 -26   0 483.089 462.488   3
  26  -4   0 2126.20 1063.07   3
  22   4   0 2540.39 914.628   3
 -22  26   0 1659.82 981.026   2
  26  -4   0 657.002 929.611   4
  22   4   0 536.288 903.163   4
  26  -4   0 2776.85 1015.60   2
  -4 -22   0 885.373 699.430   1
  22   4   0 2891.47 956.415   2
 -22  26   0 918.071 463.727   1
 -22  26   3 4871.65 1118.46   4
  -4 -22   3 5675.62 1029.27   3
   4 -26   3 5562.59 948.072   3
  26  -4   3 3909.53 1118.55   3
  22   4   3 4107.53 915.350   3
 -22  26   3 4658.93 1126.97   2
  26  -4   3 7796.56 1425.63   2
  22   4   3 7490.72 1222.54   4
  26  -4   3 6011.15 1244.72   4
  22   4   3 7157.42 1312.90   2
   4 -26   3 6419.98 1020.51   1
  -4 -22   3 4091.58 878.514   1
 -22  26   3 4286.06 905.941   1
 -26  22   3 5707.00 843.441   1
  26  -3  -4 1889.84 1184.43   3
  26  -3  -4 2674.68 1069.20   4
  23   3  -4 5505.37 1195.82   4
  26  -3  -4 3262.74 900.431   2
  23   3  -4 2710.64 782.564   2
   3 -26  -1 577.785 424.395   3
  26  -3  -1 1247.38 990.585   3
  23   3  -1 1336.82 950.081   3
  26  -3  -1 4008.63 1178.54   4
  23   3  -1 2503.39 1053.45   4
  26  -3  -1 554.195 802.603   2
  23   3  -1 2435.62 886.539   2
 -26  23   2 5255.96 720.393   1
  -3 -23   2 4490.03 870.148   3
   3 -26   2 4576.61 839.473   3
  -3 -23   2 5559.26 1019.05   1
  26  -3   2 3923.79 1114.88   3
  23   3   2 5096.22 1113.05   3
 -23  26   2 5374.75 1200.88   2
  26  -3   2 4784.77 1135.90   4
  23   3   2 4234.68 1118.08   4
  26  -3   2 5529.56 1284.04   2
  23   3   2 6088.83 1168.34   2
 -23  26   2 4885.30 780.911   1
 -23  26   5 2269.67 916.225   1
  -3 -23   5 579.967 919.308   3
   3 -26   5 1704.43 912.424   3
 -26  23   5 1365.93 829.118   1
  -3 -23   5 750.091 743.714   1
  26  -3   5 1602.49 932.333   3
 -23  26   5 2151.15 961.824   2
  26  -3   5 3854.47 1099.13   4
  23   3   5 1549.30 969.891   4
  26  -3   5 302.919 1071.09   2
  23   3   5-636.881 998.034   2
   3 -26   5 763.042 731.960   1
  26  -2  -2 1870.01 1123.80   3
  26  -2  -2 2476.99 1092.76   4
  24   2  -2 1004.26 851.894   4
  26  -2  -2 3772.52 971.727   2
  24   2  -2 2184.62 825.543   2
  -2 -24   1 1410.30 754.431   1
 -24  26   1 1777.49 568.987   1
  -2 -24   1 1540.23 593.237   3
   2 -26   1 1786.01 637.874   3
  26  -2   1 565.781 930.574   3
  24   2   1 2572.70 1023.38   3
  26  -2   1 1926.67 981.005   4
  24   2   1 1917.37 1043.52   4
  26  -2   1 2462.63 974.028   2
  24   2   1 1963.91 926.361   2
 -24  26   4 1097.04 700.473   1
  -2 -24   4 575.561 782.884   3
   2 -26   4 2936.94 930.857   3
 -26  24   4 1840.01 766.551   1
   2 -26   4 1166.95 775.929   1
  26  -2   4-257.387 868.346   3
  24   2   4 962.724 876.364   3
 -24  26   4-135.931 898.852   2
  26  -2   4 306.763 855.211   4
  24   2   4 1528.89 916.008   4
  26  -2   4 2141.32 1205.16   2
  -2 -24   4 430.762 688.462   1
  24   2   4 1650.51 1046.70   2
  26  -1  -3 3443.83 1331.19   3
  26  -1  -3 5595.54 1232.16   4
  25   1  -3 6426.46 1261.96   4
  25   1  -3 5038.28 1030.28   2
  26  -1  -3 5116.74 1024.28   2
  -1 -25   0 56.0350 436.862   3
   1 -26   0 1874.91 567.063   3
  26  -1   0 1486.84 1034.19   3
  25   1   0 1564.77 1108.04   3
  26  -1   0 2678.08 1060.74   4
  25   1   0-130.716 831.839   4
  26  -1   0 1629.16 1002.49   2
  25   1   0-1447.19 911.846   2
  -1 -25   3 7886.48 1169.59   3
   1 -26   3 5582.63 1031.19   3
   1 -26   3 6221.89 1051.39   1
  26  -1   3 4546.08 1232.31   3
  25   1   3 4711.78 1110.18   3
  26  -1   3 6185.76 1256.68   4
  25   1   3 6213.53 1261.68   4
  -1 -25   3 5942.41 1029.58   1
  26  -1   3 6229.54 1342.19   2
 -25  26   3 5294.95 944.078   1
  25   1   3 4606.37 1255.42   2
 -26  25   3 4545.90 854.776   1
  26   0  -1 1.30300 903.656   3
  26   0  -1 386.300 842.921   4
  26   0  -1 472.337 896.568   2
   0 -26   2 2525.14 799.238   3
 -26  26   2 1808.91 662.835   1
  26   0   2 2827.01 1020.15   3
  26   0   2 3547.94 1080.49   4
  26   0   2 3433.31 1142.23   2
   0 -26   2 4092.88 1019.42   1
   0  27   0 2054.36 1048.40   2
 -27   0   0 1418.71 783.165   1
  27 -27   0 2165.09 1001.86   3
   0  27   0 3735.43 1161.27   4
   1  26  -1 2996.41 1103.36   2
  -1  27  -1 3301.92 1055.16   2
  26 -27  -1 2755.23 1024.74   3
  27 -26  -1 2716.39 993.607   3
 -27   1  -1 2121.98 774.366   1
   1  26  -1 3687.18 1124.49   4
  -1  27  -1 1411.77 920.954   4
 -26  -1  -1 1035.33 708.362   1
   1  26   2 1217.08 908.657   2
  -1  27   2 2912.66 1104.15   2
  26 -27   2-1165.11 896.639   3
  27 -26   2 538.148 937.829   3
 -27   1   2-910.929 723.243   1
 -26  -1   2 588.200 738.136   1
   1  26   2 1936.43 1044.49   4
  -1  27   2 687.389 858.847   4
 -27   2  -2-24.4224 655.088   1
   2  25  -2 1215.78 891.109   2
  -2  27  -2 2228.67 993.613   2
 -25  -2  -2 163.964 731.021   1
  25 -27  -2 493.077 853.179   3
  27 -25  -2-224.161 930.796   3
   2  25  -2 1077.74 813.843   4
  -2  27  -2 1244.63 851.952   4
   2  25   1 2751.73 1027.16   2
  -2  27   1 1712.76 1035.52   2
  25 -27   1 2426.87 995.982   3
  27 -25   1-589.660 838.396   3
 -27   2   1 1584.32 652.403   1
   2  25   1 664.400 948.384   4
  -2  27   1 3749.71 1146.25   4
 -25  -2   1 1017.81 681.569   1
   3  24  -3-59.3346 774.623   2
  -3  27  -3 1321.52 825.850   2
  24 -27  -3-278.255 914.320   3
  27 -24  -3 524.829 962.431   3
   3  24  -3 278.525 811.981   4
  -3  27  -3 737.317 782.175   4
   3  24   0 7331.40 1290.70   2
 -27   3   0 3454.03 769.481   1
  -3  27   0 4778.81 1121.52   2
  24 -27   0 5629.82 1124.21   3
  27 -24   0 5493.09 1202.29   3
 -24  -3   0 5031.29 925.040   1
   3  24   0 5378.97 1214.54   4
  -3  27   0 5476.76 1154.89   4
   3  24   3 987.428 984.113   2
 -24  -3   3 204.395 732.927   1
  -3  27   3 368.685 941.628   2
  24 -27   3 2195.88 953.419   3
  27 -24   3 400.197 789.290   3
 -27   3   3 492.314 658.513   1
   3  24   3 1779.12 954.589   4
  -3  27   3 1405.72 869.232   4
   4  23  -4-312.962 743.319   2
  -4  27  -4-834.145 863.712   2
  27 -23  -4 23.4669 1010.29   3
   4  23  -4-106.201 800.293   4
  -4  27  -4-823.730 769.719   4
 -23  -4  -1 680.765 690.478   1
   4  23  -1 1860.44 883.752   2
  -4  27  -1 2279.86 973.014   2
  23 -27  -1 53.6127 768.575   3
  27 -23  -1 1900.80 903.674   3
 -27   4  -1 2884.41 730.802   1
   4  23  -1 1910.33 884.280   4
  -4  27  -1 1101.25 890.810   4
 -27   4   2 8.45654 620.470   1
   4  23   2 742.386 901.396   2
  -4  27   2 1415.19 893.672   2
  23 -27   2 918.861 794.562   3
  27 -23   2 859.491 884.645   3
 -23  -4   2 218.013 647.652   1
   4  23   2 60.3443 798.575   4
  -4  27   2 2856.73 1044.01   4
   5  22  -5 2100.85 870.962   2
  22 -27  -5 271.009 1064.63   3
  -5  27  -5 1784.42 1021.33   2
  27 -22  -5 3081.69 1293.59   3
   5  22  -5 2455.19 943.103   4
  -5  27  -5 2487.89 937.018   4
   5  22  -2 2048.96 897.425   2
  22 -27  -2 2032.31 885.790   3
  -5  27  -2 266.342 811.936   2
  27 -22  -2 2237.63 1027.33   3
 -22  -5  -2 2508.27 915.861   1
 -27   5  -2 1261.16 641.362   1
   5  22  -2 1657.26 893.500   4
  -5  27  -2 2898.19 995.641   4
 -22  -5   1 2039.25 713.836   1
   5  22   1 2229.30 951.096   2
  -5  27   1 3546.14 1008.16   2
 -27   5   1 3355.75 761.762   1
  22 -27   1 3538.43 948.419   3
  27 -22   1 3296.46 961.886   3
   5  22   1 2888.18 1003.96   4
  -5  27   1 2743.76 1011.80   4
 -22  -5   4 3160.76 967.011   1
   5  22   4 2282.12 1079.99   2
  -5  27   4 1884.36 1030.14   2
  22 -27   4 2089.03 900.233   3
  27 -22   4-523.918 774.715   3
 -27   5   4 518.017 683.553   1
   5  22   4 422.293 846.963   4
  -5  27   4 662.898 838.873   4
   6  21  -3 1427.15 796.428   2
  21 -27  -3 1904.68 885.451   3
  -6  27  -3 829.626 830.878   2
  27 -21  -3 1273.63 938.411   3
   6  21  -3 1415.10 855.720   4
  -6  27  -3 1895.14 874.454   4
  -6  27   0 10149.5 1382.87   2
  21 -27   0 8604.49 1246.86   3
  27 -21   0 9137.31 1379.79   3
 -27   6   0 8723.10 919.801   1
 -21  -6   0 9400.58 1131.40   1
   6  21   0 10332.0 1372.40   4
  -6  27   0 13051.9 1518.18   4
   6  21   0 12615.3 1492.03   2
   6  21   3 1571.42 1029.34   2
  21 -27   3 1031.47 840.906   3
 -21  -6   3 538.581 733.844   1
  -6  27   3 1041.72 851.610   2
  27 -21   3-565.853 815.326   3
 -27   6   3 156.059 567.303   1
   6  21   3 2025.23 938.921   4
  -6  27   3 113.874 752.895   4
   7  20  -4-697.717 713.695   2
  20 -27  -4 348.645 928.386   3
  -7  27  -4 1730.99 917.937   2
  27 -20  -4 434.077 970.531   3
   7  20  -4-32.6704 739.001   4
  -7  27  -4 1539.74 876.594   4
   7  20  -1 1333.25 769.805   2
 -20  -7  -1 2286.14 793.002   1
 -27   7  -1 587.206 542.090   1
  20 -27  -1 658.067 742.066   3
  -7  27  -1 290.530 797.440   2
  27 -20  -1 1173.14 879.218   3
   7  20  -1 749.538 802.106   4
  -7  27  -1 372.081 872.475   4
   7  20   2 233.319 808.934   2
  20 -27   2 1865.30 837.722   3
  -7  27   2 2971.78 1026.71   2
  27 -20   2 1445.56 868.957   3
 -27   7   2 1385.79 580.016   1
 -20  -7   2 1292.85 705.301   1
   7  20   2 446.851 789.513   4
  -7  27   2 1258.68 868.343   4
   7  20   5 1964.25 1114.15   2
 -27   7   5 1175.49 774.493   1
  20 -27   5-556.993 768.052   3
  -7  27   5 2118.37 1057.35   2
  27 -20   5 2470.85 1047.27   3
   7  20   5-8.66718 861.736   4
 -20  -7   5 1795.89 827.096   1
  -7  27   5 2076.82 914.483   4
   8  19  -5 707.508 729.446   2
  19 -27  -5 3315.18 1223.39   3
  27 -19  -5 2132.43 1082.40   3
  -8  27  -5 2391.66 1036.02   2
   8  19  -5 2067.85 873.368   4
  -8  27  -5 1525.96 822.438   4
   8  19  -2 391.567 681.987   2
 -27   8  -2 834.783 464.037   1
  19 -27  -2 1652.77 781.205   3
  -8  27  -2 1589.28 890.553   2
  27 -19  -2 2061.18 945.035   3
 -19  -8  -2 2325.71 792.265   1
   8  19  -2 543.655 702.050   4
  -8  27  -2 687.540 773.568   4
   8  19   1 1992.24 914.121   2
 -19  -8   1 2305.06 775.402   1
  19 -27   1 2825.24 885.050   3
  -8  27   1 2808.18 1039.66   2
  27 -19   1 1390.89 856.520   3
   8  19   1 2514.93 897.208   4
  -8  27   1 1997.87 915.738   4
 -27   8   1 1925.30 642.953   1
   8  19   4 3248.12 1101.79   2
 -19  -8   4 829.437 790.615   1
 -27   8   4 4176.93 851.472   1
  19 -27   4 3113.83 959.871   3
  -8  27   4 3089.99 1109.50   2
  27 -19   4 2342.21 904.939   3
   8  19   4 4478.72 1112.64   4
  -8  27   4 2407.60 930.406   4
   9  18  -3 1887.07 773.334   2
  18 -27  -3-408.605 779.468   3
  -9  27  -3 1495.51 904.607   2
  27 -18  -3 2580.93 1098.26   3
   9  18  -3 2637.42 936.288   4
  -9  27  -3 3779.59 973.546   4
   9  18   0 3389.74 981.255   2
  18 -27   0 4352.50 899.563   3
 -27   9   0 962.041 511.609   1
  -9  27   0 2600.48 997.211   2
  27 -18   0 2625.71 938.188   3
 -18  -9   0 2838.04 786.220   1
   9  18   0 2131.25 895.013   4
  -9  27   0 2645.55 945.119   4
   9  18   3 1117.85 924.993   2
  18 -27   3 2111.06 881.815   3
  -9  27   3 986.223 921.534   2
 -27   9   3 1125.60 603.102   1
  27 -18   3 1130.58 851.068   3
 -18  -9   3 915.022 742.282   1
   9  18   3 1736.10 949.146   4
  -9  27   3 1106.76 887.390   4
  10  17  -4 2189.72 742.418   2
  17 -27  -4 4202.93 1037.53   3
  27 -17  -4 2704.69 1183.12   3
 -10  27  -4 2543.41 1003.95   2
  10  17  -4 2987.96 964.938   4
 -10  27  -4 3976.85 947.923   4
 -27  10  -1 294.227 430.453   1
  10  17  -1-435.507 723.308   2
  17 -27  -1 1458.53 661.030   3
 -10  27  -1 648.406 862.718   2
  27 -17  -1 1024.67 866.011   3
 -17 -10  -1 795.436 605.585   1
  10  17  -1 1351.49 908.827   4
 -10  27  -1 446.616 724.292   4
  10  17   2 1380.75 917.905   2
  17 -27   2 1330.02 725.899   3
 -10  27   2 1674.04 946.034   2
  27 -17   2 983.121 808.028   3
 -27  10   2 1316.96 569.257   1
  10  17   2 781.531 694.805   4
 -17 -10   2 816.692 659.377   1
 -10  27   2 1294.80 806.501   4
  10  17   5-840.316 962.282   2
  17 -27   5 1357.95 884.356   3
 -10  27   5 370.548 853.775   2
  27 -17   5-69.9849 792.006   3
  10  17   5-213.298 791.928   4
 -10  27   5-623.245 801.191   4
 -17 -10   5 1867.51 822.590   1
 -27  10   5-548.353 677.588   1
  11  16  -5 1042.40 661.291   2
  16 -27  -5 2870.92 1056.43   3
  27 -16  -5 1323.79 978.415   3
 -11  27  -5 744.471 963.735   2
  11  16  -5 1296.59 854.863   4
 -11  27  -5 2204.38 888.729   4
  11  16  -2 2155.50 790.867   2
  16 -27  -2 3581.13 846.874   3
 -27  11  -2 1641.49 420.480   1
 -11  27  -2 2403.20 1027.91   2
  27 -16  -2 2424.60 1038.45   3
  11  16  -2 1920.21 835.535   4
 -16 -11  -2 1108.37 727.048   1
 -11  27  -2 2527.12 887.487   4
  11  16   1 2152.08 968.780   2
  16 -27   1 3598.08 878.178   3
 -16 -11   1 3346.32 776.187   1
  27 -16   1 2799.85 1014.75   3
 -11  27   1 3028.69 1045.14   2
  11  16   1 2079.82 979.785   4
 -27  11   1 4493.16 642.631   1
 -11  27   1 4378.70 1062.11   4
  11  16   4 2268.66 998.992   2
 -27  11   4 1407.03 672.853   1
  16 -27   4 1366.59 842.232   3
 -16 -11   4 809.011 813.784   1
  27 -16   4 2266.55 947.911   3
 -11  27   4 4146.56 1140.00   2
  11  16   4 2799.36 979.399   4
 -11  27   4 2380.27 896.250   4
  15 -27  -6 1738.67 995.944   3
  27 -15  -6 1207.16 1069.34   3
  12  15  -6 1690.48 857.004   4
 -12  27  -6 952.157 782.386   4
  12  15  -3 2933.56 766.848   2
  15 -27  -3 2773.66 828.976   3
  27 -15  -3 3752.79 1184.88   3
 -12  27  -3 3718.77 1014.77   2
  12  15  -3 3437.51 955.479   4
 -12  27  -3 2985.96 890.764   4
  12  15   0 507.911 744.145   2
 -27  12   0 108.059 446.779   1
  15 -27   0 601.947 642.858   3
  27 -15   0-426.264 753.305   3
 -12  27   0 883.285 811.995   2
  12  15   0 958.385 818.198   4
 -15 -12   0 234.820 657.338   1
 -12  27   0 183.417 706.205   4
 -27  12   3 100.093 509.639   1
  15 -27   3-589.465 736.862   3
  27 -15   3-12.6966 776.165   3
 -12  27   3 2225.49 952.016   2
 -15 -12   3 859.413 617.616   1
  12  15   3 1234.03 878.544   4
 -12  27   3 507.171 760.869   4
  12  15   3 763.021 858.780   2
  15 -27   6 1657.11 898.470   3
  27 -15   6 852.893 805.739   3
 -12  27   6 1880.96 1028.53   2
  12  15   6 4107.38 1152.02   4
 -27  12   6 3050.03 868.523   1
 -15 -12   6 3891.39 959.616   1
 -12  27   6 1276.77 904.605   4
  12  15   6 2493.49 1155.07   2
  13  14  -4 3012.33 708.692   2
  14 -27  -4 2723.55 907.279   3
  27 -14  -4 746.850 1035.26   3
 -13  27  -4 3647.80 1082.25   2
  13  14  -4 4955.60 1029.37   4
 -13  27  -4 3022.27 863.832   4
  13  14  -1 3715.38 994.087   2
 -14 -13  -1 3555.17 871.303   1
  14 -27  -1 2964.59 758.653   3
  27 -14  -1 4363.23 1117.50   3
 -13  27  -1 3588.61 1023.32   2
  13  14  -1 4705.87 1067.17   4
 -27  13  -1 1892.62 419.008   1
 -13  27  -1 3843.66 1026.10   4
 -14 -13   2 2629.89 750.217   1
 -27  13   2 3103.82 613.585   1
  14 -27   2 3980.47 855.930   3
  27 -14   2 3441.02 983.987   3
 -13  27   2 1732.57 835.017   2
  13  14   2 3186.30 975.233   4
 -13  27   2 3752.63 1010.98   4
  13  14   2 3211.11 985.675   2
 -14 -13   5 1199.24 727.824   1
  14 -27   5 1639.19 927.995   3
  27 -14   5 616.294 802.516   3
 -13  27   5 2914.95 1060.09   2
  13  14   5 2200.16 874.342   4
 -27  13   5 1669.30 722.285   1
  13  14   5 1217.85 978.122   2
 -13  27   5 2113.82 902.384   4
  14  13  -5 931.976 585.496   2
  13 -27  -5 1333.00 797.567   3
  27 -13  -5 1994.69 1183.40   3
  14  13  -5 2321.98 870.590   4
 -14  27  -5 3248.26 893.833   4
  14  13  -2 3850.97 861.379   2
  13 -27  -2 4085.15 784.376   3
  27 -13  -2 3710.14 1153.12   3
 -14  27  -2 4570.53 1063.27   2
  14  13  -2 3516.05 945.617   4
 -14  27  -2 2532.55 888.146   4
  13 -27   1 4293.60 863.243   3
  27 -13   1 3031.11 1009.60   3
 -14  27   1 3167.87 977.754   2
 -13 -14   1 2504.50 769.954   1
 -27  14   1 3438.34 561.118   1
  14  13   1 5510.71 1073.60   4
  14  13   1 6541.69 1118.13   2
 -14  27   1 2931.77 968.970   4
  13 -27   4 2472.72 886.140   3
  27 -13   4 3914.97 998.525   3
 -14  27   4 3744.25 1112.47   2
 -13 -14   4 1542.06 763.184   1
  14  13   4 3212.50 940.015   4
 -27  14   4 3040.12 728.790   1
  14  13   4 3431.09 1033.27   2
 -14  27   4 3682.99 1065.15   4
 -15  27  -6 2539.33 847.496   4
  27 -12  -6 2397.28 1218.08   3
  15  12  -6 2199.35 926.388   4
  15  12  -3 1539.57 725.260   2
  12 -27  -3 846.500 670.862   3
  27 -12  -3 1748.75 889.614   3
 -15  27  -3 916.355 850.929   2
  15  12  -3 391.517 697.546   4
 -15  27  -3 1035.80 778.869   4
  12 -27   0 443.726 623.410   3
 -12 -15   0-393.827 636.226   1
  27 -12   0 633.927 795.408   3
 -15  27   0 829.308 890.537   2
  15  12   0 467.806 722.750   4
 -27  15   0 481.008 364.521   1
  15  12   0 422.086 701.066   2
 -15  27   0 1658.72 909.094   4
  12 -27   3 3573.25 862.179   3
  27 -12   3 1553.63 867.992   3
 -15  27   3 2135.53 950.102   2
  15  12   3 4197.53 1028.17   4
 -27  15   3 2748.67 656.981   1
  15  12   3 2572.63 1062.76   2
 -15  27   3 4034.90 1047.26   4
 -12 -15   3 2611.04 750.701   1
 -12 -15   6 1136.69 835.188   1
  12 -27   6-549.390 771.576   3
  27 -12   6 1862.29 998.605   3
 -15  27   6 768.124 903.030   2
 -27  15   6 340.933 735.928   1
  15  12   6 199.159 836.094   4
  15  12   6 580.854 989.854   2
 -15  27   6-2.41684 820.737   4
 -16  27  -4 1687.38 825.066   4
  16  11  -4 2908.89 718.735   2
  11 -27  -4 324.603 690.890   3
  27 -11  -4 2919.27 1149.30   3
  16  11  -4 4194.49 983.662   4
 -11 -16  -1 4061.61 917.347   1
  11 -27  -1 3091.47 659.057   3
  27 -11  -1 1084.38 856.280   3
 -16  27  -1 3896.68 1079.55   2
  16  11  -1 2905.09 889.587   4
 -27  16  -1 847.442 259.782   1
  16  11  -1 2593.78 856.364   2
 -16  27  -1 4711.50 1051.80   4
  11 -27   2 1639.04 656.897   3
 -11 -16   2 2231.72 776.882   1
  27 -11   2 2464.22 921.709   3
 -16  27   2 207.487 813.269   2
  16  11   2 4069.88 999.859   4
  16  11   2 3950.12 1069.73   2
 -27  16   2 1718.31 510.584   1
 -16  27   2 1806.70 845.976   4
  11 -27   5 212.080 759.042   3
  27 -11   5 1823.62 985.149   3
 -16  27   5 2847.81 1050.99   2
 -11 -16   5-505.984 721.766   1
 -27  16   5 2926.20 872.638   1
  16  11   5 993.196 827.862   4
  16  11   5 2749.13 1100.57   2
 -16  27   5 2138.69 927.708   4
 -17  27  -5-100.343 661.180   4
  27 -10  -5 1753.71 1107.52   3
  17  10  -5 662.280 828.725   4
  10 -27  -2 2731.84 685.744   3
  27 -10  -2-327.207 997.398   3
 -17  27  -2 393.016 834.805   2
  17  10  -2 1039.99 764.433   4
  17  10  -2 1643.64 719.885   2
 -17  27  -2 557.129 738.309   4
 -27  17   1 567.281 410.356   1
  10 -27   1 560.365 589.223   3
  27 -10   1 437.166 814.736   3
 -17  27   1 360.747 865.634   2
  17  10   1 1206.14 791.627   4
  17  10   1 1515.90 796.526   2
 -10 -17   1 938.978 660.362   1
 -17  27   1 926.135 811.409   4
  10 -27   4 2220.68 836.428   3
 -27  17   4 4146.47 831.352   1
  27 -10   4 2459.81 933.327   3
 -17  27   4 3692.95 1077.30   2
  17  10   4 3649.62 1003.85   4
  17  10   4 1537.64 991.923   2
 -10 -17   4 2110.29 729.984   1
 -17  27   4 3632.18 1105.01   4
  18   9  -3 618.007 663.613   2
 -18  27  -3 1388.53 789.609   4
   9 -27  -3 1392.06 630.642   3
  27  -9  -3 281.398 968.097   3
  18   9  -3 1448.40 760.032   4
   9 -27   0 2001.30 608.823   3
  -9 -18   0 728.799 671.133   1
  27  -9   0 1397.41 942.022   3
 -18  27   0 3486.22 1109.94   2
  18   9   0 3194.51 937.867   4
 -27  18   0 2657.23 390.174   1
  18   9   0 2697.26 861.930   2
 -18  27   0 3883.48 1023.85   4
   9 -27   3 1144.17 687.506   3
  -9 -18   3 2471.68 758.977   1
  27  -9   3 1700.85 872.983   3
 -18  27   3 4477.05 1132.82   2
 -27  18   3 1702.61 633.071   1
  18   9   3 3933.02 1050.21   4
  18   9   3 2689.26 1019.50   2
 -18  27   3 3701.57 1055.73   4
 -19  27  -4 4867.06 989.451   4
  19   8  -4 4150.90 785.125   2
  27  -8  -4 2491.05 1174.39   3
  19   8  -4 2593.47 939.356   4
 -19  27  -1 1925.59 836.941   4
  -8 -19  -1 1813.86 436.948   3
   8 -27  -1 2832.37 627.313   3
  27  -8  -1 1261.85 928.075   3
 -19  27  -1 1201.51 916.002   2
  19   8  -1 2105.08 863.679   4
  19   8  -1 2414.56 871.677   2
 -19  27   2 1893.03 900.573   4
   8 -27   2 2418.86 759.126   3
  27  -8   2 1242.34 919.422   3
 -19  27   2 2083.71 967.291   2
  19   8   2 1300.23 808.798   4
 -27  19   2 2007.10 544.796   1
  -8 -19   2 578.280 620.305   1
  19   8   2 1686.01 911.954   2
 -19  27   5 2247.36 1005.57   4
   8 -27   5 1544.24 849.501   3
   8 -27   5 1322.39 677.319   1
  27  -8   5 1023.92 915.253   3
 -19  27   5-103.090 907.539   2
 -27  19   5 1065.07 766.559   1
  27  -8   5 580.173 896.561   4
  27  -8   5 1945.55 1121.47   2
  19   8   5 781.809 827.653   4
 -19  27   5 1427.82 933.985   1
  -8 -19   5 672.079 699.440   1
  19   8   5 1604.54 1021.02   2
  27  -7  -5 478.159 1074.42   3
  27  -7  -5 1120.53 744.002   2
  20   7  -5 407.013 816.642   4
 -20  27  -2 877.284 805.296   4
   7 -27  -2 742.797 513.129   3
  27  -7  -2-157.020 1048.86   3
  20   7  -2 1035.27 755.342   4
  20   7  -2 1429.03 780.293   2
 -20  27   1 957.756 826.119   4
  -7 -20   1-315.221 543.277   3
   7 -27   1 991.021 583.236   3
  27  -7   1 1364.04 935.203   3
 -20  27   1 225.806 850.987   2
  20   7   1 867.675 888.904   4
  -7 -20   1 67.7650 648.820   1
 -20  27   1 505.618 607.079   1
  20   7   1 8.62564 743.566   2
 -27  20   1 362.300 359.528   1
 -20  27   4 1262.00 898.622   4
   7 -27   4 198.698 653.972   1
   7 -27   4 398.501 681.382   3
  -7 -20   4 1422.06 777.377   1
  27  -7   4 1127.56 880.962   3
 -27  20   4 1372.01 665.299   1
 -20  27   4-634.635 912.937   2
  27  -7   4-853.442 913.839   4
  27  -7   4 779.963 996.814   2
  20   7   4 2360.29 954.244   4
 -20  27   4 798.872 827.422   1
  20   7   4-167.293 864.968   2
  27  -6  -3-115.059 1047.27   3
  27  -6  -3 1135.25 816.407   2
  21   6  -3 2057.99 914.214   4
  21   6  -3 1212.01 741.854   2
  -6 -21   0 11162.0 921.485   3
   6 -27   0 10184.5 961.667   3
  27  -6   0 9466.18 1461.67   3
 -21  27   0 11953.0 1544.45   2
  27  -6   0 13400.0 1548.05   2
 -21  27   0 8550.03 842.468   1
  21   6   0 9751.10 1397.35   4
  21   6   0 12049.7 1480.25   2
  -6 -21   0 9520.84 1196.08   1
 -21  27   0 13640.2 1599.30   4
 -21  27   3 661.283 926.356   4
   6 -27   3 2716.35 803.094   3
  27  -6   3 2216.43 1067.59   3
 -27  21   3 1259.32 613.399   1
 -21  27   3 2253.06 1049.24   2
  21   6   3 732.836 662.604   3
  -6 -21   3 2262.80 717.796   1
  27  -6   3 1865.25 1013.62   4
  27  -6   3 2670.01 1167.83   2
  21   6   3 3563.20 1029.43   4
 -21  27   3 2293.19 803.372   1
  21   6   3 2180.22 1006.72   2
  27  -5  -4 1807.12 1196.69   3
  22   5  -4 1915.46 965.217   4
  27  -5  -4 1016.20 769.332   2
  22   5  -4 2042.71 746.338   2
   5 -27  -1 3111.20 595.556   3
  27  -5  -1 1954.54 1041.35   3
  27  -5  -1 5204.39 1103.77   2
  22   5  -1 3254.80 1075.10   4
  22   5  -1 4248.72 998.290   2
 -22  27   2 1279.31 902.882   4
  -5 -22   2 970.177 694.106   3
   5 -27   2 1154.79 659.509   3
  -5 -22   2 1896.17 779.533   1
  27  -5   2 557.776 898.910   3
 -27  22   2 2393.36 577.410   1
 -22  27   2 428.502 864.850   2
  22   5   2 1342.76 775.040   3
  27  -5   2 2037.48 1066.96   4
  27  -5   2 1947.88 1069.85   2
  22   5   2 2915.01 1101.74   4
  22   5   2 3082.92 1148.72   2
 -22  27   2 2345.93 706.394   1
 -22  27   5 2854.29 1034.82   4
   5 -27   5 1635.72 888.769   3
  -5 -22   5 2050.75 806.766   1
  27  -5   5 1496.43 968.887   3
   5 -27   5 856.919 671.612   1
 -22  27   5 3184.59 1088.62   2
  27  -5   5 2794.63 1120.82   4
  27  -5   5 3032.90 1176.71   2
  22   5   5 3450.08 1074.50   4
  22   5   5 2177.33 1182.50   2
  27  -4  -2-727.076 984.690   3
  27  -4  -2-462.674 951.173   4
  23   4  -2 661.859 965.467   4
  27  -4  -2 933.673 849.032   2
  23   4  -2 963.560 763.320   2
  -4 -23   1 1626.60 645.010   3
   4 -27   1 1020.47 598.829   3
  27  -4   1 910.085 1071.89   3
  23   4   1 896.172 792.073   3
 -23  27   1 1249.84 948.105   2
  27  -4   1 244.906 918.591   4
  23   4   1 1580.77 900.123   4
  27  -4   1 1208.52 894.148   2
  23   4   1 436.294 798.926   2
  -4 -23   1 264.965 719.341   1
 -23  27   1 333.101 536.026   1
  -4 -23   4 60.7705 773.213   3
   4 -27   4-846.202 768.565   3
   4 -27   4 82.0658 676.815   1
 -27  23   4 826.357 665.664   1
  27  -4   4 833.845 951.846   3
  23   4   4 1372.85 844.344   3
 -23  27   4 1144.68 1003.94   2
  -4 -23   4 524.148 736.683   1
  27  -4   4 851.091 937.876   4
  23   4   4 263.802 805.684   4
  27  -4   4 877.355 1086.31   2
  23   4   4-99.0778 941.752   2
 -23  27   4 480.355 720.274   1
  27  -3  -3-961.629 1145.61   3
  27  -3  -3-183.037 954.197   4
  24   3  -3 672.584 824.244   4
  27  -3  -3 394.020 780.388   2
  24   3  -3 1242.50 789.439   2
  -3 -24   0 3652.06 634.128   3
   3 -27   0 3977.87 706.095   3
  27  -3   0 4104.56 1237.90   3
  24   3   0 5064.63 1236.35   3
  27  -3   0 6657.52 1273.08   2
  27  -3   0 4222.55 1190.03   4
  24   3   0 3059.46 1044.48   4
  24   3   0 4327.88 1115.37   2
 -24  27   3-1237.10 770.918   1
  -3 -24   3 284.938 701.516   3
   3 -27   3 454.137 660.241   3
   3 -27   3 633.283 712.590   1
  -3 -24   3-266.986 714.578   1
 -27  24   3-272.922 599.460   1
  27  -3   3 416.169 962.175   3
  24   3   3-252.545 864.875   3
 -24  27   3 568.693 938.618   2
  27  -3   3 276.819 870.811   4
  24   3   3 2219.07 984.211   4
  27  -3   3 684.337 948.814   2
  24   3   3-274.206 968.253   2
  27  -2  -1 1321.67 1067.62   3
  25   2  -1 640.808 958.784   3
  27  -2  -1 2672.96 1032.36   4
  25   2  -1 523.793 926.414   4
  27  -2  -1 1522.40 1002.66   2
  25   2  -1 645.313 852.992   2
 -25  27   2 1687.64 665.060   1
  -2 -25   2-286.402 631.044   3
   2 -27   2 899.745 637.017   3
  27  -2   2 991.591 948.769   3
  25   2   2-1133.10 941.898   3
  27  -2   2 2574.68 1059.23   4
  25   2   2 161.267 849.105   4
  -2 -25   2 1043.89 836.129   1
  27  -2   2-190.548 910.108   2
  25   2   2-21.8891 946.288   2
  27  -1  -2 238.991 990.462   3
  26   1  -2 1596.61 1037.48   3
  27  -1  -2 584.546 927.175   4
  26   1  -2 1414.29 1057.05   4
  27  -1  -2-195.517 809.018   2
  26   1  -2 1128.06 849.929   2
  -1 -26   1 2686.18 722.643   3
   1 -27   1 1385.41 617.489   3
  27  -1   1 2418.32 1133.78   3
  26   1   1 3962.52 1234.60   3
  27  -1   1 2896.11 1079.69   4
  26   1   1 2953.30 1115.48   4
  27  -1   1 1333.56 1000.50   2
  26   1   1 2677.85 1080.98   2
  27   0   0 2342.43 1156.73   3
  27   0   0 817.795 940.396   4
  27   0   0 2590.66 1142.11   2
 -28   2   0 1629.35 722.128   1
   2  26   0 202.296 881.008   2
  -2  28   0 1986.27 1013.75   2
  26 -28   0 2485.66 996.628   3
  28 -26   0 1724.85 967.236   3
 -26  -2   0 1719.87 770.577   1
   2  26   0 3232.11 1152.64   4
  -2  28   0 481.201 1011.30   4
 -25  -3  -1 316.707 718.251   1
   3  25  -1-231.119 881.686   2
  -3  28  -1 193.956 954.222   2
  25 -28  -1 1028.56 854.745   3
  28 -25  -1 1227.20 979.775   3
 -28   3  -1 834.097 684.306   1
   3  25  -1-152.660 820.591   4
  -3  28  -1 109.713 854.646   4
   3  25   2 1834.47 1051.83   2
 -28   3   2 1472.82 807.945   1
  -3  28   2 505.115 898.875   2
  25 -28   2 1584.15 899.266   3
  28 -25   2 872.338 883.810   3
 -25  -3   2 807.147 676.116   1
   3  25   2-561.300 873.853   4
  -3  28   2 2654.32 1078.46   4
   4  24  -2 1845.74 928.870   2
  -4  28  -2 906.947 852.399   2
  24 -28  -2 920.747 896.272   3
  28 -24  -2-465.975 1000.11   3
 -24  -4  -2 742.455 737.814   1
   4  24  -2 1965.69 926.318   4
  -4  28  -2 772.537 794.941   4
 -28   4  -2 734.026 618.524   1
 -24  -4   1 2526.11 794.605   1
   4  24   1 1916.03 991.376   2
  -4  28   1 425.671 873.851   2
  24 -28   1 850.786 819.033   3
  28 -24   1 1197.87 985.249   3
 -28   4   1 1046.18 645.739   1
   4  24   1-1199.96 1029.37   4
  -4  28   1 977.211 1001.33   4
   5  23  -3 3888.13 976.540   2
  23 -28  -3 3838.51 1109.95   3
  -5  28  -3 4519.40 1130.64   2
  28 -23  -3 4684.05 1250.22   3
   5  23  -3 5748.46 1181.69   4
  -5  28  -3 6156.95 1162.36   4
   5  23   0 937.488 870.324   2
  -5  28   0 2317.65 949.754   2
  23 -28   0 2410.48 922.546   3
  28 -23   0 2082.61 1092.86   3
 -23  -5   0 1505.32 733.087   1
   5  23   0 3494.39 1051.79   4
  -5  28   0 2862.40 1002.45   4
 -28   5   0 2750.74 707.750   1
  -5  28   3 7328.05 1446.36   2
  23 -28   3 4937.65 1139.37   3
  28 -23   3 5970.91 1291.69   3
 -23  -5   3 2742.71 939.775   1
   5  23   3 7102.66 1363.13   4
  -5  28   3 9246.62 1439.52   4
 -28   5   3 6832.31 950.072   1
   5  23   3 6481.71 1396.89   2
   6  22  -4 733.468 774.437   2
  22 -28  -4 1687.43 1096.56   3
  -6  28  -4 447.636 923.554   2
  28 -22  -4 2084.24 1177.66   3
   6  22  -4 26.3800 781.880   4
  -6  28  -4 722.365 814.990   4
   6  22  -1 1026.12 750.413   2
 -22  -6  -1 1307.12 739.685   1
  22 -28  -1 2042.28 902.967   3
  -6  28  -1-730.341 898.299   2
  28 -22  -1 1463.05 884.824   3
 -28   6  -1 1147.77 619.439   1
   6  22  -1 729.860 895.169   4
  -6  28  -1 1291.20 856.069   4
   6  22   2 1061.97 890.331   2
  22 -28   2 607.812 773.335   3
  -6  28   2 1641.25 994.654   2
  28 -22   2 1864.95 920.736   3
 -22  -6   2 2061.89 781.291   1
   6  22   2 847.959 956.566   4
  -6  28   2 2639.79 1073.18   4
 -28   6   2-1000.56 580.657   1
   7  21  -2 5692.32 1070.03   2
  21 -28  -2 4329.45 1026.79   3
  -7  28  -2 6139.16 1199.09   2
  28 -21  -2 5365.71 1296.78   3
 -28   7  -2 2829.53 660.470   1
 -21  -7  -2 3921.47 991.809   1
   7  21  -2 4694.38 1108.92   4
  -7  28  -2 7744.47 1265.38   4
   7  21   1 222.849 816.169   2
 -21  -7   1 830.371 630.921   1
 -28   7   1 621.395 617.760   1
  21 -28   1 1690.62 867.716   3
  -7  28   1 1986.64 1050.69   2
  28 -21   1 2108.16 994.189   3
   7  21   1 2502.87 995.746   4
  -7  28   1 2104.28 940.446   4
   7  21   4 3782.66 1248.41   2
 -21  -7   4 686.292 835.779   1
  21 -28   4 3937.57 1064.59   3
  -7  28   4 1110.74 1106.13   2
  28 -21   4 4048.29 1192.26   3
 -28   7   4 2954.38 764.043   1
   7  21   4 6093.40 1289.64   4
  -7  28   4 2040.32 973.776   4
   8  20  -3 3643.63 932.240   2
  20 -28  -3 5118.15 1099.07   3
  -8  28  -3 4714.34 1166.52   2
  28 -20  -3 5490.94 1315.33   3
   8  20  -3 6137.03 1153.82   4
  -8  28  -3 5617.11 1130.59   4
   8  20   0 3168.65 974.753   2
  20 -28   0 3319.03 917.234   3
  -8  28   0 1237.92 901.620   2
  28 -20   0 3682.77 1094.22   3
 -20  -8   0 1510.60 760.481   1
 -28   8   0 1539.67 590.515   1
   8  20   0 2770.58 979.619   4
  -8  28   0 2637.16 948.626   4
   8  20   3 4252.79 1259.88   2
  20 -28   3 4602.47 1018.98   3
  -8  28   3 5693.18 1296.47   2
  28 -20   3 2895.92 1057.70   3
 -28   8   3 2380.48 705.384   1
 -20  -8   3 1905.82 857.274   1
   8  20   3 5640.80 1319.32   4
  -8  28   3 5936.54 1257.58   4
   9  19  -4-509.174 742.411   2
  19 -28  -4-449.492 890.904   3
  28 -19  -4 341.544 1080.01   3
  -9  28  -4 711.806 889.839   2
   9  19  -4 229.758 800.955   4
  -9  28  -4 876.262 814.833   4
   9  19  -1-821.055 803.180   2
 -28   9  -1 345.445 492.426   1
  19 -28  -1 2017.16 837.986   3
  -9  28  -1 1784.88 893.159   2
  28 -19  -1 1914.78 939.145   3
 -19  -9  -1 1599.53 785.412   1
   9  19  -1 1501.50 898.878   4
  -9  28  -1 1036.70 818.676   4
   9  19   2 954.258 864.240   2
  19 -28   2 761.120 708.103   3
  -9  28   2 882.644 891.517   2
  28 -19   2 471.679 912.483   3
 -28   9   2 396.340 511.149   1
   9  19   2 241.046 758.730   4
 -19  -9   2 238.628 593.258   1
  -9  28   2 1710.63 950.641   4
 -19  -9   5-1422.97 856.919   1
   9  19   5 1012.87 1096.13   2
 -28   9   5-782.214 736.855   1
  19 -28   5 1306.75 903.249   3
  -9  28   5 1522.25 1049.97   2
  28 -19   5 2106.25 931.719   3
   9  19   5 1715.46 1008.60   4
  -9  28   5 3312.00 1131.70   4
  10  18  -5 1196.64 698.966   2
  18 -28  -5 2783.59 1165.85   3
  28 -18  -5 3045.21 1289.21   3
 -10  28  -5 1911.19 940.557   2
  10  18  -5 2995.17 955.988   4
 -10  28  -5 3557.48 978.864   4
  10  18  -2 4409.80 982.358   2
  18 -28  -2 3911.79 948.931   3
 -10  28  -2 4821.88 1137.12   2
  28 -18  -2 5896.91 1302.28   3
 -18 -10  -2 4325.36 949.764   1
 -28  10  -2 2702.51 543.898   1
  10  18  -2 4963.72 1154.01   4
 -10  28  -2 6758.49 1210.04   4
 -28  10   1 4095.80 706.544   1
  18 -28   1 4970.40 973.742   3
 -10  28   1 3889.19 1159.62   2
  28 -18   1 3162.74 1054.24   3
 -18 -10   1 6771.37 1048.10   1
  10  18   1 5461.37 1109.32   4
 -10  28   1 6946.28 1240.30   4
  10  18   1 5733.96 1210.97   2
  10  18   4 4490.51 1168.15   2
 -28  10   4 3642.86 831.290   1
  18 -28   4 4408.44 1078.50   3
 -18 -10   4 3810.97 957.475   1
 -10  28   4 3445.71 1083.64   2
  28 -18   4 4102.40 1178.89   3
  10  18   4 6658.28 1259.53   4
 -10  28   4 3841.98 1144.27   4
  11  17  -3 2572.98 811.112   2
 -11  28  -3 5195.70 1235.94   2
  17 -28  -3 2897.03 875.299   3
  28 -17  -3 3974.23 1303.03   3
  11  17  -3 4870.00 1048.93   4
 -11  28  -3 1442.60 861.645   4
  11  17   0 1330.25 783.197   2
  17 -28   0 1047.98 695.815   3
 -28  11   0-38.4967 501.497   1
  28 -17   0 1429.44 816.794   3
 -11  28   0 1383.60 958.172   2
  11  17   0-256.036 778.303   4
 -17 -11   0 1836.18 760.708   1
 -11  28   0 974.095 816.203   4
  11  17   3 2423.51 990.746   2
  17 -28   3 594.853 754.247   3
 -28  11   3 1827.11 644.566   1
 -11  28   3 362.154 900.094   2
  28 -17   3-622.766 884.226   3
 -17 -11   3-55.6248 639.712   1
  11  17   3 2227.03 952.031   4
 -11  28   3 746.088 795.010   4
  12  16  -4 1548.86 704.490   2
  16 -28  -4 1411.51 874.964   3
  28 -16  -4 1444.90 1128.17   3
 -12  28  -4 2319.67 1002.28   2
  12  16  -4 1716.08 939.458   4
 -12  28  -4 4224.30 995.116   4
 -16 -12  -1 34.8699 642.002   1
 -28  12  -1-314.167 397.952   1
  12  16  -1 1012.09 823.425   2
  16 -28  -1 177.827 583.827   3
  28 -16  -1 171.594 831.306   3
 -12  28  -1-29.7688 807.541   2
  12  16  -1-1026.62 919.731   4
 -12  28  -1 1132.70 818.865   4
  12  16   2 5595.38 1162.61   2
 -16 -12   2 3014.45 831.589   1
  16 -28   2 3553.85 898.630   3
 -28  12   2 3635.57 668.944   1
  28 -16   2 2172.72 967.844   3
 -12  28   2 3353.12 982.919   2
  12  16   2 4708.84 1087.00   4
 -12  28   2 5109.29 1155.71   4
 -16 -12   5 660.995 810.293   1
  16 -28   5 1397.98 882.040   3
  28 -16   5 1791.06 810.350   3
 -12  28   5-793.899 925.646   2
  12  16   5 1694.87 951.689   4
 -28  12   5 2132.93 806.738   1
 -12  28   5 700.934 853.391   4
  12  16   5 801.183 969.846   2
  15 -28  -5 871.849 905.058   3
  28 -15  -5 3234.88 1204.77   3
 -13  28  -5 1247.34 944.474   2
  13  15  -5 1594.68 860.222   4
 -13  28  -5 1775.44 803.286   4
  13  15  -2 4252.76 902.105   2
  15 -28  -2 1966.68 759.557   3
  28 -15  -2 6260.18 1272.89   3
 -13  28  -2 2851.21 1022.55   2
  13  15  -2 6791.29 1168.41   4
 -13  28  -2 5965.60 1116.76   4
 -15 -13  -2 4122.15 927.121   1
  13  15   1 1415.38 851.293   2
  15 -28   1 277.004 634.035   3
  28 -15   1 1078.80 853.163   3
 -13  28   1 1384.52 934.409   2
 -15 -13   1 1747.80 722.981   1
 -28  13   1 1188.06 485.428   1
  13  15   1 2064.81 975.789   4
 -13  28   1 2055.08 950.812   4
  15 -28   4 5212.41 1078.65   3
  28 -15   4 5172.07 1123.41   3
 -13  28   4 5975.17 1235.44   2
 -28  13   4 4418.76 863.129   1
 -15 -13   4 3417.17 924.154   1
  13  15   4 6066.34 1276.64   4
 -13  28   4 7185.84 1315.86   4
  13  15   4 3867.59 1167.38   2
  14  14  -3 377.638 672.076   2
  14 -28  -3 175.368 695.989   3
  28 -14  -3 1731.14 1017.50   3
 -14  28  -3 1861.19 935.875   2
  14  14  -3 1005.29 806.690   4
 -14  28  -3 820.948 733.282   4
  14  14   0 1665.19 850.792   2
 -28  14   0 256.339 435.205   1
 -14 -14   0 1655.55 739.531   1
  14 -28   0 1693.36 694.294   3
  28 -14   0 1823.73 965.197   3
 -14  28   0 1312.30 865.492   2
  14  14   0 1809.79 892.628   4
 -14  28   0 1395.64 899.277   4
 -28  14   3 627.980 519.290   1
  14 -28   3-372.782 741.127   3
  28 -14   3 1489.86 910.769   3
 -14  28   3 902.680 945.498   2
  14  14   3 385.228 834.032   4
 -14 -14   3 2296.16 848.070   1
  14  14   3 521.108 861.356   2
 -14  28   3 665.248 772.049   4
  28 -13  -4 7931.17 1553.00   3
  13 -28  -4 4621.00 994.796   3
 -15  28  -4 4530.55 1183.74   2
  15  13  -4 4904.99 1097.92   4
 -15  28  -4 6316.09 1124.25   4
  15  13  -4 4535.60 851.914   2
  15  13  -1 1188.84 802.173   2
  13 -28  -1 2755.16 704.433   3
  28 -13  -1 1382.99 944.438   3
 -15  28  -1 2935.69 990.202   2
 -13 -15  -1 898.286 812.300   1
  15  13  -1 2142.43 899.793   4
 -15  28  -1 1995.36 906.628   4
  13 -28   2 4184.55 930.110   3
 -13 -15   2 4281.20 885.402   1
  28 -13   2 5674.27 1171.97   3
 -15  28   2 2719.08 1048.03   2
 -28  15   2 4578.74 668.297   1
  15  13   2 3293.19 950.757   4
  15  13   2 4885.87 1185.89   2
 -15  28   2 5116.43 1151.04   4
  13 -28   5 2024.32 896.650   3
  28 -13   5 3274.52 1054.73   3
 -15  28   5 1596.74 1001.80   2
 -13 -15   5 507.318 760.131   1
 -28  15   5 1379.89 742.717   1
  15  13   5 2009.34 959.444   4
  15  13   5 2252.98 1167.13   2
 -15  28   5 3306.45 1029.21   4
 -16  28  -5 804.241 779.798   4
  28 -12  -5 1639.48 1133.98   3
  16  12  -5 993.905 828.780   4
  16  12  -2 4232.06 959.209   2
  12 -28  -2 3214.59 753.433   3
  28 -12  -2 1329.82 1014.96   3
 -16  28  -2 5242.35 1191.23   2
  16  12  -2 4565.12 1075.25   4
 -16  28  -2 4443.05 1041.15   4
  12 -28   1-625.017 593.208   3
 -28  16   1 299.338 417.367   1
  28 -12   1-283.003 774.999   3
 -16  28   1 1031.43 941.999   2
  16  12   1 708.439 863.528   4
 -12 -16   1 463.413 662.608   1
  16  12   1 864.846 907.077   2
 -16  28   1-744.844 852.428   4
  12 -28   4 2712.46 888.736   3
  28 -12   4-24.4124 883.555   3
 -16  28   4 4314.40 1226.61   2
  16  12   4 1977.09 881.944   4
 -28  16   4 1894.57 667.425   1
 -12 -16   4 2113.21 808.220   1
  16  12   4 2196.96 1061.87   2
 -16  28   4 2431.34 1036.78   4
 -17  28  -3 1762.97 821.070   4
  17  11  -3 1335.56 714.042   2
  11 -28  -3 204.984 663.777   3
  28 -11  -3 1613.76 1147.69   3
 -17  28  -3-280.007 890.231   2
  17  11  -3 3106.96 1003.44   4
  11 -28   0 565.981 565.648   3
  28 -11   0 870.169 794.126   3
 -17  28   0 1415.70 908.125   2
  17  11   0 3270.14 1042.94   4
 -28  17   0 1213.29 396.498   1
 -11 -17   0 1735.49 713.380   1
  17  11   0 2335.88 908.330   2
 -17  28   0 225.513 844.725   4
 -11 -17   3 3479.12 859.768   1
  11 -28   3 3355.18 926.526   3
  28 -11   3 1779.58 929.446   3
 -17  28   3 1715.54 922.375   2
  17  11   3 3998.12 1014.17   4
 -28  17   3 2999.60 684.280   1
  17  11   3 3109.32 1019.64   2
 -17  28   3 3228.21 1006.32   4
 -18  28  -4 4518.78 1066.53   4
  18  10  -4 3802.01 795.288   2
  28 -10  -4 2140.76 1107.28   3
  18  10  -4 4368.30 1108.47   4
  10 -28  -1 3019.06 668.766   3
  28 -10  -1 3999.14 1163.15   3
 -18  28  -1 4572.23 1146.30   2
  18  10  -1 5119.37 1114.26   4
  18  10  -1 5705.24 1093.98   2
 -18  28  -1 7051.88 1215.39   4
 -10 -18  -1 2187.95 866.056   1
  10 -28   2 5932.79 991.939   3
 -18  28   2 6192.63 1270.86   2
 -28  18   2 5695.98 702.296   1
  28 -10   2 3870.75 1105.78   3
 -10 -18   2 5599.41 936.502   1
  18  10   2 5297.85 1104.28   4
  18  10   2 4591.04 1205.87   2
 -18  28   2 5656.19 1186.00   4
  10 -28   5 2200.37 878.704   3
  28 -10   5 949.478 870.231   3
 -18  28   5 982.063 894.116   2
 -28  18   5 3188.92 923.727   1
  28 -10   5 3018.78 1099.65   4
 -18  28   5 2257.45 918.475   1
  18  10   5 2365.13 942.694   4
 -10 -18   5 2109.90 812.585   1
  18  10   5-231.503 1015.69   2
 -18  28   5 3040.40 1103.07   4
  28  -9  -5 1471.19 1083.13   3
  19   9  -5 2028.06 920.175   4
 -19  28  -2 1978.03 907.953   4
   9 -28  -2 2283.56 655.513   3
 -19  28  -2 1006.75 883.412   2
  19   9  -2-339.637 750.098   4
  19   9  -2 1449.44 753.867   2
 -19  28   1 2496.80 951.619   4
 -28  19   1 782.588 422.017   1
   9 -28   1 1022.31 666.447   3
  -9 -19   1 1768.33 752.496   1
  28  -9   1 1011.18 902.108   3
 -19  28   1 1989.89 1040.62   2
  19   9   1 2140.60 921.835   4
  19   9   1-31.5876 839.609   2
 -19  28   4-471.922 955.929   4
  -9 -19   4 204.533 669.051   1
   9 -28   4 1062.84 802.112   3
  28  -9   4 1657.38 949.975   3
 -19  28   4 1452.01 1031.81   2
 -28  19   4 229.087 619.850   1
  19   9   4 504.581 831.448   4
 -19  28   4 879.780 870.823   1
  19   9   4-562.475 947.256   2
 -20  28  -3 5296.25 1068.85   4
  28  -8  -3 4809.87 1293.05   3
  20   8  -3 6168.08 1183.45   4
  20   8  -3 4172.42 948.889   2
 -20  28   0 2898.73 979.827   4
  -8 -20   0 2715.97 629.687   3
   8 -28   0 1919.41 653.062   3
  28  -8   0 1946.21 1117.18   3
 -20  28   0 1277.30 932.386   2
  20   8   0 1648.82 930.344   4
  20   8   0 2322.50 956.419   2
  -8 -20   0 3040.99 911.954   1
   8 -28   3 6036.89 1087.91   3
 -28  20   3 5511.99 798.782   1
  28  -8   3 6238.51 1243.22   3
  -8 -20   3 5191.05 988.701   1
 -20  28   3 3681.48 1131.23   2
  20   8   3 8507.95 1357.05   4
  20   8   3 8177.00 1460.13   2
 -20  28   3 4698.17 954.901   1
 -20  28   3 7823.18 1369.91   4
  21   7  -4 2779.54 786.059   2
  28  -7  -4 2463.75 1174.99   3
  28  -7  -4 1723.69 859.271   2
  21   7  -4 3443.89 1035.13   4
 -21  28  -1 2505.50 1015.68   4
   7 -28  -1 2081.27 608.868   3
  28  -7  -1-271.957 1058.57   3
 -21  28  -1 3787.00 1123.69   2
  21   7  -1 2226.46 1020.08   4
  21   7  -1 998.339 853.499   2
 -21  28   2 4432.90 1102.76   4
  -7 -21   2 2795.35 812.084   3
   7 -28   2 6048.88 970.933   3
  -7 -21   2 2342.86 792.302   1
 -28  21   2 3334.27 616.282   1
  28  -7   2 4757.83 1193.27   3
 -21  28   2 5795.37 1303.54   2
  28  -7   2 5006.42 1256.23   2
  21   7   2 3030.94 1080.55   4
 -21  28   2 3592.37 824.735   1
  21   7   2 4944.53 1221.60   2
  28  -6  -2 1229.89 1079.93   3
  28  -6  -2 1552.49 917.573   2
  22   6  -2 1285.82 979.008   4
  22   6  -2 2739.99 908.089   2
 -22  28   1-221.584 817.196   4
  -6 -22   1 1405.15 642.928   3
   6 -28   1 1716.32 670.903   3
  -6 -22   1-832.004 720.563   1
  28  -6   1 2255.82 1104.40   3
 -22  28   1 2262.92 1014.96   2
  28  -6   1 1618.29 1000.85   4
  28  -6   1 1870.88 965.031   2
  22   6   1 777.222 873.340   4
 -22  28   1 1020.19 636.363   1
  22   6   1 629.884 831.169   2
 -22  28   4 2086.29 1015.04   4
   6 -28   4 474.598 820.309   3
   6 -28   4 135.208 698.292   1
  -6 -22   4 39.4005 691.213   1
  28  -6   4 269.170 874.132   3
 -28  22   4 1324.75 722.641   1
 -22  28   4 1197.86 982.771   2
  28  -6   4 1934.45 1040.57   4
  28  -6   4 1275.13 1118.04   2
  22   6   4 294.118 840.076   4
  22   6   4 3308.35 1189.57   2
 -22  28   4 1154.91 863.409   1
  28  -5  -3 5697.41 1551.17   3
  28  -5  -3 8117.81 1503.76   4
  23   5  -3 3739.46 1113.22   4
  28  -5  -3 5092.48 1059.40   2
  23   5  -3 6313.66 1074.82   2
   5 -28   0 2788.31 653.374   3
  28  -5   0 4196.89 1237.40   3
  28  -5   0 4018.18 1261.23   4
  28  -5   0 2599.42 1079.46   2
  23   5   0 1573.75 1008.78   4
  23   5   0 2295.83 961.538   2
  -5 -23   3 5540.64 1123.80   1
 -23  28   3 6419.83 1319.54   4
  -5 -23   3 7287.43 1173.89   3
 -28  23   3 5326.17 821.007   1
   5 -28   3 6373.18 1055.29   3
  28  -5   3 5237.74 1206.39   3
 -23  28   3 4925.02 1215.50   2
  23   5   3 3585.44 918.262   3
  28  -5   3 7401.14 1411.04   4
  23   5   3 7146.96 1352.57   4
 -23  28   3 5171.45 985.008   1
  28  -5   3 7527.76 1432.96   2
  23   5   3 6696.56 1363.30   2
  28  -4  -1 1021.73 1162.57   3
  28  -4  -1 1900.41 1038.70   4
  24   4  -1 2695.73 1127.97   4
  28  -4  -1 2157.47 925.295   2
  24   4  -1 407.239 823.952   2
  -4 -24   2 390.274 637.817   3
   4 -28   2 803.061 664.135   3
  -4 -24   2 1077.44 783.078   1
  28  -4   2 1076.26 1006.93   3
  24   4   2 1843.75 853.631   3
 -24  28   2 2491.92 1122.22   2
  28  -4   2 1153.42 1005.29   4
  24   4   2-254.003 877.746   4
  28  -4   2 1534.37 962.719   2
  24   4   2 669.546 1040.41   2
 -24  28   2 2277.59 749.521   1
  28  -3  -2 568.982 1059.44   3
  28  -3  -2 3189.49 1185.88   4
  25   3  -2 1707.99 991.039   4
  28  -3  -2 105.113 831.732   2
  25   3  -2 1056.67 891.151   2
  -3 -25   1 327.963 580.744   3
   3 -28   1 908.786 620.506   3
  28  -3   1 1556.84 1083.93   3
  25   3   1-96.1988 829.410   3
  28  -3   1 434.488 907.085   4
  25   3   1-298.963 880.647   4
  28  -3   1 172.246 885.995   2
  25   3   1 119.760 880.455   2
  -3 -25   1 372.568 731.858   1
  28  -2   0 1297.41 1117.47   3
  26   2   0 1063.63 1002.10   3
  28  -2   0 2419.47 1122.52   4
  26   2   0 789.922 924.742   4
  28  -2   0 3123.38 1121.03   2
  26   2   0 1520.52 971.078   2
 -29   4   0 708.213 644.328   1
   4  25   0-541.572 897.544   2
  -4  29   0 1115.61 1013.78   2
  25 -29   0 448.492 885.787   3
  29 -25   0 513.805 964.836   3
 -25  -4   0 1465.82 787.226   1
   4  25   0 2315.29 1095.53   4
  -4  29   0 196.506 940.529   4
   5  24  -1 1115.39 932.143   2
 -24  -5  -1 2051.49 808.994   1
  -5  29  -1 1920.41 1015.86   2
  24 -29  -1 20.8400 838.773   3
  29 -24  -1 1152.78 981.536   3
 -29   5  -1 936.607 657.208   1
   5  24  -1 1213.07 924.080   4
  -5  29  -1 427.773 883.371   4
   5  24   2 871.671 896.554   2
 -29   5   2 253.771 635.934   1
  -5  29   2 664.195 995.525   2
  24 -29   2 162.188 823.651   3
  29 -24   2 244.477 822.812   3
 -24  -5   2 636.398 682.989   1
  -5  29   2 1866.50 1049.35   4
   6  23  -2 1285.55 901.342   2
  23 -29  -2 1218.54 915.796   3
  -6  29  -2 1075.74 1032.00   2
  29 -23  -2 2303.86 1090.62   3
   6  23  -2 1898.89 1001.76   4
 -23  -6  -2 1577.42 860.820   1
  -6  29  -2 353.751 837.273   4
 -29   6  -2 2053.48 699.356   1
   6  23   1 982.103 898.793   2
 -23  -6   1 391.332 676.084   1
  23 -29   1-183.645 812.459   3
  -6  29   1-157.422 920.190   2
  29 -23   1 773.259 992.013   3
 -29   6   1-751.069 663.589   1
   6  23   1 2843.82 1072.55   4
  -6  29   1 1398.22 899.707   4
   7  22  -3 3595.13 979.255   2
  22 -29  -3 2262.78 1011.07   3
  -7  29  -3 3039.84 1094.27   2
  29 -22  -3 2232.89 1126.58   3
   7  22  -3 3588.58 1027.07   4
  -7  29  -3 3705.52 1059.65   4
   7  22   0 2374.29 986.026   2
  22 -29   0 1621.21 822.026   3
  -7  29   0-638.487 932.774   2
  29 -22   0 3225.50 1173.82   3
 -22  -7   0 2454.22 880.249   1
   7  22   0 2292.97 1077.43   4
 -29   7   0 2180.17 650.893   1
  -7  29   0 2251.14 1016.88   4
   7  22   3 2993.76 1150.68   2
 -22  -7   3 5114.72 1057.74   1
  22 -29   3 1426.88 928.132   3
  -7  29   3 3772.90 1225.86   2
  29 -22   3 2495.02 1036.28   3
 -29   7   3 3573.41 812.571   1
   7  22   3 3772.82 1158.68   4
  -7  29   3 3433.55 1132.08   4
   8  21  -1 831.717 858.637   2
  21 -29  -1 401.096 742.186   3
 -29   8  -1 470.079 570.922   1
  -8  29  -1 2063.36 946.020   2
  29 -21  -1 896.695 975.597   3
 -21  -8  -1 1417.76 759.790   1
   8  21  -1 894.254 903.135   4
  -8  29  -1-146.915 791.946   4
   8  21   2 307.799 879.844   2
  21 -29   2-236.372 782.235   3
  -8  29   2 340.959 928.114   2
  29 -21   2 2557.86 1079.62   3
   8  21   2-740.225 863.536   4
 -29   8   2 374.246 608.816   1
  -8  29   2 697.496 924.716   4
 -21  -8   2 149.185 636.275   1
   9  20  -2 3435.79 972.766   2
  20 -29  -2 310.186 779.960   3
  -9  29  -2 1057.52 972.588   2
  29 -20  -2 2312.75 1215.83   3
 -20  -9  -2 2712.34 948.333   1
   9  20  -2 2474.45 967.580   4
 -29   9  -2 1209.24 565.841   1
  -9  29  -2 2347.53 1009.79   4
   9  20   1 2176.17 944.816   2
 -29   9   1 776.004 590.112   1
 -20  -9   1 899.590 720.040   1
  20 -29   1 1708.26 785.505   3
  -9  29   1 3435.74 1116.65   2
  29 -20   1 1382.45 849.376   3
   9  20   1 2934.82 1092.97   4
  -9  29   1 3557.99 1101.02   4
   9  20   4 337.148 1020.30   2
  20 -29   4 1076.56 853.372   3
  -9  29   4 264.155 943.905   2
 -29   9   4 323.620 663.206   1
 -20  -9   4 579.876 752.054   1
  29 -20   4 1395.10 994.882   3
   9  20   4 2195.88 998.096   4
  -9  29   4 336.232 872.997   4
  10  19  -3 1963.31 868.198   2
  19 -29  -3 1512.49 907.975   3
 -10  29  -3 1767.45 998.186   2
  29 -19  -3 3795.06 1378.93   3
  10  19  -3 2395.49 955.586   4
 -10  29  -3 2626.73 988.481   4
  10  19   0 1617.14 895.912   2
  19 -29   0 1882.27 797.268   3
 -10  29   0 1809.10 1036.11   2
  29 -19   0 2068.02 1007.01   3
 -29  10   0 1355.80 566.238   1
  10  19   0 908.391 836.525   4
 -19 -10   0 1884.56 780.726   1
 -10  29   0 1646.18 982.361   4
  10  19   3 1392.52 962.023   2
  19 -29   3 1334.84 858.898   3
 -10  29   3 10.5015 863.297   2
  29 -19   3 320.143 952.913   3
 -29  10   3 1366.81 650.673   1
 -19 -10   3 1067.17 734.517   1
  10  19   3 2060.29 956.799   4
 -10  29   3 871.613 935.652   4
  11  18  -4 1807.84 757.642   2
  18 -29  -4 575.977 950.712   3
  29 -18  -4-285.972 1063.03   3
 -11  29  -4-622.924 877.297   2
  11  18  -4 293.764 789.683   4
 -11  29  -4 780.941 759.519   4
  11  18  -1-311.329 751.648   2
 -29  11  -1 1316.21 506.643   1
  18 -29  -1 1423.15 840.441   3
 -11  29  -1 1266.37 939.154   2
  29 -18  -1 1108.06 901.955   3
  11  18  -1-654.101 927.478   4
 -18 -11  -1-1109.72 758.829   1
 -11  29  -1 645.213 841.828   4
  11  18   2 672.474 904.687   2
 -18 -11   2 23.8343 634.982   1
  18 -29   2 2492.28 896.105   3
  29 -18   2 1307.31 875.412   3
 -11  29   2 1412.89 995.955   2
 -29  11   2 379.382 503.187   1
  11  18   2 1345.76 929.455   4
 -11  29   2 641.124 917.409   4
 -17 -12  -2 1549.76 826.148   1
  12  17  -2 54.8166 743.337   2
  17 -29  -2 691.374 764.975   3
  29 -17  -2-381.292 947.593   3
 -12  29  -2 1739.67 1000.35   2
  12  17  -2 2373.42 927.509   4
 -12  29  -2 1204.64 823.061   4
  12  17   1 4007.97 1100.04   2
  17 -29   1 5404.11 1024.51   3
  29 -17   1 6357.19 1294.26   3
 -12  29   1 4586.84 1138.66   2
 -17 -12   1 4235.46 948.502   1
  12  17   1 6552.00 1297.40   4
 -12  29   1 5844.28 1219.93   4
 -29  12   1 4916.59 715.855   1
  12  17   4 1722.46 1078.16   2
 -29  12   4-452.391 693.537   1
  17 -29   4-47.9112 716.570   3
  29 -17   4 521.992 871.662   3
 -12  29   4 1993.47 1089.02   2
 -17 -12   4-571.360 697.567   1
  12  17   4 536.736 953.184   4
 -12  29   4 977.263 928.819   4
  13  16  -3 543.621 707.078   2
  16 -29  -3 693.777 774.586   3
  29 -16  -3 1226.66 1095.33   3
 -13  29  -3-155.988 865.484   2
  13  16  -3 807.244 843.407   4
 -13  29  -3 1061.22 897.255   4
  13  16   0 6339.85 1165.47   2
 -16 -13   0 942.113 705.328   1
  16 -29   0 3590.54 893.872   3
 -29  13   0 829.328 506.931   1
  29 -16   0 3019.84 1041.17   3
 -13  29   0 2714.26 1058.74   2
  13  16   0 1504.98 908.422   4
 -13  29   0 4544.43 1117.57   4
  13  16   3-573.107 866.905   2
 -29  13   3 820.777 597.165   1
  16 -29   3 715.274 811.455   3
  29 -16   3 1488.51 920.888   3
 -13  29   3 967.158 973.060   2
  13  16   3 1739.99 956.870   4
 -16 -13   3-871.534 657.772   1
 -13  29   3-81.8048 824.713   4
  14  15  -4 2082.49 783.113   2
  15 -29  -4-746.024 843.361   3
  29 -15  -4 982.563 1071.40   3
 -14  29  -4 848.406 980.512   2
  14  15  -4 1382.99 903.432   4
 -14  29  -4 2855.64 979.388   4
  14  15  -1 5492.16 1078.37   2
  15 -29  -1 4826.42 907.263   3
  29 -15  -1 6282.43 1376.53   3
 -14  29  -1 4370.64 1128.18   2
 -15 -14  -1 4162.64 959.102   1
  14  15  -1 6214.67 1224.65   4
 -14  29  -1 8233.68 1336.30   4
 -15 -14   2-156.005 661.759   1
  15 -29   2 950.377 745.849   3
 -29  14   2-392.141 471.565   1
  29 -15   2-148.522 811.673   3
 -14  29   2-28.8089 860.714   2
  14  15   2 1051.44 931.355   4
 -14  29   2-783.563 882.525   4
  14  15   2 2460.19 995.825   2
  15  14  -2 555.452 738.966   2
  14 -29  -2 160.794 608.559   3
  29 -14  -2 1660.28 1054.02   3
 -15  29  -2 1117.93 898.695   2
  15  14  -2 424.452 746.123   4
 -15  29  -2 1504.04 847.861   4
  14 -29   1 6207.29 982.791   3
  29 -14   1 4429.63 1147.62   3
 -15  29   1 4892.53 1147.16   2
  15  14   1 6458.08 1207.50   4
 -14 -15   1 4791.23 944.889   1
  15  14   1 7356.54 1258.76   2
 -29  15   1 4125.82 610.711   1
 -15  29   1 4486.70 1106.08   4
  14 -29   4 1329.89 867.445   3
  29 -14   4 1935.62 1009.66   3
 -15  29   4 819.629 962.142   2
  15  14   4 1744.55 957.339   4
 -14 -15   4 1728.47 809.356   1
 -29  15   4 1563.17 688.437   1
  15  14   4 1274.49 1025.63   2
 -15  29   4 466.960 901.250   4
  16  13  -3 61.3530 673.552   2
  13 -29  -3 946.920 762.948   3
  29 -13  -3 63.9986 1057.40   3
 -16  29  -3 1267.35 942.886   2
  16  13  -3 1534.55 902.461   4
 -16  29  -3-184.394 789.927   4
  13 -29   0 2028.93 729.454   3
  29 -13   0 1939.46 925.175   3
 -16  29   0 1912.06 968.382   2
 -13 -16   0 479.477 698.188   1
  16  13   0 4169.14 1129.46   4
 -16  29   0 2922.66 1028.95   4
  16  13   0 1141.00 803.500   2
 -13 -16   3 1788.54 720.847   1
  13 -29   3-310.162 765.114   3
  29 -13   3 903.244 968.549   3
 -16  29   3 978.044 878.332   2
  16  13   3 415.589 817.418   4
  16  13   3 1760.96 1073.76   2
 -16  29   3 1727.30 1040.50   4
 -29  16   3 1456.20 611.598   1
 -17  29  -4 643.754 782.109   4
  17  12  -4 1209.69 668.599   2
  29 -12  -4-19.3488 935.226   3
  17  12  -4 661.729 801.608   4
  12 -29  -1 3510.84 750.949   3
  29 -12  -1 5405.55 1288.02   3
 -17  29  -1 3054.82 1093.68   2
  17  12  -1 4999.96 1142.66   4
  17  12  -1 5905.49 1142.47   2
 -12 -17  -1 4491.36 982.267   1
 -17  29  -1 5883.00 1224.54   4
 -29  17   2 1616.20 532.242   1
  12 -29   2 907.071 692.617   3
 -17  29   2 2033.33 1034.89   2
 -12 -17   2 224.937 665.591   1
  17  12   2 1270.32 913.158   4
  17  12   2 2063.84 958.530   2
 -17  29   2 1446.04 903.648   4
 -18  29  -2-36.0513 850.923   4
  18  11  -2 1354.34 734.487   2
  11 -29  -2 727.271 597.317   3
 -18  29  -2-295.594 873.908   2
  18  11  -2 1154.09 872.883   4
 -11 -18   1-360.357 697.576   1
  11 -29   1 624.740 702.054   3
 -29  18   1 105.727 414.319   1
  29 -11   1 1421.14 941.608   3
 -18  29   1 713.107 855.073   2
  18  11   1-5.88712 810.126   4
  18  11   1-444.953 813.430   2
 -18  29   1 609.903 928.774   4
 -11 -18   4 1638.17 764.639   1
  11 -29   4 2242.41 939.402   3
  29 -11   4 2717.82 1097.04   3
 -18  29   4 1703.36 1080.28   2
  18  11   4 2036.00 927.742   4
 -29  18   4 1097.31 642.651   1
  18  11   4 2520.70 1071.59   2
 -18  29   4-131.104 938.852   4
 -19  29  -3 658.077 851.308   4
  19  10  -3 835.883 726.128   2
  29 -10  -3 1669.52 1050.42   3
  19  10  -3 652.769 874.212   4
 -19  29   0 2168.44 928.820   4
  10 -29   0 2064.28 684.188   3
  29 -10   0 2405.80 1043.12   3
 -19  29   0 2665.26 1053.58   2
 -10 -19   0 1825.52 818.038   1
  19  10   0 4381.10 1142.86   4
  19  10   0 1606.86 868.452   2
  10 -29   3 2007.46 857.573   3
 -10 -19   3 1877.52 813.424   1
  29 -10   3 1342.53 1031.22   3
 -19  29   3 3685.08 1177.65   2
  19  10   3 2415.95 1031.60   4
 -29  19   3 2400.95 659.120   1
  19  10   3 1855.71 1036.05   2
 -19  29   3 3761.06 1102.81   4
  20   9  -4 339.396 662.577   2
  29  -9  -4 503.027 1084.87   3
  20   9  -4-213.431 793.595   4
 -20  29  -1 3192.74 1030.77   4
   9 -29  -1 1282.57 603.384   3
  29  -9  -1 1692.05 1013.41   3
 -20  29  -1 2832.74 994.125   2
  20   9  -1 2087.10 933.823   4
  20   9  -1 2109.90 908.233   2
 -20  29   2 2265.98 1047.63   4
   9 -29   2 3696.43 907.004   3
 -29  20   2 2645.46 620.424   1
  29  -9   2 2963.76 1103.39   3
 -20  29   2 2278.50 1120.00   2
  20   9   2 4045.38 1110.61   4
  20   9   2 2336.51 1023.24   2
  -9 -20   2 3581.92 909.137   1
 -21  29  -2 263.109 815.006   4
  29  -8  -2 649.725 1002.74   3
  21   8  -2 1944.33 948.350   4
  21   8  -2 1020.26 843.180   2
 -21  29   1 79.9934 836.096   4
  -8 -21   1 584.314 764.714   1
  -8 -21   1-94.6675 566.569   3
   8 -29   1 266.327 592.262   3
  29  -8   1 1629.49 1049.64   3
 -21  29   1 183.071 836.955   2
  21   8   1 586.638 931.940   4
 -21  29   1 751.405 597.413   1
  21   8   1 1883.65 931.767   2
  29  -7  -3 3757.35 1338.57   3
  29  -7  -3 4047.56 1110.48   2
  22   7  -3 3211.63 1070.45   4
  22   7  -3 4028.21 997.974   2
 -22  29   0 472.681 827.476   4
  -7 -22   0 1724.32 872.103   1
   7 -29   0 1295.38 625.260   3
  29  -7   0 1648.87 1128.07   3
 -22  29   0 1640.87 954.772   2
  29  -7   0 3348.02 1092.12   2
  22   7   0 1448.71 995.581   4
  22   7   0 1149.12 943.745   2
 -22  29   3 2955.05 1074.95   4
  -7 -22   3 2335.49 912.074   3
   7 -29   3 1760.38 848.089   3
  29  -7   3 2211.80 1145.20   3
 -22  29   3 1034.16 1026.85   2
 -29  22   3 2492.69 662.460   1
  29  -7   3 4274.93 1236.32   4
  29  -7   3 3525.36 1284.91   2
  22   7   3 3041.50 1047.62   4
  -7 -22   3 2636.59 924.103   1
 -22  29   3 3632.58 914.783   1
  22   7   3 3543.07 1161.22   2
  29  -6  -1 1392.88 1066.62   3
  29  -6  -1 786.016 878.226   2
  23   6  -1 507.255 959.161   4
  23   6  -1 1068.20 879.569   2
 -23  29   2 1927.77 986.769   4
  -6 -23   2 579.988 704.519   3
   6 -29   2-93.0278 682.955   3
  29  -6   2 1587.90 1042.94   3
 -23  29   2 2062.26 1051.36   2
  29  -6   2 3504.73 1236.92   4
  29  -6   2 3015.84 1297.30   2
  23   6   2 3646.16 1114.71   4
  -6 -23   2 1915.94 860.978   1
  23   6   2 2739.74 1098.27   2
 -23  29   2 2237.28 771.532   1
  29  -5  -2-884.090 1095.13   3
  29  -5  -2 3164.45 1294.65   4
  24   5  -2 1770.66 988.132   4
  29  -5  -2 733.437 935.978   2
  24   5  -2 1850.34 935.199   2
  -5 -24   1 1111.35 647.468   3
   5 -29   1 2029.57 687.080   3
  29  -5   1 703.001 1113.81   3
 -24  29   1 1904.54 1107.97   2
  -5 -24   1 3001.67 990.628   1
  29  -5   1 497.082 929.024   4
  24   5   1 500.219 889.553   4
  29  -5   1 962.645 1036.06   2
  24   5   1-394.880 875.616   2
  29  -4   0 997.520 1075.17   3
  29  -4   0 106.130 977.785   4
  25   4   0-56.2100 922.948   4
  29  -4   0 945.300 995.776   2
  25   4   0 82.6410 900.991   2
   7  23  -1 1994.05 1021.06   2
  23 -30  -1 1880.05 985.280   3
  -7  30  -1-241.242 896.353   2
  30 -23  -1 253.049 968.495   3
 -23  -7  -1-622.069 767.681   1
 -30   7  -1 847.322 657.467   1
   7  23  -1 634.874 850.556   4
  -7  30  -1 429.660 865.513   4
   8  22  -2 1807.71 947.646   2
  22 -30  -2 1710.30 945.221   3
  -8  30  -2 594.729 929.792   2
  30 -22  -2 2288.59 1153.79   3
 -22  -8  -2 1617.65 928.505   1
   8  22  -2 1815.04 995.035   4
  -8  30  -2 2023.41 982.540   4
   8  22   1 1937.73 1011.29   2
  22 -30   1 1545.52 843.461   3
 -22  -8   1 1659.97 775.585   1
 -30   8   1 657.840 621.061   1
  -8  30   1 4027.48 1231.56   2
  30 -22   1 1056.22 912.579   3
   8  22   1 2984.30 1169.32   4
  -8  30   1 1493.44 1010.51   4
   9  21   0 4680.47 1152.79   2
  21 -30   0 2573.77 970.300   3
  -9  30   0 1815.36 973.672   2
  30 -21   0 3488.25 1137.70   3
   9  21   0 5327.86 1224.89   4
 -30   9   0 1223.41 641.985   1
 -21  -9   0 1702.51 828.797   1
  -9  30   0 3554.60 1093.34   4
  10  20  -1 1385.15 874.048   2
  20 -30  -1 1087.45 796.062   3
 -30  10  -1 34.6703 509.430   1
 -10  30  -1-306.719 826.964   2
  30 -20  -1 2074.70 1012.13   3
  10  20  -1 1344.74 985.904   4
 -20 -10  -1 776.701 756.101   1
 -10  30  -1 733.554 880.604   4
 -20 -10   2 2371.88 852.602   1
  10  20   2 43.1816 897.878   2
  20 -30   2 920.616 881.671   3
 -10  30   2 10.7337 961.173   2
  30 -20   2 1694.11 914.904   3
 -30  10   2 771.987 609.001   1
  10  20   2 1306.88 1001.46   4
 -10  30   2 2388.01 1065.94   4
  11  19  -2 695.595 799.906   2
  19 -30  -2 1207.20 841.867   3
 -11  30  -2 4550.75 1208.70   2
  30 -19  -2 1318.27 1076.62   3
 -19 -11  -2 744.349 860.229   1
  11  19  -2 652.705 865.867   4
 -11  30  -2 2557.18 1011.73   4
 -30  11   1 1379.44 627.994   1
  11  19   1 5415.38 1140.12   2
  19 -30   1 3149.13 924.531   3
  30 -19   1 3411.70 1082.13   3
 -11  30   1 2941.69 1174.60   2
 -19 -11   1 1351.59 807.557   1
  11  19   1 2230.20 973.444   4
 -11  30   1 5338.98 1265.97   4
  12  18  -3 1276.41 805.950   2
  18 -30  -3 1510.12 881.513   3
  30 -18  -3 2339.53 1243.13   3
 -12  30  -3 993.843 954.506   2
  12  18  -3 950.663 897.938   4
 -12  30  -3 417.497 834.369   4
  12  18   0 2338.40 962.717   2
 -18 -12   0 2483.49 845.812   1
  18 -30   0 2364.25 834.819   3
  30 -18   0 1769.81 970.858   3
 -12  30   0 4315.82 1236.97   2
 -30  12   0 1754.38 590.150   1
  12  18   0 4211.60 1081.80   4
 -12  30   0 1094.28 879.788   4
  12  18   3 3163.58 1205.73   2
  18 -30   3 3417.02 1036.80   3
 -30  12   3 3096.99 750.363   1
  30 -18   3 3434.42 1161.69   3
 -12  30   3 381.917 915.742   2
  12  18   3 3294.42 1139.03   4
 -18 -12   3 1370.21 775.571   1
 -12  30   3 3109.06 1029.22   4
  13  17  -1 3957.66 988.626   2
  17 -30  -1 3264.90 893.617   3
  30 -17  -1 2535.21 1144.52   3
 -17 -13  -1 3460.30 895.201   1
 -13  30  -1 3206.21 1107.60   2
  13  17  -1 3846.37 1134.47   4
 -13  30  -1 4480.57 1133.64   4
  13  17   2 1771.70 979.198   2
 -17 -13   2 2217.66 832.260   1
  17 -30   2 3473.93 946.346   3
  30 -17   2 1971.95 1004.42   3
 -13  30   2 1411.46 1050.63   2
 -30  13   2 1839.59 630.119   1
  13  17   2 3911.66 1113.53   4
 -13  30   2 536.851 878.361   4
  14  16  -2 1886.04 825.427   2
  16 -30  -2 1724.59 779.909   3
  30 -16  -2 4115.36 1251.92   3
 -14  30  -2 2779.20 1099.30   2
  14  16  -2 1321.94 937.687   4
 -14  30  -2 3047.14 1101.90   4
  14  16   1 887.827 860.635   2
  16 -30   1 1434.93 747.079   3
  30 -16   1 1079.67 944.206   3
 -14  30   1 3309.07 1078.00   2
 -16 -14   1 2712.40 859.973   1
  14  16   1 805.650 908.034   4
 -30  14   1 1594.87 561.428   1
 -14  30   1 4142.19 1144.61   4
  15  15  -3 4370.77 935.172   2
  15 -30  -3 1998.14 866.690   3
  30 -15  -3 4666.62 1317.89   3
 -15  30  -3 3258.92 1135.89   2
  15  15  -3 5043.67 1198.11   4
 -15  30  -3 2503.40 965.780   4
  15  15   0 834.127 849.580   2
  15 -30   0 485.311 632.159   3
  30 -15   0 109.733 902.942   3
 -15  30   0-555.199 894.554   2
 -15 -15   0 194.277 676.150   1
  15  15   0 13.3396 802.165   4
 -15  30   0 1267.40 934.081   4
 -15 -15   3 2713.15 832.042   1
 -30  15   3 4144.50 764.704   1
  15 -30   3 2938.70 971.329   3
  30 -15   3 3064.61 1269.53   3
 -15  30   3 3694.82 1145.08   2
  15  15   3 2145.94 989.398   4
 -15  30   3 2917.36 1040.35   4
  15  15   3 1709.00 1036.00   2
  16  14  -1 3902.80 1046.00   2
  14 -30  -1 1826.48 735.707   3
 -14 -16  -1 659.510 822.708   1
  30 -14  -1 1459.44 1014.37   3
 -16  30  -1-159.444 888.404   2
  16  14  -1 445.322 907.783   4
 -16  30  -1 161.561 868.498   4
  14 -30   2 2365.15 822.415   3
 -30  16   2 2866.54 613.999   1
  30 -14   2 1009.10 992.070   3
 -16  30   2 3129.12 1137.86   2
 -14 -16   2 2041.09 808.994   1
  16  14   2 965.370 918.482   4
  16  14   2 1630.63 978.385   2
 -16  30   2 3537.84 1055.48   4
  17  13  -2 2024.72 921.418   2
  13 -30  -2 2725.69 811.593   3
  30 -13  -2 2362.97 1185.50   3
 -17  30  -2 1835.96 1004.00   2
  17  13  -2 3530.27 1113.32   4
 -17  30  -2 2527.29 933.463   4
 -13 -17   1 1572.97 784.901   1
  13 -30   1 2017.16 829.268   3
  30 -13   1 43.9303 922.565   3
 -17  30   1 1966.23 1078.87   2
  17  13   1 4234.16 1156.93   4
  17  13   1 6086.89 1223.71   2
 -17  30   1 3354.21 1121.35   4
 -18  30  -3 1107.16 925.623   4
  18  12  -3 2324.63 855.839   2
  30 -12  -3 1943.88 1092.24   3
 -18  30  -3 675.840 949.735   2
  18  12  -3 1183.50 833.351   4
  12 -30   0 2811.31 786.650   3
 -12 -18   0 2659.58 892.982   1
  30 -12   0 2262.64 1118.14   3
 -18  30   0 541.383 929.722   2
  18  12   0 1680.25 1021.44   4
  18  12   0 1989.78 930.184   2
 -18  30   0 1847.38 975.200   4
  12 -30   3 1785.73 850.082   3
 -12 -18   3 134.211 681.959   1
  30 -12   3 1527.00 1051.08   3
 -18  30   3 3471.94 1294.94   2
  18  12   3 1487.63 898.158   4
  18  12   3 2936.48 1170.52   2
 -30  18   3 1703.84 647.295   1
 -18  30   3 1682.59 960.098   4
 -19  30  -1 3153.61 1070.55   4
  11 -30  -1 3536.18 752.816   3
  30 -11  -1 4816.38 1305.66   3
 -19  30  -1 4949.91 1255.95   2
  19  11  -1 3919.32 1110.59   4
  19  11  -1 4973.38 1121.05   2
 -30  19   2 1022.76 507.838   1
  11 -30   2 2602.90 847.712   3
  30 -11   2 1251.57 1054.71   3
 -19  30   2 3216.29 1100.38   2
  19  11   2 4286.61 1152.74   4
 -11 -19   2 2468.72 868.144   1
  19  11   2 1718.91 1024.83   2
 -19  30   2 2070.28 990.402   4
 -20  30  -2 979.401 925.305   4
  30 -10  -2 999.668 1154.46   3
 -20  30  -2 205.089 992.785   2
  20  10  -2 1071.68 906.471   4
  20  10  -2 1393.11 837.169   2
 -20  30   1 98.5268 856.891   4
  10 -30   1-974.413 689.366   3
  30 -10   1 818.998 1020.55   3
 -20  30   1 250.683 902.857   2
  20  10   1-250.049 842.922   4
 -10 -20   1 319.070 733.656   1
  20  10   1-1834.59 1029.65   2
 -21  30   0 3410.10 1141.04   4
   9 -30   0 2145.67 699.292   3
  30  -9   0 1676.31 1195.78   3
 -21  30   0 2218.90 1067.68   2
  21   9   0 2545.07 1032.24   4
  -9 -21   0 2703.44 979.510   1
  21   9   0 2736.86 1032.16   2
 -22  30  -1 3331.79 1056.37   4
  30  -8  -1 2662.03 1287.55   3
 -22  30  -1 1274.95 981.070   2
  30  -8  -1 2499.94 1079.46   2
  22   8  -1 2935.75 1109.25   4
  22   8  -1 2663.81 1057.28   2
 -22  30   2 2295.03 1017.97   4
  -8 -22   2 570.283 695.616   3
   8 -30   2 779.563 751.350   3
  -8 -22   2 903.815 758.091   1
  30  -8   2 1704.87 1071.36   3
 -22  30   2 1149.93 935.804   2
  30  -8   2 1849.18 1065.80   4
  30  -8   2 403.780 1070.47   2
  22   8   2 1952.40 922.534   4
 -22  30   2 1685.39 786.538   1
  22   8   2-211.806 941.727   2
 -23  30   1 672.500 907.813   4
   7 -30   1 321.130 637.475   3
  30  -7   1 488.435 1006.24   3
 -23  30   1-1268.89 1021.56   2
  30  -7   1 209.805 941.156   4
  30  -7   1 113.971 956.265   2
  23   7   1 614.620 940.875   4
  -7 -23   1 236.435 785.124   1
  23   7   1 348.066 943.064   2
  11  20   0 2852.46 1054.87   2
 -20 -11   0 1777.37 810.368   1
  20 -31   0 1903.14 860.909   3
 -11  31   0 2417.26 1115.87   2
  31 -20   0 1787.12 1156.61   3
  11  20   0 2333.98 1068.12   4
 -31  11   0 298.365 524.828   1
 -11  31   0 1834.88 1026.58   4
  12  19  -1 2050.03 916.917   2
  19 -31  -1 456.451 722.377   3
 -19 -12  -1 513.555 804.589   1
  31 -19  -1 278.919 1009.77   3
 -12  31  -1-308.871 896.535   2
  12  19  -1 2246.97 1074.56   4
 -12  31  -1-547.494 882.185   4
  13  18  -2 4227.16 1087.15   2
  18 -31  -2 4671.75 1038.33   3
  31 -18  -2 2569.84 1210.16   3
 -13  31  -2 3083.01 1172.17   2
  13  18  -2 6444.70 1321.74   4
 -13  31  -2 4789.37 1166.42   4
 -31  13   1 2048.09 627.485   1
  13  18   1 3205.29 1073.03   2
  18 -31   1 904.752 769.997   3
  31 -18   1 533.005 1032.99   3
 -13  31   1 2553.05 1140.73   2
 -18 -13   1 2189.21 845.825   1
  13  18   1 3047.50 1132.59   4
 -13  31   1 2800.00 1088.24   4
  14  17   0-278.096 848.446   2
  17 -31   0 329.146 720.438   3
  31 -17   0 2571.02 1109.08   3
 -17 -14   0 748.062 748.563   1
 -14  31   0 1736.14 1078.90   2
  14  17   0 1302.69 992.444   4
 -14  31   0 86.8960 852.628   4
 -16 -15  -1-39.2684 803.739   1
  15  16  -1 167.977 846.823   2
  16 -31  -1 532.672 698.371   3
  31 -16  -1 2583.79 1096.76   3
 -15  31  -1 1377.53 1050.56   2
  15  16  -1-1630.88 1055.28   4
 -15  31  -1 1135.54 937.100   4
  15  16   2 3679.64 1150.65   2
  16 -31   2 3849.30 1011.89   3
  31 -16   2 4755.60 1356.34   3
 -15  31   2 4229.94 1201.26   2
 -16 -15   2 2786.05 952.250   1
 -31  15   2 3388.40 686.242   1
  15  16   2 4212.39 1187.39   4
 -15  31   2 5391.14 1275.26   4
  16  15  -2 3908.06 1029.38   2
  15 -31  -2 2698.22 904.308   3
  31 -15  -2 3063.32 1295.03   3
 -16  31  -2 2498.97 1071.09   2
  16  15  -2 5115.10 1229.35   4
 -16  31  -2 4822.44 1202.61   4
  16  15   1-1742.52 964.372   2
 -15 -16   1-930.880 780.922   1
  15 -31   1 591.924 771.826   3
  31 -15   1-207.927 1012.06   3
 -16  31   1-617.130 1016.51   2
  16  15   1-333.182 918.663   4
 -16  31   1-866.447 922.586   4
  17  14   0 2403.62 986.423   2
 -14 -17   0 495.213 773.001   1
  14 -31   0 638.057 761.356   3
  31 -14   0 1457.44 1137.90   3
 -17  31   0 722.791 1005.36   2
  17  14   0 376.863 856.204   4
 -17  31   0 1408.21 1043.99   4
  18  13  -1 2812.16 1036.95   2
  13 -31  -1 2188.52 789.741   3
  31 -13  -1 1975.15 1067.80   3
 -18  31  -1 4907.84 1298.33   2
 -13 -18  -1 2305.73 985.007   1
  18  13  -1 2780.48 1028.30   4
 -18  31  -1 2438.85 1091.23   4
  13 -31   2 3941.60 977.023   3
  31 -13   2 4757.60 1276.82   3
 -18  31   2 4393.82 1267.44   2
  18  13   2 4366.68 1213.80   4
 -13 -18   2 4465.36 1002.53   1
  18  13   2 4774.23 1261.12   2
 -18  31   2 6103.36 1350.03   4
  12 -31   1-440.752 707.204   3
  31 -12   1-494.208 924.895   3
 -19  31   1-740.887 1011.52   2
 -12 -19   1 1713.42 818.213   1
  19  12   1 2044.90 1027.38   4
  19  12   1 1337.08 959.817   2
 -19  31   1 1332.11 996.997   4
 -20  31   0 639.635 939.059   4
 -11 -20   0 1320.39 936.228   1
  11 -31   0 2788.37 819.317   3
  31 -11   0 1076.69 1109.59   3
 -20  31   0 2425.97 1196.31   2
  20  11   0 2265.03 1061.80   4
  20  11   0 1750.69 844.998   2
   0   0   0    0.00    0.00   0

TITL YY_Zn_Gly_Pyr_toluene in R3c
REM R3c (#161 in standard setting)
CELL 0.71073  26.586687  26.586687  10.132287  90.0000  90.0000 120.0000
ZERR   18.00   0.001374   0.001374   0.000407   0.0000   0.0000   0.0000
LATT -3
SYMM -y, x-y, z
SYMM -x+y,-x, z
SYMM -y,-x, z+1/2
SYMM -x+y, y, z+1/2
SYMM  x, x-y, z+1/2
SFAC C H N O Zn
UNIT 108.00 144.00 54.00 54.00 18.00
TREF
HKLF 4
END
;
_shelx_hkl_checksum              24485
_olex2_submission_special_instructions 'No special instructions were received'
_oxdiff_exptl_absorpt_empirical_details
;
Empirical correction (ABSPACK) includes:
- Absorption correction using spherical harmonics
- Frame scaling
;
_oxdiff_exptl_absorpt_empirical_full_max 1.468
_oxdiff_exptl_absorpt_empirical_full_min 0.659
loop_
_space_group_symop_operation_xyz
'x, y, z'
'-y, x-y, z'
'-x+y, -x, z'
'-x+y, y, z+1/2'
'x, x-y, z+1/2'
'-y, -x, z+1/2'
'x+2/3, y+1/3, z+1/3'
'-y+2/3, x-y+1/3, z+1/3'
'-x+y+2/3, -x+1/3, z+1/3'
'-x+y+2/3, y+1/3, z+5/6'
'x+2/3, x-y+1/3, z+5/6'
'-y+2/3, -x+1/3, z+5/6'
'x+1/3, y+2/3, z+2/3'
'-y+1/3, x-y+2/3, z+2/3'
'-x+y+1/3, -x+2/3, z+2/3'
'-x+y+1/3, y+2/3, z+7/6'
'x+1/3, x-y+2/3, z+7/6'
'-y+1/3, -x+2/3, z+7/6'
loop_
_atom_site_label
_atom_site_type_symbol
_atom_site_fract_x
_atom_site_fract_y
_atom_site_fract_z
_atom_site_U_iso_or_equiv
_atom_site_adp_type
_atom_site_occupancy
_atom_site_site_symmetry_order
_atom_site_calc_flag
_atom_site_refinement_flags_posn
_atom_site_refinement_flags_adp
_atom_site_refinement_flags_occupancy
_atom_site_disorder_assembly
_atom_site_disorder_group
Zn1 Zn 0.64794(5) 0.67602(5) 0.54297(12) 0.0177(4) Uani 1 1 d . . . . .
O1 O 0.5979(3) 0.6800(3) 0.4045(6) 0.0226(16) Uani 1 1 d . . . . .
N1 N 0.5951(4) 0.6472(4) 0.6959(8) 0.0195(13) Uani 1 1 d . U . . .
N3 N 0.4149(4) 0.5394(4) 0.7678(8) 0.0187(18) Uani 1 1 d . . . . .
H3 H 0.4236 0.5506 0.6852 0.022 Uiso 1 1 calc R . . . .
O3 O 0.4426(4) 0.5560(4) 0.9801(7) 0.0302(19) Uani 1 1 d . U . . .
N2 N 0.6834(4) 0.6286(4) 0.4903(8) 0.0195(13) Uani 1 1 d . U . . .
O2 O 0.7111(3) 0.7569(3) 0.5635(7) 0.0207(16) Uani 1 1 d . . . . .
C2 C 0.5155(5) 0.6012(5) 0.8159(10) 0.021(2) Uani 1 1 d . U . . .
C4 C 0.4555(5) 0.5647(5) 0.8598(10) 0.023(2) Uani 1 1 d . U . . .
C5 C 0.3563(4) 0.4937(4) 0.8001(10) 0.020(2) Uani 1 1 d . . . . .
H5A H 0.3293 0.4918 0.7302 0.024 Uiso 1 1 calc R . . . .
H5B H 0.3441 0.5034 0.8842 0.024 Uiso 1 1 calc R . . . .
C1 C 0.5385(4) 0.6184(5) 0.6908(10) 0.021(2) Uani 1 1 d . U . . .
H1 H 0.5162 0.6105 0.6123 0.025 Uiso 1 1 calc R . . . .
C6 C 0.3520(4) 0.4359(4) 0.8127(10) 0.021(2) Uani 1 1 d . . . . .
C3 C 0.5646(5) 0.6231(4) 0.8960(10) 0.024(2) Uani 1 1 d . U . . .
H3A H 0.5641 0.6192 0.9893 0.029 Uiso 1 1 calc R . . . .
C9 C 0.539(2) 0.491(2) 0.422(5) 0.17(2) Uiso 0.5 1 d . U P A -1
H9 H 0.5171 0.5094 0.4403 0.200 Uiso 0.5 1 calc R . P A -1
C10 C 0.575(2) 0.4893(19) 0.519(4) 0.22(2) Uiso 0.5 1 d G U P A -1
H10 H 0.5784 0.5067 0.6023 0.260 Uiso 0.5 1 calc R . P A -1
C11 C 0.6074(18) 0.462(2) 0.493(4) 0.17(2) Uiso 0.5 1 d G U P A -1
H11 H 0.6323 0.4610 0.5584 0.201 Uiso 0.5 1 calc R . P A -1
C12 C 0.6031(17) 0.437(2) 0.370(5) 0.165(19) Uiso 0.5 1 d DG U P A -1
H12 H 0.6250 0.4180 0.3524 0.197 Uiso 0.5 1 calc R . P A -1
C7 C 0.5666(17) 0.4382(16) 0.274(4) 0.169(19) Uiso 0.5 1 d G U P A -1
C8 C 0.5346(19) 0.4653(19) 0.300(4) 0.143(18) Uiso 0.5 1 d DG U P A -1
H8 H 0.5097 0.4664 0.2343 0.172 Uiso 0.5 1 calc R . P A -1
C13 C 0.561(3) 0.410(3) 0.150(6) 0.15(2) Uiso 0.5 1 d D U P A -1
H13A H 0.5865 0.3936 0.1484 0.232 Uiso 0.5 1 calc R . P A -1
H13B H 0.5207 0.3795 0.1377 0.232 Uiso 0.5 1 calc R . P A -1
H13C H 0.5720 0.4390 0.0789 0.232 Uiso 0.5 1 calc R . P A -1
loop_
_atom_site_aniso_label
_atom_site_aniso_U_11
_atom_site_aniso_U_22
_atom_site_aniso_U_33
_atom_site_aniso_U_23
_atom_site_aniso_U_13
_atom_site_aniso_U_12
Zn1 0.0219(7) 0.0238(7) 0.0062(6) -0.0004(5) -0.0001(5) 0.0107(5)
O1 0.031(4) 0.029(4) 0.010(4) 0.004(3) -0.001(3) 0.016(3)
N1 0.026(3) 0.029(3) 0.004(3) 0.000(2) 0.001(2) 0.015(3)
N3 0.025(4) 0.023(4) 0.009(4) 0.003(3) -0.001(3) 0.012(4)
O3 0.034(4) 0.041(5) 0.013(4) 0.003(3) 0.006(3) 0.016(4)
N2 0.026(3) 0.029(3) 0.004(3) 0.000(2) 0.001(2) 0.015(3)
O2 0.023(4) 0.027(4) 0.010(4) 0.001(3) -0.004(3) 0.011(3)
C2 0.027(5) 0.030(6) 0.010(5) -0.001(4) -0.007(4) 0.017(5)
C4 0.037(6) 0.024(5) 0.013(5) 0.000(4) 0.002(5) 0.020(5)
C5 0.019(5) 0.022(5) 0.019(5) 0.003(4) 0.003(4) 0.009(4)
C1 0.022(5) 0.029(5) 0.008(5) -0.006(4) -0.001(4) 0.010(4)
C6 0.020(5) 0.025(5) 0.009(5) -0.001(4) -0.007(4) 0.006(4)
C3 0.027(6) 0.021(5) 0.009(5) 0.007(4) 0.001(4) 0.001(4)
loop_
_atom_type_symbol
_atom_type_description
_atom_type_scat_dispersion_real
_atom_type_scat_dispersion_imag
_atom_type_scat_source
C C 0.0033 0.0016 'International Tables Vol C Tables 4.2.6.8 and 6.1.1.4'
H H 0.0000 0.0000 'International Tables Vol C Tables 4.2.6.8 and 6.1.1.4'
N N 0.0061 0.0033 'International Tables Vol C Tables 4.2.6.8 and 6.1.1.4'
O O 0.0106 0.0060 'International Tables Vol C Tables 4.2.6.8 and 6.1.1.4'
Zn Zn 0.2839 1.4301 'International Tables Vol C Tables 4.2.6.8 and 6.1.1.4'
loop_
_geom_angle_atom_site_label_1
_geom_angle_atom_site_label_2
_geom_angle_atom_site_label_3
_geom_angle
_geom_angle_site_symmetry_1
_geom_angle_site_symmetry_3
_geom_angle_publ_flag
O1 Zn1 N2 112.9(3) . . ?
N1 Zn1 O1 102.2(3) . . ?
N1 Zn1 N2 115.8(4) . . ?
O2 Zn1 O1 104.2(3) . . ?
O2 Zn1 N1 113.3(3) . . ?
O2 Zn1 N2 107.8(3) . . ?
C6 O1 Zn1 138.6(7) 6_664 . ?
N2 N1 Zn1 125.2(7) 9_565 . ?
C1 N1 Zn1 125.9(7) . . ?
C1 N1 N2 108.7(8) . 9_565 ?
C4 N3 C5 121.7(9) . . ?
N1 N2 Zn1 122.5(7) 14_654 . ?
C3 N2 Zn1 129.8(7) 14_654 . ?
C3 N2 N1 107.6(9) 14_654 14_654 ?
C6 O2 Zn1 120.2(7) 10_554 . ?
C1 C2 C4 130.8(10) . . ?
C1 C2 C3 103.3(10) . . ?
C3 C2 C4 125.8(9) . . ?
N3 C4 C2 117.7(9) . . ?
O3 C4 N3 120.7(10) . . ?
O3 C4 C2 121.6(10) . . ?
N3 C5 C6 112.2(8) . . ?
N1 C1 C2 110.3(9) . . ?
O1 C6 C5 118.0(9) 6_665 . ?
O2 C6 O1 124.8(10) 16_544 6_665 ?
O2 C6 C5 117.2(9) 16_544 . ?
N2 C3 C2 110.1(9) 9_565 . ?
C10 C9 C8 120.0 . . ?
C11 C10 C9 120.0 . . ?
C10 C11 C12 120.0 . . ?
C11 C12 C7 120.0 . . ?
C12 C7 C13 119.7(12) . . ?
C8 C7 C12 120.0 . . ?
C8 C7 C13 120.2(12) . . ?
C7 C8 C9 120.0 . . ?
loop_
_geom_bond_atom_site_label_1
_geom_bond_atom_site_label_2
_geom_bond_distance
_geom_bond_site_symmetry_2
_geom_bond_publ_flag
Zn1 O1 1.974(7) . ?
Zn1 N1 1.971(8) . ?
Zn1 N2 1.987(9) . ?
Zn1 O2 1.969(7) . ?
O1 C6 1.278(12) 6_664 ?
N1 N2 1.359(12) 9_565 ?
N1 C1 1.305(14) . ?
N3 C4 1.327(14) . ?
N3 C5 1.455(13) . ?
O3 C4 1.256(13) . ?
N2 N1 1.359(12) 14_654 ?
N2 C3 1.315(14) 14_654 ?
O2 C6 1.251(13) 10_554 ?
C2 C4 1.463(16) . ?
C2 C1 1.382(15) . ?
C2 C3 1.393(15) . ?
C5 C6 1.489(15) . ?
C6 O1 1.278(12) 6_665 ?
C6 O2 1.251(12) 16_544 ?
C3 N2 1.315(14) 9_565 ?
C9 C10 1.3900 . ?
C9 C8 1.3900 . ?
C10 C11 1.3900 . ?
C11 C12 1.3900 . ?
C12 C7 1.3900 . ?
C7 C8 1.3900 . ?
C7 C13 1.43(7) . ?
