#------------------------------------------------------------------------------
#$Date: 2020-08-22 01:58:49 +0300 (Sat, 22 Aug 2020) $
#$Revision: 255540 $
#$URL: file:///home/coder/svn-repositories/cod/cif/4/13/51/4135187.cif $
#------------------------------------------------------------------------------
#
# This file is available in the Crystallography Open Database (COD),
# http://www.crystallography.net/
#
# All data on this site have been placed in the public domain by the
# contributors.
#
data_4135187
loop_
_publ_author_name
'Yan, Yong'
'Carrington, Elliot J.'
'P\'etuya, R\'emi'
'Whitehead, George F. S.'
'Verma, Ajay'
'Hylton, Rebecca K.'
'Tang, Chiu C.'
'Berry, Neil G.'
'Darling, George R.'
'Dyer, Matthew S.'
'Antypov, Dmytro'
'Katsoulidis, Alexandros P.'
'Rosseinsky, Matthew J.'
_publ_section_title
;
 Amino Acid Residues Determine the Response of Flexible Metal-Organic
 Frameworks to Guests.
;
_journal_name_full               'Journal of the American Chemical Society'
_journal_paper_doi               10.1021/jacs.0c03853
_journal_year                    2020
_chemical_absolute_configuration syn
_chemical_formula_moiety         'Zn C7 H7 N3 O3, 0.15(C5 H12 O2)'
_chemical_formula_sum            'C7.74 H8.77 N3 O3.29 Zn'
_chemical_formula_weight         261.86
_space_group_crystal_system      trigonal
_space_group_IT_number           146
_space_group_name_Hall           'R 3'
_space_group_name_H-M_alt        'R 3 :H'
_atom_sites_solution_hydrogens   geom
_atom_sites_solution_primary     dual
_audit_creation_date             2019-08-13
_audit_creation_method
;
Olex2 1.2
(compiled 2018.05.29 svn.r3508 for OlexSys, GUI svn.r5506)
;
_cell_angle_alpha                90
_cell_angle_beta                 90
_cell_angle_gamma                120
_cell_formula_units_Z            18
_cell_length_a                   28.8315(4)
_cell_length_b                   28.8315(4)
_cell_length_c                   10.1304(2)
_cell_measurement_reflns_used    20866
_cell_measurement_temperature    100
_cell_measurement_theta_max      27.4930
_cell_measurement_theta_min      2.1200
_cell_volume                     7292.8(2)
_computing_cell_refinement       'CrysAlisPro 1.171.38.46 (Rigaku OD, 2015)'
_computing_data_collection       'CrysAlisPro 1.171.38.46 (Rigaku OD, 2015)'
_computing_data_reduction        'CrysAlisPro 1.171.38.46 (Rigaku OD, 2015)'
_computing_molecular_graphics    'Olex2 (Dolomanov et al., 2009)'
_computing_publication_material  'Olex2 (Dolomanov et al., 2009)'
_computing_structure_refinement  'ShelXL (Sheldrick, 2015)'
_computing_structure_solution    'ShelXT (Sheldrick, 2015)'
_diffrn_ambient_temperature      100
_diffrn_detector                 'CCD plate'
_diffrn_measured_fraction_theta_full 0.999
_diffrn_measured_fraction_theta_max 0.999
_diffrn_measurement_details
;
List of Runs (angles in degrees, time in seconds):

  # Type    Start    End  Width  t~exp~   \w     \q     \k     \f   Frames
--------------------------------------------------------------------------
  1  \w   -110.00  15.00   1.00    5.00    --  -20.00 -68.00   0.00  125
  2  \w   -110.00  15.00   1.00    5.00    --  -20.00 -68.00 120.00  125
  3  \w   -110.00  15.00   1.00    5.00    --  -20.00 -68.00 240.00  125
  4  \w   -110.00  15.00   1.00    5.00    --  -20.00 -30.00  90.00  125
;
_diffrn_measurement_device       'abstract diffractometer'
_diffrn_measurement_device_type
'Rigaku Mo Rotating Anode Source With Saturn Detector'
_diffrn_measurement_method       '\w scans'
_diffrn_orient_matrix_type
'CrysAlisPro convention (1999,Acta A55,543-557)'
_diffrn_orient_matrix_UB_11      -0.0039552000
_diffrn_orient_matrix_UB_12      -0.0262754000
_diffrn_orient_matrix_UB_13      0.0053203000
_diffrn_orient_matrix_UB_21      0.0280721000
_diffrn_orient_matrix_UB_22      0.0105132000
_diffrn_orient_matrix_UB_23      -0.0033558000
_diffrn_orient_matrix_UB_31      0.0016644000
_diffrn_orient_matrix_UB_32      0.0025237000
_diffrn_orient_matrix_UB_33      0.0697281000
_diffrn_radiation_monochromator  graphite
_diffrn_radiation_probe          x-ray
_diffrn_radiation_type           MoK\a
_diffrn_radiation_wavelength     0.71073
_diffrn_reflns_av_R_equivalents  0.0334
_diffrn_reflns_av_unetI/netI     0.0257
_diffrn_reflns_Laue_measured_fraction_full 0.999
_diffrn_reflns_Laue_measured_fraction_max 0.999
_diffrn_reflns_limit_h_max       37
_diffrn_reflns_limit_h_min       -37
_diffrn_reflns_limit_k_max       37
_diffrn_reflns_limit_k_min       -37
_diffrn_reflns_limit_l_max       8
_diffrn_reflns_limit_l_min       -13
_diffrn_reflns_number            30688
_diffrn_reflns_point_group_measured_fraction_full 0.897
_diffrn_reflns_point_group_measured_fraction_max 0.870
_diffrn_reflns_theta_full        25.242
_diffrn_reflns_theta_max         27.482
_diffrn_reflns_theta_min         2.170
_diffrn_source                   'fine-focus sealed X-ray tube'
_diffrn_source_type              'Enhance (Mo) X-ray Source'
_exptl_absorpt_coefficient_mu    1.511
_exptl_absorpt_correction_T_max  1.00000
_exptl_absorpt_correction_T_min  0.89304
_exptl_absorpt_correction_type   multi-scan
_exptl_absorpt_process_details
;
CrysAlisPro 1.171.38.46 (Rigaku Oxford Diffraction, 2015)
Empirical absorption correction using spherical harmonics,
 implemented in SCALE3 ABSPACK scaling algorithm.
;
_exptl_crystal_colour            white
_exptl_crystal_colour_primary    white
_exptl_crystal_density_diffrn    1.073
_exptl_crystal_description       needle
_exptl_crystal_F_000             2386
_exptl_crystal_preparation       'Solvent Exchnage in 1,5-Pentanediol'
_exptl_crystal_size_max          0.4
_exptl_crystal_size_mid          0.1
_exptl_crystal_size_min          0.1
_refine_diff_density_max         2.145
_refine_diff_density_min         -0.567
_refine_diff_density_rms         0.159
_refine_ls_abs_structure_details
;
 Flack x determined using 2401 quotients [(I+)-(I-)]/[(I+)+(I-)]
 (Parsons, Flack and Wagner, Acta Cryst. B69 (2013) 249-259).
;
_refine_ls_abs_structure_Flack   0.016(7)
_refine_ls_extinction_method     none
_refine_ls_goodness_of_fit_ref   1.111
_refine_ls_hydrogen_treatment    constr
_refine_ls_matrix_type           full
_refine_ls_number_parameters     284
_refine_ls_number_reflns         6475
_refine_ls_number_restraints     19
_refine_ls_restrained_S_all      1.113
_refine_ls_R_factor_all          0.0526
_refine_ls_R_factor_gt           0.0495
_refine_ls_shift/su_max          0.000
_refine_ls_shift/su_mean         0.000
_refine_ls_structure_factor_coef Fsqd
_refine_ls_weighting_details
'w=1/[\s^2^(Fo^2^)+(0.1065P)^2^+27.4709P] where P=(Fo^2^+2Fc^2^)/3'
_refine_ls_weighting_scheme      calc
_refine_ls_wR_factor_gt          0.1559
_refine_ls_wR_factor_ref         0.1590
_reflns_Friedel_coverage         0.742
_reflns_Friedel_fraction_full    0.795
_reflns_Friedel_fraction_max     0.741
_reflns_number_gt                6074
_reflns_number_total             6475
_reflns_threshold_expression     'I > 2\s(I)'
_cod_data_source_file            ZnAlaPyr_15PD_100K.cif
_cod_data_source_block           ZnAlaPyr_15PD_100K
_cod_original_sg_symbol_H-M      'R 3'
_cod_database_code               4135187
_shelx_shelxl_version_number     2014/7
_chemical_oxdiff_formula         ZnC7H7N3O5
_shelx_space_group_comment
;
The symmetry employed for this shelxl refinement is uniquely defined
by the following loop, which should always be used as a source of
symmetry information in preference to the above space-group names.
They are only intended as comments.
;
_shelx_estimated_absorpt_t_max   0.864
_shelx_estimated_absorpt_t_min   0.583
_reflns_odcompleteness_completeness 99.95
_reflns_odcompleteness_iscentric 1
_reflns_odcompleteness_theta     27.42
_olex2_refinement_description
;
1. Fixed Uiso
 At 1.2 times of:
  All C(H) groups, All C(H,H) groups, All N(H) groups
 At 1.5 times of:
  All C(H,H,H) groups, All O(H) groups
2. Restrained distances
 O1AA-C1AA
 1.4 with sigma of 0.02
 C4AA-O0AA
 1.4 with sigma of 0.02
 C3AA-C4AA
 1.54 with sigma of 0.02
 C3AA-C5AA
 1.54 with sigma of 0.02
 C6AA-C5AA
 1.54 with sigma of 0.02
 C1AA-C6AA
 1.54 with sigma of 0.02
 N3-C6 = C1AA-C5AA
 2.5 with sigma of 0.02
 C6AA-C3AA
 2.5 with sigma of 0.02
 C5AA-C4AA
 2.5 with sigma of 0.02
 C6AA-O1AA
 2.4 with sigma of 0.02
 O0AA-C3AA
 2.4 with sigma of 0.02
3. Uiso/Uaniso restraints and constraints
O0AA \\sim C4AA \\sim C3AA \\sim C5AA \\sim C6AA \\sim C1AA \\sim O1AA: within
2A with sigma of 0.01 and sigma for terminal atoms of 0.02
4. Others
 Sof(C3AA)=Sof(H3AA)=Sof(H3AB)=Sof(O0AA)=Sof(H0AA)=Sof(C1AA)=Sof(H1AA)=
 Sof(H1AB)=Sof(O1AA)=Sof(H1AC)=Sof(C4AA)=Sof(H4AA)=Sof(H4AB)=Sof(C5AA)=
 Sof(H5AA)=Sof(H5AB)=Sof(C6AA)=Sof(H6AA)=Sof(H6AB)=FVAR(1)
5.a Ternary CH refined with riding coordinates:
 C5(H5), C12(H12)
5.b Secondary CH2 refined with riding coordinates:
 C3AA(H3AA,H3AB), C1AA(H1AA,H1AB), C4AA(H4AA,H4AB), C5AA(H5AA,H5AB), C6AA(H6AA,
 H6AB)
5.c Aromatic/amide H refined with riding coordinates:
 N3(H3), N6(H6), C8(H8), C2(H2), C1(H1), C9(H9)
5.d Tetrahedral OH refined with riding coordinates:
 O0AA(H0AA), O1AA(H1AC)
5.e Idealised Me refined as rotating group:
 C14(H14A,H14B,H14C), C7(H7A,H7B,H7C)
;
_shelx_res_file
;
    yy_znalapyr_15pd_100k.res created by SHELXL-2014/7

TITL yy_znalapyr_15pd_100k_b.res in R3
REM Old TITL YY_ZnAlaPyr_15PD_100K in R3 #146
REM SHELXT solution in R3
REM R1 0.088, Rweak 0.017, Alpha 0.006, Orientation as input
REM Flack x = 0.046 ( 0.006 ) from Parsons' quotients
REM Formula found by SHELXT: C16 N4 O6 Zn2
CELL 0.71073 28.8315 28.8315 10.1304 90 90 120
ZERR 18 0.0004 0.0004 0.0002 0 0 0
LATT -3
SYMM -Y,+X-Y,+Z
SYMM +Y-X,-X,+Z
SFAC C H N O Zn
UNIT 139.25 157.81 54 59.3 18
DFIX 1.4 O1AA C1AA
DFIX 1.4 C4AA O0AA
DFIX 1.54 C3AA C4AA
DFIX 1.54 C3AA C5AA
DFIX 1.54 C6AA C5AA
DFIX 1.54 C1AA C6AA
DFIX 2.5 N3 C6 C1AA C5AA
DFIX 2.5 C6AA C3AA
DFIX 2.5 C5AA C4AA
DFIX 2.4 C6AA O1AA
DFIX 2.4 O0AA C3AA
SIMU 0.01 0.02 2 O0AA C4AA C3AA C5AA C6AA C1AA O1AA

L.S. 16
PLAN  20
SIZE 0.4 0.1 0.1
TEMP -173.15
BOND $H
LIST 6
fmap 2
acta
REM <olex2.extras>
REM <HklSrc "%.\\YY_ZnAlaPyr_15PD_100K.hkl">
REM </olex2.extras>

WGHT    0.106500   27.470900
FVAR       0.15598   0.29452
ZN01  5    0.663833    0.643296    0.968259    11.00000    0.02061    0.02055 =
         0.00695    0.00052   -0.00003    0.01145
ZN02  5    0.330207    0.353367    0.798412    11.00000    0.02053    0.01853 =
         0.00803   -0.00058   -0.00008    0.00913
O2    4    0.586310    0.612788    0.986742    11.00000    0.01965    0.02749 =
         0.01489   -0.00362    0.00043    0.01076
O5    4    0.388356    0.414418    0.483563    11.00000    0.02604    0.01822 =
         0.01557    0.00025    0.00295    0.00933
O4    4    0.336690    0.403465    0.658929    11.00000    0.02137    0.02450 =
         0.01250    0.00427    0.00169    0.00964
O1    4    0.594838    0.662288    1.163882    11.00000    0.02681    0.02157 =
         0.01298   -0.00261   -0.00648    0.01072
N4    3    0.614001    0.641317    0.582470    11.00000    0.02064    0.02241 =
         0.00601   -0.00174   -0.00087    0.00839
N2    3    0.360554    0.385085    1.078394    11.00000    0.02391    0.01889 =
         0.00928   -0.00092   -0.00023    0.00701
N5    3    0.598983    0.637062    0.454208    11.00000    0.02309    0.02503 =
         0.00744   -0.00060   -0.00218    0.01067
N3    3    0.475071    0.566248    1.016179    11.00000    0.01881    0.02045 =
         0.01221   -0.00128   -0.00068    0.00397
AFIX  43
H3    2    0.466540    0.556115    0.933566    11.00000   -1.20000
AFIX   0
N6    3    0.433906    0.525283    0.518916    11.00000    0.02281    0.02102 =
         0.00743   -0.00109   -0.00060    0.00775
AFIX  43
H6    2    0.443888    0.532212    0.435789    11.00000   -1.20000
AFIX   0
N1    3    0.363587    0.401054    0.949302    11.00000    0.01992    0.01876 =
         0.00840    0.00021   -0.00080    0.00576
O3    4    0.464904    0.539826    1.229532    11.00000    0.06360    0.02773 =
         0.01115   -0.00382   -0.01268   -0.00121
O6    4    0.458660    0.540873    0.733321    11.00000    0.03379    0.03865 =
         0.00933    0.00332    0.00093    0.00111
C10   1    0.526143    0.586416    0.574346    11.00000    0.02651    0.02442 =
         0.00836   -0.00168   -0.00334    0.01007
C3    1    0.415935    0.473794    1.067698    11.00000    0.02261    0.02088 =
         0.01179    0.00054   -0.00223    0.00454
C4    1    0.453870    0.529063    1.111694    11.00000    0.02416    0.02517 =
         0.01596   -0.00184   -0.00367    0.00518
C13   1    0.367816    0.431708    0.565640    11.00000    0.01384    0.01915 =
         0.01331   -0.00332   -0.00440    0.00351
C5    1    0.511947    0.623184    1.044118    11.00000    0.01538    0.02098 =
         0.02006   -0.00126   -0.00084    0.00599
AFIX  13
H5    2    0.514856    0.641843    0.958705    11.00000   -1.20000
AFIX   0
C11   1    0.470947    0.549448    0.615329    11.00000    0.02335    0.02252 =
         0.01395    0.00196    0.00080    0.00924
C12   1    0.378136    0.488225    0.549683    11.00000    0.02078    0.01861 =
         0.01841    0.00034    0.00019    0.00685
AFIX  13
H12   2    0.368417    0.499699    0.633405    11.00000   -1.20000
AFIX   0
C8    1    0.570396    0.610811    0.655267    11.00000    0.02375    0.02530 =
         0.01483    0.00121    0.00071    0.00818
AFIX  43
H8    2    0.570031    0.606635    0.748348    11.00000   -1.20000
AFIX   0
C2    1    0.392323    0.428812    1.150910    11.00000    0.02871    0.02163 =
         0.01336   -0.00259   -0.00622    0.00540
AFIX  43
H2    2    0.397873    0.429179    1.243431    11.00000   -1.20000
AFIX   0
C1    1    0.397331    0.454528    0.943789    11.00000    0.02303    0.02149 =
         0.01555    0.00325   -0.00112    0.00495
AFIX  43
H1    2    0.406720    0.475566    0.865719    11.00000   -1.20000
AFIX   0
C9    1    0.546448    0.604310    0.448158    11.00000    0.01631    0.02385 =
         0.01423   -0.00072    0.00108    0.00296
AFIX  43
H9    2    0.525748    0.594511    0.369489    11.00000   -1.20000
AFIX   0
C6    1    0.568586    0.632849    1.069801    11.00000    0.02052    0.01581 =
         0.00999    0.00363    0.00185    0.00517
C14   1    0.342059    0.487981    0.437057    11.00000    0.02852    0.02840 =
         0.04262    0.00267   -0.01213    0.01371
AFIX 137
H14A  2    0.346240    0.523732    0.428431    11.00000   -1.50000
H14B  2    0.304597    0.461930    0.457021    11.00000   -1.50000
H14C  2    0.352406    0.478126    0.354121    11.00000   -1.50000
AFIX   0
C7    1    0.494117    0.649216    1.139900    11.00000    0.07556    0.06380 =
         0.07542   -0.01173   -0.00435    0.03649
AFIX 137
H7A   2    0.462033    0.648785    1.106268    11.00000   -1.50000
H7B   2    0.522637    0.686345    1.153350    11.00000   -1.50000
H7C   2    0.485778    0.629898    1.224025    11.00000   -1.50000
AFIX   0

PART -1
C3AA  1    0.566984    0.487897    0.026367    21.00000    0.09390
AFIX  23
H3AA  2    0.592493    0.526739    0.017151    21.00000   -1.20000
H3AB  2    0.587729    0.469074    0.020785    21.00000   -1.20000
AFIX   0
O0AA  4    0.545921    0.486351   -0.207584    21.00000    0.15572
AFIX  83
H0AA  2    0.535523    0.459555   -0.256989    21.00000   -1.50000
AFIX   0
C1AA  1    0.573757    0.503149    0.395595    21.00000    0.11048
AFIX  23
H1AA  2    0.599057    0.489392    0.391929    21.00000   -1.20000
H1AB  2    0.588189    0.533528    0.458360    21.00000   -1.20000
AFIX   0
O1AA  4    0.523670    0.462520    0.440018    21.00000    0.12059
AFIX  83
H1AC  2    0.527874    0.447471    0.506242    21.00000   -1.50000
AFIX   0
C4AA  1    0.528246    0.470126   -0.085221    21.00000    0.09839
AFIX  23
H4AA  2    0.508581    0.430478   -0.085657    21.00000   -1.20000
H4AB  2    0.501788    0.481467   -0.065024    21.00000   -1.20000
AFIX   0
C5AA  1    0.540608    0.477511    0.161575    21.00000    0.11369
AFIX  23
H5AA  2    0.503444    0.470220    0.150296    21.00000   -1.20000
H5AB  2    0.538681    0.444910    0.199259    21.00000   -1.20000
AFIX   0
C6AA  1    0.568784    0.522563    0.258288    21.00000    0.12017
AFIX  23
H6AA  2    0.548865    0.542178    0.265719    21.00000   -1.20000
H6AB  2    0.605042    0.547858    0.224408    21.00000   -1.20000
AFIX   0
HKLF 4

REM  yy_znalapyr_15pd_100k_b.res in R3
REM R1 =  0.0495 for    6074 Fo > 4sig(Fo)  and  0.0526 for all    6475 data
REM    284 parameters refined using     19 restraints

END

WGHT      0.1065     27.4723

REM Highest difference peak  2.145,  deepest hole -0.567,  1-sigma level  0.159
Q1    1   0.5107  0.6573  0.9449  11.00000  0.05    2.14
Q2    1   0.4962  0.4301 -0.2954  11.00000  0.05    0.96
Q3    1   0.3269  0.4817  0.1561  11.00000  0.05    0.89
Q4    1   0.5070  0.4281 -0.1564  11.00000  0.05    0.87
Q5    1   0.4028  0.6303  0.6492  11.00000  0.05    0.81
Q6    1   0.3476  0.5595  0.8776  11.00000  0.05    0.77
Q7    1   0.6738  0.4450  0.2329  11.00000  0.05    0.76
Q8    1   0.5670  0.4989  0.2142  11.00000  0.05    0.72
Q9    1   0.5462  0.4107 -0.1608  11.00000  0.05    0.71
Q10   1   0.5822  0.4505  0.0762  11.00000  0.05    0.67
Q11   1   0.5459  0.4677 -0.3755  11.00000  0.05    0.67
Q12   1   0.5695  0.4892  0.2788  11.00000  0.05    0.62
Q13   1   0.6400  0.4119  0.1971  11.00000  0.05    0.61
Q14   1   0.4430  0.7416  1.0253  11.00000  0.05    0.59
Q15   1   0.4886  0.5668  0.9243  11.00000  0.05    0.55
Q16   1   0.4584  0.4249 -0.2565  11.00000  0.05    0.55
Q17   1   0.5359  0.4706  0.2977  11.00000  0.05    0.55
Q18   1   0.5364  0.5044  0.3307  11.00000  0.05    0.53
Q19   1   0.3390  0.5723  0.9940  11.00000  0.05    0.52
Q20   1   0.6253  0.6387  0.9680  11.00000  0.05    0.50
;
_shelx_res_checksum              49934
_shelx_hkl_file
;
   0   0 -12  832.17   33.03
   0   0 -12  878.44   30.91
   0   0 -12  830.08   31.69
   0   0  -9   29.31    6.41
   0   0  -9   31.31    6.02
   0   0  -6 4364.87   47.20
   0   0  -6 4383.65   50.73
   0   0  -6 4398.73   25.87
   0   0  -6 4305.41   49.38
   0   0  -3   47.95    2.19
   0   0  -3   54.86    4.36
   1  -1 -13   -4.60    7.55
  -1   0 -13   -3.90    7.07
   1  -1 -13   -3.44    7.11
  -1   0 -13    1.39    6.59
   0   1 -13    3.00    6.70
   0   1 -13   -0.76    7.49
  -1   0 -13   -0.45    6.52
   1  -1 -13   -4.22    7.26
  -1   0 -10   13.14    5.28
   1  -1 -10   12.33    5.41
   1  -1 -10   20.78    5.76
  -1   0 -10    7.13    5.55
   1  -1 -10   11.84    5.50
  -1   0 -10   14.34    6.07
   0   1 -10   13.63    6.04
   0   1 -10   20.90    6.43
   0   1 -10   10.67    5.28
   0   1  -7    4.13    3.72
   1  -1  -7    3.28    1.52
   1  -1  -7    2.86    3.69
   0   1  -7    6.27    4.13
   0   1  -7    5.04    4.14
  -1   0  -7    3.01    1.24
   1  -1  -7    3.24    3.18
  -1   0  -7    8.08    4.69
   1  -1  -7    3.49    3.29
  -1   0  -7    4.28    3.21
  -1   0  -7   -0.29    3.46
   1  -1  -4   64.75    5.26
   0   1  -4   48.65    4.86
  -1   0  -4   61.78    4.92
  -1   0  -4   53.68    2.80
   1  -1  -4   55.16    4.78
   1  -1  -4   66.07    3.30
  -1   0  -4   56.02    5.24
   1  -1  -1   14.31    1.46
  -1   0  -1   13.87    1.31
   0   1  -1   13.35    1.41
  -1   0   2  761.19   10.99
   1   0 -11   10.25    6.51
   1   0 -11   -6.14    6.07
  -1   1 -11    0.17    4.85
   0  -1 -11   -2.14    4.92
   0  -1 -11    3.53    5.59
  -1   1 -11    1.93    5.88
  -1   1 -11   -2.75    5.92
   1   0 -11    5.50    5.32
   0  -1 -11   -2.17    4.75
   0  -1  -8   50.60    3.46
   1   0  -8   51.85    6.98
   1   0  -8   46.31    6.58
   1   0  -8   36.29    2.35
   0  -1  -8   43.26    6.64
   0  -1  -8   37.19    6.32
   0  -1  -8   39.51    6.28
  -1   1  -8   53.71    6.61
  -1   1  -8   50.71    7.20
   1   0  -8   35.48    2.33
  -1   1  -8   40.94    6.42
   1   0  -8   48.33    7.44
  -1   1  -5   11.01    3.34
   0  -1  -5   11.51    3.06
   1   0  -5   10.97    3.11
  -1   1  -5    4.19    3.39
   1   0  -5   14.63    3.77
  -1   1  -5    9.75    1.25
   0  -1  -5   14.12    3.60
   0  -1  -5   10.42    3.35
   0  -1  -5    9.21    1.57
   1   0  -5   12.99    1.50
   1   0  -2  717.73   10.60
  -1   1  -2  747.00   10.26
   0  -1  -2  721.42   10.94
   0  -1  -2  714.95    8.50
  -1   1  -2  734.60   12.56
   1   0   1   13.40    1.29
   0  -1   1   14.08    1.47
  -1   1   1   14.41    1.42
   1  -2 -12  107.88   12.41
   1  -2 -12  128.37   13.93
   1   1 -12  118.44   12.39
   1   1 -12  108.91   13.44
  -2   1 -12  114.18   12.01
  -2   1 -12  138.93   14.12
  -2   1 -12  107.29   13.72
   1  -2 -12  120.40   13.01
   1   1 -12   94.94   11.62
  -2   1  -9 1032.33   27.54
  -2   1  -9 1001.35   30.05
   1   1  -9 1017.75   31.49
   1  -2  -9 1035.45   29.67
   1  -2  -9  964.01   16.06
  -2   1  -9 1066.83   31.74
   1   1  -9 1128.29   30.46
   1  -2  -9 1035.44   29.95
   1  -2  -9 1030.12   15.99
   1   1  -9 1014.44   27.81
   1  -2  -9 1044.29   30.05
   1   1  -6  740.26    8.49
   1  -2  -6  772.38   20.55
  -2   1  -6  818.66   19.68
  -2   1  -6  799.87   10.53
   1   1  -6  789.70   20.70
   1  -2  -6  737.10   20.26
   1  -2  -6  710.83   20.32
   1   1  -6  732.68    8.54
   1  -2  -6  810.69   13.90
   1   1  -6  758.03   22.17
  -2   1  -6  793.18   22.44
  -2   1  -3 4382.54   31.18
  -2   1  -3 4293.94   37.95
   1  -2  -3 4278.66   33.30
   1  -2  -3 4493.12   26.78
   1   1  -3 4415.22   33.23
   1   1   3 3943.50   24.07
   1  -2   3 3921.18   34.73
   2  -3 -13   80.67   11.94
   1   2 -13  110.73   14.86
  -3   1 -13  109.89   14.50
   1   2 -13  100.77   12.77
   2  -3 -13  111.62   13.67
   2  -3 -13   85.19   11.84
  -3   1 -13   99.44   13.41
  -3   1 -10   19.78    5.67
   2  -3 -10   19.55    6.05
   1   2 -10   22.62    7.16
  -3   1 -10   29.78    7.64
   2  -3 -10   32.82    7.21
   1   2 -10   23.32    6.13
   2  -3 -10   26.02    6.38
   1   2 -10   11.70    5.15
  -3   1 -10   21.33    6.07
   2  -3 -10   17.39    2.79
   2  -3  -7  591.75   13.40
   2  -3  -7  559.63   18.99
   2  -3  -7  552.80   19.92
  -3   1  -7  579.83   21.31
   2  -3  -7  582.30   18.93
  -3   1  -7  600.18   10.23
   1   2  -7  576.42   18.99
  -3   1  -7  563.54   17.87
   1   2  -7  562.16   21.15
  -3   1  -4   93.61    3.84
   1   2  -4   80.47    5.71
   2  -3  -4   78.36    5.72
   2  -3  -4   82.51    4.47
  -3   1  -4   88.35    6.92
  -3   1  -4   85.27    5.42
  -3   1  -1  570.24    7.21
   2  -3  -1  549.32    7.94
   1   2  -1  575.43    7.02
   1   2  -1  567.65    6.81
   1   2  -1  570.78    8.17
  -3   1  -1  575.13    7.92
   2  -3  -1  561.17    6.78
  -3   1  -1  568.97    7.76
   1   2   2  905.50   14.55
  -3   1   2  937.19   15.03
   1   2   2  872.05   11.77
  -3   1   2  891.61    9.74
   2  -3   2  921.58   15.09
  -2   0 -11    7.77    5.19
   0   2 -11    0.86    5.15
   0   2 -11    0.79    5.44
   2  -2 -11   -6.14    5.20
  -2   0 -11   -6.45    5.36
   2  -2 -11   -1.00    5.11
   0   2 -11    4.98    4.77
  -2   0 -11   -4.45    5.83
   2  -2 -11   -1.58    4.66
   2  -2  -8  184.48   12.41
   2  -2  -8  201.28   12.79
   0   2  -8  204.57   12.84
   2  -2  -8  216.23    7.71
  -2   0  -8  217.47   12.49
   0   2  -8  194.48   13.55
  -2   0  -8  212.58   13.71
   2  -2  -8  212.63   12.49
  -2   0  -8  198.52    6.22
  -2   0  -8  206.26   12.83
   2  -2  -8  195.33    7.42
   0   2  -8  195.35   11.48
  -2   0  -5    2.68    2.34
   0   2  -5    6.65    3.20
  -2   0  -5    6.78    3.76
   2  -2  -5    2.53    1.39
   2  -2  -5    1.08    2.14
  -2   0  -5    7.21    1.62
   2  -2  -5    4.65    2.85
   2  -2  -2 1679.24   18.10
  -2   0  -2 1683.68   13.59
  -2   0  -2 1669.02   17.18
   0   2  -2 1667.24   17.90
   0   2   1    7.67    1.52
  -2   0   1    5.89    0.91
  -2   0   1    5.37    1.36
   2  -2   1    4.29    1.26
  -2   0   1    8.88    1.69
   0   2   1    5.16    1.09
  -1  -1 -12  286.23   18.40
   2  -1 -12  290.04   18.34
  -1   2 -12  263.00   19.25
   2  -1 -12  271.37   19.45
  -1  -1 -12  231.51   17.32
   2  -1 -12  291.76   18.89
  -1  -1 -12  253.03   18.69
  -1   2 -12  263.39   16.73
  -1   2 -12  277.97   19.33
  -1   2  -9  778.58   23.78
   2  -1  -9  756.50   10.97
  -1  -1  -9  798.06   25.72
  -1  -1  -9  780.38   26.94
   2  -1  -9  795.20   25.87
  -1  -1  -9  777.29   12.98
   2  -1  -9  724.20   10.99
   2  -1  -9  846.42   28.06
   2  -1  -9  808.19   25.45
  -1   2  -9  872.07   28.88
  -1   2  -9  800.31   26.99
  -1  -1  -9  824.37   26.59
  -1  -1  -6 1379.89   27.25
  -1   2  -6 1431.69   25.29
  -1  -1  -6 1420.90   17.50
   2  -1  -6 1389.48   29.00
  -1  -1  -6 1441.65   27.67
  -1   2  -6 1341.62   28.36
   2  -1  -6 1376.93   26.41
   2  -1  -6 1424.79   16.67
  -1  -1  -3 3793.51   23.46
   2  -1  -3 3787.84   28.71
   2  -1  -3 3702.27   34.04
  -1   2  -3 3779.06   34.13
  -1  -1  -3 3788.78   33.02
  -1  -1   3 4485.91   34.08
   2  -1   3 4409.73   20.36
   2   0 -13    0.09    6.68
  -2   2 -13    2.09    7.43
   2   0 -13    5.93    7.65
   0  -2 -13   13.10    7.77
   0  -2 -13   10.54    7.35
   0  -2 -13    1.07    6.25
   2   0 -13   14.67    7.61
  -2   2 -13   -2.88    7.08
   0  -2 -10   54.74    3.73
   2   0 -10   79.67    9.80
  -2   2 -10   70.56    8.46
   2   0 -10   57.34    8.16
   0  -2 -10   63.20    9.09
  -2   2 -10   75.68   10.05
   0  -2 -10   76.95    9.51
  -2   2 -10   67.61    9.59
   0  -2 -10   54.41    8.49
   2   0 -10   41.32    8.38
   2   0  -7    5.92    1.36
   0  -2  -7    5.88    2.05
   0  -2  -7    4.68    3.43
   2   0  -7    6.25    3.31
  -2   2  -7    4.52    4.27
   0  -2  -7    2.65    3.79
   2   0  -7    4.81    1.32
  -2   2  -7    8.61    3.56
   0  -2  -7    8.68    4.12
   2   0  -7    5.64    3.96
   0  -2  -4  328.68    8.17
   2   0  -4  359.93   12.71
   0  -2  -4  372.67   12.41
   0  -2  -4  367.55   11.08
  -2   2  -4  347.60   12.51
   2   0  -4  359.80   10.69
  -2   2  -4  368.34   10.23
   2   0  -4  359.77    6.90
   2   0  -1    6.80    1.36
   2   0  -1    6.91    1.09
   0  -2  -1    5.82    1.38
   2   0  -1    8.49    1.60
  -2   2  -1    7.56    1.58
  -2   2  -1    6.20    1.51
   0  -2  -1    2.23    0.99
   2   0   2 1804.73   13.95
   0  -2   2 1792.66   18.82
   2   0   2 1766.19   17.74
  -2   2   2 1802.02   18.85
  -3   2 -11    8.21    6.04
   1  -3 -11    1.69    4.91
  -3   2 -11   10.51    5.79
   1  -3 -11    6.55    5.77
   2   1 -11   19.25    6.54
   2   1 -11    6.61    5.25
   2   1 -11    4.23    6.55
  -3   2 -11   15.15    6.89
   1  -3 -11    4.13    5.18
   2   1  -8    7.85    3.52
  -3   2  -8   18.78    4.51
   2   1  -8   12.98    5.33
   1  -3  -8   17.45    4.85
  -3   2  -8    7.01    4.83
   1  -3  -8    9.09    3.98
   1  -3  -8    8.41    2.45
  -3   2  -8   13.03    4.74
   1  -3  -8    9.70    4.15
   2   1  -5   19.49    4.59
  -3   2  -5   23.84    1.84
   1  -3  -5   18.50    3.49
   1  -3  -5   24.40    3.02
   2   1  -5   25.79    3.81
  -3   2  -5   19.93    4.66
  -3   2  -5   27.19    3.83
   1  -3  -5   28.32    4.60
   2   1  -5   25.11    1.88
   1  -3  -2  516.62    9.44
  -3   2  -2  517.60    6.99
   2   1  -2  511.15    9.96
   2   1  -2  539.52    8.91
   2   1  -2  536.20    7.06
  -3   2  -2  526.80   11.91
   1  -3  -2  515.39    8.90
  -3   2  -2  537.52    8.18
   2   1   1  536.06    8.74
   1  -3   1  500.38    8.68
   2   1   1  499.14    7.85
  -3   2   1  525.52    8.79
   1  -3   4  109.56    7.21
   2   1   4  108.75    4.74
   2  -4 -12  226.81   16.85
   2   2 -12  217.74   18.72
  -4   2 -12  215.78   14.91
   2  -4 -12  223.95   17.85
   2  -4 -12  225.51   16.89
  -4   2 -12  234.40   17.87
   2   2 -12  211.04   15.80
   2   2 -12  197.91   15.04
  -4   2 -12  225.74   18.62
   2   2  -9  889.89   26.07
   2  -4  -9  914.61   18.52
   2  -4  -9  912.31   29.35
  -4   2  -9  891.74   30.48
   2   2  -9  866.01   30.29
   2  -4  -9  946.60   27.88
  -4   2  -9  858.10   27.57
   2  -4  -9  891.13   27.33
  -4   2  -9  843.25   24.17
   2   2  -9  916.63   26.85
  -4   2  -6 1203.43   28.97
  -4   2  -6 1171.05   22.66
   2   2  -6 1211.21   29.12
   2  -4  -6 1216.95   25.14
   2  -4  -6 1216.89   27.96
  -4   2  -6 1181.35   13.86
   2   2  -6 1203.23   24.42
   2  -4  -6 1181.28   19.81
   2   2  -3 2749.26   25.78
   2  -4  -3 2689.59   25.36
   2   2  -3 2800.80   16.50
  -4   2  -3 2788.95   33.22
  -4   2  -3 2743.37   24.04
   2  -4  -3 2788.36   26.34
   2   2  -3 2873.96   26.82
  -4   2  -3 2824.59   19.91
   2  -4   0  869.49   10.21
   2   2   0  897.10   11.54
   2   2   0  861.49   10.37
  -4   2   0  908.53   11.31
  -4   2   0  887.62   11.38
   2   2   0  867.57   10.91
  -4   2   0  888.97   10.24
   2  -4   0  898.74   10.80
  -4   2   3 3281.97   33.58
   2   2   3 3280.35   26.23
   2   2   3 3223.17   32.25
   2  -4   3 3338.11   34.17
   3  -5 -13   36.72    9.88
  -5   2 -13   64.68   12.64
   2   3 -13   74.41   12.55
   3  -5 -13   40.30   10.25
   2   3 -13   36.84    8.74
  -5   2 -13   38.39    9.83
   3  -5 -10  398.18   21.06
   3  -5 -10  371.07   18.88
  -5   2 -10  369.05   19.52
  -5   2 -10  382.80   17.57
   3  -5 -10  397.32   19.11
  -5   2 -10  407.13   22.70
   2   3 -10  388.77   18.07
   3  -5 -10  392.68   12.91
   2   3 -10  362.81   21.72
   2   3 -10  389.51   18.78
  -5   2  -7  679.69   18.93
   3  -5  -7  703.10   23.54
  -5   2  -7  706.47   12.02
  -5   2  -7  696.17   24.30
   3  -5  -7  700.45   20.49
   3  -5  -7  703.56   21.18
   2   3  -7  704.30   24.27
   3  -5  -7  707.50   16.68
   2   3  -7  721.26   20.79
   3  -5  -4   54.29    4.71
   2   3  -4   61.88    2.63
   3  -5  -4   63.95    4.63
  -5   2  -4   68.23    4.78
  -5   2  -4   57.37    6.23
   2   3  -4   59.45    4.54
   2   3  -4   68.81    5.28
  -5   2  -4   67.40    3.87
  -5   2  -1  244.27    6.76
   2   3  -1  256.35    6.59
  -5   2  -1  264.22    6.00
  -5   2  -1  240.02    6.21
   2   3  -1  243.82    6.17
   3  -5  -1  262.87    6.50
   2   3  -1  250.31    5.96
   3  -5  -1  250.36    5.66
  -5   2   2 2168.70   24.64
   3  -5   2 2175.15   25.19
   2   3   2 2197.72   24.52
   2   3   2 2115.05   21.81
   3  -5   5  197.45   11.16
   2   3   5  225.09    8.60
   1   3 -11   10.90    5.52
   1   3 -11    2.14    5.55
   3  -4 -11    5.42    5.87
   3  -4 -11    0.17    5.16
  -4   1 -11    7.78    5.90
   3  -4 -11    2.55    4.94
  -4   1 -11    2.21    4.63
   1   3 -11   -3.00    6.57
  -4   1 -11    0.98    6.38
   3  -4  -8  157.82   10.64
   1   3  -8  157.53   10.49
  -4   1  -8  161.48   10.52
  -4   1  -8  163.94   12.98
   3  -4  -8  173.88   12.56
   3  -4  -8  165.98   11.60
   1   3  -8  141.03   12.11
  -4   1  -8  167.69   11.61
  -4   1  -8  157.13    5.83
   1   3  -8  142.19   10.69
   3  -4  -8  160.76    7.80
   1   3  -5  239.98   10.42
  -4   1  -5  255.29   10.19
  -4   1  -5  249.38   12.74
   3  -4  -5  216.03    8.40
   3  -4  -5  232.60   10.62
  -4   1  -5  232.60    6.87
   3  -4  -2   31.03    2.81
   1   3  -2   37.67    3.18
   1   3  -2   39.24    2.56
   1   3  -2   43.08    2.11
   3  -4  -2   43.84    2.61
  -4   1  -2   43.18    2.90
  -4   1  -2   39.71    3.15
  -4   1  -2   43.52    2.86
   1   3   1  143.85    5.66
  -4   1   1  140.88    5.32
   1   3   1  135.87    4.95
  -4   1   1  145.06    5.55
   3  -4   1  129.39    5.17
   1   3   1  136.53    5.24
  -4   1   1  143.44    4.88
   3  -4   1  144.30    5.57
   1   3   4  113.84    5.68
   3  -4   4  107.55    7.61
  -3   0 -12  626.26   27.38
   0   3 -12  643.73   25.35
   3  -3 -12  620.75   25.82
  -3   0 -12  666.71   26.73
  -3   0 -12  685.61   30.86
   3  -3 -12  608.13   28.12
   3  -3 -12  677.40   29.56
   0   3 -12  644.36   30.45
   0   3 -12  682.64   28.67
   0   3  -9    4.89    4.81
   0   3  -9    4.97    4.26
   3  -3  -9   13.84    4.82
  -3   0  -9   10.98    5.60
   3  -3  -9   11.26    2.58
  -3   0  -9   15.69    5.09
   3  -3  -9   10.65    2.71
  -3   0  -9    8.56    3.87
   3  -3  -9   15.95    5.25
  -3   0  -9    7.16    1.80
   0   3  -9   14.83    6.80
   3  -3  -9    9.72    5.20
   3  -3  -6 5235.46   38.21
  -3   0  -6 5331.92   59.76
   3  -3  -6 5236.16   49.67
  -3   0  -6 5236.06   51.30
  -3   0  -6 5411.80   34.45
   3  -3  -6 5199.12   54.78
   3  -3  -3   15.86    2.90
   0   3  -3   14.58    3.04
  -3   0  -3   17.28    2.16
  -3   0  -3   16.11    2.58
   3  -3   3   14.16    1.21
  -3   0   3   17.12    2.34
  -1   3 -13  111.98   13.75
  -2  -1 -13   93.13   12.55
  -1   3 -13  122.21   15.03
  -2  -1 -13   85.31   13.02
  -2  -1 -13  117.42   13.19
   3  -2 -13   84.41   11.93
   3  -2 -13  105.97   13.89
  -2  -1 -10    0.77    4.93
   3  -2 -10    5.35    5.34
   3  -2 -10    1.40    5.11
  -2  -1 -10    5.36    5.58
  -1   3 -10    3.41    5.39
  -2  -1 -10    1.87    4.25
   3  -2 -10    6.05    4.89
  -1   3 -10   -3.75    5.00
  -1   3 -10    5.04    3.83
  -2  -1  -7  491.13   17.84
   3  -2  -7  534.78   11.80
   3  -2  -7  512.09   19.08
  -2  -1  -7  517.02   20.04
  -2  -1  -7  549.23   18.56
  -1   3  -7  526.20   16.36
   3  -2  -7  529.82   17.44
  -2  -1  -7  547.60   12.10
  -1   3  -7  550.79   19.63
   3  -2  -7  524.23   11.92
   3  -2  -4  115.61    7.22
  -2  -1  -4  122.57    4.99
  -1   3  -4  115.00    7.16
   3  -2  -4  112.94    6.00
  -2  -1  -4  107.46    6.61
  -2  -1  -1  516.47    8.50
   3  -2  -1  497.42    8.60
  -1   3  -1  511.04    8.72
  -2  -1  -1  514.76    8.06
   3  -2   2  514.07    6.85
   3  -2   2  499.11    8.12
  -2  -1   2  529.33    9.08
  -1   3   2  512.75    9.01
  -2  -1   2  515.61    6.91
   3  -1 -11    1.00    4.82
  -1  -2 -11    7.55    5.84
  -2   3 -11   11.58    5.42
  -1  -2 -11   12.67    5.73
  -2   3 -11    4.58    5.39
  -1  -2 -11   11.83    6.70
  -2   3 -11    6.82    6.65
   3  -1 -11   16.18    6.88
   3  -1 -11    4.43    4.95
  -2   3  -8   21.36    4.75
  -2   3  -8   18.66    5.58
  -1  -2  -8   22.82    5.41
  -1  -2  -8   17.78    2.99
   3  -1  -8   11.83    4.75
  -1  -2  -8   31.53    6.04
   3  -1  -8   21.78    4.64
   3  -1  -8   19.36    2.39
   3  -1  -8   20.69    2.44
  -1  -2  -8   13.46    4.49
  -1  -2  -5   36.39    4.33
   3  -1  -5   35.69    4.11
  -2   3  -5   38.10    5.56
  -2   3  -5   35.29    3.78
   3  -1  -5   28.94    4.86
   3  -1  -5   34.17    2.78
  -1  -2  -5   40.45    3.47
  -1  -2  -5   36.46    4.95
   3  -1  -2  901.62    9.50
   3  -1  -2  885.31   14.56
  -1  -2  -2  876.04   11.83
  -1  -2  -2  885.30   14.22
  -2   3  -2  895.51   14.84
  -2   3  -2  919.81    8.55
  -1  -2  -2  898.85   10.33
   3  -1  -2  883.40   10.95
  -1  -2   1  564.22    7.18
  -2   3   1  563.19    7.06
  -1  -2   1  562.38    8.08
   3  -1   1  570.69    7.50
   3  -1   1  566.65    7.76
   3  -1   1  566.43    7.84
  -2   3   1  573.42    8.06
  -1  -2   1  572.61    6.76
  -1  -2   4   80.37    5.86
   3  -1   4   85.17    3.66
   3   0 -12  596.11   26.18
   3   0 -12  657.08   30.27
  -3   3 -12  646.46   29.70
   3   0 -12  632.63   26.09
   0  -3 -12  689.05   29.42
   0  -3 -12  669.13   28.84
  -3   3 -12  676.75   25.01
   0  -3 -12  652.96   27.83
  -3   3 -12  695.45   30.94
  -3   3  -9    7.20    5.15
  -3   3  -9   19.49    5.19
   3   0  -9   12.20    4.74
  -3   3  -9   10.83    5.28
   0  -3  -9   10.63    4.24
   0  -3  -9    5.37    2.32
   3   0  -9   15.49    5.36
   3   0  -9   10.89    5.16
   0  -3  -9    8.34    4.35
   0  -3  -9    7.05    5.06
  -3   3  -6 3788.24   49.67
   0  -3  -6 3711.56   42.75
  -3   3  -6 3618.66   38.61
   3   0  -6 3758.98   25.57
   0  -3  -6 3676.59   47.55
   3   0  -6 3689.84   25.52
   3   0  -6 3809.54   49.93
   0  -3  -6 3694.37   33.28
   3   0  -6 3764.82   41.66
   3   0  -3   17.01    3.62
   0  -3  -3   25.13    3.77
  -3   3  -3   21.55    3.65
  -3   3  -3   18.01    1.38
   0  -3  -3   12.01    2.13
   3   0  -3   18.47    1.96
   3   0  -3   13.80    1.96
  -3   3  -3   17.61    2.16
   0  -3  -3   17.68    2.39
   0  -3   3   13.72    2.75
  -3   3   3   19.61    3.19
   3   0   3   10.19    1.86
   3   0   3   16.39    2.75
  -4   3 -13   73.75   12.33
   1  -4 -13   93.41   13.17
   1  -4 -13  113.33   13.38
   3   1 -13  116.28   15.02
   1  -4 -13  110.61   13.54
  -4   3 -13  103.41   14.39
  -4   3 -10  109.79   12.56
   1  -4 -10  100.37    6.40
   1  -4 -10  130.99   12.24
   3   1 -10   98.66   11.69
  -4   3 -10  109.40    9.83
  -4   3 -10   80.47   10.28
   1  -4 -10   93.51   10.29
   3   1 -10   97.63    9.57
   3   1 -10  103.33   10.38
   1  -4 -10   89.61   10.11
   1  -4  -7  245.11   13.60
   3   1  -7  232.08   13.99
   1  -4  -7  251.07   12.57
   3   1  -7  232.50    5.41
  -4   3  -7  242.36   14.51
  -4   3  -7  247.02   11.24
   1  -4  -7  235.12   12.86
   1  -4  -7  247.78    9.49
   3   1  -7  228.94    5.40
   3   1  -7  216.22   11.11
   3   1  -4  171.59    9.46
   3   1  -4  170.72    4.95
   1  -4  -4  193.30    9.94
  -4   3  -4  168.42    9.67
   1  -4  -4  168.61    6.84
  -4   3  -4  173.97    6.77
   1  -4  -4  178.68    7.71
   3   1  -4  149.58    6.85
  -4   3  -4  161.71    4.44
   3   1  -1  295.68    6.41
  -4   3  -1  299.95    5.44
   1  -4  -1  305.80    7.87
  -4   3  -1  308.30    7.07
   3   1  -1  310.17    5.89
  -4   3  -1  301.59    6.43
   1  -4  -1  311.86    7.65
   1  -4  -1  318.36    5.52
   3   1  -1  297.90    6.83
   3   1  -1  309.29    7.71
  -4   3  -1  317.79    8.14
   1  -4  -1  305.34    6.89
   3   1   2  182.27    5.85
   1  -4   2  188.92    3.76
   3   1   2  178.73    6.66
  -4   3   2  197.98    7.09
   1  -4   2  192.79    7.14
   1  -4   5  257.84   11.84
   3   1   5  261.77    8.20
   2  -5 -11   18.48    7.21
   3   2 -11   17.88    6.40
  -5   3 -11    7.42    4.66
   2  -5 -11   10.82    6.17
   3   2 -11   20.23    6.01
   2  -5 -11   16.18    6.00
   3   2 -11   13.54    7.77
  -5   3 -11   27.68    7.61
  -5   3 -11   16.34    7.18
   2  -5  -8  779.61   17.96
  -5   3  -8  866.20   28.39
   2  -5  -8  827.12   24.19
   3   2  -8  814.49   23.04
   2  -5  -8  814.47   24.66
   3   2  -8  795.73   27.51
  -5   3  -8  788.20   21.31
   2  -5  -8  822.71   26.78
   2  -5  -5  241.63   12.00
  -5   3  -5  275.40    9.71
  -5   3  -5  279.01    6.89
   2  -5  -5  285.57    9.91
  -5   3  -5  277.57   13.49
   2  -5  -5  282.24   10.92
   3   2  -5  289.95   13.73
   3   2  -5  269.62    6.06
   3   2  -5  306.97   11.08
   3   2  -5  252.88   11.29
  -5   3  -2 1511.70   15.07
  -5   3  -2 1506.96   18.15
   2  -5  -2 1559.74   16.18
   2  -5  -2 1501.09   17.74
   3   2  -2 1463.97   17.50
   3   2  -2 1546.56   15.06
   2  -5  -2 1548.60   19.35
  -5   3  -2 1529.72   15.99
   3   2  -2 1545.45   16.31
   3   2   1  390.31    8.96
   2  -5   1  371.78    8.83
   3   2   1  381.38    8.62
  -5   3   1  367.09    8.67
   2  -5   4   84.49    6.79
   3   2   4   91.23    6.56
   3   2   4   78.62    4.82
  -5   3   4   86.57    6.87
  -6   3 -12  458.15   24.49
  -6   3 -12  515.68   22.09
   3   3 -12  454.97   22.27
   3   3 -12  495.54   22.93
   3  -6 -12  503.13   24.36
  -6   3 -12  449.58   26.56
   3  -6 -12  491.98   26.45
   3   3 -12  501.27   27.52
   3  -6 -12  448.72   22.96
  -6   3  -9  103.23    8.87
   3   3  -9  102.94   12.13
   3  -6  -9   99.93    7.60
   3  -6  -9  124.65   10.57
   3  -6  -9   87.36   10.24
   3  -6  -9  138.31   11.26
  -6   3  -9   83.37   10.64
   3   3  -9  118.49    9.80
  -6   3  -6 1306.13   31.74
   3   3  -6 1363.88   31.94
   3   3  -6 1247.36   11.34
  -6   3  -6 1248.35   23.14
   3  -6  -6 1285.97   25.45
   3   3  -6 1311.04   25.20
  -6   3  -6 1305.82   16.61
   3   3  -6 1302.69   25.80
   3  -6  -6 1323.71   30.62
   3  -6  -6 1311.98   22.91
   3   3  -3  129.70    4.63
   3   3  -3  134.32    6.12
   3  -6  -3  136.55    6.23
   3  -6  -3  137.21    6.20
  -6   3  -3  126.71    7.87
  -6   3  -3  140.38    6.58
  -6   3  -3  130.18    5.53
  -6   3  -3  139.97    5.55
   3   3  -3  129.76    5.97
   3   3   0 9999.00   45.22
   3   3   0 9788.17   43.02
  -6   3   3  261.90   10.21
   3  -6   3  254.01   10.37
   3   3   3  264.86   10.16
   3   3   3  278.29    8.97
   3   3   6 1306.91   22.20
   3   4 -10   78.12    9.02
   3   4 -10   71.32    8.68
  -7   3 -10   88.28   11.99
   4  -7 -10   78.54    9.22
   4  -7 -10   75.58    6.83
   4  -7 -10   64.99    8.56
  -7   3 -10   86.25    8.76
   3   4 -10   62.31   10.27
  -7   3 -10   76.35    9.98
   4  -7 -10   87.58   11.43
   4  -7  -7   13.70    3.65
   3   4  -7   11.46    3.94
   4  -7  -7   17.94    4.72
  -7   3  -7   11.54    3.52
  -7   3  -7   14.34    2.41
  -7   3  -7   24.82    6.20
   3   4  -7    6.62    5.08
   4  -7  -7   17.14    5.44
   3   4  -7   13.45    4.03
  -7   3  -4  293.05    9.60
   4  -7  -4  301.54   10.37
   4  -7  -4  309.12   10.20
   3   4  -4  321.20   10.78
  -7   3  -4  330.44   14.11
   3   4  -4  304.44   10.08
  -7   3  -4  299.81    8.86
  -7   3  -4  319.55   10.85
   3   4  -4  316.01    7.29
   4  -7  -1 2835.76   24.44
   3   4  -1 2840.61   23.63
   3   4  -1 2834.24   24.91
  -7   3  -1 2870.85   23.07
   4  -7  -1 2868.52   22.72
   3   4  -1 2816.48   25.61
  -7   3  -1 2831.07   26.73
  -7   3  -1 2812.20   24.77
   3   4   2  379.75   11.38
  -7   3   2  357.93   11.07
  -7   3   2  356.18   10.16
   3   4   2  359.41   10.35
   4  -7   5  299.25   14.24
   3   4   5  291.86   10.63
  -6   2 -11   48.75   10.07
   2   4 -11   60.72    8.63
   4  -6 -11   46.48    8.18
   4  -6 -11   47.52    8.42
  -6   2 -11   48.97    7.81
   2   4 -11   42.12    7.92
  -6   2 -11   52.98    8.88
   2   4 -11   68.46   11.45
   4  -6 -11   43.04    8.99
   4  -6  -8   41.63    6.46
   2   4  -8   36.17    6.25
   4  -6  -8   40.82    7.73
  -6   2  -8   31.37    3.16
   4  -6  -8   40.08    6.06
  -6   2  -8   53.62    8.64
  -6   2  -8   33.17    5.39
   4  -6  -8   43.61    5.06
   2   4  -8   44.55    6.60
   2   4  -8   33.42    7.14
  -6   2  -5  392.20    9.83
  -6   2  -5  397.28   16.57
   2   4  -5  353.04    5.69
   2   4  -5  391.46   12.16
   4  -6  -5  386.82   13.29
  -6   2  -5  377.93   12.22
   4  -6  -5  382.64   12.26
   2   4  -5  380.61   13.06
   2   4  -2 1313.05   14.60
   4  -6  -2 1347.40   14.63
  -6   2  -2 1294.47   16.92
   2   4  -2 1304.05   14.84
   4  -6  -2 1271.51   16.87
  -6   2  -2 1322.10   16.77
  -6   2  -2 1323.31   15.44
   2   4  -2 1271.10   17.45
  -6   2   1  297.94    8.40
   2   4   1  291.98    9.29
  -6   2   1  286.30    9.04
  -6   2   1  307.29    8.57
   2   4   1  303.53    8.76
  -6   2   1  314.20    5.38
   4  -6   1  315.05    8.96
   2   4   1  300.80    8.57
   4  -6   1  269.64    8.79
   4  -6   4  104.36    7.71
   4  -6   4  116.98    3.07
   2   4   4  117.32    6.43
  -6   2   4  119.45    8.15
   1   4 -12   58.99    8.95
   1   4 -12   73.15   10.54
   4  -5 -12   72.19   10.59
   4  -5 -12   68.92   11.50
   1   4 -12   64.54   11.55
  -5   1 -12   63.33    9.52
  -5   1 -12   37.99   10.24
   4  -5 -12   57.36    9.08
  -5   1 -12   77.75   10.63
   1   4  -9  752.39   28.81
  -5   1  -9  797.12   13.22
   1   4  -9  803.34   25.82
  -5   1  -9  829.90   26.46
  -5   1  -9  841.81   30.15
   4  -5  -9  835.89   18.94
   1   4  -9  853.59   23.96
   4  -5  -9  864.84   29.24
  -5   1  -9  810.14   24.67
   4  -5  -9  863.95   27.45
   4  -5  -9  819.49   24.68
   4  -5  -6  720.23   20.33
   1   4  -6  731.57   20.10
   4  -5  -6  728.12   16.76
  -5   1  -6  774.21   13.94
  -5   1  -6  759.74   19.28
  -5   1  -6  759.76   23.89
   4  -5  -6  774.53   19.07
  -5   1  -3 1613.20   19.53
   4  -5  -3 1535.07   21.46
   1   4  -3 1619.56   12.81
   1   4  -3 1594.56   17.52
  -5   1  -3 1545.45   18.22
  -5   1  -3 1500.30   20.30
   1   4  -3 1551.43   21.66
   1   4   0 1587.80   16.89
   1   4   0 1549.35   17.14
  -5   1   0 1580.73   17.43
  -5   1   0 1554.73   16.93
   1   4   0 1554.81   15.58
   4  -5   0 1576.96   15.25
  -5   1   0 1542.79   14.63
   4  -5   0 1542.55   16.57
   1   4   3 3555.51   30.91
  -5   1   3 3464.46   36.70
   4  -5   3 3502.06   19.21
   1   4   3 3505.97   36.27
  -5   1   3 3519.32   23.77
  -4   0 -13    2.30    6.51
   0   4 -13   -0.11    6.79
   4  -4 -13    8.74    7.27
  -4   0 -13    2.95    7.82
  -4   0 -13    8.87    7.38
   0   4 -13    5.90    8.32
   4  -4 -13    1.84    7.11
   0   4 -10  231.66   15.56
   4  -4 -10  235.24   16.04
   0   4 -10  260.32   14.45
   4  -4 -10  245.87   14.45
   4  -4 -10  232.26    9.11
   4  -4 -10  231.48   16.43
  -4   0 -10  257.56   15.85
   0   4 -10  238.79   17.68
  -4   0 -10  281.08   18.56
  -4   0 -10  233.27   14.65
   0   4  -7    5.54    3.77
  -4   0  -7    9.51    3.73
   4  -4  -7   13.36    4.13
  -4   0  -7    9.59    4.64
  -4   0  -7   11.02    2.24
   4  -4  -7    9.37    3.44
   4  -4  -7    9.47    2.42
  -4   0  -7    7.45    3.64
  -4   0  -4  165.02    6.24
   4  -4  -4  169.77    8.42
   0   4  -4  162.64    8.35
  -4   0  -4  167.01    7.83
  -4   0  -1   22.10    2.34
   0   4  -1   23.76    1.56
  -4   0  -1   24.54    1.49
   0   4  -1   21.70    2.30
  -4   0  -1   23.63    2.40
   0   4  -1   25.45    2.10
   0   4   2  162.77    6.99
  -4   0   2  158.81    5.32
  -4   0   2  140.42    6.63
   0   4   2  160.98    4.49
   4  -4   2  160.00    3.82
   4  -4   2  162.79    4.56
  -4   0   2  153.37    4.30
   0   4   2  146.17    5.94
   4  -4   2  147.70    7.00
  -3  -1 -11    2.97    4.69
  -3  -1 -11    0.74    6.19
  -1   4 -11   -2.12    5.61
  -3  -1 -11    5.46    5.35
  -1   4 -11    1.97    6.03
  -1   4 -11   -0.58    4.40
   4  -3 -11   11.30    6.76
   4  -3 -11    0.89    5.71
   4  -3 -11    2.53    5.10
   4  -3  -8  275.79    9.78
   4  -3  -8  284.92    9.65
   4  -3  -8  284.28   15.53
   4  -3  -8  272.04   13.31
  -3  -1  -8  281.14   14.40
  -3  -1  -8  273.33   14.05
  -3  -1  -8  281.60   16.44
  -1   4  -8  283.87   15.23
  -1   4  -8  256.33   12.11
  -3  -1  -8  290.03    9.32
  -1   4  -5  197.27   10.44
  -3  -1  -5  205.81    7.47
   4  -3  -5  207.59   10.60
   4  -3  -5  214.49    8.79
  -3  -1  -5  203.94    9.88
  -1   4  -2  201.45    7.15
  -3  -1  -2  196.43    6.85
  -3  -1  -2  187.54    5.99
   4  -3  -2  208.81    7.27
  -1   4   1  314.10    5.49
   4  -3   1  304.37    6.39
  -3  -1   1  312.35    5.78
   4  -3   1  321.67    8.17
   4  -3   1  303.04    5.36
  -3  -1   1  307.62    6.55
  -1   4   1  312.36    7.18
   4  -3   1  296.68    7.13
  -3  -1   4  149.42    7.08
   4  -3   4  143.83    4.11
  -2  -2 -12   96.11   11.56
   4  -2 -12  113.02   13.69
   4  -2 -12  104.42   12.77
  -2   4 -12  108.19   10.74
  -2   4 -12  119.68   14.30
  -2  -2 -12  118.65   12.66
   4  -2 -12   93.68   10.65
  -2  -2 -12  111.51   13.74
  -2   4 -12   92.74   12.08
  -2   4  -9 1100.25   33.78
   4  -2  -9 1093.89   31.56
   4  -2  -9 1158.10   28.51
  -2   4  -9 1103.69   32.17
   4  -2  -9 1158.40   17.13
  -2  -2  -9 1186.90   34.08
   4  -2  -9 1089.35   32.18
  -2  -2  -9 1075.58   30.05
  -2   4  -9 1115.14   26.71
  -2  -2  -9 1127.26   18.79
  -2  -2  -9 1104.39   29.52
   4  -2  -9 1023.71   16.34
  -2  -2  -6  964.29   16.77
  -2  -2  -6  907.63   21.03
  -2  -2  -6  922.90   23.16
   4  -2  -6  923.91   19.88
   4  -2  -6  947.20   15.87
  -2   4  -6  953.63   18.80
  -2   4  -6  956.32   24.48
   4  -2  -6  908.46   23.94
  -2  -2  -3 3276.23   26.34
  -2   4  -3 3256.10   33.56
  -2   4  -3 3425.32   21.39
  -2  -2  -3 3401.99   25.07
   4  -2  -3 3354.03   22.82
   4  -2  -3 3246.80   33.19
  -2  -2  -3 3333.96   32.56
   4  -2  -3 3345.12   25.62
  -2   4   0  909.84   10.62
   4  -2   0  925.06   10.45
  -2   4   0  919.91   10.56
  -2  -2   0  908.30   10.73
   4  -2   0  890.26   11.03
  -2  -2   0  915.36   11.28
   4  -2   0  884.38   11.31
  -2  -2   0  917.22   11.27
  -2  -2   3 2695.31   16.52
  -2  -2   3 2724.16   26.65
  -2   4   3 2612.99   26.06
   4  -2   3 2582.39   24.14
   4  -2   3 2690.27   19.09
   4  -1 -13   77.83   11.94
  -3   4 -13   62.05   11.90
  -1  -3 -13   70.70   11.81
  -1  -3 -13   61.58   10.67
  -1  -3 -13   64.77   11.29
  -3   4 -13   76.13   12.36
   4  -1 -13   80.30   12.91
  -1  -3 -10  176.80   13.81
   4  -1 -10  191.75   12.85
  -1  -3 -10  191.43    8.22
  -1  -3 -10  218.94   14.58
  -1  -3 -10  199.14   15.32
   4  -1 -10  186.39   15.08
  -3   4 -10  207.33   12.64
  -3   4 -10  166.02   14.16
  -3   4 -10  194.67   15.48
   4  -1 -10  200.41   14.67
  -3   4  -7  139.63   11.02
  -1  -3  -7  128.91   10.26
   4  -1  -7  131.88    8.73
   4  -1  -7  132.60    5.77
  -3   4  -7  114.32    7.52
   4  -1  -7  131.04   10.52
  -1  -3  -7  110.68    8.45
   4  -1  -7  130.96    5.71
  -1  -3  -7  128.59    9.92
  -1  -3  -7  127.86    6.77
   4  -1  -4  141.71    5.47
  -1  -3  -4  144.22    8.16
   4  -1  -4  143.52    8.47
   4  -1  -4  140.33    6.13
  -3   4  -4  139.42    8.31
  -1  -3  -4  142.85    6.53
  -3   4  -4  147.91    5.68
  -1  -3  -4  137.08    6.05
  -1  -3  -1  126.88    5.15
   4  -1  -1  122.86    4.56
  -3   4  -1  124.29    5.04
   4  -1  -1  127.16    4.95
  -3   4  -1  114.11    4.81
   4  -1  -1  125.72    5.09
  -1  -3  -1  128.75    4.91
   4  -1   2   26.22    2.69
  -3   4   2   28.55    2.93
  -1  -3   2   25.98    2.40
  -1  -3   2   24.75    1.70
   4  -1   2   26.15    2.28
  -1  -3   2   27.44    2.80
   4  -1   5  285.55    7.54
  -1  -3   5  270.37   11.62
  -4   4 -11    2.98    4.59
   0  -4 -11    8.82    6.80
  -4   4 -11    7.90    6.06
   4   0 -11    0.45    4.49
   0  -4 -11   -3.22    5.01
   4   0 -11    5.46    6.34
   0  -4 -11    3.54    5.56
  -4   4 -11   -3.64    6.22
   4   0 -11   -3.23    5.63
   0  -4  -8  837.08   26.22
   4   0  -8  816.71   27.46
   0  -4  -8  830.57   17.86
   4   0  -8  802.04   11.78
   4   0  -8  803.26   11.83
   0  -4  -8  808.61   25.84
   0  -4  -8  807.64   23.37
  -4   4  -8  754.49   19.99
   4   0  -8  815.03   22.33
  -4   4  -8  802.87   26.92
   0  -4  -5   -1.35    3.11
  -4   4  -5    2.09    2.06
   4   0  -5    2.12    3.46
  -4   4  -5    1.10    3.18
   4   0  -5    1.04    1.40
   4   0  -5   -1.35    2.24
   0  -4  -5   -0.59    2.67
   0  -4  -5   -0.93    2.29
   0  -4  -2  120.71    5.83
   0  -4  -2  133.55    6.57
  -4   4  -2  124.82    5.90
   4   0  -2  134.85    3.97
   0  -4  -2  134.38    4.02
   4   0  -2  137.94    6.09
   4   0  -2  127.96    6.43
  -4   4  -2  138.33    3.45
   4   0  -2  134.95    4.84
   0  -4  -2  132.02    5.64
  -4   4  -2  133.40    6.66
   0  -4   1   20.67    1.99
   4   0   1   26.87    2.42
  -4   4   1   24.08    2.57
   0  -4   1   24.61    2.48
   4   0   1   27.19    1.59
   4   0   1   22.79    2.33
   0  -4   1   23.64    1.62
   4   0   4  224.56    9.52
   4   0   4  219.42    7.14
   0  -4   4  206.02    9.57
  -4   4   4  230.43   10.01
   1  -5 -12   82.23   11.72
   1  -5 -12  108.17   12.06
  -5   4 -12   92.97    9.82
   4   1 -12   92.02   10.63
  -5   4 -12   84.38   12.38
  -5   4 -12   70.03   11.12
   1  -5 -12  110.85   13.06
   4   1 -12   94.08   13.53
   4   1 -12   95.91   11.94
   1  -5  -9 1092.89   31.17
   1  -5  -9 1095.05   32.40
   4   1  -9 1102.82   27.96
  -5   4  -9 1075.22   33.62
   1  -5  -9 1064.27   28.74
   1  -5  -9 1091.18   21.95
  -5   4  -9 1048.68   25.36
   4   1  -9 1058.04   33.72
   1  -5  -6  372.39   11.91
  -5   4  -6  385.36   16.76
   4   1  -6  332.27   15.82
  -5   4  -6  368.39   11.93
   4   1  -6  369.67    8.09
   4   1  -6  380.12   13.01
   1  -5  -6  382.47   13.67
   1  -5  -6  405.53   16.74
  -5   4  -6  351.15    6.51
   1  -5  -3 3541.40   27.13
  -5   4  -3 3675.97   23.47
   4   1  -3 3497.31   33.37
  -5   4  -3 3667.53   24.16
   4   1  -3 3619.99   38.22
   4   1  -3 3653.45   25.02
   4   1  -3 3639.80   26.90
   1  -5  -3 3646.45   38.05
  -5   4  -3 3629.08   35.27
   1  -5  -3 3596.06   31.61
  -5   4  -3 3568.18   38.76
   1  -5   0 1618.82   16.25
   4   1   0 1642.52   16.94
  -5   4   0 1673.19   16.69
   1  -5   0 1690.74   17.51
   4   1   0 1665.61   13.96
   1  -5   0 1657.65   15.37
   4   1   0 1600.19   17.55
   4   1   0 1639.28   17.41
   1  -5   0 1645.18   16.83
  -5   4   0 1655.09   17.43
  -5   4   0 1666.22   15.10
   1  -5   3 1325.38   22.16
  -5   4   3 1421.66   22.17
   1  -5   3 1321.60    9.92
   4   1   3 1362.98   17.91
   4   1   3 1396.60   21.40
   1  -5   6 1169.75   27.71
   4   1   6 1170.91   18.69
  -6   4 -10  109.05   12.59
   2  -6 -10  106.04    7.54
   2  -6 -10  130.73   11.82
   2  -6 -10  108.10   10.25
  -6   4 -10  105.02    9.21
  -6   4 -10  107.59   11.34
   4   2 -10  108.11   12.77
   4   2 -10   99.78   10.27
   4   2 -10  125.02   10.69
   2  -6 -10  120.25   12.29
   4   2  -7  807.38   20.64
  -6   4  -7  825.95   19.55
   2  -6  -7  786.09   21.14
  -6   4  -7  777.67   26.08
   2  -6  -7  795.11   18.75
  -6   4  -7  799.31   10.90
   2  -6  -7  798.52   25.22
   4   2  -7  750.83    9.95
   4   2  -7  777.45   22.68
   4   2  -7  773.17   25.79
   4   2  -4  204.20    9.04
   2  -6  -4  192.25   10.39
   4   2  -4  206.28   10.88
   2  -6  -4  186.62    8.16
  -6   4  -4  222.60   11.37
  -6   4  -4  202.16    9.42
  -6   4  -4  200.36    7.21
   4   2  -4  212.68    8.15
   2  -6  -4  184.78    7.75
  -6   4  -4  186.24    6.11
   4   2  -4  219.44    6.40
   4   2  -1  441.79    9.40
  -6   4  -1  448.69   10.85
   4   2  -1  431.54    8.92
  -6   4  -1  425.43    9.54
   2  -6  -1  431.44   10.52
   4   2  -1  422.22   10.04
   2  -6  -1  438.66   10.78
  -6   4  -1  435.69    8.56
   2  -6  -1  429.49    9.27
   2  -6  -1  431.78    8.24
   4   2  -1  439.59    9.46
  -6   4  -1  437.19    9.28
  -6   4   2 1856.73   23.48
   2  -6   2 1815.63   16.04
   4   2   2 1848.88   22.93
   4   2   2 1913.65   21.74
   2  -6   2 1863.55   23.77
  -6   4   5  505.05   17.22
   4   2   5  516.80   13.01
   2  -6   5  503.45   17.49
   3  -7 -11   54.97   10.54
   3  -7 -11   66.54    9.90
   4   3 -11   57.05    8.43
   4   3 -11   63.20   11.21
  -7   4 -11   54.65   10.85
  -7   4 -11   67.66   10.25
  -7   4 -11   59.88    7.76
   3  -7 -11   69.29    9.57
   4   3 -11   58.95    9.12
   3  -7  -8  468.48   21.12
   4   3  -8  460.50   21.78
   3  -7  -8  492.55   19.30
  -7   4  -8  514.64   16.82
   3  -7  -8  454.93   17.64
   4   3  -8  480.68   17.74
  -7   4  -8  463.88   21.86
   3  -7  -8  485.00   15.77
  -7   4  -8  434.78    8.68
  -7   4  -5  309.21   14.71
   4   3  -5  340.82   12.36
   4   3  -5  296.69   11.20
   3  -7  -5  320.68   14.67
  -7   4  -5  298.04   12.49
   3  -7  -5  312.41   11.54
  -7   4  -5  294.01   10.22
  -7   4  -5  309.82    8.68
   3  -7  -5  315.61   11.37
   4   3  -5  313.32    7.49
   4   3  -5  326.33   15.04
   3  -7  -2  591.83   11.83
  -7   4  -2  578.90   15.01
   4   3  -2  570.12   11.39
   4   3  -2  606.45   11.34
  -7   4  -2  595.61   12.10
   4   3  -2  580.56   11.78
  -7   4  -2  546.45   11.61
  -7   4  -2  595.41   10.90
   3  -7  -2  591.37   11.07
   3  -7   1 2029.69   25.14
  -7   4   1 2072.93   13.69
   3  -7   1 2138.04   14.72
  -7   4   1 2112.56   23.22
  -7   4   1 2054.65   23.89
   3  -7   1 2143.99   23.96
   4   3   1 2174.41   23.75
   4   3   1 2094.05   23.55
  -7   4   1 2010.08   25.65
  -7   4   4  422.61   14.84
   3  -7   4  418.09   14.92
   3  -7   4  402.52    5.81
   3  -7   4  384.12    5.96
   4   3   4  442.67   12.38
   4   3   4  407.29   14.12
   4  -8 -12  104.32   12.01
   4  -8 -12   80.93   11.02
  -8   4 -12   82.69   13.54
   4   4 -12   67.62    9.72
  -8   4 -12   71.24   11.13
   4   4 -12   83.99   13.83
   4   4 -12   67.62    9.90
   4  -8 -12   66.27   11.59
   4  -8  -9  383.00   17.45
   4  -8  -9  408.38   18.50
   4  -8  -9  372.11   20.63
  -8   4  -9  382.02   15.73
  -8   4  -9  351.81   20.66
   4   4  -9  399.41   17.48
   4  -8  -9  383.71   15.10
   4   4  -9  348.43   20.64
  -8   4  -6  199.71   11.09
   4   4  -6  219.80   10.88
  -8   4  -6  197.27    9.29
  -8   4  -6  199.99   13.45
   4   4  -6  211.99    5.89
   4  -8  -6  203.32   13.01
   4  -8  -6  196.53   10.00
   4  -8  -6  185.62    9.90
   4   4  -6  203.67   10.40
  -8   4  -6  205.96    7.63
   4   4  -6  214.00   13.44
  -8   4  -3 1828.43   30.83
   4  -8  -3 1841.76   22.91
  -8   4  -3 1826.32   21.70
   4   4  -3 1846.40   23.51
  -8   4  -3 1798.08   22.75
   4   4  -3 1879.90   20.48
  -8   4  -3 1871.14   23.72
   4  -8  -3 1862.85   23.00
   4   4  -3 1909.62   23.57
   4   4   0 3281.58   30.03
  -8   4   0 3383.28   28.32
   4   4   0 3271.02   31.53
   4  -8   0 3395.72   28.81
   4  -8   0 3210.07   29.53
  -8   4   0 3260.91   30.85
  -8   4   0 3224.66   31.24
   4   4   0 3310.05   28.78
   4   4   3 1532.06   25.66
  -8   4   3 1533.72   25.99
   4   4   3 1533.42   23.20
   4  -8   3 1540.16   26.73
   4   4   6  148.39    8.37
   5  -9 -10   -1.73    4.70
  -9   4 -10    3.92    4.13
   5  -9 -10   -2.00    5.44
   5  -9 -10   10.75    5.72
   4   5 -10    0.46    4.46
  -9   4 -10   -5.94    5.82
   5  -9 -10    0.69    3.29
   4   5 -10    4.89    6.74
   4   5  -7 1113.30   32.75
  -9   4  -7 1181.69   19.51
   5  -9  -7 1111.45   26.03
   5  -9  -7 1137.86   25.14
   4   5  -7 1164.68   26.06
   4   5  -7 1120.46   25.40
  -9   4  -7 1158.86   33.91
   5  -9  -7 1178.09   26.58
  -9   4  -7 1294.49   25.64
   5  -9  -7 1187.23   32.94
   5  -9  -4    8.10    2.51
  -9   4  -4    6.13    2.08
   4   5  -4    4.39    2.17
  -9   4  -4    4.58    2.13
   5  -9  -4    7.34    2.55
  -9   4  -4   12.02    4.33
   4   5  -4   11.01    3.13
  -9   4  -4    4.41    2.18
   4   5  -4    6.10    1.77
   5  -9  -1 1665.96   21.44
   5  -9  -1 1699.25   20.24
   4   5  -1 1649.07   22.66
  -9   4  -1 1630.76   21.91
  -9   4  -1 1648.16   23.43
   4   5  -1 1675.12   22.08
   4   5  -1 1703.36   21.06
  -9   4  -1 1682.63   20.28
  -9   4   2   81.69    5.84
   5  -9   2   74.77    5.85
   4   5   2   88.45    6.46
  -9   4   2   76.64    5.91
   4   5   2   82.56    5.85
   5  -9   5  811.69    9.33
   5  -9   5  817.36    9.55
  -8   3 -11   65.27   10.94
   5  -8 -11   80.63   11.52
   5  -8 -11   74.99    9.56
   5  -8 -11   75.56    9.93
   3   5 -11   72.09    9.21
   3   5 -11   91.71   13.06
  -8   3 -11   72.61    9.14
  -8   3 -11   75.50   10.71
   3   5 -11   70.49   10.00
   5  -8  -8  304.16   14.88
   3   5  -8  320.95   15.13
  -8   3  -8  297.70    9.46
   3   5  -8  271.41   13.76
   3   5  -8  278.45   17.41
   5  -8  -8  292.00   17.63
   5  -8  -8  301.35   13.18
   5  -8  -8  314.14   14.84
  -8   3  -8  323.41   18.98
  -8   3  -8  305.80   13.73
   5  -8  -5  614.44   16.82
   5  -8  -5  651.41   16.11
  -8   3  -5  658.94   22.10
  -8   3  -5  613.61   16.56
   3   5  -5  625.83   15.41
  -8   3  -5  638.58   14.02
   3   5  -5  619.02   10.09
   5  -8  -5  608.97   16.66
   3   5  -5  632.04   16.93
  -8   3  -5  581.62   15.09
   5  -8  -2  371.59    8.73
   3   5  -2  346.72    9.15
  -8   3  -2  339.49    9.82
  -8   3  -2  358.09    8.93
   3   5  -2  359.97   10.27
  -8   3  -2  342.53   10.27
   5  -8  -2  343.60    9.76
   3   5  -2  378.50    9.26
  -8   3   1  646.65   13.64
   3   5   1  633.62   13.99
   3   5   1  637.22    7.73
   3   5   1  643.55   14.05
  -8   3   1  598.01   14.62
  -8   3   1  614.67   13.90
   5  -8   1  645.07   14.11
   3   5   1  621.97   15.15
   5  -8   1  640.80   14.90
   3   5   4 1484.03   24.05
   5  -8   4 1490.13   29.04
  -8   3   4 1460.25   28.35
   3   5   4 1486.49   28.09
   5  -8   4 1487.80   14.81
   5  -7 -12  136.09   12.58
   5  -7 -12  122.39   13.40
   5  -7 -12   94.26   13.34
   2   5 -12  142.82   13.83
  -7   2 -12  147.11   13.89
  -7   2 -12  125.97   11.96
  -7   2 -12  137.16   16.29
   2   5 -12  154.90   17.07
  -7   2  -9  180.95   15.31
   2   5  -9  164.28   14.76
   2   5  -9  166.93   12.11
  -7   2  -9  188.63   12.98
  -7   2  -9  177.21   11.57
   5  -7  -9  164.03    9.73
  -7   2  -9  169.96    6.83
   5  -7  -9  187.63   14.99
   5  -7  -9  163.60   12.24
   5  -7  -9  188.90   12.19
   2   5  -6  199.53   10.74
   2   5  -6  197.47    9.64
   5  -7  -6  193.54    9.76
  -7   2  -6  188.15   12.94
  -7   2  -6  207.52   10.13
   5  -7  -6  198.09   10.70
  -7   2  -6  206.81    8.07
   2   5  -3 2761.96   29.85
  -7   2  -3 2790.82   28.52
  -7   2  -3 2846.77   26.36
  -7   2  -3 2782.60   27.47
   2   5  -3 2895.75   24.88
   5  -7  -3 2763.69   29.59
   2   5  -3 2862.92   22.34
   5  -7  -3 2921.65   24.49
   2   5   0 3515.87   29.47
  -7   2   0 3405.12   25.86
   2   5   0 3382.58   30.13
  -7   2   0 3353.56   29.52
   5  -7   0 3384.44   26.54
   5  -7   0 3362.60   28.71
  -7   2   0 3504.07   30.48
   2   5   0 3514.00   27.66
   5  -7   3 3701.84   41.10
  -7   2   3 3791.14   40.76
   2   5   3 3762.12   35.45
  -7   2   3 3768.22   20.97
   2   5   3 3789.74   40.25
   5  -7   3 3759.50   24.71
  -7   2   3 3671.52   33.04
   5  -6 -10    4.35    4.45
   5  -6 -10    4.61    5.10
   1   5 -10   19.74    7.67
   5  -6 -10    8.93    3.59
   1   5 -10    0.03    5.19
  -6   1 -10    7.21    4.54
   5  -6 -10    9.05    5.14
  -6   1 -10   11.81    5.64
   1   5 -10   16.66    5.58
  -6   1 -10    8.58    7.60
  -6   1  -7  765.61   26.34
   5  -6  -7  812.09   20.68
   5  -6  -7  751.46   22.42
   1   5  -7  797.78   22.74
   5  -6  -7  780.17   18.51
   1   5  -7  764.24   20.10
  -6   1  -7  777.64   21.12
  -6   1  -7  787.91   15.43
   1   5  -4  312.39    9.00
   5  -6  -4  311.64   11.28
  -6   1  -4  305.81   10.50
   1   5  -4  300.78   11.12
  -6   1  -4  309.20   10.09
  -6   1  -4  290.92    8.97
   1   5  -4  303.62    5.66
   5  -6  -1 4865.23   32.38
   1   5  -1 4981.61   33.74
  -6   1  -1 4893.58   34.00
  -6   1  -1 4792.26   24.92
   1   5  -1 4912.62   26.69
   1   5  -1 4951.69   30.94
  -6   1  -1 4972.38   32.95
  -6   1   2   64.63    2.59
   1   5   2   47.25    4.65
   5  -6   2   55.99    5.18
   5  -6   2   58.74    3.41
  -6   1   2   54.65    4.15
  -6   1   2   55.70    4.89
   1   5   2   56.08    4.38
  -6   1   2   53.83    4.80
   1   5   2   55.99    2.34
   0   5 -11    3.41    4.90
  -5   0 -11   10.15    6.37
   5  -5 -11    1.69    5.19
   5  -5 -11   -2.44    5.67
   0   5 -11   -3.36    6.21
  -5   0 -11    1.04    4.82
  -5   0 -11    6.13    5.95
   5  -5 -11   -2.72    5.23
   0   5 -11    3.07    5.08
  -5   0  -8  100.71    5.79
   5  -5  -8   83.35    6.15
  -5   0  -8   93.18    8.58
   0   5  -8   95.08    7.71
   5  -5  -8   87.46    7.97
   5  -5  -8   79.28    8.41
  -5   0  -8   93.30   10.67
  -5   0  -8   91.78    8.60
   0   5  -8   82.45    8.46
  -5   0  -5    0.68    1.82
   5  -5  -5    3.31    3.12
  -5   0  -5    2.07    2.75
   0   5  -5    2.29    1.94
   0   5  -5    0.26    2.86
   5  -5  -5   -0.99    2.26
  -5   0  -2  938.71   15.21
   5  -5  -2  919.92   15.30
  -5   0  -2  993.68   10.71
   0   5  -2  959.23   15.95
  -5   0  -2  972.18   14.78
   0   5  -2  966.70   11.34
   5  -5  -2  971.65    9.17
   0   5  -2 1001.11   10.06
   5  -5   1  132.91    5.89
  -5   0   1  131.11    5.66
   5  -5   1  123.63    3.83
   0   5   1  130.79    5.87
   0   5   1  116.87    5.71
  -5   0   1  122.40    5.69
  -5   0   1  113.26    3.92
   0   5   1  124.19    3.46
  -5   0   1  124.84    5.25
   5  -5   1  117.29    4.88
   5  -5   1  126.74    5.81
   0   5   1  114.11    5.24
  -5   0   4  877.02   15.49
   5  -5   4  865.19   10.20
  -1   5 -12  136.14   15.68
  -4  -1 -12  133.45   12.93
  -4  -1 -12  129.67   14.95
  -4  -1 -12  152.27   13.96
   5  -4 -12  143.73   12.51
   5  -4 -12  134.32   14.08
   5  -4 -12  151.14   15.33
  -1   5 -12  146.50   14.19
   5  -4  -9  772.60   17.04
  -4  -1  -9  706.62   23.58
   5  -4  -9  701.69   16.68
  -4  -1  -9  673.98   23.42
  -1   5  -9  685.61   27.13
  -1   5  -9  735.48   21.21
   5  -4  -9  706.54   26.51
   5  -4  -9  733.20   26.29
  -4  -1  -9  740.14   28.12
   5  -4  -9  749.71   22.60
  -4  -1  -9  717.45   15.17
  -1   5  -9  731.53   25.72
   5  -4  -6 1193.39   21.76
  -4  -1  -6 1115.01   18.68
  -1   5  -6 1147.13   26.44
  -4  -1  -6 1148.82   23.21
   5  -4  -6 1171.19   26.94
  -4  -1  -6 1161.86   25.33
  -1   5  -3 1462.64   13.60
  -4  -1  -3 1401.14   20.94
  -4  -1  -3 1404.59   18.28
   5  -4  -3 1433.40   21.88
  -1   5  -3 1397.37   22.05
  -4  -1   0 1483.80   16.53
  -1   5   0 1494.26   14.99
  -4  -1   0 1477.73   13.52
  -1   5   0 1524.23   16.27
  -1   5   0 1446.26   16.21
  -4  -1   0 1489.17   16.29
   5  -4   0 1437.54   15.68
   5  -4   0 1477.25   16.76
  -4  -1   0 1500.22   16.38
  -1   5   0 1468.08   14.83
   5  -4   0 1482.72   14.52
   5  -4   0 1521.45   16.25
   5  -4   3 3582.00   22.49
  -4  -1   3 3478.15   27.70
   5  -4   3 3526.64   24.69
  -1   5   3 3447.70   27.72
  -4  -1   3 3365.80   24.59
   5  -4   6  315.04    6.27
   5  -3 -13   84.26   13.20
  -2   5 -13  101.02   14.41
  -3  -2 -13  109.84   12.96
   5  -3 -13   93.77   13.27
  -3  -2 -13  103.15   14.36
  -2   5 -13   92.97   13.02
  -3  -2 -13   79.44   11.53
  -3  -2 -10  366.19   11.04
  -3  -2 -10  386.38   18.43
  -2   5 -10  348.38   19.46
  -2   5 -10  391.58   16.62
  -2   5 -10  402.33   22.39
  -3  -2 -10  394.05   21.30
   5  -3 -10  362.01   10.25
  -3  -2 -10  379.36   19.02
   5  -3 -10  367.57   20.13
   5  -3 -10  372.77   17.07
   5  -3 -10  384.56   20.79
   5  -3  -7  746.64   19.15
  -3  -2  -7  733.98   16.03
  -2   5  -7  731.20   17.54
  -3  -2  -7  717.42   24.32
   5  -3  -7  715.73   22.93
   5  -3  -7  719.18   15.55
   5  -3  -7  745.52   15.85
  -3  -2  -7  710.80   19.95
  -3  -2  -7  743.15   22.39
  -2   5  -7  777.92   23.85
  -3  -2  -4   68.53    4.53
  -3  -2  -4   67.16    5.71
   5  -3  -4   60.53    5.68
  -2   5  -4   71.72    3.88
  -2   5  -4   68.18    6.10
  -3  -2  -4   68.18    4.50
   5  -3  -4   68.34    4.54
   5  -3  -4   66.05    3.97
   5  -3  -1  400.55    9.04
  -2   5  -1  401.39    9.74
   5  -3  -1  398.96    9.77
  -3  -2  -1  386.25    8.81
  -2   5  -1  403.24    9.18
  -3  -2  -1  391.87    8.97
   5  -3  -1  395.87    8.90
  -3  -2   2 1637.54   19.13
  -2   5   2 1665.29   16.89
   5  -3   2 1676.69   15.91
   5  -3   2 1621.68   19.87
   5  -3   2 1669.30   16.30
  -3  -2   2 1685.49   17.39
  -3  -2   2 1645.95   15.71
   5  -3   5  240.69    6.22
  -3  -2   5  260.18   10.75
   5  -2 -11   25.69    7.93
  -3   5 -11   40.21    9.06
  -2  -3 -11   24.72    7.04
  -2  -3 -11   22.14    6.63
   5  -2 -11   27.31    6.61
  -3   5 -11   24.23    5.60
  -3   5 -11   23.83    8.14
   5  -2 -11   29.37    7.94
  -2  -3 -11   29.09    7.19
  -2  -3  -8  588.42   19.71
  -3   5  -8  632.56   23.64
   5  -2  -8  623.33   13.64
   5  -2  -8  636.07   13.48
   5  -2  -8  637.72   19.13
  -3   5  -8  604.89   17.49
  -2  -3  -8  605.24   22.02
   5  -2  -8  580.70   22.74
  -2  -3  -8  648.57   15.67
  -2  -3  -8  620.60   23.46
  -2  -3  -5  251.15    9.09
  -2  -3  -5  253.89    9.52
  -2  -3  -5  254.16   11.69
   5  -2  -5  247.20    8.39
   5  -2  -5  255.14    9.01
   5  -2  -5  232.90   11.72
  -3   5  -5  265.38   12.49
  -3   5  -5  282.09    8.61
  -2  -3  -2 1915.24   20.83
  -3   5  -2 1964.22   23.78
   5  -2  -2 1969.87   23.44
   5  -2  -2 1930.34   19.95
   5  -2  -2 1921.84   24.18
  -2  -3  -2 1965.29   23.22
  -2  -3   1  206.11    5.53
  -3   5   1  222.30    5.96
   5  -2   1  214.74    6.29
  -2  -3   1  209.32    5.68
   5  -2   1  220.19    5.95
  -2  -3   1  226.77    6.20
  -3   5   1  213.31    5.43
   5  -2   1  212.64    5.51
   5  -2   4   90.39    4.21
  -3   5   4   79.05    5.79
  -2  -3   4   88.93    6.06
   5  -2   4   88.05    5.56
   5  -1 -12  219.83   14.94
  -4   5 -12  259.71   19.51
   5  -1 -12  257.05   18.26
   5  -1 -12  215.97   18.32
  -1  -4 -12  239.89   16.54
  -4   5 -12  232.71   18.58
  -1  -4 -12  244.59   18.85
  -1  -4 -12  252.59   18.33
  -1  -4  -9  928.09   26.59
  -4   5  -9  961.40   23.50
  -1  -4  -9  970.85   30.75
   5  -1  -9  935.24   31.03
   5  -1  -9  909.93   13.84
  -1  -4  -9  961.83   29.89
   5  -1  -9  942.58   25.03
  -1  -4  -9  925.51   20.08
   5  -1  -9  936.24   13.98
  -4   5  -9  985.26   31.70
  -4   5  -6  548.87   19.77
  -1  -4  -6  529.04   13.80
  -1  -4  -6  556.11   15.73
  -1  -4  -6  540.47   18.76
   5  -1  -6  588.52   15.32
   5  -1  -6  565.53   12.06
   5  -1  -6  531.45   19.25
  -4   5  -6  561.74   13.89
  -4   5  -3 3476.70   19.20
  -4   5  -3 3505.97   37.61
   5  -1  -3 3603.18   36.21
   5  -1  -3 3574.57   36.85
   5  -1  -3 3613.77   22.71
  -1  -4  -3 3526.83   36.41
  -1  -4  -3 3658.76   24.20
   5  -1  -3 3705.73   27.92
  -1  -4  -3 3588.00   31.26
  -1  -4   0 1726.90   16.23
  -4   5   0 1784.57   16.10
  -1  -4   0 1769.09   17.82
  -4   5   0 1743.83   17.17
   5  -1   0 1822.67   18.11
   5  -1   0 1756.68   18.19
   5  -1   0 1798.52   15.71
  -1  -4   0 1759.07   17.82
  -1  -4   3 1547.73   12.48
  -4   5   3 1550.32   21.82
  -1  -4   3 1578.20   22.39
   5  -1   3 1572.08   20.97
   5  -1   3 1553.64   18.06
   5  -1   6  709.19   13.23
  -1  -4   6  713.67   20.92
  -5   5 -10  805.05   30.16
   0  -5 -10  844.10   19.80
   0  -5 -10  827.76   29.81
   5   0 -10  802.02   24.77
  -5   5 -10  790.71   22.93
   5   0 -10  818.98   31.13
  -5   5 -10  818.01   31.12
   0  -5 -10  861.10   30.45
   0  -5 -10  789.50   25.98
   5   0  -7   17.95    3.71
   0  -5  -7    7.12    4.32
   5   0  -7   13.57    5.19
   5   0  -7   19.24    2.68
   0  -5  -7   17.62    3.48
  -5   5  -7   24.73    6.23
   0  -5  -7   15.23    3.55
  -5   5  -7   15.06    3.50
   5   0  -4  950.35   15.08
   5   0  -4  959.68   20.44
   5   0  -4  975.48   14.67
   5   0  -4  956.71   22.13
   0  -5  -4  969.36   22.06
  -5   5  -4  955.93   13.54
   0  -5  -4  988.43   18.07
  -5   5  -4  941.45   22.34
   0  -5  -4  952.89   15.69
   5   0  -1  122.94    5.39
  -5   5  -1  127.03    5.40
   0  -5  -1  112.19    5.28
   5   0  -1  113.23    4.05
   0  -5  -1  120.59    5.49
  -5   5  -1  120.42    3.98
   5   0  -1  126.55    5.50
  -5   5  -1  127.26    5.81
   5   0  -1  119.88    5.11
   0  -5  -1  114.96    3.53
   0  -5  -1  115.97    5.44
   0  -5   2  936.78   10.44
   0  -5   2  946.04   15.88
   0  -5   2  963.53   11.31
  -5   5   2  971.24   15.87
   5   0   2  954.72   14.63
   5   0   2  948.65   15.30
   5   0   5   -0.67    2.69
   5   0   5    1.01    1.93
   0  -5   5   -0.78    3.06
  -5   5   5    4.43    2.98
   5   1 -11   84.31    9.32
  -6   5 -11   79.00   10.87
   5   1 -11   79.94   10.26
   1  -6 -11   64.55    8.91
  -6   5 -11   75.52   11.60
   1  -6 -11   96.30   12.01
  -6   5 -11   93.57    9.10
   1  -6 -11   80.03   10.73
   5   1 -11   80.74   11.99
   5   1  -8   48.56    8.15
  -6   5  -8   40.22    7.66
   5   1  -8   31.05    2.45
   5   1  -8   33.78    2.52
   1  -6  -8   41.99    5.92
   1  -6  -8   55.39    8.10
  -6   5  -8   32.60    4.72
   1  -6  -8   36.09    4.90
   5   1  -8   41.98    5.72
   5   1  -5  535.27   10.88
  -6   5  -5  535.86    9.29
   5   1  -5  526.66   13.24
  -6   5  -5  516.87   12.07
   1  -6  -5  514.71   13.60
  -6   5  -5  533.48   18.65
   5   1  -5  539.59   18.64
   1  -6  -5  525.25   14.33
   5   1  -5  546.42   16.64
   1  -6  -5  507.64   17.78
   1  -6  -2  336.29    7.07
   1  -6  -2  336.35    9.82
   5   1  -2  341.42    7.52
  -6   5  -2  350.42    8.50
  -6   5  -2  336.29    6.77
   1  -6  -2  346.85   10.12
  -6   5  -2  348.16    9.99
   1  -6  -2  325.64   10.84
   5   1  -2  349.08    8.73
  -6   5  -2  350.79   11.29
   5   1  -2  353.19   10.97
   5   1  -2  349.34    9.90
   5   1   1 3594.79   29.12
   1  -6   1 3604.28   19.56
   1  -6   1 3666.47   26.31
  -6   5   1 3633.74   28.96
   1  -6   1 3669.94   29.51
   5   1   1 3705.37   29.20
   1  -6   4  293.52   12.15
  -6   5   4  292.78   11.82
   5   1   4  303.07   11.56
   5   1   4  311.62    9.71
   5   1   7  472.36   13.00
  -7   5 -12  219.17   17.72
   2  -7 -12  223.74   17.39
   5   2 -12  216.99   15.17
  -7   5 -12  272.54   21.24
   5   2 -12  226.81   19.59
   2  -7 -12  229.79   16.53
   5   2 -12  199.93   15.80
   2  -7 -12  215.08   18.19
   5   2  -9  578.82   20.12
   2  -7  -9  604.86   21.34
   2  -7  -9  677.48   19.15
  -7   5  -9  609.43   18.81
   5   2  -9  572.43   25.54
   2  -7  -9  642.68   26.19
   2  -7  -9  635.39   23.79
  -7   5  -9  605.91   26.35
   5   2  -6  398.15    9.06
   2  -7  -6  392.60   17.30
   2  -7  -6  382.33   13.37
   2  -7  -6  397.60   13.66
   5   2  -6  417.83   15.66
  -7   5  -6  398.17   17.87
  -7   5  -6  404.92    8.91
   5   2  -6  435.64   18.60
   5   2  -6  405.66   13.37
  -7   5  -6  392.59   12.02
   2  -7  -3 4114.37   30.05
   2  -7  -3 4078.68   36.69
   2  -7  -3 4019.32   37.68
  -7   5  -3 4123.13   44.48
   5   2  -3 4110.20   43.46
  -7   5  -3 3989.16   30.19
  -7   5  -3 4076.02   27.94
  -7   5  -3 4085.10   37.63
   5   2  -3 4090.21   36.95
   5   2  -3 4139.53   30.43
   5   2  -3 3967.41   30.67
   2  -7  -3 4002.64   43.15
   5   2   0 3725.36   30.42
   2  -7   0 3591.54   26.59
  -7   5   0 3683.23   26.12
   2  -7   0 3633.77   28.97
  -7   5   0 3742.69   28.79
   5   2   0 3610.01   31.18
   2  -7   0 3689.82   30.44
   2  -7   0 3629.19   28.75
   5   2   0 3695.48   29.55
   5   2   0 3689.34   24.19
  -7   5   0 3635.70   30.41
   5   2   3 3086.78   34.51
   5   2   3 3146.83   30.88
   2  -7   3 3137.00   20.90
  -7   5   3 3099.86   35.30
   5   2   6  125.10    7.15
   3  -8 -10  174.55   12.72
   3  -8 -10  146.42   12.59
   3  -8 -10  175.03   15.37
   5   3 -10  149.98   11.70
  -8   5 -10  151.03   10.72
  -8   5 -10  169.91   15.75
   3  -8 -10  159.78   10.12
   5   3 -10  168.58   15.50
   3  -8  -7  315.37   12.97
   3  -8  -7  288.42   16.17
  -8   5  -7  317.11    8.61
   5   3  -7  296.80    7.15
   5   3  -7  312.68   12.99
   3  -8  -7  301.11   13.10
  -8   5  -7  304.30   11.79
   5   3  -7  277.76   16.57
  -8   5  -7  315.80   17.33
   3  -8  -4 1716.49   25.90
   5   3  -4 1715.77   20.15
   5   3  -4 1750.31   26.26
   3  -8  -4 1702.84   26.72
   3  -8  -4 1723.10   23.17
   3  -8  -4 1549.08   29.91
  -8   5  -4 1567.88   31.06
   5   3  -4 1515.76   29.82
  -8   5  -4 1717.56   21.34
  -8   5  -4 1716.17   21.34
   5   3  -4 1705.03   23.24
  -8   5  -4 1790.34   27.65
  -8   5  -1 1102.26   17.90
  -8   5  -1 1124.87   16.59
   3  -8  -1 1092.17   16.26
  -8   5  -1 1107.33   18.69
  -8   5  -1 1096.81   16.36
   5   3  -1 1112.66   17.20
   3  -8  -1 1149.85   18.97
   3  -8  -1 1081.09   15.42
   5   3  -1 1107.89   17.52
   5   3  -1 1113.12   16.89
   3  -8  -1 1054.51   18.52
   5   3  -1 1063.35   16.63
   5   3   2  363.75   10.95
   3  -8   2  374.30    9.00
   3  -8   2  408.50   12.40
   5   3   2  384.68   11.78
  -8   5   2  392.85   11.91
   5   3   5  725.86   17.08
   5   3   5  702.16   20.51
   3  -8   5  701.85   21.29
   4  -9 -11  300.95   20.85
   5   4 -11  355.92   18.17
  -9   5 -11  321.34   22.85
   5   4 -11  300.55   21.49
  -9   5 -11  336.78   16.30
   4  -9 -11  326.74   18.96
   5   4 -11  323.14   18.66
   4  -9 -11  315.65   18.06
  -9   5 -11  321.52   19.84
  -9   5  -8   30.62    3.25
  -9   5  -8   30.92    4.98
   4  -9  -8   24.47    5.15
  -9   5  -8   32.60    7.52
   4  -9  -8   26.25    4.94
   4  -9  -8   38.87    8.08
   5   4  -8   21.09    4.87
   5   4  -8   33.54    7.70
   5   4  -5  962.93   19.91
   4  -9  -5 1011.98   27.02
   5   4  -5 1000.46   15.38
   5   4  -5 1049.88   27.64
  -9   5  -5  997.84   17.47
  -9   5  -5 1011.38   22.39
  -9   5  -5 1021.95   18.85
   4  -9  -5  979.99   22.03
  -9   5  -5  968.18   27.13
   4  -9  -5 1003.53   21.35
   4  -9  -5 1032.06   20.47
   5   4  -5 1034.26   21.63
  -9   5  -2  188.83    7.19
   5   4  -2  210.84    8.02
  -9   5  -2  213.01   10.03
   4  -9  -2  202.75    7.37
   4  -9  -2  192.25    7.38
  -9   5  -2  187.95    7.52
   5   4  -2  196.27    9.03
  -9   5  -2  197.09    8.25
   5   4  -2  204.57    7.74
   5   4  -2  200.63    7.85
  -9   5   1 1195.81   22.09
   4  -9   1 1200.85   13.56
   4  -9   1 1206.19   20.05
  -9   5   1 1211.49   19.65
  -9   5   1 1189.46   20.59
   5   4   1 1179.52   10.62
   5   4   1 1228.90   20.30
   5   4   1 1250.69   20.34
  -9   5   1 1187.32   13.07
   4  -9   4   10.17    3.83
   5   4   4    4.24    2.81
   5   4   4    8.68    3.77
   4  -9   4    7.73    1.53
  -9   5   4   11.91    4.20
   5   4   7 1120.56   23.82
   5 -10 -12   98.21   14.44
 -10   5 -12  112.81   13.40
   5 -10 -12   95.18   10.98
   5   5 -12  104.05   11.35
   5   5 -12  109.41   14.61
 -10   5 -12   94.66   14.36
 -10   5  -9  281.14   19.18
   5 -10  -9  293.90   15.34
   5   5  -9  270.87   14.59
   5 -10  -9  261.20   13.68
 -10   5  -9  315.57   14.19
   5 -10  -9  301.46   15.91
   5   5  -9  283.35   18.90
 -10   5  -9  257.53    8.39
   5 -10  -9  287.54   19.04
   5   5  -6  339.86   17.35
   5 -10  -6  346.27   13.41
   5 -10  -6  315.73   16.56
   5 -10  -6  330.81   13.37
   5 -10  -6  310.36   13.38
   5   5  -6  329.68    8.75
   5   5  -6  318.57   12.80
 -10   5  -6  334.33   12.38
   5   5  -6  299.58   12.68
 -10   5  -6  340.44   11.20
 -10   5  -6  315.73   14.11
 -10   5  -6  301.23   16.96
 -10   5  -3 1716.57   24.82
 -10   5  -3 1659.64   22.72
   5   5  -3 1694.57   24.31
   5 -10  -3 1791.44   23.76
   5   5  -3 1782.41   23.05
   5   5  -3 1729.51   23.70
   5 -10  -3 1748.93   23.78
 -10   5  -3 1782.46   32.08
 -10   5  -3 1687.21   23.73
   5   5   0   21.86    2.73
 -10   5   0   29.46    3.56
 -10   5   0   30.37    4.10
   5   5   0   25.92    3.88
   5 -10   0   26.87    3.84
   5   5   0   36.47    4.10
 -10   5   0   28.10    3.97
   5   5   0   30.37    3.85
   5 -10   0   26.15    3.36
 -10   5   3 1532.46   27.80
   5   5   3 1550.45   25.59
   5   5   3 1591.12   27.98
   5 -10   3 1521.94   28.52
   5   5   6  271.31   12.12
   6 -11 -10  367.73   16.82
   6 -11 -10  330.45   17.45
   6 -11 -10  381.10   22.91
   5   6 -10  379.07   18.08
   6 -11 -10  342.65   17.55
 -11   5 -10  381.72   16.84
   5   6 -10  360.39   23.07
 -11   5 -10  351.63   22.85
   5   6  -7  724.70   27.30
   5   6  -7  718.06   20.91
   5   6  -7  732.18   20.54
 -11   5  -7  685.68   27.06
   6 -11  -7  701.04   21.17
   6 -11  -7  717.54   20.98
 -11   5  -7  730.03   19.55
   5   6  -7  708.38   11.92
 -11   5  -7  692.50   16.86
   6 -11  -7  703.56   26.70
   6 -11  -7  670.15   20.00
 -11   5  -4 1249.79   29.86
   6 -11  -4 1189.31   21.86
   5   6  -4 1206.78   21.14
   5   6  -4 1196.99   22.58
   6 -11  -4 1214.81   20.77
 -11   5  -4 1235.88   22.48
 -11   5  -4 1212.97   21.93
 -11   5  -4 1159.13   20.80
   5   6  -4 1190.22   19.23
   5   6  -1  933.40   19.30
   6 -11  -1  962.32   17.19
   6 -11  -1  973.68   18.48
 -11   5  -1  974.50   20.15
 -11   5  -1  909.36   16.66
 -11   5  -1  918.88   18.66
   5   6  -1  967.30   18.91
   5   6  -1 1013.24   18.28
 -11   5   2 1397.16   25.05
   6 -11   2 1369.85   25.38
 -11   5   2 1342.52   11.55
   6 -11   2 1369.52   12.28
   5   6   2 1338.57   24.88
 -11   5   2 1316.77   11.92
 -11   5   2 1375.34   24.75
   5   6   2 1390.87   24.76
   6 -11   5  813.95   12.23
   6 -11   5  809.37   12.58
   4   6 -11   34.83    6.98
   6 -10 -11   32.42    9.74
 -10   4 -11   33.98    8.21
   6 -10 -11   24.44    6.98
   4   6 -11   40.79    7.58
 -10   4 -11   47.93   11.16
 -10   4 -11   33.52    6.33
   6 -10 -11   30.71    7.19
   4   6 -11   28.21    9.14
   4   6  -8   79.65    8.19
   6 -10  -8   94.02    8.29
 -10   4  -8  107.16    6.58
   6 -10  -8   96.60    8.77
 -10   4  -8  109.94    8.79
   4   6  -8   86.00   10.91
   6 -10  -8   92.29    8.85
   6 -10  -8  105.69   11.20
 -10   4  -8  103.57   12.19
   4   6  -8   82.36    8.37
   6 -10  -5  484.11   15.19
 -10   4  -5  506.44   15.03
   6 -10  -5  449.71   15.72
 -10   4  -5  527.69   14.91
   6 -10  -5  500.15   14.23
 -10   4  -5  499.97   13.73
   4   6  -5  501.38   10.97
   4   6  -5  484.75   14.08
   4   6  -5  494.74   15.51
 -10   4  -5  493.96   20.04
   4   6  -2  944.89   16.35
   6 -10  -2  956.45   17.53
 -10   4  -2  892.19   17.12
   6 -10  -2  917.40   15.30
   4   6  -2  928.87   17.05
 -10   4  -2  924.43   18.68
   4   6  -2  917.99   18.06
 -10   4  -2  895.53   15.56
   4   6   1   55.29    4.98
   6 -10   1   60.17    5.60
   4   6   1   45.14    4.79
   6 -10   1   44.83    4.75
   4   6   1   39.34    5.00
 -10   4   1   28.75    4.73
 -10   4   1   49.35    4.79
 -10   4   1   36.63    4.46
   6 -10   4  892.66   14.06
   4   6   4  913.30   23.31
   6 -10   4  873.18   23.43
   4   6   4  857.85   20.02
 -10   4   4  830.52   22.36
   3   6 -12  248.73   17.13
   3   6 -12  264.77   22.09
  -9   3 -12  222.24   16.92
  -9   3 -12  279.95   22.31
  -9   3 -12  245.31   15.84
   6  -9 -12  275.81   18.36
   6  -9 -12  257.00   20.90
   6  -9  -9   66.54   10.37
   6  -9  -9   80.80    7.75
   6  -9  -9   83.93    8.61
   6  -9  -9   70.22    8.57
   3   6  -9  101.64   12.16
  -9   3  -9   75.16    5.25
  -9   3  -9   90.63    8.52
   3   6  -9   55.77    7.54
  -9   3  -9   78.18   11.72
   6  -9  -6  606.64   18.47
  -9   3  -6  650.76   18.63
   3   6  -6  645.78    9.57
   3   6  -6  659.65   16.86
  -9   3  -6  625.17   15.10
  -9   3  -6  648.64   24.13
   6  -9  -6  650.99   17.39
   6  -9  -6  587.76   17.54
  -9   3  -6  640.29   17.62
   3   6  -6  618.48   18.55
  -9   3  -3  628.07   14.50
   3   6  -3  650.49   15.46
  -9   3  -3  649.58   14.90
   3   6  -3  651.50   12.78
   6  -9  -3  688.93   12.69
   6  -9  -3  640.99   14.93
   3   6  -3  655.15   12.96
  -9   3  -3  653.35   13.36
  -9   3   0 1605.80   23.52
   3   6   0 1539.76   22.14
   3   6   0 1556.13   23.29
  -9   3   0 1536.27   23.00
   6  -9   0 1527.59   22.10
   6  -9   0 1542.82   20.53
   3   6   0 1562.27   20.97
  -9   3   0 1547.66   19.93
   6  -9   3  118.30    8.19
  -9   3   3  112.44    8.04
   3   6   3  125.86    7.35
   3   6   3  116.70    7.94
  -9   3   3  123.07    7.09
   3   6   6  516.80   16.12
   6  -8 -10  546.82   26.33
   2   6 -10  479.90   25.57
   6  -8 -10  493.23   20.03
   2   6 -10  491.48   21.68
   6  -8 -10  511.91   17.40
  -8   2 -10  530.38   20.89
  -8   2 -10  552.62   22.53
   2   6 -10  546.78   20.23
  -8   2 -10  532.72   26.46
   6  -8 -10  585.39   25.09
  -8   2  -7  899.71   29.58
   2   6  -7  944.88   24.65
  -8   2  -7  894.78   22.45
   6  -8  -7  899.29   24.29
   6  -8  -7  891.71   21.61
  -8   2  -7  900.60   17.83
   2   6  -7  861.76   20.78
  -8   2  -7  875.85   23.52
  -8   2  -4  171.94    7.44
   2   6  -4  186.97    5.91
   2   6  -4  182.65    8.89
  -8   2  -4  186.33    8.49
  -8   2  -4  173.85    7.69
   6  -8  -4  185.50    7.15
   2   6  -4  188.89    7.14
   6  -8  -4  206.47    9.26
  -8   2  -1 1625.11   17.49
  -8   2  -1 1584.29   21.25
   2   6  -1 1586.53   20.52
   2   6  -1 1552.30   21.40
   2   6  -1 1637.93   18.48
  -8   2  -1 1575.26   22.11
   6  -8  -1 1530.94   20.45
   6  -8  -1 1610.54   17.44
   6  -8   2 1551.75   11.01
  -8   2   2 1562.56   12.39
   2   6   2 1550.83   24.46
  -8   2   2 1563.13   22.57
   6  -8   2 1576.85   25.17
  -8   2   2 1519.51   23.86
  -8   2   2 1506.63   25.24
   6  -8   2 1579.44   25.73
   2   6   2 1608.98   23.47
   6  -8   5  233.37    5.38
   2   6   5  240.13   10.61
  -7   1 -11  215.24   14.68
   6  -7 -11  213.69   17.34
   6  -7 -11  199.10   13.69
   6  -7 -11  185.53   14.81
  -7   1 -11  190.59   17.16
   1   6 -11  187.63   17.62
  -7   1 -11  190.09   14.46
   1   6 -11  185.78   12.89
   1   6 -11  165.57   14.31
  -7   1  -8   56.94    6.64
  -7   1  -8   65.97    9.37
   6  -7  -8   83.04    6.93
   1   6  -8   69.19    7.19
   6  -7  -8   73.80    8.34
   1   6  -8   71.27    8.10
  -7   1  -8   68.01    5.27
   6  -7  -8   60.41    6.67
   6  -7  -5   24.47    4.51
  -7   1  -5   15.82    2.92
  -7   1  -5   14.64    3.37
   1   6  -5   17.90    2.79
   1   6  -5   19.17    4.00
  -7   1  -5   11.73    2.95
   1   6  -2  178.35    5.45
  -7   1  -2  177.27    7.37
  -7   1  -2  184.18    7.46
  -7   1  -2  185.84    5.44
   6  -7  -2  182.28    4.99
   6  -7  -2  193.75    7.76
   1   6  -2  179.06    7.57
   1   6  -2  177.06    6.15
   6  -7   1  496.85    8.67
  -7   1   1  480.45   11.46
   1   6   1  514.20   12.89
   1   6   1  499.08   12.20
   1   6   1  509.51   12.23
  -7   1   1  495.67    8.87
   6  -7   1  461.91   12.11
   6  -7   1  501.31   12.19
  -7   1   1  493.95   11.91
   1   6   1  499.67    7.49
  -7   1   1  482.01   12.39
   1   6   4  307.65   11.03
   6  -7   4  312.26    7.09
   6  -7   4  315.87   13.67
  -7   1   4  293.67    8.21
  -6   0 -12  314.91   18.86
   0   6 -12  306.42   22.63
  -6   0 -12  309.55   19.07
   0   6 -12  283.97   19.20
  -6   0 -12  292.95   21.52
   6  -6 -12  287.94   20.64
   6  -6 -12  308.49   20.35
  -6   0  -9    9.01    6.13
   6  -6  -9    2.23    4.45
   0   6  -9    7.27    6.14
   6  -6  -9    4.20    3.43
   6  -6  -9    3.17    5.63
   6  -6  -9    3.93    2.98
  -6   0  -9   -0.68    3.87
   0   6  -9   -1.33    3.37
   6  -6  -9    1.22    3.40
  -6   0  -9    2.05    2.19
  -6   0  -9   -2.18    4.13
   0   6  -9    2.80    4.53
   6  -6  -6 2164.91   35.81
  -6   0  -6 2140.31   26.78
   6  -6  -6 2134.18   29.05
   0   6  -6 2114.30   27.91
  -6   0  -6 2097.36   33.54
   0   6  -6 2107.01   35.30
  -6   0  -3   22.93    3.38
   0   6  -3   25.09    2.17
   6  -6  -3   24.74    2.10
  -6   0  -3   27.78    3.29
   0   6  -3   22.69    3.51
   6  -6  -3   31.98    4.11
  -6   0  -3   27.99    2.55
   0   6  -3   30.75    2.29
   6  -6   0 3105.50   24.37
   0   6   0 3089.34   26.85
   0   6   0 3089.87   24.17
   6  -6   0 3037.30   26.65
  -6   0   0 3058.48   27.22
  -6   0   0 3060.76   22.99
   6  -6   0 3102.20   26.16
  -6   0   0 3056.48   26.39
  -6   0   0 3015.22   27.29
   0   6   0 3104.66   27.44
   0   6   0 3041.46   24.69
   0   6   3   63.29    4.96
   6  -6   3   62.76    6.05
   0   6   3   61.99    3.56
  -6   0   3   52.37    4.10
   6  -6   3   63.26    3.10
   6  -6   3   65.19    3.60
  -6   0   3   57.42    3.41
  -5  -1 -10   19.09    5.94
  -1   6 -10    5.61    5.83
  -5  -1 -10   13.28    7.78
   6  -5 -10    5.77    4.93
  -1   6 -10   12.68    6.61
   6  -5 -10    5.16    5.68
  -5  -1 -10    3.82    2.46
  -5  -1 -10    1.95    4.29
  -1   6 -10    9.33    4.17
   6  -5 -10   11.19    4.95
   6  -5 -10    6.75    3.03
  -5  -1  -7  445.82   15.77
  -5  -1  -7  470.72   12.94
  -5  -1  -7  459.75   17.27
   6  -5  -7  451.06   14.04
   6  -5  -7  462.32   14.85
  -1   6  -7  448.56   18.08
   6  -5  -7  467.00   18.68
  -1   6  -7  422.93   13.58
  -5  -1  -7  480.59   20.78
  -1   6  -4  285.75    7.29
  -1   6  -4  285.16   11.55
  -5  -1  -4  275.76    9.19
  -5  -1  -4  289.85   10.94
   6  -5  -4  277.69    7.58
   6  -5  -4  275.74   11.21
  -5  -1  -1 3676.86   29.81
  -1   6  -1 3616.88   29.87
  -1   6  -1 3736.78   20.36
  -1   6  -1 3731.34   26.42
   6  -5  -1 3629.58   29.11
  -5  -1  -1 3778.41   17.58
  -5  -1  -1 3746.87   29.70
  -1   6   2  268.00    9.22
  -1   6   2  298.55    6.72
   6  -5   2  304.42    9.89
   6  -5   2  267.09    9.96
   6  -5   2  292.36    7.56
  -5  -1   2  289.02    9.53
  -5  -1   2  286.58    6.85
   6  -5   2  269.41    6.05
  -5  -1   2  301.33    8.23
   6  -5   5  588.85    9.30
  -5  -1   5  604.75   15.11
  -2   6 -11   45.81    6.91
   6  -4 -11   41.27    7.01
  -4  -2 -11   29.17    8.56
  -4  -2 -11   46.86    8.56
  -4  -2 -11   37.44    7.71
   6  -4 -11   29.34    7.64
  -2   6 -11   55.16   11.14
   6  -4 -11   36.14    7.85
  -2   6 -11   32.48    7.68
   6  -4  -8   36.88    7.18
   6  -4  -8   27.62    4.75
   6  -4  -8   28.22    3.98
   6  -4  -8   33.27    4.43
  -2   6  -8   38.63    5.04
  -4  -2  -8   24.02    5.76
  -2   6  -8   41.01    6.98
  -4  -2  -8   26.00    6.59
  -4  -2  -8   31.57    5.31
  -4  -2  -8   23.29    3.73
   6  -4  -5  467.86   16.18
  -2   6  -5  500.12   16.51
   6  -4  -5  507.56   13.16
  -2   6  -5  495.18   11.01
   6  -4  -5  485.20   11.47
  -4  -2  -5  510.05   13.09
  -4  -2  -5  476.31   12.83
  -4  -2  -5  500.27   15.88
  -4  -2  -2 1749.98   21.04
  -2   6  -2 1802.82   23.23
   6  -4  -2 1846.63   23.08
   6  -4  -2 1794.98   21.72
  -4  -2  -2 1826.31   22.67
  -4  -2   1  583.33   11.09
   6  -4   1  572.40   10.84
   6  -4   1  558.34    9.40
  -2   6   1  556.17   10.74
  -4  -2   1  552.70   10.46
  -2   6   1  561.82    9.19
   6  -4   1  561.42   10.88
  -4  -2   1  550.24    9.75
   6  -4   4  199.30    7.55
   6  -4   4  209.87    6.22
  -4  -2   4  194.38    8.26
  -4  -2   4  209.24    6.24
  -3   6 -12  439.40   24.57
   6  -3 -12  501.50   25.95
  -3  -3 -12  496.96   24.74
  -3   6 -12  492.54   27.21
  -3  -3 -12  505.76   27.15
  -3  -3 -12  482.49   23.21
   6  -3 -12  491.21   26.12
  -3  -3  -9   41.13    4.94
  -3  -3  -9   38.49    6.92
  -3  -3  -9   48.82    6.93
   6  -3  -9   47.46    8.44
   6  -3  -9   43.18    4.48
   6  -3  -9   42.56    5.95
   6  -3  -9   48.65    4.52
  -3   6  -9   35.70    5.41
  -3  -3  -9   29.44    7.25
  -3   6  -9   41.77    7.75
  -3  -3  -6 1502.36   30.29
   6  -3  -6 1444.17   31.03
  -3  -3  -6 1407.86   22.78
  -3  -3  -6 1432.60   24.50
  -3   6  -6 1439.61   30.82
   6  -3  -6 1392.60   21.87
  -3   6  -6 1461.64   21.02
   6  -3  -6 1475.98   22.81
  -3  -3  -3  269.04    6.07
   6  -3  -3  262.41    4.95
  -3  -3  -3  272.26   10.19
  -3   6  -3  263.67   10.29
   6  -3  -3  273.80    8.76
  -3  -3  -3  276.53    9.05
   6  -3  -3  259.01   10.19
  -3  -3   0 9401.53   42.39
   6  -3   0 9558.31   43.87
   6  -3   3  132.62    5.75
   6  -3   3  135.21    5.42
  -3  -3   3  144.31    6.47
  -3  -3   3  130.16    4.64
  -3  -3   6 1214.40   25.99
   6  -3   6 1278.06   16.25
   6  -2 -10   52.99    6.96
  -2  -4 -10   58.23    9.73
  -2  -4 -10   56.38    5.68
   6  -2 -10   66.72   10.70
  -2  -4 -10   56.07    8.84
  -4   6 -10   56.74    6.65
  -4   6 -10   45.51    8.71
  -2  -4 -10   56.13    7.82
  -2  -4  -7  862.48   25.21
  -2  -4  -7  860.66   20.83
  -4   6  -7  882.60   26.76
   6  -2  -7  879.68   26.50
  -2  -4  -7  874.27   19.04
   6  -2  -7  862.22   19.65
  -4   6  -7  900.89   18.28
   6  -2  -7  877.35   16.74
  -4   6  -4  110.78    4.10
  -4   6  -4  112.07    8.11
   6  -2  -4  117.10    4.89
  -2  -4  -4  108.39    7.73
   6  -2  -4  112.99    8.02
  -2  -4  -4  108.41    6.15
   6  -2  -4  117.69    5.91
  -2  -4  -4  111.19    5.24
  -2  -4  -1  225.04    7.51
  -2  -4  -1  234.95    8.03
   6  -2  -1  229.06    7.98
  -4   6  -1  197.61    7.13
  -2  -4  -1  208.03    7.30
  -4   6  -1  219.85    7.37
   6  -2  -1  231.91    7.37
   6  -2  -1  237.77    7.47
  -4   6   2 1290.05   17.23
   6  -2   2 1330.50   16.86
   6  -2   2 1362.45   17.34
  -4   6   2 1310.74   15.45
  -2  -4   2 1350.59   17.92
  -2  -4   2 1268.61   15.41
   6  -2   2 1298.45   16.21
  -2  -4   2 1271.59   14.44
  -2  -4   5  415.39   14.31
   6  -2   5  431.97   13.58
   6  -2   5  416.92   10.05
  -4   6   5  431.09   14.58
  -1  -5 -11   93.56   11.88
  -5   6 -11   72.36   10.84
  -5   6 -11   95.96    8.92
   6  -1 -11   98.47   11.92
   6  -1 -11   96.99   12.44
  -1  -5 -11   94.42   11.56
  -5   6 -11   79.22   11.54
  -1  -5 -11   81.63    9.37
   6  -1 -11   82.76    8.96
   6  -1  -8   60.23    4.46
  -5   6  -8   54.76    5.61
  -5   6  -8   41.26    6.97
   6  -1  -8   61.35    4.34
  -1  -5  -8   55.88    6.63
  -1  -5  -8   50.62    7.58
   6  -1  -8   61.80    8.53
  -1  -5  -8   68.63    6.12
   6  -1  -8   60.14    6.16
   6  -1  -5  519.36   17.94
  -1  -5  -5  503.29   17.40
  -1  -5  -5  461.28   13.32
   6  -1  -5  498.02   11.67
  -5   6  -5  469.01   10.32
   6  -1  -5  507.07   11.82
  -1  -5  -5  463.30   12.51
   6  -1  -5  424.63   16.17
  -5   6  -5  485.53   17.61
   6  -1  -2   69.16    5.13
  -1  -5  -2   79.11    2.62
   6  -1  -2   90.43    4.85
  -5   6  -2   74.52    5.53
   6  -1  -2   83.18    3.08
  -5   6  -2   76.43    5.29
   6  -1  -2   78.86    5.33
  -1  -5  -2   77.00    5.52
  -1  -5  -2   75.65    5.00
  -1  -5  -2   87.20    5.65
  -1  -5   1 5078.03   33.73
   6  -1   1 5060.17   33.94
  -5   6   1 4983.78   24.92
   6  -1   1 4984.21   32.92
  -1  -5   1 5070.27   27.23
  -1  -5   1 4949.48   30.84
  -5   6   4  342.49   12.16
  -1  -5   4  320.88   11.90
   6  -1   4  313.04    9.28
   6  -1   4  328.98   11.19
  -1  -5   4  317.26    5.75
   6  -1   7  793.66   15.34
   0  -6 -12  806.30   33.07
   0  -6 -12  758.79   31.60
   0  -6 -12  755.24   28.14
   6   0 -12  836.22   35.35
  -6   6 -12  792.22   33.46
  -6   6 -12  739.82   33.24
   6   0 -12  770.82   30.83
   6   0 -12  830.49   27.44
  -6   6  -9   14.59    5.99
   0  -6  -9   28.36    4.68
   6   0  -9   24.02    2.36
   6   0  -9   27.20    5.02
   0  -6  -9   20.71    4.99
   6   0  -9   17.26    6.83
   0  -6  -9   32.07    6.82
  -6   6  -9   31.68    5.06
   0  -6  -9   43.89    7.87
   6   0  -9   26.74    2.54
   6   0  -6 1789.50   36.59
   6   0  -6 1872.73   22.29
   6   0  -6 1876.38   26.57
  -6   6  -6 1766.44   36.43
   0  -6  -6 1853.74   35.89
   0  -6  -6 1787.90   27.94
   6   0  -6 1765.86   33.53
   0  -6  -6 1785.79   27.38
  -6   6  -6 1826.37   23.56
   0  -6  -3   61.48    5.05
   0  -6  -3   52.17    3.21
   6   0  -3   56.64    5.48
   0  -6  -3   64.20    6.06
   6   0  -3   53.29    3.25
  -6   6  -3   69.67    6.48
  -6   6  -3   49.97    5.00
   6   0  -3   58.15    4.11
   6   0  -3   54.93    5.04
  -6   6  -3   60.85    2.85
   0  -6  -3   64.46    5.71
  -6   6   0 3730.56   26.18
   6   0   0 3777.51   30.35
  -6   6   0 3758.03   28.64
   0  -6   0 3733.72   26.83
   6   0   0 3681.90   24.77
   0  -6   0 3790.97   29.64
  -6   6   3   29.47    3.91
   6   0   3   32.57    3.46
   0  -6   3   30.86    4.12
   6   0   3   25.21    3.38
   0  -6   3   33.51    2.43
   6   0   6 2147.22   26.79
   1  -7 -10   30.66    7.35
   6   1 -10   26.74    5.64
  -7   6 -10   35.65    5.63
   1  -7 -10   54.55    7.60
   1  -7 -10   45.97    5.93
  -7   6 -10   52.00   10.08
   6   1 -10   46.60    9.47
   1  -7 -10   32.66    7.30
  -7   6  -7  350.54   11.77
   6   1  -7  345.26   17.74
  -7   6  -7  361.54   18.55
   1  -7  -7  375.33   17.81
   6   1  -7  341.56   12.79
   1  -7  -7  357.43   13.50
   6   1  -7  360.49    9.39
   1  -7  -7  327.61   13.02
  -7   6  -4  209.83   10.13
   6   1  -4  224.87   10.33
   6   1  -4  234.63    7.84
   1  -7  -4  229.61    7.74
   1  -7  -4  210.09    9.41
   1  -7  -4  228.53   11.44
  -7   6  -4  224.80    6.97
  -7   6  -4  217.24   11.61
   6   1  -4  224.30    7.72
   1  -7  -4  215.45   10.26
   6   1  -4  214.87   11.30
  -7   6  -4  226.57    6.80
   6   1  -1  128.45    6.12
   1  -7  -1  140.47    6.27
   1  -7  -1  146.52    6.70
  -7   6  -1  138.75    5.39
   1  -7  -1  138.98    5.00
   1  -7  -1  136.51    6.78
   6   1  -1  134.04    6.15
  -7   6  -1  131.25    6.09
   6   1  -1  134.52    5.57
  -7   6  -1  136.58    6.57
   6   1  -1  139.71    6.25
   1  -7   2  441.02   12.24
   1  -7   2  421.25    6.61
  -7   6   2  438.28   11.96
   6   1   2  432.18   11.26
   6   1   2  430.38   11.64
   1  -7   2  421.22    9.05
   6   1   2  439.42    6.93
   1  -7   5   49.72    6.02
   6   1   5   52.90    5.82
   6   1   5   70.08    5.23
  -7   6   5   57.17    6.32
   2  -8 -11  217.81   14.72
   6   2 -11  229.87   14.52
   6   2 -11  265.88   20.23
  -8   6 -11  210.12   16.89
  -8   6 -11  236.72   19.27
  -8   6 -11  225.04   12.97
   2  -8 -11  237.59   17.04
   2  -8 -11  251.75   18.94
  -8   6  -8  472.07   15.00
  -8   6  -8  431.24   21.56
   2  -8  -8  452.83   16.94
   6   2  -8  444.56    9.13
   2  -8  -8  438.65   15.70
   2  -8  -8  443.38   21.04
   6   2  -8  427.44   21.26
   6   2  -8  475.87   16.48
  -8   6  -5  162.44    6.40
   6   2  -5  158.00    6.54
   2  -8  -5  161.75    8.86
  -8   6  -5  145.66    9.31
   6   2  -5  146.74    7.30
   6   2  -5  138.66    8.97
   2  -8  -5  157.11    9.51
   2  -8  -5  140.48   10.31
   6   2  -5  150.56   10.59
  -8   6  -5  157.16    6.84
  -8   6  -5  140.78   10.45
   2  -8  -5  157.24    7.78
  -8   6  -2 2157.14   20.87
   6   2  -2 2214.55   26.04
  -8   6  -2 2217.22   29.91
   6   2  -2 2178.67   22.45
  -8   6  -2 2151.59   24.44
   6   2  -2 2307.35   29.29
   2  -8  -2 2201.81   20.53
   2  -8  -2 2148.07   25.40
   6   2  -2 2201.67   24.58
   2  -8  -2 2247.29   29.83
   2  -8  -2 2184.46   27.86
  -8   6  -2 2237.25   26.17
  -8   6   1 2693.84   17.89
   6   2   1 2719.38   28.43
   6   2   1 2776.29   28.96
  -8   6   1 2630.57   27.56
   2  -8   1 2708.38   19.70
   2  -8   1 2704.68   28.87
   6   2   1 2731.66   16.44
   2  -8   1 2682.88   26.31
  -8   6   4  148.10    9.15
   6   2   4  151.79    8.85
   2  -8   4  154.19    4.56
   6   2   4  158.77    7.77
   2  -8   4  140.88    9.18
   6   2   7 1037.01   21.62
   3  -9 -12  367.60   21.40
   3  -9 -12  375.70   20.07
  -9   6 -12  408.41   26.30
  -9   6 -12  381.58   23.08
   6   3 -12  382.05   21.43
   3  -9 -12  364.33   23.73
   6   3 -12  362.60   18.93
   6   3 -12  341.68   24.42
   6   3  -9   20.93    7.38
   3  -9  -9   25.93    5.32
   3  -9  -9   38.29    5.99
   6   3  -9   27.23    5.47
  -9   6  -9   36.52    5.34
   3  -9  -9   39.11    8.27
  -9   6  -9   23.43    7.37
   6   3  -6  687.80   23.78
   3  -9  -6  688.34   17.67
   3  -9  -6  660.08   23.08
  -9   6  -6  723.48   14.11
   6   3  -6  677.07   17.24
   3  -9  -6  701.43   19.37
  -9   6  -6  697.99   16.14
   3  -9  -6  685.63   20.50
   6   3  -6  686.71   19.84
  -9   6  -6  717.37   24.90
   6   3  -6  721.87   13.49
   6   3  -3   81.60    5.74
   3  -9  -3   84.30    6.47
  -9   6  -3   75.42    5.08
   3  -9  -3   82.65    4.82
  -9   6  -3   83.74    4.74
   6   3  -3   86.25    7.24
   3  -9  -3   86.01    5.81
   6   3  -3   75.60    5.00
   6   3  -3   83.36    5.16
  -9   6  -3   80.02    7.21
  -9   6  -3   72.55    5.62
   3  -9  -3   83.54    7.27
   6   3   0 1410.11   16.87
  -9   6   0 1398.03   22.20
   3  -9   0 1469.95   20.79
  -9   6   0 1405.49   20.08
  -9   6   0 1379.12   21.51
   3  -9   0 1425.86   21.72
   6   3   0 1437.78   20.87
  -9   6   0 1397.50   18.28
   3  -9   0 1423.40   18.77
   3  -9   0 1350.01   20.35
   6   3   0 1389.73   22.10
   6   3   0 1457.36   21.60
   6   3   3  708.51   17.96
  -9   6   3  683.34   17.94
   3  -9   3  682.26   12.12
   3  -9   3  676.73   17.96
   6   3   3  674.68   16.12
   6   3   6  576.61   16.41
   4 -10 -10  206.78   14.80
 -10   6 -10  207.83   11.97
 -10   6 -10  189.23   16.81
   4 -10 -10  215.56   17.40
   4 -10 -10  184.87   12.96
   4 -10 -10  195.36   12.37
   6   4 -10  210.02   13.23
   6   4 -10  167.33   15.92
   6   4  -7  116.43    8.44
   4 -10  -7  117.89    9.00
   6   4  -7  111.55   11.41
   6   4  -7  111.52    5.22
 -10   6  -7  118.69    6.28
   4 -10  -7  109.73   11.18
   4 -10  -7  125.21    8.66
 -10   6  -7   99.76   11.17
   4 -10  -7  107.79    9.24
 -10   6  -7  119.41    7.77
   6   4  -4  940.35   16.83
   4 -10  -4  922.92   17.77
   6   4  -4  936.48   18.33
   6   4  -4  978.80   19.98
   4 -10  -4  950.80   19.88
 -10   6  -4  995.98   20.64
 -10   6  -4  939.81   16.89
 -10   6  -4  933.18   18.02
   6   4  -4  936.83   24.64
   4 -10  -4  975.87   25.07
   4 -10  -4  921.15   21.57
   4 -10  -1   22.60    3.08
   4 -10  -1   15.30    3.69
   6   4  -1   30.34    3.93
 -10   6  -1   17.23    2.78
 -10   6  -1   24.08    3.90
   6   4  -1   18.91    3.09
   6   4  -1   23.60    3.47
   4 -10  -1   24.08    3.83
 -10   6  -1   24.69    3.81
   6   4  -1   23.84    3.34
 -10   6  -1   23.57    3.26
   4 -10  -1   31.91    3.66
   4 -10   2  661.89   13.81
   6   4   2  622.04   15.78
   4 -10   2  666.00    7.65
   6   4   2  697.25   17.21
 -10   6   2  673.99   16.80
   4 -10   2  633.15   16.56
   6   4   5  381.93   13.69
   4 -10   5  379.34    7.12
   4 -10   5  375.23    7.32
   6   4   8  179.13   10.65
   5 -11 -11  292.87   17.83
 -11   6 -11  298.65   15.35
   5 -11 -11  293.00   15.32
 -11   6 -11  324.80   23.51
   5 -11 -11  317.69   17.43
   6   5 -11  282.63   21.54
   5 -11 -11  302.98   21.47
   6   5 -11  327.44   17.49
   5 -11  -8  781.34   23.25
   5 -11  -8  813.20   23.14
   5 -11  -8  771.73   29.21
   6   5  -8  823.19   30.57
 -11   6  -8  815.61   16.64
 -11   6  -8  792.16   30.39
   6   5  -8  805.81   22.79
 -11   6  -8  860.54   21.60
   5 -11  -5  881.08   22.63
   5 -11  -5  905.25   19.66
 -11   6  -5  890.10   18.50
   5 -11  -5  860.21   25.74
 -11   6  -5  873.13   21.51
   5 -11  -5  895.35   20.62
   6   5  -5  880.90   20.19
 -11   6  -5  905.75   27.31
 -11   6  -5  889.23   18.32
   6   5  -5  939.26   26.82
   6   5  -5  884.30   19.79
   6   5  -5  862.05   16.54
 -11   6  -2 1253.07   25.22
 -11   6  -2 1212.27   22.13
 -11   6  -2 1243.50   20.36
   6   5  -2 1278.02   23.91
   5 -11  -2 1232.04   19.69
   6   5  -2 1217.34   20.97
 -11   6  -2 1249.48   20.47
   6   5  -2 1258.72   21.29
   6   5  -2 1261.95   20.91
   5 -11  -2 1276.81   20.27
 -11   6   1  936.14   18.94
 -11   6   1  932.24   13.54
   6   5   1  954.65   19.83
 -11   6   1  995.76   22.02
   6   5   1  935.57   19.36
   5 -11   1  964.13   19.73
   5 -11   1  937.77   13.93
   6   5   1  944.28   11.28
   5 -11   1  928.78   20.64
 -11   6   1  972.59   20.54
   6   5   4 1155.83   23.77
   5 -11   4 1157.57   16.43
   6   5   4 1174.43   26.80
   6 -12 -12  125.80   16.24
   6   6 -12  133.05   12.63
   6   6 -12  121.75   16.31
 -12   6 -12  139.33   14.55
   6 -12 -12  129.21   12.88
 -12   6 -12  115.97   16.01
   6   6  -9   84.81    8.77
 -12   6  -9   99.30   12.66
 -12   6  -9   71.52    5.46
   6 -12  -9   73.44    8.30
   6 -12  -9   78.85   11.11
   6 -12  -9   75.13    8.20
   6   6  -9   78.97   11.96
 -12   6  -9   75.35    7.50
 -12   6  -6  595.20   16.17
 -12   6  -6  590.57   24.19
   6   6  -6  532.90   22.16
   6   6  -6  576.96   17.83
   6 -12  -6  580.45   19.59
 -12   6  -6  534.41   18.46
   6 -12  -6  555.33   17.20
 -12   6  -6  596.53   16.63
   6 -12  -6  583.35   17.57
   6   6  -6  577.91   13.48
   6 -12  -6  580.63   23.14
   6   6  -6  544.48   17.02
   6   6  -3   49.10    4.90
 -12   6  -3   34.87    4.58
 -12   6  -3   45.21    4.51
   6   6  -3   40.58    4.41
 -12   6  -3   41.82    4.52
 -12   6  -3   41.09    6.62
   6 -12  -3   35.57    4.03
   6 -12  -3   40.68    4.32
   6   6  -3   36.23    4.26
   6 -12   0 1807.92   24.60
 -12   6   0 1827.89   24.50
   6   6   0 1863.62   27.03
   6 -12   0 1841.61   26.35
   6   6   0 1840.26   27.98
 -12   6   0 1877.49   26.25
   6   6   0 1853.24   29.74
 -12   6   0 1818.77   28.75
   6   6   0 1831.99   22.09
 -12   6   0 1857.03   29.30
   6 -12   0 1832.50   28.14
   6 -12   3  101.57    8.09
 -12   6   3  124.36    8.69
   6   6   3  124.21    8.35
   6   6   3  131.71    9.07
   6 -12   6  610.95    8.86
   6 -12   6  588.24    9.06
   7 -13 -10  215.45   14.20
   7 -13 -10  235.00   14.98
   6   7 -10  224.51   19.02
   6   7 -10  210.59   14.09
   7 -13 -10  214.97   18.62
   7 -13 -10  253.12   15.07
 -13   6 -10  245.65   19.93
 -13   6 -10  250.30   13.85
   6   7  -7   36.11    7.81
 -13   6  -7   34.41    8.10
 -13   6  -7   28.06    4.61
   6   7  -7   27.69    3.36
   6   7  -7   27.80    5.18
   7 -13  -7   26.79    7.72
   7 -13  -7   41.02    6.50
   7 -13  -7   27.43    4.89
   6   7  -7   24.10    5.12
 -13   6  -7   34.78    5.11
   7 -13  -7   30.87    5.53
   6   7  -4 2031.18   28.04
 -13   6  -4 1962.21   30.85
   7 -13  -4 1989.79   27.77
 -13   6  -4 1965.24   29.04
   7 -13  -4 2028.03   29.95
 -13   6  -4 2020.58   39.71
 -13   6  -4 2035.44   29.52
   6   7  -4 1984.74   29.12
   6   7  -4 2042.21   31.21
   6   7  -1   84.97    6.12
 -13   6  -1   91.59    7.29
 -13   6  -1   74.45    6.19
   6   7  -1   87.40    6.74
   6   7  -1   85.74    6.96
   7 -13  -1   74.90    5.68
   7 -13  -1   80.44    6.27
 -13   6  -1   89.30    6.13
 -13   6   2 1528.84   15.27
   7 -13   2 1531.36   30.53
 -13   6   2 1483.25   27.76
 -13   6   2 1486.61   30.67
   7 -13   2 1501.84   15.50
   6   7   2 1514.05   27.85
   6   7   2 1511.27   28.42
   7 -13   2 1493.16   28.42
 -13   6   2 1540.39   15.15
 -13   6   2 1529.17   28.57
   7 -13   5  394.48   10.19
   7 -13   5  397.96   10.55
   7 -12 -11  367.67   17.59
   7 -12 -11  377.81   19.05
   5   7 -11  352.53   24.30
   7 -12 -11  355.89   24.03
   5   7 -11  386.30   19.86
 -12   5 -11  413.10   26.35
   7 -12 -11  411.77   20.62
 -12   5 -11  326.80   16.98
   7 -12  -8   31.89    7.89
   7 -12  -8   28.98    5.60
   5   7  -8   44.40    9.11
 -12   5  -8   34.26    4.60
   7 -12  -8   34.86    6.04
 -12   5  -8   30.43    7.48
   5   7  -8   46.24    6.75
 -12   5  -8   38.37    5.88
 -12   5  -5 1522.43   26.10
 -12   5  -5 1508.85   26.06
 -12   5  -5 1516.51   36.35
   5   7  -5 1535.80   28.25
   5   7  -5 1552.70   25.48
   7 -12  -5 1487.52   24.40
   5   7  -5 1534.19   22.11
   7 -12  -5 1549.22   30.85
   7 -12  -5 1500.18   27.20
 -12   5  -5 1565.33   26.64
   5   7  -2  168.25    7.79
 -12   5  -2  176.16    9.16
   5   7  -2  183.70    8.50
   5   7  -2  162.61    8.63
   7 -12  -2  178.18    7.67
 -12   5  -2  178.72    7.82
   7 -12  -2  157.81    7.99
 -12   5  -2  166.67    8.33
 -12   5   1  474.74   15.15
   7 -12   1  480.70   14.68
   7 -12   1  480.20   15.56
 -12   5   1  483.03   14.28
   5   7   1  496.09   14.94
 -12   5   1  452.00   15.52
   5   7   1  457.43   14.38
   5   7   1  490.73   16.51
   5   7   4  416.81   15.17
   7 -11 -12   34.64    8.28
   4   7 -12   26.23   11.36
   4   7 -12    9.16    6.66
   7 -11 -12   18.16    9.06
 -11   4 -12    8.12    9.14
 -11   4 -12   20.28    7.63
   7 -11  -9  365.73   16.78
 -11   4  -9  360.14   15.95
   7 -11  -9  336.01   16.77
 -11   4  -9  330.85   21.30
 -11   4  -9  328.49   11.52
   7 -11  -9  347.90   16.00
   4   7  -9  352.04   17.06
   4   7  -9  350.28   21.77
   7 -11  -9  304.88   19.81
 -11   4  -6   14.86    3.79
 -11   4  -6   15.68    3.75
   4   7  -6   16.78    2.23
   4   7  -6   10.31    3.73
   7 -11  -6   16.09    4.24
   7 -11  -6   17.55    3.83
   7 -11  -6   13.88    4.37
 -11   4  -6   25.31    6.76
   4   7  -6   13.22    3.30
 -11   4  -6   14.88    3.48
   4   7  -3  190.81    9.16
   4   7  -3  193.66    7.96
 -11   4  -3  197.58    7.93
 -11   4  -3  195.18    9.26
   7 -11  -3  184.11    8.61
   4   7  -3  176.36    7.70
   7 -11  -3  174.24    7.25
 -11   4  -3  194.57    8.92
 -11   4   0  300.31    9.92
   4   7   0  304.70   11.78
   4   7   0  284.07   10.74
   7 -11   0  308.45   11.16
   4   7   0  293.62   10.31
 -11   4   0  289.91   11.28
   7 -11   0  281.34    9.85
 -11   4   0  289.97   11.40
   4   7   3  412.99   14.14
 -11   4   3  410.73   15.07
   4   7   3  416.97   15.20
 -11   4   3  385.65   13.35
   7 -11   6  103.02    3.75
   7 -11   6   97.06    3.57
   7 -10 -10  674.86   22.84
   3   7 -10  706.28   31.61
 -10   3 -10  696.12   23.50
   3   7 -10  754.47   26.29
   7 -10 -10  646.83   29.27
   7 -10 -10  718.01   22.37
 -10   3 -10  649.34   30.71
 -10   3 -10  702.26   25.79
   7 -10 -10  709.74   26.04
   7 -10  -7   35.67    5.39
   3   7  -7   33.00    4.85
   7 -10  -7   36.00    5.34
 -10   3  -7   29.18    5.05
 -10   3  -7   32.90    7.07
 -10   3  -7   30.10    4.31
   7 -10  -7   22.61    4.98
   3   7  -7   23.90    5.30
 -10   3  -7   26.42    5.17
   3   7  -4 2131.60   30.87
   7 -10  -4 2108.09   30.15
 -10   3  -4 2127.90   26.53
   3   7  -4 2115.10   24.88
 -10   3  -4 2067.26   28.43
 -10   3  -4 2078.10   28.93
   3   7  -4 2087.43   23.40
   7 -10  -4 2127.15   24.37
   7 -10  -1  265.07    8.36
   3   7  -1  267.44    9.55
   3   7  -1  280.14    8.99
   3   7  -1  262.08   10.09
 -10   3  -1  241.73    9.87
 -10   3  -1  272.24    8.43
 -10   3  -1  276.32   10.09
   7 -10  -1  264.53    9.61
   3   7   2 2056.50   29.42
 -10   3   2 1904.68   27.75
   3   7   2 2018.51   29.85
   7 -10   2 1975.93   31.32
   7 -10   2 2038.63   15.23
 -10   3   2 1959.31   29.06
   7 -10   2 2028.10   30.43
 -10   3   2 2049.05   15.84
 -10   3   2 2006.56   31.63
   3   7   5   50.81    5.82
   7 -10   5   52.64    3.29
  -9   2 -11  354.58   18.41
  -9   2 -11  354.14   19.40
   7  -9 -11  363.49   20.01
   2   7 -11  348.65   16.80
  -9   2 -11  361.93   24.14
   7  -9 -11  325.45   17.19
   2   7 -11  352.17   23.91
   2   7 -11  374.77   20.24
   7  -9 -11  377.41   23.30
   7  -9  -8  178.69   10.77
   7  -9  -8  147.77   11.14
   7  -9  -8  142.83    9.95
  -9   2  -8  148.67    8.03
   2   7  -8  137.80    9.46
  -9   2  -8  168.89   14.79
   7  -9  -8  156.57   10.04
   2   7  -8  154.91   11.25
  -9   2  -8  134.23    9.88
  -9   2  -5  771.58   17.22
   7  -9  -5  807.12   20.31
   2   7  -5  750.37   19.75
  -9   2  -5  783.13   19.01
  -9   2  -5  789.35   17.53
   2   7  -5  798.35   11.91
   7  -9  -5  830.44   16.25
   2   7  -5  808.74   15.79
   2   7  -2  692.00   12.40
  -9   2  -2  700.30   15.84
   7  -9  -2  716.69   11.64
  -9   2  -2  676.60   15.21
   2   7  -2  703.07   14.04
  -9   2  -2  721.98   12.19
   2   7  -2  676.01   15.55
   7  -9  -2  675.12   15.12
   7  -9   1  741.98   16.26
  -9   2   1  746.35   16.32
   7  -9   1  714.10   16.57
   2   7   1  731.89   10.37
   7  -9   1  750.02   12.22
   2   7   1  719.53   17.18
  -9   2   1  748.70   15.65
  -9   2   1  749.21   12.32
   2   7   1  742.38   16.18
   2   7   4   87.13    6.68
  -9   2   4  106.27    8.56
   7  -9   4   89.80    8.18
  -9   2   4   83.72    4.05
   2   7   4   83.56    7.68
   7  -9   4   86.34    4.49
  -8   1 -12   21.02    9.11
  -8   1 -12   32.26    7.65
   1   7 -12   30.61    8.53
   7  -8 -12   29.02    8.51
   7  -8 -12   28.57    9.81
  -8   1 -12   12.79    6.73
   1   7 -12   33.92   10.82
  -8   1  -9  309.82   15.65
   7  -8  -9  297.03   13.22
  -8   1  -9  335.29   16.29
   1   7  -9  311.69   19.89
   7  -8  -9  297.04   14.34
   7  -8  -9  299.48   16.71
   7  -8  -9  282.81   18.55
  -8   1  -9  337.21   11.50
   1   7  -9  290.21   16.31
  -8   1  -9  272.14   19.09
   1   7  -9  343.02   14.57
   1   7  -6  241.50    9.42
  -8   1  -6  243.71   11.59
   1   7  -6  231.12   11.90
  -8   1  -6  248.15    9.91
   7  -8  -6  232.33   12.04
  -8   1  -6  220.71   10.48
   7  -8  -6  246.57    9.94
   7  -8  -3 1229.56   13.93
   7  -8  -3 1164.67   20.89
   1   7  -3 1148.87   21.08
   1   7  -3 1216.60   16.15
  -8   1  -3 1195.92   15.57
  -8   1  -3 1180.74   20.12
   1   7  -3 1224.87   15.03
  -8   1  -3 1148.04   20.34
  -8   1   0  464.89   12.16
   1   7   0  476.19   12.15
   7  -8   0  457.03   11.92
  -8   1   0  467.04   10.48
   7  -8   0  484.26   11.03
   1   7   0  472.11   11.12
   1   7   0  451.34   12.20
   1   7   0  478.51   10.64
   1   7   3 1849.30   27.04
   1   7   3 1815.00   29.71
  -8   1   3 1828.39   24.80
   7  -8   3 1838.92   13.77
   7  -8   3 1891.74   21.18
  -8   1   3 1897.67   17.02
  -8   1   3 1804.44   29.47
   1   7   3 1839.54   16.47
   7  -8   3 1882.44   31.04
   7  -8   6  223.70    4.84
  -7   0 -10  448.96   12.83
  -7   0 -10  457.27   19.89
   7  -7 -10  413.05   21.10
  -7   0 -10  438.09   19.94
   0   7 -10  438.91   21.33
   7  -7 -10  440.35   23.50
  -7   0 -10  469.18   25.02
   7  -7 -10  470.29   16.05
   0   7 -10  438.42   24.08
   7  -7 -10  482.61   18.69
   0   7 -10  496.58   17.98
  -7   0  -7    9.51    2.77
   7  -7  -7   11.77    3.21
  -7   0  -7    7.96    3.93
   0   7  -7    7.75    3.14
   7  -7  -7    7.92    3.99
   0   7  -7    8.44    4.46
  -7   0  -7   17.70    6.28
   7  -7  -4  265.64   11.06
  -7   0  -4  250.81   10.36
  -7   0  -4  259.51    9.56
   0   7  -4  239.27   10.55
  -7   0  -4  247.36    8.35
   0   7  -4  278.17    7.25
   7  -7  -4  261.73    7.13
   0   7  -1   13.30    2.10
   7  -7  -1   12.13    2.85
  -7   0  -1   14.74    1.94
   7  -7  -1   15.42    1.96
  -7   0  -1    7.16    2.20
  -7   0  -1   13.55    2.89
   0   7  -1   10.25    2.78
   0   7  -1   13.76    2.40
   7  -7   2 1280.56   12.72
  -7   0   2 1257.23   21.82
   7  -7   2 1247.43   17.50
  -7   0   2 1258.12   21.79
   7  -7   2 1274.46   21.85
  -7   0   2 1225.90   19.05
   0   7   2 1240.72   12.92
   0   7   2 1225.23   21.99
   0   7   2 1219.86   20.54
  -7   0   2 1253.59   14.05
   0   7   2 1282.82   22.35
   7  -7   2 1248.01   22.44
  -7   0   5    5.28    2.08
   7  -7   5    5.93    1.49
  -6  -1 -11  104.03   10.97
   7  -6 -11   92.75   12.45
  -6  -1 -11   90.41   10.66
   7  -6 -11  115.22   12.97
  -1   7 -11  108.64   14.38
  -1   7 -11   97.26   11.56
   7  -6 -11  103.53    9.74
  -6  -1 -11  112.55   13.38
  -1   7 -11  102.52    9.10
   7  -6  -8  137.94    8.26
  -6  -1  -8  147.85    8.06
   7  -6  -8  144.96   11.86
  -6  -1  -8  139.15   10.76
  -6  -1  -8  138.35    9.64
  -6  -1  -8  133.39   12.50
   7  -6  -8  149.25    8.93
   7  -6  -8  115.08    8.35
  -1   7  -8  146.03    8.76
  -1   7  -8  134.21    8.79
  -1   7  -8  146.21   11.70
  -1   7  -5   43.89    5.56
  -6  -1  -5   34.06    3.92
  -1   7  -5   44.10    3.68
   7  -6  -5   41.91    3.66
  -6  -1  -5   36.29    4.73
   7  -6  -5   45.11    5.73
  -6  -1  -2  414.72    6.12
  -1   7  -2  407.94    9.05
  -6  -1  -2  395.41   11.23
  -1   7  -2  403.79   11.61
  -1   7  -2  404.25    6.39
   7  -6  -2  409.75   11.58
  -6  -1  -2  398.01   11.14
  -1   7   1  173.38    7.34
  -6  -1   1  167.20    6.97
   7  -6   1  161.18    7.16
  -6  -1   1  165.65    5.78
   7  -6   1  170.24    6.66
  -1   7   1  166.23    7.11
   7  -6   1  171.85    7.07
  -6  -1   1  179.45    7.10
  -6  -1   1  175.21    7.30
   7  -6   1  166.03    5.56
  -1   7   1  178.15    7.48
  -1   7   1  171.08    5.23
  -6  -1   4  211.92    7.54
   7  -6   4  229.92    7.31
  -6  -1   4  225.61    8.17
  -1   7   4  209.39    7.93
   7  -6   4  222.95    6.73
  -2   7 -12   60.23   11.58
  -5  -2 -12   58.06    9.71
   7  -5 -12   68.15   11.53
  -2   7 -12   90.24   12.66
   7  -5 -12   40.98    8.96
  -5  -2 -12   65.48    9.82
  -5  -2 -12   69.72   12.49
  -5  -2  -9  227.48   13.00
  -5  -2  -9  233.79   17.00
   7  -5  -9  231.05   11.94
  -2   7  -9  243.18   11.56
  -5  -2  -9  247.27   10.42
   7  -5  -9  219.69   14.94
   7  -5  -9  220.79   10.13
  -5  -2  -9  222.77   14.24
  -2   7  -9  208.20   12.04
  -2   7  -9  221.99   15.15
   7  -5  -9  206.98   10.21
   7  -5  -6  115.12    7.25
   7  -5  -6  116.94    6.37
  -2   7  -6  123.11    6.10
  -5  -2  -6  122.56    7.18
  -2   7  -6  104.24    8.79
  -5  -2  -6  120.26    8.90
   7  -5  -6  105.50    8.61
  -5  -2  -6  124.65    7.56
  -2   7  -6  131.71    6.75
  -5  -2  -3 3203.64   19.93
  -5  -2  -3 3085.21   33.62
   7  -5  -3 3152.88   34.62
  -2   7  -3 3055.53   34.83
  -5  -2  -3 3161.12   31.38
  -5  -2   0 3538.88   30.11
   7  -5   0 3616.19   30.73
  -5  -2   0 3553.58   29.40
  -2   7   0 3625.03   29.18
  -2   7   0 3564.16   26.95
   7  -5   0 3551.36   26.29
  -5  -2   0 3549.09   29.65
  -5  -2   0 3540.81   24.43
   7  -5   0 3617.19   28.80
  -2   7   0 3554.89   27.27
   7  -5   0 3558.62   29.08
   7  -5   3 4105.65   29.96
   7  -5   3 4053.70   28.47
  -5  -2   3 4177.01   31.76
  -5  -2   3 3997.58   30.45
  -2   7   3 4066.25   31.17
  -5  -2   3 3994.09   38.52
  -5  -2   6  367.05   13.75
   7  -5   6  347.36    7.97
   7  -4 -10  122.13    9.58
  -4  -3 -10  115.96   13.02
  -4  -3 -10  128.78   10.81
  -4  -3 -10  127.82    7.78
  -3   7 -10  128.34   12.40
  -4  -3 -10  136.16   12.29
   7  -4 -10  127.61   13.02
  -3   7 -10  137.55    9.55
   7  -4 -10  142.81    7.68
  -4  -3  -7    2.61    2.83
   7  -4  -7    5.94    2.96
  -4  -3  -7    8.81    4.84
  -4  -3  -7    7.25    2.95
   7  -4  -7    8.17    4.74
   7  -4  -7    5.63    2.62
  -3   7  -7    2.59    2.20
  -3   7  -7    9.61    4.52
   7  -4  -4  410.36   12.01
  -4  -3  -4  426.21   12.24
  -3   7  -4  402.76    6.87
   7  -4  -4  400.97   14.20
   7  -4  -4  417.29    7.78
  -3   7  -4  410.34   14.34
  -3   7  -4  415.28    7.16
  -4  -3  -4  406.89    9.16
  -4  -3  -4  408.64   13.86
  -3   7  -1 2200.97   24.91
   7  -4  -1 2185.33   25.61
  -4  -3  -1 2146.29   24.02
  -3   7  -1 2217.90   24.13
  -4  -3  -1 2262.35   26.46
   7  -4  -1 2188.44   23.67
   7  -4  -1 2185.62   24.43
   7  -4   2  510.81   10.91
  -4  -3   2  476.92   10.15
  -3   7   2  505.67   10.44
  -4  -3   2  491.42   11.51
  -4  -3   2  504.26   10.55
  -3   7   2  502.65   11.47
   7  -4   2  523.63   10.20
   7  -4   2  528.76   12.04
  -4  -3   5  338.96   12.33
  -3   7   5  342.10   12.55
   7  -4   5  329.81   11.27
   7  -4   5  328.85    8.72
  -4   7 -11   72.82   10.92
  -4   7 -11   66.07    7.53
   7  -3 -11   65.04   10.61
   7  -3 -11   60.51   10.39
  -3  -4 -11   56.92    9.32
  -3  -4 -11   59.17    8.78
  -4   7 -11   48.80   10.12
  -3  -4 -11   58.29    9.87
   7  -3 -11   43.92    7.00
   7  -3  -8  394.02   12.36
   7  -3  -8  414.63   19.72
  -3  -4  -8  381.06   15.22
  -3  -4  -8  390.16   18.13
  -4   7  -8  407.69   19.32
  -4   7  -8  395.43   12.87
  -3  -4  -8  443.41   14.32
   7  -3  -8  421.98   14.56
  -4   7  -5  278.01    7.19
  -3  -4  -5  267.67   12.65
  -4   7  -5  268.17   12.88
   7  -3  -5  265.51   13.01
   7  -3  -5  284.04    8.27
  -3  -4  -5  255.02    8.91
  -3  -4  -5  255.27    9.99
   7  -3  -2  475.72   11.66
   7  -3  -2  458.50   13.06
  -3  -4  -2  475.79   12.60
  -3  -4  -2  463.15   13.30
  -4   7  -2  460.33   13.05
  -4   7  -2  460.09   12.67
  -3  -4  -2  465.03   11.83
   7  -3  -2  464.00   12.30
   7  -3   1 2822.54   24.38
  -4   7   1 2790.77   23.85
  -4   7   1 2789.49   22.85
  -3  -4   1 2758.37   24.79
  -3  -4   1 2750.65   24.69
   7  -3   1 2739.72   23.14
   7  -3   1 2729.43   25.93
  -3  -4   1 2685.13   23.40
  -3  -4   4  312.84   11.15
   7  -3   4  320.59   10.44
  -3  -4   4  331.59    7.47
  -4   7   4  324.75   11.23
   7  -3   4  309.21    8.82
   7  -3   7   14.30    2.55
  -2  -5 -12   70.77   11.49
  -2  -5 -12   63.84   11.28
  -2  -5 -12   95.33   10.87
  -5   7 -12   60.23   11.21
  -5   7 -12   83.26   12.41
   7  -2 -12   84.98   12.55
   7  -2 -12   73.95   11.40
  -2  -5  -9  940.39   30.13
   7  -2  -9  887.72   22.62
  -2  -5  -9  906.25   21.70
  -2  -5  -9  826.05   29.37
   7  -2  -9  889.54   30.68
   7  -2  -9  909.54   17.02
  -5   7  -9  901.82   21.24
  -2  -5  -9  908.57   24.74
   7  -2  -9  820.89   16.47
  -5   7  -9  887.58   30.61
   7  -2  -6  231.43    8.82
  -2  -5  -6  238.93    9.70
  -5   7  -6  202.71   12.88
   7  -2  -6  225.75   13.12
  -2  -5  -6  251.03   13.32
  -5   7  -6  222.18    7.61
  -2  -5  -6  234.89   10.27
   7  -2  -6  237.57    9.18
  -5   7  -3 3809.97   40.62
  -2  -5  -3 3721.35   35.44
   7  -2  -3 3800.24   40.22
   7  -2  -3 3762.86   32.98
  -2  -5  -3 3717.10   39.52
   7  -2  -3 3778.83   40.25
  -5   7  -3 3799.19   41.02
   7  -2  -3 3784.56   19.43
  -2  -5  -3 3771.59   20.35
  -2  -5   0 3564.73   27.50
  -5   7   0 3474.81   26.55
  -2  -5   0 3530.93   29.59
   7  -2   0 3632.81   29.52
   7  -2   0 3524.84   26.30
  -5   7   0 3601.41   28.60
  -2  -5   0 3462.98   29.32
  -5   7   3 2791.06   30.29
  -2  -5   3 2748.39   30.64
   7  -2   3 2845.06   27.41
   7  -2   3 2731.60   28.73
  -2  -5   3 2812.20   21.84
  -2  -5   3 2765.70   25.98
  -2  -5   6  200.09   11.37
   7  -2   6  197.21    7.75
  -5   7   6  198.27   11.35
   7  -1 -10   99.07   12.62
   7  -1 -10  103.54    9.07
  -1  -6 -10  115.69    8.36
  -1  -6 -10  103.85   11.89
  -1  -6 -10  107.08   12.02
  -6   7 -10  102.72    8.10
  -6   7 -10  124.52   13.25
  -1  -6 -10   95.38    9.40
   7  -1  -7  290.14   15.89
  -6   7  -7  262.99   15.41
  -6   7  -7  268.14    9.60
  -1  -6  -7  252.71   14.66
   7  -1  -7  272.98    9.49
   7  -1  -7  270.27   10.72
  -1  -6  -7  271.79   11.54
  -1  -6  -7  273.27   11.64
   7  -1  -4  289.84    9.46
  -6   7  -4  294.76    6.30
  -6   7  -4  297.96   12.68
  -1  -6  -4  330.44   13.53
   7  -1  -4  292.68   12.91
  -6   7  -4  335.97   13.82
   7  -1  -4  306.45   12.54
   7  -1  -4  316.97    7.74
  -1  -6  -4  303.04    7.97
  -1  -6  -4  310.08   11.06
  -1  -6  -1  410.69    7.48
  -1  -6  -1  428.82   11.24
  -1  -6  -1  403.64   11.07
   7  -1  -1  405.44   10.88
  -6   7  -1  401.11   10.66
   7  -1  -1  417.46   10.71
  -6   7  -1  406.54   10.86
  -1  -6  -1  415.83   10.96
   7  -1  -1  417.32   10.55
   7  -1   2  204.03    7.79
  -1  -6   2  202.88    6.55
  -1  -6   2  197.86    7.86
  -6   7   2  210.82    8.07
   7  -1   2  194.91    7.63
  -1  -6   2  198.79    5.94
  -6   7   2  205.90    5.75
   7  -1   2  210.40    6.22
  -1  -6   5   22.08    1.54
  -6   7   5   25.62    4.41
   7  -1   5   28.16    3.45
   7  -1   5   29.25    4.48
  -1  -6   5   19.23    4.22
   7  -1   8   79.75    5.63
  -7   7 -11    9.38    4.82
   0  -7 -11    3.44    6.55
   0  -7 -11    5.70    5.99
   7   0 -11    7.95    6.85
  -7   7 -11   14.17    7.73
   0  -7 -11    9.99    5.58
   7   0 -11    3.04    4.38
   7   0  -8  582.63   17.30
   0  -7  -8  637.27   19.22
   0  -7  -8  613.52   24.08
   7   0  -8  625.60   25.06
   0  -7  -8  653.56   19.12
   7   0  -8  606.79   13.27
  -7   7  -8  610.79   24.91
  -7   7  -8  612.65   16.16
   7   0  -5    5.65    3.82
   7   0  -5    5.93    2.33
  -7   7  -5    8.07    4.46
   7   0  -5   10.24    3.88
  -7   7  -5   10.78    4.33
   7   0  -5    3.88    1.86
  -7   7  -5    7.60    2.06
   0  -7  -5   11.24    3.28
   0  -7  -5    8.01    4.39
   0  -7  -5    6.59    2.25
   0  -7  -2 1364.50   13.45
   7   0  -2 1387.88   21.85
   0  -7  -2 1342.70   22.90
   7   0  -2 1315.03   22.05
  -7   7  -2 1360.51   14.15
   7   0  -2 1379.12   15.34
   0  -7  -2 1303.11   21.65
  -7   7  -2 1330.82   22.80
   0  -7  -2 1396.19   21.98
  -7   7  -2 1402.86   21.69
   7   0  -2 1321.09   19.54
   7   0   1   15.60    2.97
   0  -7   1   14.40    2.05
   7   0   1   16.80    2.81
  -7   7   1   14.78    2.72
   0  -7   1   14.30    2.73
   7   0   1   11.72    1.70
   0  -7   1   11.17    2.39
  -7   7   1   14.56    1.72
  -7   7   4  322.72   12.47
   0  -7   4  332.55   12.88
   7   0   4  332.96   10.55
   0  -7   4  310.72    6.63
   7   0   4  342.03   12.36
   7   0   7    8.21    2.89
   7   1 -12  104.98   14.64
  -8   7 -12   95.18   12.91
   1  -8 -12  113.02   11.49
   1  -8 -12   88.58   12.14
  -8   7 -12  111.37   14.69
   7   1 -12  110.41   12.68
   1  -8 -12   98.01   13.69
   1  -8  -9  992.77   32.56
   7   1  -9  973.03   24.23
   7   1  -9  923.95   32.49
  -8   7  -9  973.16   22.28
   1  -8  -9  955.35   25.50
   1  -8  -9  964.95   24.13
  -8   7  -9  980.99   33.77
   1  -8  -6  168.95    8.53
   7   1  -6  186.82    8.59
  -8   7  -6  180.07   12.47
   7   1  -6  177.14   11.23
   1  -8  -6  188.08   10.02
   1  -8  -6  190.08   12.49
   7   1  -6  182.03   12.48
  -8   7  -6  185.07    7.50
   7   1  -6  192.58    7.73
  -8   7  -3 2530.63   31.83
   1  -8  -3 2485.52   35.25
   7   1  -3 2454.08   23.03
   1  -8  -3 2367.27   21.56
   7   1  -3 2490.09   34.72
  -8   7  -3 2407.77   35.19
   7   1  -3 2454.32   27.12
   1  -8  -3 2363.63   31.06
  -8   7  -3 2421.15   20.52
   1  -8  -3 2510.43   31.76
   7   1  -3 2437.78   31.29
   1  -8   0  411.57   11.40
   7   1   0  411.72    9.15
   7   1   0  420.63   11.18
   1  -8   0  429.58   11.25
   7   1   0  397.57   11.21
  -8   7   0  418.22   10.97
  -8   7   0  422.07    9.83
   1  -8   0  414.99   10.03
   7   1   3  799.30   16.73
   7   1   3  802.25   18.19
   1  -8   3  811.66   12.52
   1  -8   3  825.45   18.98
  -8   7   3  819.96   18.55
   1  -8   3  797.56   10.49
   7   1   6  465.51   14.04
   2  -9 -10   44.38    9.12
   7   2 -10   48.36    6.85
   7   2 -10   63.33   10.72
   2  -9 -10   51.48    8.42
  -9   7 -10   61.39    6.62
   2  -9 -10   50.39    6.71
  -9   7 -10   54.93   10.21
   2  -9 -10   57.85    7.51
   2  -9  -7  232.29   11.81
   7   2  -7  246.09    8.48
   7   2  -7  220.21   15.05
  -9   7  -7  239.10    9.75
   7   2  -7  238.91   10.90
   2  -9  -7  241.08   11.10
  -9   7  -7  228.42   15.29
   2  -9  -7  237.09   14.97
   2  -9  -4  159.18    8.93
  -9   7  -4  160.49   10.59
   7   2  -4  179.04   10.91
   7   2  -4  154.68    6.91
  -9   7  -4  142.11    6.69
  -9   7  -4  154.61    8.80
   2  -9  -4  157.57    6.75
   7   2  -4  166.73    7.32
   7   2  -4  159.61    8.99
   2  -9  -4  181.38   10.93
  -9   7  -4  164.85    6.27
   2  -9  -4  156.62    8.77
   7   2  -1  391.36   10.86
   7   2  -1  365.11   11.08
   2  -9  -1  382.96   11.69
   7   2  -1  395.32   11.42
   2  -9  -1  381.58   10.99
   2  -9  -1  373.93    9.61
  -9   7  -1  387.43   10.95
  -9   7  -1  381.27   11.62
   7   2  -1  383.74   11.02
  -9   7  -1  366.77   10.17
   2  -9   2  569.59   15.17
   7   2   2  615.14   15.43
   2  -9   2  581.49   12.36
   2  -9   2  596.97    8.31
   7   2   2  572.20   14.58
   7   2   2  579.45    7.32
  -9   7   2  588.10   15.11
   7   2   5  910.88   23.27
   2  -9   5  905.37    9.90
   7   2   5  932.32   20.01
   7   2   8   75.17    6.92
   7   3 -11   53.39    8.06
   3 -10 -11   49.96    9.64
   3 -10 -11   46.82    6.66
   3 -10 -11   62.00   11.34
   7   3 -11   65.91   11.83
   3 -10 -11   48.64    7.85
 -10   7 -11   60.49   10.85
   3 -10  -8 1175.45   26.39
   7   3  -8 1153.44   25.76
   7   3  -8 1106.54   16.04
   7   3  -8 1205.72   36.33
   3 -10  -8 1094.96   33.57
 -10   7  -8 1112.66   35.35
   3 -10  -8 1163.52   27.39
 -10   7  -8 1161.96   23.48
   7   3  -5   81.03    6.89
 -10   7  -5   74.30    5.27
 -10   7  -5   76.88    7.12
   7   3  -5   77.57    5.21
   7   3  -5   79.36    5.89
   3 -10  -5   61.37    7.52
   3 -10  -5   88.05    5.96
   3 -10  -5   72.33    6.68
 -10   7  -5   84.50    8.83
   3 -10  -5   83.64    7.20
 -10   7  -5   88.07    5.43
   7   3  -5   87.30    8.39
   7   3  -2 1539.56   25.66
 -10   7  -2 1528.91   20.77
   7   3  -2 1513.85   23.26
 -10   7  -2 1510.86   22.81
 -10   7  -2 1478.40   23.00
   7   3  -2 1485.79   21.22
   3 -10  -2 1517.83   25.69
   3 -10  -2 1474.34   19.45
 -10   7  -2 1551.22   26.79
   3 -10  -2 1582.86   23.37
   3 -10  -2 1564.73   26.77
   7   3  -2 1511.95   22.65
   7   3   1  577.62    8.60
   7   3   1  536.72   14.12
 -10   7   1  578.80    9.84
   7   3   1  569.62   14.84
   3 -10   1  574.91   14.74
   3 -10   1  588.60   10.57
   3 -10   1  581.09   14.00
 -10   7   1  548.02   14.26
   3 -10   4 2203.24   36.05
   3 -10   4 2171.51   20.87
   7   3   4 2203.06   34.82
   7   3   4 2224.66   31.41
 -10   7   4 2144.88   35.05
   7   3   7    8.79    3.61
   4 -11 -12   20.01    7.28
 -11   7 -12   26.26    8.73
   7   4 -12   21.51    9.96
   4 -11 -12   12.71    6.25
 -11   7 -12   15.26    9.01
   4 -11 -12   29.15   10.06
   4 -11  -9  536.44   19.59
 -11   7  -9  468.69   25.00
   4 -11  -9  482.31   24.31
   4 -11  -9  489.54   18.94
   7   4  -9  472.41   18.16
 -11   7  -9  477.15   16.60
   7   4  -9  459.48   24.29
   4 -11  -6   94.57    8.28
 -11   7  -6  105.48    6.42
   7   4  -6  123.84    7.95
   4 -11  -6  110.35    7.38
   7   4  -6  100.24    5.86
 -11   7  -6  105.71   10.41
   7   4  -6   93.82    9.85
   4 -11  -6  109.41    8.74
 -11   7  -6  102.95    6.60
   4 -11  -6  126.88   11.20
   7   4  -6   98.03    8.21
   7   4  -3  534.93   17.43
 -11   7  -3  505.74   12.38
   4 -11  -3  514.30   16.32
 -11   7  -3  506.10   14.06
   4 -11  -3  470.91   16.69
   4 -11  -3  472.64   12.19
 -11   7  -3  540.82   18.18
   4 -11  -3  500.79   13.95
 -11   7  -3  533.90   14.60
   7   4  -3  510.44   13.52
   7   4  -3  506.03   14.19
   7   4  -3  515.98   13.42
 -11   7   0  333.46   10.07
   4 -11   0  348.29   11.95
 -11   7   0  353.31   12.50
   7   4   0  332.07   12.26
   7   4   0  323.29   11.58
   7   4   0  327.19    9.03
 -11   7   0  352.90   11.28
   4 -11   0  362.23   10.64
 -11   7   0  354.94   12.34
   4 -11   0  342.06   11.49
   7   4   0  345.36   11.48
   4 -11   0  338.21   11.25
   7   4   3  228.87   10.48
 -11   7   3  241.66   11.49
   4 -11   3  236.19   11.51
   4 -11   3  223.73    8.10
   7   4   3  233.07   11.16
   7   4   6   47.34    5.94
 -12   7 -10   14.49    8.08
   7   5 -10   17.79    7.72
   7   5 -10   17.87    5.69
   5 -12 -10   16.09    5.14
   5 -12 -10    6.77    4.21
 -12   7 -10    8.95    3.97
   5 -12 -10   -0.13    6.83
   5 -12 -10   17.55    6.68
 -12   7  -7  798.46   19.36
 -12   7  -7  763.59   28.74
   7   5  -7  790.73   28.65
   7   5  -7  784.77   15.39
 -12   7  -7  774.45   17.73
   7   5  -7  789.15   21.10
   5 -12  -7  810.39   21.37
   5 -12  -7  811.27   23.66
   5 -12  -7  764.68   27.92
 -12   7  -4  257.40   10.66
   5 -12  -4  299.70   11.51
   7   5  -4  275.17   14.02
   7   5  -4  277.53   10.74
   7   5  -4  287.52   11.56
 -12   7  -4  275.43   11.36
   7   5  -4  288.70   10.54
   5 -12  -4  277.11   13.06
 -12   7  -4  265.58   10.02
   5 -12  -4  291.37   10.58
 -12   7  -4  289.22   15.21
   5 -12  -4  285.32   14.57
   5 -12  -1  331.58   12.11
   5 -12  -1  347.80   13.01
 -12   7  -1  329.43   11.60
   7   5  -1  331.62   12.14
   7   5  -1  338.78   11.97
   7   5  -1  317.15   11.17
   5 -12  -1  336.61   11.33
 -12   7  -1  321.25   12.27
   5 -12  -1  350.91   11.38
 -12   7  -1  353.30   11.42
   7   5  -1  327.96   11.15
 -12   7  -1  352.48   12.37
 -12   7   2  183.43    4.36
   7   5   2  181.77    9.54
   7   5   2  207.21   10.28
 -12   7   2  195.10    9.90
   5 -12   2  192.34    8.54
   5 -12   2  175.19    9.72
   5 -12   2  194.50    5.16
   5 -12   5 1386.06   17.06
   7   5   5 1387.53   27.92
   7   6 -11    5.33    7.50
   6 -13 -11    0.88    5.59
   6 -13 -11    7.25    7.98
 -13   7 -11   11.77    9.11
   6 -13 -11   10.02    5.31
   6 -13 -11    8.85    6.12
   7   6 -11    8.80    5.88
 -13   7  -8  692.77   19.70
   6 -13  -8  622.83   27.04
 -13   7  -8  689.18   17.10
   6 -13  -8  686.54   23.19
   6 -13  -8  744.69   22.43
   7   6  -8  683.03   21.42
   7   6  -8  567.71   12.71
   7   6  -8  653.64   28.14
 -13   7  -8  683.05   29.26
   7   6  -5  440.22   14.75
   6 -13  -5  451.15   19.61
   7   6  -5  461.67   13.38
 -13   7  -5  464.99   14.93
 -13   7  -5  444.47   13.72
   7   6  -5  450.68   15.15
   6 -13  -5  444.86   17.24
 -13   7  -5  488.74   16.15
   7   6  -5  476.97   19.86
 -13   7  -5  477.49   20.94
   6 -13  -5  460.34   14.54
   6 -13  -5  475.56   15.22
   6 -13  -2 1510.53   28.79
   7   6  -2 1644.30   26.02
   7   6  -2 1592.83   26.22
 -13   7  -2 1574.39   25.48
   7   6  -2 1617.00   28.17
   6 -13  -2 1577.81   24.58
   7   6  -2 1543.77   26.04
   6 -13  -2 1625.47   25.00
 -13   7  -2 1628.07   28.07
 -13   7  -2 1660.89   25.30
 -13   7  -2 1636.00   30.23
   6 -13   1   57.30    6.38
   6 -13   1   57.19    4.20
   6 -13   1   59.89    5.79
 -13   7   1   51.58    5.80
   7   6   1   58.30    3.43
   7   6   1   45.37    5.61
 -13   7   1   55.47    6.11
 -13   7   1   74.20    6.42
   7   6   1   53.75    5.66
 -13   7   1   56.25    4.11
   7   6   4 2004.57   33.86
   6 -13   4 2099.52   25.39
   7 -14 -12   18.58    9.24
   7 -14 -12   39.41    8.51
   7   7 -12   38.30   12.13
 -14   7 -12   37.69    9.36
   7   7  -9  191.43   16.95
   7 -14  -9  193.98   16.83
 -14   7  -9  205.95   17.94
   7   7  -9  209.33   13.17
 -14   7  -9  200.56   11.89
   7 -14  -9  188.46   12.48
 -14   7  -9  188.76    9.48
   7 -14  -9  186.32   13.25
 -14   7  -6    6.56    6.41
 -14   7  -6    4.16    2.73
   7   7  -6    5.80    5.63
   7 -14  -6    3.95    5.72
   7   7  -6    0.63    3.22
   7   7  -6    2.34    2.37
   7 -14  -6    1.40    3.27
 -14   7  -6    8.71    3.36
   7   7  -6    1.22    3.42
   7 -14  -6    5.29    3.08
   7 -14  -6    2.96    3.95
   7 -14  -3 1573.04   26.09
   7 -14  -3 1560.92   25.20
 -14   7  -3 1541.13   26.14
   7   7  -3 1515.95   27.28
 -14   7  -3 1555.86   32.82
   7   7  -3 1564.71   26.37
   7   7  -3 1506.80   25.65
 -14   7  -3 1517.40   28.09
   7   7  -3 1533.11   31.13
 -14   7  -3 1513.45   25.28
   7 -14   0   11.32    3.06
 -14   7   0    2.61    2.49
   7 -14   0    1.73    2.88
 -14   7   0    2.81    4.13
   7   7   0    4.06    2.42
   7 -14   0    2.55    2.75
   7   7   0    3.05    3.36
   7   7   0    9.04    3.61
   7   7   0    5.86    3.14
 -14   7   0    6.10    3.27
 -14   7   0    4.49    2.67
   7 -14   3 1293.52   22.90
   7 -14   6    8.32    2.03
   7 -14   6    5.37    1.70
   7   8 -10  111.13   14.51
   7   8 -10  122.74   11.44
 -15   7 -10  145.24   16.09
 -15   7 -10  133.98   10.72
   8 -15 -10  133.56   15.77
   8 -15 -10  133.94   11.56
   8 -15 -10  137.68   12.13
   8 -15 -10  136.36   11.83
 -15   7  -7  330.05   14.05
   7   8  -7  353.30   15.65
 -15   7  -7  362.97   21.07
 -15   7  -7  343.53   14.15
   8 -15  -7  325.71   16.43
   7   8  -7  360.16   20.84
   8 -15  -7  320.02   14.20
   8 -15  -7  347.87   15.17
   8 -15  -7  323.10   19.57
   7   8  -7  321.15   11.18
 -15   7  -4  469.62   20.13
   7   8  -4  485.96   15.19
   8 -15  -4  473.05   14.48
   8 -15  -4  464.65   15.29
   7   8  -4  478.71   15.27
   7   8  -4  477.77   19.48
   8 -15  -4  463.39   18.31
 -15   7  -4  462.77   16.34
 -15   7  -4  493.45   15.38
   7   8  -4  474.57   16.30
 -15   7  -4  494.65   15.71
 -15   7  -1 2163.02   30.78
 -15   7  -1 2217.15   35.88
 -15   7  -1 2227.06   34.01
   7   8  -1 2237.37   35.55
   7   8  -1 2277.93   34.63
   8 -15  -1 2156.88   32.95
 -15   7  -1 2276.28   35.15
   7   8  -1 2205.11   32.18
   8 -15  -1 2176.87   30.95
   7   8  -1 2180.06   30.98
   8 -15   2  349.94   15.79
 -15   7   2  333.19   15.68
 -15   7   2  320.48    8.08
 -15   7   2  334.69   14.53
   7   8   2  301.83    5.07
   7   8   2  296.14    4.97
 -15   7   2  324.90    8.24
   8 -15   2  329.59    8.38
   8 -15   5 1037.14   18.76
 -14   6 -11  189.25   13.10
   6   8 -11  193.55   19.36
   6   8 -11  210.77   15.26
 -14   6 -11  212.19   20.43
   8 -14 -11  209.81   18.83
   8 -14 -11  199.25   14.88
   8 -14 -11  199.07   14.15
   8 -14  -8  270.90   18.88
 -14   6  -8  278.06   19.64
 -14   6  -8  264.32   13.27
   6   8  -8  272.69   19.12
   8 -14  -8  216.92   13.19
   8 -14  -8  224.71   13.90
 -14   6  -8  255.40   11.77
   6   8  -8  261.69   14.39
   8 -14  -5  575.68   15.88
   8 -14  -5  590.83   20.39
 -14   6  -5  591.12   17.23
   6   8  -5  578.31   15.29
   8 -14  -5  568.31   17.32
   6   8  -5  586.57   18.22
 -14   6  -5  620.60   24.33
 -14   6  -5  598.87   17.25
   6   8  -5  582.17   16.65
   6   8  -2  287.04   11.08
   6   8  -2  305.14   12.60
 -14   6  -2  315.50   12.27
 -14   6  -2  291.24   12.71
 -14   6  -2  294.16   10.77
   8 -14  -2  303.46   10.90
   8 -14  -2  327.88   12.44
   6   8  -2  290.79   11.90
   6   8   1 1909.05   31.79
   8 -14   1 1950.61   31.34
   6   8   1 1844.58   30.77
 -14   6   1 1875.00   32.37
 -14   6   1 1867.61   29.99
   6   8   1 1915.37   34.87
 -14   6   1 1968.32   34.37
   6   8   1 1917.35   19.89
   8 -14   7  378.34    6.23
   8 -13 -12  125.75   12.96
 -13   5 -12  139.31   17.55
   8 -13 -12  101.24   14.97
   5   8 -12   90.73   11.72
   5   8 -12  105.74   15.67
 -13   5  -9   44.00   10.14
 -13   5  -9   48.90    5.59
   5   8  -9   52.32   10.07
   8 -13  -9   57.73    8.03
   8 -13  -9   55.52    7.75
 -13   5  -9   56.44    7.31
   8 -13  -9   50.46   10.15
   5   8  -9   57.54    7.89
 -13   5  -6  313.87   13.16
   5   8  -6  309.96   10.08
 -13   5  -6  315.22   13.19
   5   8  -6  303.70   12.23
   8 -13  -6  300.22   11.74
   5   8  -6  310.66   13.85
 -13   5  -6  321.14   12.86
   8 -13  -6  319.79   14.03
   8 -13  -6  299.83   14.65
 -13   5  -6  273.83   17.24
   5   8  -3  703.16   16.80
 -13   5  -3  698.55   15.88
   5   8  -3  672.53   15.80
   5   8  -3  714.31   18.67
 -13   5  -3  702.25   17.70
 -13   5  -3  674.26   18.50
   8 -13  -3  684.00   15.08
   8 -13  -3  673.46   17.36
   5   8   0 1913.82   29.90
   8 -13   0 1923.11   28.11
 -13   5   0 1848.22   30.72
 -13   5   0 1989.50   31.79
 -13   5   0 1972.83   27.71
   5   8   0 1881.06   31.70
   8 -13   0 1923.08   30.23
   5   8   0 1904.30   28.48
   5   8   3  250.82   12.17
 -13   5   3  228.42   11.57
   8 -13   6  240.88    7.35
   8 -13   6  248.57    7.20
   8 -12 -10   59.49   11.25
   4   8 -10   44.88   10.05
   4   8 -10   51.97    8.31
 -12   4 -10   54.43   11.02
   8 -12 -10   63.81    8.84
   8 -12 -10   55.81    7.82
 -12   4 -10   54.11    7.58
   8 -12 -10   48.88    7.37
   4   8  -7  891.50   13.16
 -12   4  -7  942.33   32.26
   8 -12  -7  900.82   21.13
 -12   4  -7  835.75   22.71
   4   8  -7  905.82   24.73
   4   8  -7  899.46   21.10
   8 -12  -7  914.51   24.95
 -12   4  -7  942.75   21.26
 -12   4  -7  884.95   23.05
   8 -12  -7  860.99   24.42
   8 -12  -4  526.19   12.91
   4   8  -4  480.07   15.48
   4   8  -4  548.77   13.74
   8 -12  -4  543.87   16.01
   4   8  -4  512.43   13.50
 -12   4  -4  544.87   14.03
 -12   4  -4  534.12   15.90
 -12   4  -4  490.28   14.87
   8 -12  -1 3159.17   31.72
 -12   4  -1 3170.82   36.61
 -12   4  -1 3135.70   31.54
   8 -12  -1 3177.01   35.87
   4   8  -1 3161.81   35.82
   4   8  -1 3070.41   36.98
 -12   4  -1 3126.06   37.99
   8 -12   2  414.49   15.76
   4   8   2  370.89    5.33
   8 -12   2  359.48   14.03
 -12   4   2  375.12   13.91
   8 -12   2  375.49    7.87
 -12   4   2  363.40   13.66
   4   8   2  377.48   13.94
   4   8   2  354.44   13.63
 -12   4   2  381.13    7.90
 -12   4   2  359.53   14.86
   8 -12   5 1487.85   19.66
 -11   3 -11   84.75    9.61
 -11   3 -11   70.64   10.16
   8 -11 -11   72.58   11.77
   3   8 -11   89.29   13.56
   3   8 -11   88.96   10.70
   8 -11 -11   76.07   10.72
   8 -11 -11   98.07    9.27
 -11   3 -11   95.48   14.46
   8 -11  -8  178.60   12.15
   8 -11  -8  132.42    9.44
   3   8  -8  147.11   11.28
 -11   3  -8  176.68    9.30
 -11   3  -8  174.18   11.31
   3   8  -8  146.25   14.21
   8 -11  -8  195.60   11.10
 -11   3  -8  188.49   15.61
   3   8  -8  109.07    9.15
   8 -11  -8  155.26   10.62
   8 -11  -5   93.00    7.51
 -11   3  -5   80.26    6.69
   3   8  -5   94.01    7.50
   8 -11  -5   90.67    5.66
   3   8  -5   98.95    5.42
 -11   3  -5   97.62    6.52
 -11   3  -5   98.04    6.89
   3   8  -5   96.70    5.98
   3   8  -2 1251.10   23.00
   8 -11  -2 1265.86   22.29
   3   8  -2 1275.97   19.24
 -11   3  -2 1270.51   18.24
 -11   3  -2 1278.26   22.39
 -11   3  -2 1281.95   23.52
   8 -11  -2 1299.40   18.01
   3   8  -2 1294.14   21.33
 -11   3   1  399.36   12.51
 -11   3   1  399.67   10.23
   3   8   1  405.94   13.03
   3   8   1  408.99    8.56
   8 -11   1  386.72   13.52
 -11   3   1  371.64   13.55
   3   8   1  397.72   13.28
 -11   3   1  384.78   13.22
   8 -11   1  396.78   12.88
 -11   3   4  122.13    4.16
   8 -11   4  136.90    6.51
   3   8   4  139.66    8.93
 -10   2 -12   70.40    9.69
   2   8 -12   57.99    9.79
   8 -10 -12   49.88   11.38
 -10   2 -12   61.24   12.11
   2   8 -12   67.32   13.21
 -10   2 -12   48.02    9.25
   8 -10 -12   75.17   11.19
 -10   2  -9  138.13   10.92
   2   8  -9  168.36   12.49
   8 -10  -9  155.82   10.76
   8 -10  -9  169.35   15.27
   2   8  -9  141.83   14.33
   8 -10  -9  152.38   12.08
   8 -10  -9  153.52   10.33
 -10   2  -9  149.00    8.48
 -10   2  -9  160.35   15.60
   2   8  -6  404.25   15.88
 -10   2  -6  436.59   15.54
 -10   2  -6  420.29   14.08
   8 -10  -6  428.80   16.23
 -10   2  -6  442.14   14.04
   8 -10  -6  444.36   13.00
   2   8  -6  447.62   12.74
   2   8  -3  833.92   14.24
 -10   2  -3  863.10   14.39
   8 -10  -3  813.07   18.34
 -10   2  -3  800.43   18.10
 -10   2  -3  831.73   18.23
   2   8  -3  847.18   19.25
   8 -10  -3  818.19   13.04
   2   8  -3  839.23   15.69
 -10   2   0 1428.15   23.80
   2   8   0 1490.36   21.92
 -10   2   0 1435.01   20.50
 -10   2   0 1423.98   23.73
   2   8   0 1414.32   23.76
   8 -10   0 1413.58   20.93
   8 -10   0 1438.98   23.37
   2   8   0 1466.85   23.57
   2   8   3  753.62   20.14
 -10   2   3  804.25   21.86
   2   8   3  880.37   20.15
   8 -10   3  869.53   16.17
 -10   2   3  878.57   11.10
   8 -10   3  857.93   22.10
 -10   2   3  845.77   18.82
   8 -10   3  843.62    8.58
   2   8   3  874.24   10.09
 -10   2   3  813.33   20.94
   8 -10   6  109.95    4.17
  -9   1 -10   90.21    9.74
  -9   1 -10  110.00   13.50
  -9   1 -10   89.09    6.42
   1   8 -10   85.74    8.03
   8  -9 -10   81.39    7.71
   8  -9 -10   78.69    8.13
   8  -9 -10   70.67    9.62
  -9   1 -10   78.14    9.11
   8  -9 -10   90.33   12.12
   1   8 -10   75.13   11.73
   1   8 -10   76.13    9.69
  -9   1  -7 1110.22   21.90
   8  -9  -7 1026.36   21.86
  -9   1  -7 1114.28   26.40
  -9   1  -7 1059.82   32.72
   1   8  -7 1097.80   21.38
   1   8  -7 1109.87   27.75
   8  -9  -7 1085.70   22.14
  -9   1  -7 1079.83   24.46
   8  -9  -7 1083.08   27.46
   8  -9  -4  154.42    5.64
   1   8  -4  148.08    8.74
  -9   1  -4  167.33    6.73
  -9   1  -4  161.26    8.82
  -9   1  -4  150.54    7.95
   8  -9  -4  159.98    9.08
   1   8  -4  164.54    6.11
   1   8  -4  160.63    6.01
  -9   1  -1 1511.83   17.51
  -9   1  -1 1497.23   22.85
   1   8  -1 1473.12   23.21
  -9   1  -1 1514.05   23.61
   8  -9  -1 1508.43   18.01
   1   8  -1 1495.28   21.59
   1   8  -1 1543.94   19.33
   8  -9  -1 1496.66   22.42
   1   8   2  211.23   10.44
   8  -9   2  182.09    9.42
   8  -9   2  192.75    5.31
   1   8   2  198.40    5.02
   8  -9   2  191.13    7.88
  -9   1   2  197.33    5.94
   8  -9   2  187.42    9.44
  -9   1   2  182.01    9.09
   1   8   2  196.91    9.13
  -9   1   2  198.57    8.82
   1   8   2  200.14    9.66
  -9   1   2  180.36    9.29
   8  -9   5  870.70   13.37
  -9   1   5  871.49   15.89
  -8   0 -11   13.37    8.18
   8  -8 -11    8.33    4.55
   8  -8 -11   17.69    7.71
  -8   0 -11    9.23    5.72
   0   8 -11    6.32    7.59
   8  -8 -11   10.07    6.79
   0   8 -11    7.34    6.57
  -8   0 -11   15.07    6.31
   8  -8  -8  566.41   18.02
  -8   0  -8  560.38   20.28
  -8   0  -8  516.52   18.57
  -8   0  -8  574.32   16.05
  -8   0  -8  534.95   18.36
   0   8  -8  534.47   15.97
   8  -8  -8  527.55   20.96
   8  -8  -8  572.18   16.86
   0   8  -8  580.53   16.47
  -8   0  -8  549.96   24.92
   0   8  -8  524.98   20.88
  -8   0  -5    2.80    2.07
  -8   0  -5    4.53    3.16
  -8   0  -5    3.50    2.70
   8  -8  -5    1.16    3.21
   8  -8  -5    0.78    1.63
   0   8  -5    2.08    1.51
   0   8  -5    0.81    3.27
   0   8  -2 2108.11   23.24
  -8   0  -2 2088.32   17.24
   8  -8  -2 2136.23   16.62
   0   8  -2 2076.15   27.66
   0   8  -2 2082.55   18.54
  -8   0  -2 2106.60   27.25
  -8   0  -2 2040.83   27.11
   0   8   1    3.61    2.90
   8  -8   1    9.42    2.92
   0   8   1    4.55    2.56
  -8   0   1    3.70    1.74
   8  -8   1    1.79    2.28
  -8   0   1    3.80    2.36
  -8   0   1    7.67    2.78
   0   8   1    6.99    1.77
   0   8   1    3.01    2.24
   8  -8   1    6.33    1.95
  -8   0   1    4.87    2.58
   8  -8   1    3.26    2.29
   8  -8   4  877.83   23.64
  -8   0   4  884.49   17.40
   0   8   4  878.69   14.85
  -8   0   4  882.55   14.74
   8  -8   4  865.47   14.37
   8  -8   4  876.55   12.55
   8  -7 -12   70.25   11.86
   8  -7 -12   75.58   11.23
  -1   8 -12   61.81   10.90
  -7  -1 -12   72.80   10.29
  -1   8 -12   75.83   13.02
  -7  -1 -12   58.12    9.25
  -7  -1 -12   79.23   12.94
  -7  -1  -9  308.05   19.92
  -7  -1  -9  304.43   11.88
  -7  -1  -9  299.67   14.81
  -7  -1  -9  294.52   16.00
  -1   8  -9  280.00   12.13
   8  -7  -9  265.57   12.49
  -1   8  -9  302.28   17.24
   8  -7  -9  274.65   16.65
   8  -7  -9  294.80   12.89
  -1   8  -6  419.25   16.77
  -1   8  -6  420.66   11.12
   8  -7  -6  413.22   11.41
  -7  -1  -6  429.03   13.47
   8  -7  -6  418.82   16.47
  -7  -1  -6  403.73   13.39
  -7  -1  -6  410.79   15.79
  -1   8  -3  921.88   19.82
   8  -7  -3  943.76   19.67
  -1   8  -3  954.71   10.42
   8  -7  -3  947.27    8.80
  -7  -1  -3  963.89   11.45
  -7  -1  -3  930.31   18.97
  -7  -1  -3  946.80   18.45
  -1   8   0  365.82   10.62
  -1   8   0  348.24   10.53
  -7  -1   0  374.07   10.55
   8  -7   0  357.69    9.35
   8  -7   0  353.18   10.41
  -7  -1   0  371.67   10.92
  -7  -1   0  359.30   10.78
  -7  -1   0  374.96    9.06
   8  -7   0  368.93   10.27
  -1   8   0  383.38    9.91
   8  -7   0  371.31   10.94
  -1   8   0  379.19    9.73
   8  -7   3 2297.53   34.71
  -7  -1   3 2281.16   31.82
  -7  -1   3 2269.94   26.45
  -7  -1   3 2337.99   22.75
   8  -7   3 2325.31   24.40
  -1   8   3 2322.80   22.11
   8  -7   3 2308.48   19.88
   8  -7   6  154.20    5.39
  -7  -1   6  152.13    8.54
  -2   8 -10  393.40   20.54
  -6  -2 -10  391.06   19.78
  -2   8 -10  419.82   15.39
  -6  -2 -10  394.62   13.39
   8  -6 -10  390.13   14.18
   8  -6 -10  378.18   15.48
  -6  -2 -10  362.91   17.20
   8  -6 -10  395.50   20.99
  -6  -2 -10  356.73   22.11
   8  -6  -7 1067.76   23.07
  -2   8  -7 1064.11   28.60
   8  -6  -7 1121.72   29.04
  -6  -2  -7 1148.50   22.39
  -6  -2  -7 1086.74   27.41
  -2   8  -7 1113.29   19.12
   8  -6  -7 1103.98   20.58
  -6  -2  -7 1138.71   23.38
  -2   8  -7 1119.68   20.04
   8  -6  -4  170.17    4.73
  -2   8  -4  179.10    4.45
  -6  -2  -4  181.75    6.20
  -2   8  -4  170.90    9.58
   8  -6  -4  160.84    4.67
  -6  -2  -4  171.27    8.26
  -6  -2  -4  182.84    9.30
   8  -6  -4  167.70    9.35
  -6  -2  -1 2546.61   28.44
  -2   8  -1 2631.72   29.01
   8  -6  -1 2571.18   27.55
  -2   8  -1 2635.41   20.43
   8  -6  -1 2649.48   29.31
  -6  -2  -1 2603.80   17.14
  -6  -2  -1 2631.57   30.72
   8  -6  -1 2684.45   19.07
  -6  -2  -1 2624.37   28.50
   8  -6  -1 2613.42   30.07
  -6  -2   2 2150.45   21.45
   8  -6   2 2174.92   24.13
   8  -6   2 2144.89   19.87
  -2   8   2 2144.32   20.51
  -6  -2   2 2115.02   26.93
  -2   8   2 2148.44   27.13
  -6  -2   2 2096.53   24.13
   8  -6   2 2142.08   27.16
  -6  -2   5  168.87    8.33
  -6  -2   5  174.70    6.99
  -2   8   5  151.56    8.01
   8  -6   5  143.12    6.95
   8  -6   5  154.62    6.00
  -5  -3 -11  104.57   13.65
  -3   8 -11   82.03   11.29
   8  -5 -11  119.84   13.68
   8  -5 -11  105.87   12.31
  -5  -3 -11  119.04   10.93
  -3   8 -11  115.45   13.52
   8  -5 -11   95.73    9.22
  -5  -3 -11   97.30   11.33
  -5  -3  -8  267.04   14.99
  -3   8  -8  279.58   10.66
  -5  -3  -8  266.95   11.50
  -5  -3  -8  288.02   13.10
   8  -5  -8  268.51   11.89
   8  -5  -8  263.82   11.06
   8  -5  -8  256.82   15.53
  -3   8  -8  275.16   11.30
  -3   8  -8  287.98   16.18
  -5  -3  -5  707.42   13.94
   8  -5  -5  663.51   19.74
   8  -5  -5  711.31   11.80
  -5  -3  -5  675.19   19.34
   8  -5  -5  672.23   16.75
  -3   8  -5  686.32   10.47
  -3   8  -5  698.99   20.60
  -5  -3  -5  673.63   16.47
  -3   8  -5  694.06   10.88
  -3   8  -2  334.49   11.86
   8  -5  -2  344.32   11.01
  -5  -3  -2  306.50   10.50
   8  -5  -2  340.95   12.17
  -5  -3  -2  320.76   10.42
  -3   8  -2  324.78   10.98
   8  -5  -2  303.70   10.15
  -5  -3   1 1031.44   16.78
   8  -5   1  985.67   14.85
   8  -5   1 1017.48   16.83
  -5  -3   1 1032.75   16.66
   8  -5   1 1028.89   16.47
  -5  -3   1 1048.99   15.72
  -3   8   1 1060.39   14.68
  -3   8   1 1010.72   16.26
  -5  -3   4 1661.17   19.96
   8  -5   4 1642.47   20.52
  -3   8   4 1730.33   24.45
   8  -5   4 1690.32   22.12
  -5  -3   4 1673.03   23.98
  -5  -3   7  247.11   12.73
   8  -5   7  252.40    7.51
  -4  -4 -12  173.09   13.75
  -4  -4 -12  165.59   16.75
   8  -4 -12  185.08   17.10
   8  -4 -12  171.93   16.63
  -4   8 -12  128.70   15.52
  -4   8 -12  161.75   16.42
  -4  -4 -12  161.43   15.21
   8  -4  -9  319.02   11.94
  -4  -4  -9  311.10   12.84
   8  -4  -9  315.40   12.98
  -4  -4  -9  346.87   15.23
  -4  -4  -9  312.56   17.48
  -4  -4  -9  287.87   18.46
  -4   8  -9  319.82   12.07
   8  -4  -9  293.44   17.77
  -4   8  -9  340.57   18.93
   8  -4  -6  221.65    7.95
  -4  -4  -6  210.34   12.05
  -4   8  -6  201.91   12.39
  -4   8  -6  200.91    6.75
   8  -4  -6  186.25   11.90
  -4  -4  -6  212.33    8.79
  -4  -4  -6  200.62    9.60
   8  -4  -6  194.98    9.12
   8  -4  -3 1482.36   26.80
  -4  -4  -3 1479.02   23.01
  -4  -4  -3 1480.21   24.97
   8  -4  -3 1487.30   22.62
   8  -4  -3 1458.77   24.84
  -4   8  -3 1524.16   27.37
  -4   8  -3 1504.03   25.67
  -4  -4   0 3370.97   30.39
  -4   8   0 3299.17   28.43
   8  -4   0 3365.03   29.82
   8  -4   0 3300.80   28.23
  -4  -4   0 3354.69   30.61
   8  -4   0 3407.94   31.32
  -4   8   0 3353.53   28.78
  -4  -4   0 3322.24   29.21
  -4  -4   3 1895.85   24.15
   8  -4   3 1868.44   22.44
  -4   8   3 1943.31   24.21
   8  -4   3 1915.34   22.63
  -4  -4   3 1910.94   24.91
  -4  -4   3 1871.73   20.56
  -4  -4   6  180.26   10.24
   8  -4   6  181.46    7.06
  -4   8   6  155.57    9.95
   8  -3 -10  138.81   13.87
  -3  -5 -10  136.35   12.78
   8  -3 -10  139.31    9.71
  -3  -5 -10  133.34   13.46
   8  -3 -10  140.70    7.24
  -5   8 -10  125.91    8.28
  -3  -5 -10  126.24   10.33
  -5   8 -10  126.88   13.06
  -3  -5 -10  149.79    9.25
  -3  -5  -7  361.24   13.32
  -5   8  -7  353.82   10.29
   8  -3  -7  345.92   12.18
  -3  -5  -7  376.79   13.18
   8  -3  -7  364.79   11.60
  -3  -5  -7  378.06   17.31
  -5   8  -7  370.97   17.93
   8  -3  -7  350.37   17.16
   8  -3  -4 1537.67   23.19
   8  -3  -4 1536.89   13.81
   8  -3  -4 1479.97   28.63
   8  -3  -4 1451.43   27.56
  -3  -5  -4 1515.55   24.27
  -3  -5  -4 1488.33   15.60
  -3  -5  -4 1491.18   27.75
  -5   8  -4 1508.79   28.69
  -5   8  -1  690.61   14.62
  -5   8  -1  692.93   14.48
   8  -3  -1  722.39   15.40
  -3  -5  -1  690.49   14.66
   8  -3  -1  677.76   13.87
  -3  -5  -1  682.23   15.26
   8  -3  -1  732.64   14.94
  -3  -5  -1  675.86   14.32
  -3  -5   2  424.14   10.10
   8  -3   2  452.06   11.03
  -5   8   2  447.34   11.11
  -3  -5   2  416.39   10.19
  -5   8   2  434.61   10.14
  -3  -5   2  442.14   11.39
   8  -3   2  442.98   10.58
   8  -3   2  434.11   11.17
   8  -3   5  611.55   13.43
   8  -3   5  642.11   16.74
  -5   8   5  629.31   17.67
  -3  -5   5  620.12   10.17
  -3  -5   5  640.90   17.97
   8  -3   8  356.01   10.16
  -2  -6 -11  271.71   18.90
  -2  -6 -11  269.33   19.23
   8  -2 -11  248.56   13.95
   8  -2 -11  268.06   19.74
  -2  -6 -11  266.33   15.41
  -2  -6  -8  315.31   17.05
  -2  -6  -8  291.67   12.80
   8  -2  -8  296.33   10.89
  -2  -6  -8  293.48   12.76
  -6   8  -8  296.90   10.59
  -6   8  -8  280.37   16.98
   8  -2  -8  303.68   12.06
   8  -2  -8  286.29   17.16
  -6   8  -5  203.76    5.67
  -2  -6  -5  204.77   11.74
  -6   8  -5  182.42   11.47
  -2  -6  -5  216.97    9.99
   8  -2  -5  206.86    8.79
   8  -2  -5  206.67   12.03
  -2  -6  -5  214.93    7.63
   8  -2  -5  216.52   12.11
   8  -2  -5  208.72    6.89
   8  -2  -2 1601.95   22.37
   8  -2  -2 1566.47   23.88
  -6   8  -2 1541.24   24.35
  -2  -6  -2 1577.27   24.80
  -6   8  -2 1587.19   24.32
   8  -2  -2 1619.91   25.00
  -2  -6  -2 1580.32   23.42
   8  -2  -2 1581.53   14.07
   8  -2   1 1756.44   22.86
  -6   8   1 1764.95   21.53
  -2  -6   1 1773.30   19.30
  -6   8   1 1702.87   17.86
  -2  -6   1 1660.06   20.91
   8  -2   1 1758.08   21.83
   8  -2   1 1667.56   17.92
  -2  -6   1 1679.24   21.59
   8  -2   4  165.53    8.27
   8  -2   4  171.36    7.48
  -2  -6   4  165.77    8.77
  -2  -6   4  163.06    5.42
  -6   8   4  167.50    8.79
   8  -2   7  911.25   17.76
   8  -1 -12  217.92   19.20
  -7   8 -12  180.39   17.10
  -1  -7 -12  235.45   15.53
   8  -1 -12  247.04   18.78
  -7   8 -12  221.99   19.09
  -1  -7 -12  210.16   17.93
  -1  -7 -12  209.81   18.12
  -1  -7  -9  872.36   22.88
  -1  -7  -9  776.22   22.66
  -7   8  -9  780.64   18.78
   8  -1  -9  778.98   29.61
  -1  -7  -9  773.15   28.48
   8  -1  -9  811.54   21.36
  -7   8  -9  839.88   30.60
  -7   8  -6  297.88    8.42
  -1  -7  -6  317.03   15.82
   8  -1  -6  279.81    9.42
   8  -1  -6  280.63   15.05
  -7   8  -6  300.81   15.82
  -1  -7  -6  323.50   10.78
  -1  -7  -6  269.67   11.69
   8  -1  -6  286.65   10.28
  -1  -7  -3 1909.51   30.34
  -1  -7  -3 1955.89   15.86
  -7   8  -3 1910.38   29.23
  -1  -7  -3 1902.03   27.52
   8  -1  -3 1959.90   30.42
  -1  -7  -3 1944.67   29.65
  -7   8  -3 1967.79   14.69
   8  -1  -3 1956.63   17.20
   8  -1  -3 1924.79   29.20
   8  -1  -3 1940.28   25.00
   8  -1   0  501.26   12.60
   8  -1   0  475.16   10.36
  -1  -7   0  464.14   12.02
   8  -1   0  506.91   12.37
  -7   8   0  458.28   10.57
  -7   8   0  491.87   11.84
  -1  -7   0  455.42   10.78
   8  -1   3 1016.10   19.35
  -1  -7   3 1015.99   14.84
   8  -1   3  988.07   18.05
  -1  -7   3 1009.52   14.42
  -1  -7   3 1028.13   20.22
  -7   8   3  988.01   19.54
   8  -1   6  257.94   10.06
   8  -1   6  263.93   12.83
  -8   8 -10  205.76   10.56
   8   0 -10  184.36   11.17
   0  -8 -10  243.64   17.57
  -8   8 -10  199.40   16.76
   0  -8 -10  198.59   11.85
   8   0 -10  195.73   16.55
   0  -8 -10  212.52   15.91
   0  -8 -10  188.03   12.45
   8   0  -7    4.75    5.06
   8   0  -7    3.05    2.27
   0  -8  -7    7.70    5.26
  -8   8  -7    5.13    5.44
   0  -8  -7    1.26    3.25
   0  -8  -7    3.94    2.56
  -8   8  -7    4.79    2.32
   8   0  -7    4.07    2.44
   0  -8  -4  842.88   20.98
   0  -8  -4  792.40   19.00
   8   0  -4  796.82   16.53
  -8   8  -4  793.82   20.72
  -8   8  -4  793.48   22.46
   8   0  -4  806.81   13.42
   0  -8  -4  805.72   13.22
   8   0  -4  765.80   21.47
   8   0  -4  848.94   20.88
   0  -8  -4  855.64   22.76
  -8   8  -4  813.17   11.49
   0  -8  -1    2.89    2.50
   0  -8  -1    4.84    1.81
  -8   8  -1    6.23    2.31
   8   0  -1    6.98    2.45
   8   0  -1    0.51    2.04
  -8   8  -1    9.59    2.97
   8   0  -1    4.82    2.16
   0  -8  -1    5.37    2.56
   0  -8  -1    5.80    2.68
   0  -8   2 2236.06   23.94
   0  -8   2 2319.18   19.61
   8   0   2 2263.11   28.11
  -8   8   2 2274.63   28.36
  -8   8   2 2330.62   17.74
   0  -8   2 2257.82   28.61
   8   0   2 2263.71   27.97
   8   0   2 2324.63   19.22
  -8   8   5   -1.54    3.13
   0  -8   5   -0.81    2.98
   8   0   5    3.06    3.31
   0  -8   5    0.52    0.93
   8   0   5   -2.01    2.55
   8   0   8  532.35   15.57
   8   1 -11  690.42   31.91
   1  -9 -11  669.64   23.88
  -9   8 -11  675.86   31.68
   1  -9 -11  621.79   29.19
   1  -9 -11  651.89   28.30
   8   1 -11  679.39   22.63
  -9   8  -8  414.91   22.52
   1  -9  -8  410.12   20.75
   1  -9  -8  379.37   15.56
   8   1  -8  366.58   10.77
   1  -9  -8  395.85   14.80
   8   1  -8  394.66   14.45
  -9   8  -8  405.16   12.77
   8   1  -8  393.96   20.70
  -9   8  -5  703.75   20.90
   8   1  -5  831.60   15.83
   8   1  -5  815.47   24.28
   1  -9  -5  816.72   24.15
   8   1  -5  776.76   21.26
   1  -9  -5  694.64   19.18
  -9   8  -5  800.67   13.76
  -9   8  -5  820.14   24.97
   1  -9  -5  789.12   21.92
   1  -9  -5  818.57   15.77
   8   1  -5  782.64   16.53
  -9   8  -2  366.53    9.10
  -9   8  -2  353.64   12.68
   1  -9  -2  378.03   11.99
   8   1  -2  343.41   10.85
   8   1  -2  355.90   12.20
   1  -9  -2  365.39    8.58
  -9   8  -2  355.99   11.64
   8   1  -2  346.16   11.54
   8   1  -2  358.03    9.58
   1  -9  -2  364.44   12.73
   1  -9  -2  372.25   12.53
   1  -9   1 1868.72   19.17
  -9   8   1 1853.84   17.69
   1  -9   1 1892.95   24.40
   8   1   1 1892.37   26.21
   8   1   1 1898.20   17.17
   8   1   1 1939.26   25.87
  -9   8   1 1837.34   25.00
   1  -9   1 1880.25   25.83
   8   1   4  330.40   13.12
  -9   8   4  306.96   13.12
   1  -9   4  319.59   13.47
   8   1   4  315.76   11.55
   1  -9   4  308.68    7.79
   8   1   7  957.39   21.44
   8   2 -12   57.45   12.10
   2 -10 -12   78.33   11.73
 -10   8 -12   65.47   12.74
   2 -10 -12   76.87    9.96
   2 -10 -12   72.22   12.51
 -10   8 -12   65.41   11.19
   8   2  -9  592.98   27.02
 -10   8  -9  601.65   27.65
   2 -10  -9  622.81   20.74
   2 -10  -9  611.64   26.86
 -10   8  -9  559.75   16.58
   2 -10  -9  552.33   18.92
   8   2  -9  606.57   19.67
 -10   8  -6  144.49   12.05
   8   2  -6  140.91    7.90
   2 -10  -6  122.07   10.64
   2 -10  -6  144.06    9.64
   8   2  -6  134.79    7.18
   8   2  -6  141.03   11.42
 -10   8  -6  139.05    6.69
   2 -10  -6  131.82    7.62
   2 -10  -3  747.57   18.99
   2 -10  -3  712.50   13.29
 -10   8  -3  743.94   13.53
   8   2  -3  728.16   19.65
   8   2  -3  723.55   14.31
   2 -10  -3  708.18   20.17
   8   2  -3  764.36   16.58
   2 -10  -3  748.61   17.91
   8   2  -3  746.10   17.94
 -10   8  -3  728.11   17.87
 -10   8  -3  734.83   20.66
 -10   8   0 1354.39   19.47
   2 -10   0 1368.88   21.79
 -10   8   0 1437.86   22.12
   2 -10   0 1366.44   21.99
   8   2   0 1369.76   22.78
   8   2   0 1384.13   18.00
   2 -10   0 1410.64   22.97
   2 -10   0 1352.28   19.80
   8   2   0 1398.85   22.48
   8   2   3 1050.93   21.09
 -10   8   3  999.17   22.10
   2 -10   3 1020.18   11.14
   2 -10   3 1023.51   16.36
   8   2   3 1079.61   22.69
   2 -10   3 1052.12   23.07
   8   2   6  413.35   14.57
 -11   8 -10  503.20   27.05
   8   3 -10  469.16   26.05
   3 -11 -10  436.52   21.65
   3 -11 -10  442.96   18.54
   3 -11 -10  457.55   19.13
 -11   8 -10  450.06   16.27
   3 -11 -10  470.28   25.18
   8   3 -10  434.87   17.88
   8   3  -7  149.56    7.25
   8   3  -7  162.49    9.29
 -11   8  -7  169.65   13.81
   3 -11  -7  152.30   10.34
   3 -11  -7  186.15   10.00
 -11   8  -7  169.40    8.35
   8   3  -7  166.29   13.70
   3 -11  -7  166.46   13.18
   8   3  -4  150.24    8.84
 -11   8  -4  128.73    7.21
 -11   8  -4  146.99    6.70
   3 -11  -4  144.44    6.93
   8   3  -4  158.58   10.49
   3 -11  -4  141.59    8.59
   8   3  -4  154.13    7.39
   3 -11  -4  135.76   10.18
 -11   8  -4  153.28   11.04
 -11   8  -4  153.68    9.07
   3 -11  -4  144.62    9.23
   8   3  -4  143.71    7.60
   8   3  -1  320.26   10.81
   3 -11  -1  361.68   12.92
 -11   8  -1  346.95   11.25
 -11   8  -1  358.45   11.46
   3 -11  -1  350.28   11.94
   3 -11  -1  344.18   11.30
   3 -11  -1  355.31   10.74
 -11   8  -1  360.75   12.04
   8   3  -1  368.34   12.23
   8   3  -1  358.19   11.83
   8   3  -1  350.80   11.66
 -11   8   2  967.94    9.57
   3 -11   2 1027.89   21.87
   8   3   2  991.76   20.81
   3 -11   2  965.42   17.95
   3 -11   2  987.59   11.83
   8   3   2  989.28   21.10
 -11   8   2 1012.77   21.30
   8   3   2  954.63    9.36
   8   3   5  181.59    9.92
   3 -11   5  192.99    6.04
   8   4 -11  406.97   18.65
   4 -12 -11  450.94   19.78
   4 -12 -11  464.64   23.20
   4 -12 -11  448.66   19.98
   8   4 -11  437.37   26.61
 -12   8 -11  488.65   28.55
   4 -12 -11  426.04   25.54
   4 -12  -8   -3.11    4.11
   8   4  -8    0.03    5.69
 -12   8  -8    6.51    6.07
   4 -12  -8    7.91    6.03
 -12   8  -8    6.72    3.46
   8   4  -8    5.41    3.53
   8   4  -8    4.48    2.26
   4 -12  -8    6.83    3.95
   8   4  -5 1495.86   28.75
   4 -12  -5 1484.90   30.28
   4 -12  -5 1496.72   28.77
   8   4  -5 1444.94   24.49
   8   4  -5 1463.74   23.62
 -12   8  -5 1401.08   34.16
 -12   8  -5 1505.82   24.74
   4 -12  -5 1486.06   24.25
   4 -12  -5 1489.41   34.54
   8   4  -5 1481.97   33.95
 -12   8  -5 1458.11   22.71
   8   4  -2  195.75   10.05
   4 -12  -2  195.22    8.25
   4 -12  -2  186.76   10.22
   8   4  -2  200.62    9.31
   4 -12  -2  209.48    9.29
   8   4  -2  211.56    9.60
 -12   8  -2  199.42    9.14
   8   4  -2  206.21    9.06
 -12   8  -2  196.42    9.42
 -12   8  -2  191.14   10.27
   4 -12  -2  201.99   10.52
 -12   8  -2  199.94    8.54
   8   4   1 3364.81   23.09
 -12   8   1 3340.36   26.98
   8   4   1 3306.31   37.94
   8   4   1 3344.37   39.02
 -12   8   1 3269.62   37.18
   4 -12   1 3374.73   36.77
   4 -12   1 3298.08   37.91
   4 -12   1 3317.99   28.15
   8   4   4  704.29   19.28
   4 -12   4  708.67   13.95
 -13   8 -12  124.45   16.49
   5 -13 -12  128.49   15.63
   8   5 -12  100.81   15.66
   5 -13  -9  264.30   13.95
 -13   8  -9  237.35   18.76
   5 -13  -9  267.58   19.12
   5 -13  -9  255.40   14.72
   8   5  -9  223.95   17.90
   8   5  -9  287.73   14.54
 -13   8  -9  246.69   12.15
   8   5  -6  304.58   11.08
   5 -13  -6  307.41   12.38
 -13   8  -6  282.26   17.27
   5 -13  -6  282.55   13.66
   5 -13  -6  310.82   17.43
 -13   8  -6  288.46   11.49
 -13   8  -6  299.37   11.39
   8   5  -6  295.57   17.14
   5 -13  -6  331.08   15.14
   8   5  -6  314.36   12.81
   8   5  -3  283.71   11.11
 -13   8  -3  278.75   10.44
   5 -13  -3  283.46   13.08
   8   5  -3  269.43   13.15
 -13   8  -3  288.85   11.33
   5 -13  -3  296.83   11.46
 -13   8  -3  280.08   14.13
   8   5  -3  313.64   12.25
 -13   8  -3  296.13   12.00
   5 -13  -3  277.44   10.29
   5 -13  -3  286.87   13.89
   8   5  -3  292.78   11.53
   8   5   0 1816.41   30.89
 -13   8   0 1790.32   24.94
 -13   8   0 1808.01   27.39
   8   5   0 1802.44   22.64
 -13   8   0 1785.55   30.23
   5 -13   0 1781.41   27.63
   5 -13   0 1770.11   25.10
   8   5   0 1787.08   28.03
   8   5   0 1755.46   28.69
   5 -13   0 1719.81   28.15
   5 -13   0 1774.07   29.09
 -13   8   0 1796.82   29.86
   5 -13   3  882.66   17.83
   8   5   3  845.67   21.40
   5 -13   6  187.37    5.68
   5 -13   6  194.18    5.97
   6 -14 -10   17.69    7.77
   8   6 -10   32.31    6.86
   6 -14 -10   25.89    6.32
   6 -14 -10   21.83    6.23
 -14   8 -10   32.92    6.01
 -14   8 -10   34.70    9.35
   8   6 -10   22.59    8.65
   8   6  -7  333.35   11.41
   6 -14  -7  305.68   15.84
 -14   8  -7  314.03   12.57
 -14   8  -7  334.90   13.07
 -14   8  -7  315.03   19.77
   6 -14  -7  336.25   19.45
   6 -14  -7  347.07   14.45
   8   6  -7  323.71   14.13
 -14   8  -4  417.36   18.71
   6 -14  -4  429.26   13.73
   6 -14  -4  438.37   17.24
 -14   8  -4  401.35   14.47
   6 -14  -4  408.00   13.94
 -14   8  -4  401.68   14.37
   8   6  -4  426.61   14.41
   8   6  -4  394.96   14.27
   8   6  -4  439.22   14.16
   8   6  -4  395.77   17.13
   6 -14  -4  456.42   18.95
 -14   8  -4  418.85   13.40
   8   6  -1 1644.06   26.05
   8   6  -1 1649.12   28.40
 -14   8  -1 1708.35   30.06
   6 -14  -1 1663.84   28.07
   6 -14  -1 1688.00   26.88
   8   6  -1 1630.75   27.15
 -14   8  -1 1669.47   26.77
 -14   8  -1 1681.75   28.45
   6 -14  -1 1719.55   30.38
 -14   8  -1 1621.77   27.98
   8   6  -1 1648.25   29.16
   6 -14  -1 1639.51   26.95
   6 -14   2  317.82    7.67
   8   6   2  306.12   13.07
 -14   8   2  283.70    6.62
   6 -14   2  307.19   11.65
   8   6   2  326.74   13.89
   6 -14   2  317.93   13.62
 -14   8   2  318.11   13.45
   6 -14   5  709.64   14.58
   7 -15 -11  291.09   22.38
   8   7 -11  294.25   16.86
   8   7 -11  295.10   23.13
   7 -15 -11  286.50   17.01
 -15   8 -11  255.82   21.69
   7 -15 -11  290.61   17.41
 -15   8  -8   37.01    5.14
   7 -15  -8   40.15    6.49
 -15   8  -8   34.52    5.52
 -15   8  -8   39.24    9.60
   7 -15  -8   31.56    6.92
   8   7  -8   19.32    7.43
   7 -15  -8   57.50   10.18
   8   7  -8   31.04    6.21
   8   7  -5 1198.48   32.44
   7 -15  -5 1104.04   23.86
   8   7  -5 1142.70   22.92
   7 -15  -5 1164.50   24.18
 -15   8  -5 1152.29   23.45
   8   7  -5 1087.87   24.50
   8   7  -5 1172.19   25.46
   7 -15  -5 1119.95   31.67
 -15   8  -5 1189.67   25.69
 -15   8  -5 1133.48   32.72
   7 -15  -5 1107.55   28.62
   8   7  -2  257.78   12.11
 -15   8  -2  245.80   12.03
 -15   8  -2  254.60   10.87
 -15   8  -2  245.91   12.56
   7 -15  -2  253.21   11.02
   7 -15  -2  283.77   13.65
   8   7  -2  231.58   10.71
   8   7  -2  253.00   11.55
 -15   8  -2  240.87   11.44
   8   7  -2  250.00   11.83
   7 -15  -2  249.96   12.81
   7 -15  -2  243.98   10.65
   8   7   1 1897.72   32.29
   7 -15   1 1918.00   32.27
   8   7   1 1898.42   20.08
   7 -15   1 1824.45   23.89
 -15   8   1 1795.14   30.52
 -15   8   1 1879.42   33.70
 -15   8   1 1898.15   35.53
   8   7   1 1811.25   32.17
   7 -15   1 1852.19   33.94
 -15   8   1 1888.30   23.51
   7 -15   4  653.78   16.11
   7 -15   7  388.09    7.06
   7 -15   7  398.57    7.12
 -16   8  -9   40.67   10.68
 -16   8  -9   23.97    5.38
   8   8  -9   36.18    9.63
 -16   8  -9   17.28    4.22
   8 -16  -9    9.05    7.41
   8   8  -9   32.55    6.70
   8 -16  -9   23.92    6.71
   8 -16  -9   22.29    5.64
   8 -16  -6  385.26   15.17
 -16   8  -6  453.78   16.49
   8   8  -6  412.08   20.77
   8 -16  -6  402.71   18.57
 -16   8  -6  440.60   15.74
   8   8  -6  406.61   14.15
   8 -16  -6  385.70   20.69
   8 -16  -6  454.13   16.47
   8   8  -6  435.43   16.81
 -16   8  -6  442.55   22.81
   8 -16  -3   24.45    5.67
   8   8  -3   25.83    4.72
 -16   8  -3   25.80    5.03
   8   8  -3   18.76    4.91
 -16   8  -3   25.64    4.43
   8   8  -3   22.55    4.27
   8 -16  -3   20.52    5.54
 -16   8  -3   17.84    4.09
   8 -16  -3   22.38    3.93
   8   8  -3   29.56    5.10
   8 -16  -3   24.70    4.43
 -16   8  -3   22.25    5.51
 -16   8   0   11.34    4.46
 -16   8   0    5.19    2.72
   8 -16   0   14.17    3.63
 -16   8   0   12.16    3.67
   8   8   0    7.40    3.62
 -16   8   0    8.83    4.36
   8   8   0   12.73    4.63
   8 -16   0   17.76    4.20
   8   8   0    9.34    2.71
   8 -16   0    1.25    2.59
   8 -16   3   29.03    4.54
   8 -16   3   29.69    1.81
   8 -16   3   28.25    1.93
   8 -16   6  418.14   11.59
   8 -16   6  434.55   11.69
 -17   8 -10   77.80    8.76
   9 -17 -10   83.50   10.53
   8   9 -10   83.68   13.59
 -17   8 -10   85.00   13.51
   8   9 -10   91.32   10.15
   9 -17 -10   84.46    9.75
   9 -17 -10   92.73   13.93
   9 -17  -7  464.02   20.85
   8   9  -7  515.19   25.16
 -17   8  -7  511.42   17.97
   9 -17  -7  507.35   18.87
 -17   8  -7  486.19   17.94
   8   9  -7  464.81   15.01
   8   9  -7  517.04   19.52
   9 -17  -7  503.87   25.00
 -17   8  -7  490.36   25.55
   8   9  -4  160.58    9.73
 -17   8  -4  190.56   13.73
 -17   8  -4  169.51    9.99
   8   9  -4  178.70   10.95
 -17   8  -4  140.27    9.15
   8   9  -4  183.95   12.83
   9 -17  -4  177.57   12.86
   9 -17  -4  165.28    9.25
   9 -17  -4  190.85   10.50
 -17   8  -4  151.90   10.39
   9 -17  -4  179.76   12.44
   8   9  -4  170.97   10.16
   8   9  -1 1360.10   30.31
 -17   8  -1 1353.97   26.36
 -17   8  -1 1377.60   28.32
 -17   8  -1 1387.70   29.72
 -17   8  -1 1380.92   30.19
   8   9  -1 1276.35   26.90
   8   9  -1 1406.40   26.23
   9 -17  -1 1396.41   28.64
   9 -17  -1 1358.60   26.50
   9 -17  -1 1256.41   26.71
 -17   8   2  656.72   23.29
   9 -17   2  656.01   13.00
 -17   8   2  607.67   12.56
   8   9   2  614.81    8.39
 -17   8   2  652.48   12.60
   9 -17   2  655.43   22.79
   8   9   2  632.09    8.91
 -17   8   2  651.11   21.41
   9 -17   5 1160.93   21.96
   7   9 -11    3.65    5.69
   9 -16 -11   11.62    6.55
   7   9 -11   14.02    9.58
   9 -16 -11    6.15    5.72
 -16   7 -11   11.87    9.73
   9 -16 -11    3.11    7.25
   7   9  -8  112.66   13.21
 -16   7  -8  150.97   10.43
 -16   7  -8  160.36   15.90
   7   9  -8  130.42   10.78
 -16   7  -8  137.82    9.76
   9 -16  -8  129.99   11.52
   9 -16  -8  147.78   11.04
   9 -16  -5  152.86    9.89
   9 -16  -5  144.76   11.36
   7   9  -5  132.94    8.70
 -16   7  -5  144.62    9.36
 -16   7  -5  135.64    9.64
   7   9  -5  149.88   12.20
   9 -16  -5  135.59    8.58
 -16   7  -5  139.64   12.40
   7   9  -5  149.34   10.03
 -16   7  -5  148.47    9.13
   7   9  -5  134.97    8.56
 -16   7  -2  797.19   22.93
 -16   7  -2  776.78   20.86
   7   9  -2  762.58   19.31
 -16   7  -2  779.17   18.93
   7   9  -2  788.89   20.82
   9 -16  -2  802.98   18.88
   7   9  -2  782.46   21.66
   9 -16  -2  781.80   20.44
 -16   7  -2  817.02   22.62
 -16   7   1  574.47   14.27
   9 -16   1  595.05   14.55
   7   9   1  590.53   12.06
   7   9   1  577.17   20.78
 -16   7   1  606.62   20.03
 -16   7   1  572.14   18.06
   9 -16   1  548.70   18.01
   9 -16   1  568.57   19.42
 -16   7   1  584.26   20.24
   9 -16   7   20.40    2.44
   9 -16   7   18.84    2.52
   9 -15 -12   27.94   10.61
   6   9 -12   33.68    8.07
   9 -15 -12   42.21    8.97
   6   9 -12   27.92   10.29
 -15   6 -12   53.63   12.33
 -15   6  -9  176.70   17.25
   9 -15  -9  127.38   14.51
 -15   6  -9  135.56    9.27
   6   9  -9  144.62   11.72
 -15   6  -9  137.85   10.60
   9 -15  -9  128.52   10.96
   6   9  -9  150.07   15.59
   9 -15  -9  142.13   11.98
 -15   6  -6  307.24   13.64
   6   9  -6  318.02   14.70
 -15   6  -6  339.43   14.22
   6   9  -6  296.22   11.05
   9 -15  -6  313.77   12.35
   6   9  -6  278.64   12.15
   6   9  -6  301.27   17.83
   9 -15  -6  329.84   16.47
   9 -15  -6  297.30   13.76
   6   9  -3  226.09   11.51
 -15   6  -3  210.85   11.31
   6   9  -3  231.02   10.24
   9 -15  -3  223.89    9.62
 -15   6  -3  198.66   10.24
   9 -15  -3  213.42   10.70
 -15   6  -3  226.65    9.83
   6   9  -3  222.19   10.58
 -15   6   0  418.27   13.99
 -15   6   0  404.14   15.81
   6   9   0  424.92   15.33
   6   9   0  387.96   14.07
   6   9   0  392.27   15.85
   9 -15   0  397.70   13.94
 -15   6   0  372.56   15.10
   9 -15   0  373.61   14.97
 -15   6   3  483.85    6.57
 -15   6   3  446.08    7.03
   9 -15   3  486.71    6.61
 -15   6   3  429.60   16.73
   9 -15   3  485.94    6.57
   9 -15   6   77.16    5.18
   9 -15   6   67.98    4.77
   9 -14 -10  184.40   13.77
   5   9 -10  167.79   16.62
 -14   5 -10  198.56   13.14
   5   9 -10  200.61   14.43
   9 -14 -10  189.40   12.80
 -14   5 -10  200.59   18.97
   9 -14 -10  182.02   13.32
   9 -14 -10  191.92   18.16
   5   9  -7  517.89   12.38
 -14   5  -7  511.87   25.05
   9 -14  -7  493.22   19.69
 -14   5  -7  528.77   18.14
   5   9  -7  426.71   21.90
   5   9  -7  471.18   15.85
   9 -14  -7  465.38   15.42
   5   9  -7  545.42   19.72
   9 -14  -7  494.52   18.64
 -14   5  -7  543.72   17.53
   5   9  -4  348.85   12.22
   9 -14  -4  329.69   11.04
 -14   5  -4  342.62   13.87
 -14   5  -4  346.19   13.27
   9 -14  -4  349.04   13.55
   5   9  -4  324.45   11.60
   5   9  -4  342.49   13.86
 -14   5  -4  353.21   11.97
 -14   5  -1 2142.59   28.66
   5   9  -1 2076.29   29.65
   5   9  -1 2074.18   33.21
 -14   5  -1 2112.13   32.87
 -14   5  -1 2061.71   33.64
   9 -14  -1 2071.30   28.28
   5   9  -1 2108.49   32.01
   9 -14  -1 2048.21   31.53
   9 -14   2 1113.48   25.73
 -14   5   2 1101.12   25.01
 -14   5   2 1037.27   24.59
 -14   5   2 1098.67   27.49
 -14   5   2 1145.50   15.36
   5   9   2 1071.62   25.18
   5   9   2 1123.37   10.53
   9 -14   2 1139.99   27.41
   5   9   2 1144.38   25.48
   9 -14   2 1166.88   15.92
   9 -14   5  809.74   16.56
   4   9 -11   57.29    9.23
   9 -13 -11   41.43    7.25
 -13   4 -11   60.17    8.91
 -13   4 -11   31.39    7.83
   9 -13 -11   45.81    8.61
   9 -13 -11   43.24   11.02
 -13   4 -11   17.66    9.00
   4   9 -11   59.25   12.07
   9 -13  -8  120.11   10.49
 -13   4  -8  137.63   10.14
   4   9  -8  147.15   11.15
   4   9  -8  150.51   14.61
 -13   4  -8  125.78   13.52
   9 -13  -8  132.37   10.88
 -13   4  -8  136.41    8.97
   9 -13  -8  106.97    8.42
   9 -13  -8  138.55   13.59
   4   9  -8  100.80    8.03
   9 -13  -5   55.05    4.80
   4   9  -5   51.96    4.68
   4   9  -5   47.61    5.88
 -13   4  -5   56.80    6.10
   4   9  -5   51.12    4.95
 -13   4  -5   60.87    5.40
   9 -13  -5   47.76    5.58
 -13   4  -5   48.27    5.56
   9 -13  -2 1368.58   24.75
   9 -13  -2 1404.76   21.14
   4   9  -2 1409.09   24.67
   4   9  -2 1485.69   22.97
 -13   4  -2 1415.64   26.82
 -13   4  -2 1377.30   25.14
   4   9  -2 1422.87   26.26
 -13   4  -2 1415.89   21.43
   4   9   1  278.81   11.83
   4   9   1  267.87   11.87
 -13   4   1  269.26   11.20
   9 -13   1  273.81   12.36
 -13   4   1  256.96   12.39
   9 -13   1  266.20   11.51
 -13   4   1  283.34   12.45
   4   9   1  279.06    7.83
   4   9   1  261.63   12.83
 -13   4   4  673.89   19.31
   9 -13   4  671.29   15.74
   9 -13   7    6.24    1.17
   9 -13   7    6.65    1.21
   3   9 -12   74.86   11.10
   9 -12 -12  122.42   16.44
   3   9 -12  118.45   16.42
 -12   3 -12   86.94   14.77
 -12   3 -12   92.84   11.00
   9 -12 -12   96.20   12.08
   9 -12  -9   44.43    6.89
   9 -12  -9   52.19   10.01
 -12   3  -9   54.39    7.71
   9 -12  -9   49.26    6.52
   9 -12  -9   49.32    7.87
 -12   3  -9   33.21    8.85
 -12   3  -9   40.09    5.36
   3   9  -9   35.80    7.45
   3   9  -9   43.90   10.28
   9 -12  -6  407.86   16.20
   3   9  -6  390.34    9.93
   3   9  -6  345.25   14.95
   3   9  -6  369.85   12.07
   9 -12  -6  402.98   12.18
 -12   3  -6  384.23   13.53
 -12   3  -6  394.33   14.26
 -12   3  -6  403.23   15.34
   3   9  -3  397.04   12.24
 -12   3  -3  368.04   13.40
   9 -12  -3  386.08   13.36
 -12   3  -3  392.85   10.73
   3   9  -3  392.96   11.06
 -12   3  -3  382.17   13.30
   3   9  -3  366.33   13.53
   9 -12  -3  380.14   10.00
 -12   3   0  362.05   13.48
   9 -12   0  396.67   12.25
   3   9   0  372.46   12.21
   3   9   0  397.67   13.52
 -12   3   0  370.82   13.54
   3   9   0  386.64   14.01
   9 -12   0  409.23   13.77
 -12   3   0  389.37   11.84
   3   9   3   45.26    6.12
 -12   3   3   46.89    5.44
   9 -12   3   48.82    6.35
 -12   3   3   50.54    6.24
   3   9   3   40.05    1.97
 -12   3   3   42.51    2.55
   3   9   3   44.04    5.56
 -12   3   3   44.88    6.34
   9 -12   3   41.79    2.09
   9 -12   6  277.09    7.85
   9 -11 -10  175.56   11.85
   2   9 -10  165.79   16.61
   9 -11 -10  192.77   14.32
   9 -11 -10  170.28   16.36
 -11   2 -10  197.04   18.37
   2   9 -10  191.01   11.55
 -11   2 -10  187.50   13.26
   9 -11 -10  166.38   11.17
   2   9 -10  199.97   14.75
 -11   2 -10  166.79   12.54
 -11   2  -7  668.90   18.13
   9 -11  -7  699.30   22.29
   2   9  -7  682.00   16.76
 -11   2  -7  728.38   21.57
 -11   2  -7  734.22   28.51
   2   9  -7  719.49   22.83
   9 -11  -7  700.27   17.07
 -11   2  -7  666.04   19.08
   9 -11  -4  968.95   22.17
 -11   2  -4 1023.74   21.76
 -11   2  -4 1045.25   22.27
   2   9  -4 1046.57   16.74
   9 -11  -4 1024.98   15.34
 -11   2  -4 1015.10   17.17
   2   9  -4 1059.99   17.79
   2   9  -4  968.27   22.56
 -11   2  -1 1743.79   26.82
 -11   2  -1 1725.17   21.63
   2   9  -1 1732.77   27.22
   2   9  -1 1822.83   23.86
 -11   2  -1 1765.42   27.89
   9 -11  -1 1703.39   26.20
   2   9  -1 1741.82   26.03
   9 -11  -1 1750.17   22.20
   9 -11   2  515.52   16.72
   2   9   2  508.10   17.04
 -11   2   2  524.41   16.91
 -11   2   2  501.74   15.16
 -11   2   2  499.15   15.57
   2   9   2  539.83    8.30
   2   9   2  503.71   16.00
   2   9   2  506.66   15.58
 -11   2   2  512.10   10.15
   9 -11   2  529.71   16.54
   9 -11   2  510.31    9.55
 -11   2   5 1281.21   17.18
   9 -11   5 1275.09   18.30
   1   9 -11  185.22   15.33
 -10   1 -11  227.69   20.05
   1   9 -11  216.90   19.56
 -10   1 -11  201.31   14.48
   9 -10 -11  210.55   18.58
   9 -10 -11  230.88   16.56
 -10   1 -11  214.31   15.06
 -10   1  -8   35.58    8.67
 -10   1  -8   23.83    5.21
   9 -10  -8   28.12    4.87
 -10   1  -8   38.52    5.03
   1   9  -8   25.99    4.82
   9 -10  -8   27.27    4.89
   9 -10  -8   39.51    6.89
 -10   1  -8   24.79    5.21
   9 -10  -8   34.49    4.91
   9 -10  -5  491.51   10.87
 -10   1  -5  479.92   15.00
   1   9  -5  499.94   10.46
 -10   1  -5  513.14   16.59
   1   9  -5  496.25   11.45
   9 -10  -5  470.50   16.39
 -10   1  -5  496.96   12.88
   1   9  -5  519.73   17.47
   1   9  -2  415.62   11.80
 -10   1  -2  389.85   13.06
 -10   1  -2  399.50   12.81
   1   9  -2  414.04   13.30
 -10   1  -2  423.32    9.30
   1   9  -2  429.45   10.13
   9 -10  -2  412.80    9.05
   9 -10  -2  436.74   13.31
   9 -10   1  111.23    7.43
   1   9   1  119.06    7.43
   1   9   1  117.11    7.77
 -10   1   1  110.26    7.08
 -10   1   1  134.97    6.17
   9 -10   1  119.63    7.46
   1   9   1  114.71    4.91
 -10   1   1  107.46    7.38
   1   9   1  126.25    7.43
   9 -10   1  117.06    5.69
 -10   1   1  117.03    6.96
 -10   1   4  300.23    8.15
   1   9   4  306.89    8.13
   9 -10   4  291.37    9.22
   9 -10   4  298.25    6.40
 -10   1   4  292.94   11.34
   9 -10   7   17.40    1.62
   9  -9 -12  102.13   14.03
   9  -9 -12  125.66   13.84
   0   9 -12  113.95   15.61
  -9   0 -12  101.97   11.56
   0   9 -12  101.04   12.38
  -9   0 -12  107.50   15.66
   9  -9  -9    6.44    3.76
   0   9  -9    6.99    3.66
   9  -9  -9    2.22    3.21
  -9   0  -9    7.74    7.84
   9  -9  -9    8.73    5.53
  -9   0  -9    6.43    4.10
  -9   0  -9   -1.34    4.04
  -9   0  -9    5.74    3.36
   0   9  -9    5.41    5.08
   9  -9  -6  532.93   12.90
  -9   0  -6  505.28   15.46
   9  -9  -6  527.08   12.48
   0   9  -6  542.62   12.17
  -9   0  -6  510.71   17.67
   9  -9  -6  520.81   18.53
   0   9  -6  488.68   18.07
  -9   0  -6  515.25   14.62
   9  -9  -3    2.92    1.15
   0   9  -3    2.43    1.47
   0   9  -3    1.69    2.73
   0   9  -3    2.80    1.74
  -9   0  -3    1.73    2.74
   9  -9  -3    1.35    2.48
  -9   0  -3    2.38    2.37
  -9   0  -3    1.91    1.34
  -9   0   0 1746.05   25.93
   0   9   0 1739.80   25.04
  -9   0   0 1681.08   21.32
   9  -9   0 1715.61   22.53
   0   9   0 1726.06   23.23
   9  -9   0 1744.25   24.01
   0   9   0 1726.63   25.61
  -9   0   0 1649.91   24.84
   9  -9   0 1623.30   24.45
   0   9   0 1735.99   22.02
  -9   0   0 1763.52   24.59
   0   9   3   14.57    4.25
   9  -9   3    7.16    3.82
  -9   0   3   15.02    4.05
   0   9   3    9.00    2.98
   9  -9   3    8.51    2.74
   9  -9   3   10.19    1.62
  -9   0   3    8.09    2.79
  -9   0   3    8.17    1.91
  -9   0   3   10.43    3.53
   0   9   3    8.11    1.76
   9  -9   3    9.78    4.00
  -9   0   6  317.70   11.37
   9  -9   6  331.07    8.23
  -1   9 -10  168.33   14.10
  -1   9 -10  181.33   10.25
  -8  -1 -10  177.34   13.55
   9  -8 -10  190.03   15.21
  -1   9 -10  177.59   16.52
  -8  -1 -10  192.40   12.78
  -8  -1 -10  205.56   17.97
  -8  -1 -10  186.08    9.81
   9  -8 -10  191.71   11.02
   9  -8 -10  170.49   10.58
   9  -8  -7 1026.58   24.44
   9  -8  -7 1033.30   19.93
  -1   9  -7 1074.04   18.53
  -8  -1  -7 1074.70   22.56
  -8  -1  -7 1055.13   26.93
  -8  -1  -7 1042.77   22.78
  -1   9  -7 1111.26   29.00
   9  -8  -7 1097.83   19.81
   9  -8  -7 1061.17   28.25
  -1   9  -4  235.35   11.21
  -8  -1  -4  276.57   10.93
   9  -8  -4  256.95    5.51
  -1   9  -4  271.43    6.28
   9  -8  -4  264.25   11.57
  -8  -1  -4  271.75   11.62
  -8  -1  -4  258.59    7.09
   9  -8  -1 1756.50   26.72
  -1   9  -1 1774.95   25.43
  -1   9  -1 1753.10   19.57
  -8  -1  -1 1674.23   24.46
  -8  -1  -1 1629.19   24.68
  -8  -1  -1 1728.39   17.15
   9  -8  -1 1731.90   18.24
  -1   9  -1 1671.69   22.83
  -1   9  -1 1657.38   24.47
   9  -8  -1 1730.37   24.62
  -8  -1   2  399.11   13.12
  -8  -1   2  395.48    9.50
  -8  -1   2  367.70   11.75
   9  -8   2  397.97   13.58
  -1   9   2  403.33   13.26
   9  -8   2  404.83    8.99
  -8  -1   2  394.95   13.18
   9  -8   2  392.49   11.27
  -1   9   2  404.52    8.72
  -1   9   2  383.60   12.73
   9  -8   2  392.14   13.02
  -1   9   2  409.71   13.68
  -1   9   5  860.12   17.50
  -8  -1   5  829.76   17.12
   9  -8   5  857.91   14.56
  -8  -1   5  832.06   17.09
   9  -8   5  813.82   14.93
   9  -7 -11  345.70   21.03
  -2   9 -11  379.48   21.83
  -7  -2 -11  317.21   16.91
  -2   9 -11  301.94   22.12
  -7  -2 -11  339.59   19.37
  -7  -2 -11  335.53   22.51
   9  -7 -11  311.02   21.34
  -7  -2  -8   82.17    6.90
  -2   9  -8  109.53    6.80
   9  -7  -8  101.66    7.11
   9  -7  -8   88.79    7.78
  -7  -2  -8  105.26    8.18
  -7  -2  -8   95.69    9.51
   9  -7  -8  100.31   10.34
  -2   9  -8   99.17    6.64
  -2   9  -8   90.96    9.95
  -7  -2  -5  895.13   15.55
   9  -7  -5  884.71   20.58
  -2   9  -5  900.03   11.58
   9  -7  -5  871.26   12.32
   9  -7  -5  862.76   12.46
  -2   9  -5  865.05   22.90
  -7  -2  -5  894.39   22.16
   9  -7  -5  849.59   22.41
  -7  -2  -5  884.58   19.71
  -7  -2  -2  584.44   14.85
  -2   9  -2  575.75    8.60
  -7  -2  -2  593.59   15.19
  -7  -2  -2  568.66    7.04
   9  -7  -2  571.65   15.12
  -2   9  -2  568.17   15.07
   9  -7  -2  578.04   14.84
   9  -7   1  363.55   10.99
  -2   9   1  392.13    9.21
  -7  -2   1  363.84    9.85
  -2   9   1  363.45   11.27
  -7  -2   1  350.66   10.98
   9  -7   1  386.43   11.47
  -7  -2   1  370.50   11.34
  -7  -2   1  363.39   10.79
   9  -7   1  384.18    9.74
   9  -7   1  352.57   11.31
   9  -7   4  164.06    6.57
  -2   9   4  181.98    7.73
   9  -7   4  171.36    7.07
  -7  -2   4  157.38    7.34
  -7  -2   4  160.23    7.34
  -7  -2   7  234.12   11.91
   9  -7   7  227.77    6.81
   9  -6 -12  251.58   20.05
  -3   9 -12  313.57   23.25
  -3   9 -12  274.20   19.86
  -6  -3 -12  295.61   22.20
  -6  -3 -12  268.30   18.62
   9  -6 -12  296.82   20.79
  -6  -3  -9   29.40    5.29
   9  -6  -9   41.74    7.65
  -6  -3  -9   26.08    6.55
   9  -6  -9   20.97    4.24
  -6  -3  -9   45.86    8.98
  -6  -3  -9   34.67    5.06
  -3   9  -9   31.60    7.19
   9  -6  -9   34.91    5.07
  -3   9  -9   26.41    4.08
   9  -6  -6  619.06   12.20
  -3   9  -6  570.61   10.72
  -3   9  -6  599.68   11.13
  -6  -3  -6  576.89   14.19
  -6  -3  -6  600.06   19.64
  -3   9  -6  621.62   21.13
   9  -6  -6  581.31   20.15
   9  -6  -6  581.48   17.00
  -6  -3  -6  594.17   16.61
  -3   9  -3  714.47   18.16
  -6  -3  -3  672.85   16.24
  -6  -3  -3  668.99   17.01
   9  -6  -3  712.69   16.95
   9  -6  -3  683.44   17.35
   9  -6   0 1100.70   18.11
  -3   9   0 1090.61   18.29
  -6  -3   0 1147.80   18.87
   9  -6   0 1143.58   19.61
  -6  -3   0 1118.68   18.80
  -6  -3   0 1113.55   19.26
  -3   9   0 1127.55   17.43
   9  -6   0 1149.46   18.72
   9  -6   3   81.30    6.40
  -6  -3   3   90.34    5.52
   9  -6   3   75.92    4.96
  -6  -3   3   84.33    5.18
  -3   9   3   79.90    4.98
  -6  -3   3   82.35    6.16
   9  -6   3   76.35    4.50
   9  -6   6  605.10   12.39
  -3   9   6  562.10   17.36
  -6  -3   6  570.91   17.23
  -5  -4 -10   17.48    6.54
   9  -5 -10   13.00    5.75
   9  -5 -10   12.19    3.72
  -4   9 -10   21.92    4.53
  -5  -4 -10   18.25    4.50
  -4   9 -10   15.42    6.84
   9  -5 -10   15.77    4.32
  -5  -4 -10   29.32    6.11
  -5  -4 -10   17.03    7.43
  -4   9  -7 1129.49   16.89
  -5  -4  -7 1127.59   29.25
  -5  -4  -7 1147.73   24.04
  -5  -4  -7 1077.93   21.33
   9  -5  -7 1137.88   19.03
   9  -5  -7 1101.10   30.02
   9  -5  -7 1152.75   23.69
  -4   9  -7 1141.07   30.51
  -4   9  -7 1121.09   17.97
   9  -5  -4   -0.84    2.72
  -5  -4  -4    1.28    1.02
  -5  -4  -4    3.84    2.57
   9  -5  -4   -0.62    2.32
  -4   9  -4    0.85    3.37
  -5  -4  -4    1.06    2.93
  -5  -4  -1 1216.26   21.40
   9  -5  -1 1232.04   20.70
   9  -5  -1 1276.76   21.60
   9  -5  -1 1231.71   19.83
  -5  -4  -1 1263.16   20.72
  -4   9  -1 1217.09   20.09
  -5  -4  -1 1248.67   20.29
  -4   9  -1 1274.49   20.74
   9  -5   2  174.04    7.47
  -5  -4   2  172.34    7.09
  -4   9   2  174.56    7.64
   9  -5   2  167.24    7.61
  -5  -4   2  170.18    7.13
  -4   9   2  166.93    6.69
  -5  -4   2  166.62    7.55
   9  -5   2  162.78    6.55
   9  -5   5 1007.27   16.97
  -5  -4   5 1020.16   21.60
  -5  -4   5 1043.08   15.91
  -4   9   5 1053.48   22.12
   9  -5   5 1015.35   19.92
   9  -5   8   17.00    2.61
  -5   9 -11  270.74   19.30
   9  -4 -11  310.86   20.92
  -4  -5 -11  303.30   20.88
  -4  -5 -11  288.85   15.72
  -4  -5 -11  266.32   18.45
  -4  -5  -8   71.82    8.51
  -4  -5  -8   69.53    6.49
   9  -4  -8   84.71    9.87
   9  -4  -8   83.66    6.29
  -4  -5  -8   84.55    7.18
  -5   9  -8   71.81    5.16
  -5   9  -8   70.51    9.45
   9  -4  -8   58.56    5.94
  -5   9  -5  736.52    8.23
  -4  -5  -5  815.06   22.45
  -4  -5  -5  764.84   18.84
  -5   9  -5  782.94   22.57
   9  -4  -5  801.28   11.31
   9  -4  -5  800.75   22.56
   9  -4  -5  799.21   18.32
  -4  -5  -5  764.50   13.19
  -5   9  -5  739.39    9.08
  -4  -5  -2  104.49    6.63
   9  -4  -2  111.56    6.71
   9  -4  -2  113.56    6.72
   9  -4  -2  129.53    7.83
  -5   9  -2  110.58    7.11
  -4  -5  -2  113.97    6.92
  -4  -5  -2  121.16    7.68
  -4  -5   1 1648.92   21.12
  -4  -5   1 1646.74   22.03
  -4  -5   1 1693.98   21.95
   9  -4   1 1659.36   22.93
  -5   9   1 1722.82   21.03
   9  -4   1 1640.98   20.57
  -5   9   1 1660.40   20.39
   9  -4   1 1760.35   21.84
  -5   9   4   19.66    3.43
   9  -4   4   17.68    3.22
  -4  -5   4   13.56    2.19
  -4  -5   4   18.96    3.41
   9  -4   4   20.72    2.99
   9  -4   7 1204.69   19.12
  -3  -6 -12  419.11   24.02
   9  -3 -12  451.61   26.36
  -3  -6 -12  363.93   23.78
  -6   9 -12  415.17   25.12
   9  -3 -12  422.87   24.73
  -6   9 -12  408.84   25.61
  -3  -6  -9   73.03    7.25
  -6   9  -9   58.85    9.62
  -3  -6  -9   73.86    9.72
   9  -3  -9   64.55    9.78
   9  -3  -9   67.00    6.37
  -3  -6  -9   58.76    6.73
  -6   9  -9   66.09    5.45
  -3  -6  -6  646.55   14.23
  -3  -6  -6  593.23   20.92
   9  -3  -6  643.70   12.82
   9  -3  -6  663.26   16.71
  -6   9  -6  645.92   22.38
  -3  -6  -6  624.46   17.82
   9  -3  -6  624.72   21.92
  -6   9  -6  653.97   10.60
  -6   9  -3  110.95    7.79
   9  -3  -3  112.23    6.74
  -6   9  -3  108.85    7.80
   9  -3  -3  106.60    7.55
   9  -3  -3  113.51    3.21
  -3  -6  -3  115.94    7.11
   9  -3  -3  120.35    8.11
  -3  -6  -3  102.50    7.75
  -3  -6  -3  123.88    8.06
  -3  -6   0 1900.21   24.60
  -3  -6   0 1980.63   24.96
   9  -3   0 1928.96   22.28
   9  -3   0 1974.12   25.63
   9  -3   0 1951.58   24.40
  -3  -6   0 1915.81   23.07
  -6   9   0 1891.23   23.44
  -6   9   0 1883.10   22.50
   9  -3   3  638.43   14.45
  -3  -6   3  611.74   12.31
   9  -3   3  615.78   14.49
  -6   9   3  665.48   15.64
  -3  -6   3  624.25   15.43
  -3  -6   3  628.78   13.76
   9  -3   3  632.60   14.47
  -3  -6   6  579.02   19.36
   9  -3   6  626.93   15.06
   9  -3   6  619.03   18.47
   9  -2 -10   33.13    5.41
   9  -2 -10   40.75    9.23
  -2  -7 -10   34.63    8.93
  -7   9 -10   35.20    5.16
  -7   9 -10   30.66    8.70
  -2  -7 -10   33.46    5.67
  -2  -7 -10   34.46    5.85
  -2  -7 -10   37.76    8.88
  -2  -7  -7  197.70   10.73
   9  -2  -7  198.46    9.35
  -7   9  -7  205.86   13.92
  -2  -7  -7  207.33   13.78
   9  -2  -7  215.58    8.94
  -7   9  -7  200.32    7.19
  -2  -7  -7  188.78    8.98
   9  -2  -7  224.35   14.35
   9  -2  -4   75.08    7.11
  -2  -7  -4   73.04    6.28
   9  -2  -4   84.75    7.53
  -7   9  -4   75.66    2.54
  -7   9  -4   82.85    7.54
   9  -2  -4   76.18    3.47
  -7   9  -4   86.44    7.54
  -2  -7  -4   88.97    7.92
  -2  -7  -4   75.73    3.56
   9  -2  -4   87.47    6.11
  -2  -7  -4   86.41    7.65
   9  -2  -1  721.89   16.10
  -2  -7  -1  728.83   16.35
   9  -2  -1  729.48   15.20
  -7   9  -1  685.15   15.22
   9  -2  -1  700.67   15.61
  -2  -7  -1  719.56   15.60
  -2  -7  -1  713.82   16.13
  -7   9   2  670.20   11.77
   9  -2   2  735.67   15.57
  -2  -7   2  709.14   12.74
  -2  -7   2  724.16   16.07
  -2  -7   2  714.96   14.00
  -7   9   2  708.60   15.51
   9  -2   2  677.78   12.44
   9  -2   2  695.35   15.54
   9  -2   5  843.73   20.48
  -7   9   5  855.69   21.73
  -2  -7   5  845.57   12.15
  -2  -7   5  789.76   21.09
   9  -2   5  834.65   17.48
   9  -2   8  134.08    7.55
  -8   9 -11  490.39   27.10
  -1  -8 -11  482.68   25.26
  -1  -8 -11  484.05   25.54
   9  -1 -11  516.44   27.27
  -1  -8 -11  447.56   19.20
   9  -1 -11  501.89   18.48
  -1  -8  -8  577.42   24.03
  -1  -8  -8  542.85   16.76
  -1  -8  -8  571.59   18.89
  -8   9  -8  602.11   25.45
   9  -1  -8  542.83   23.71
  -8   9  -8  585.92   13.96
   9  -1  -8  534.33   14.80
   9  -1  -8  576.20   16.23
   9  -1  -5  896.66   14.48
  -1  -8  -5  808.65   20.18
  -1  -8  -5  868.27   14.74
  -1  -8  -5  842.18   23.78
  -8   9  -5  902.00   25.62
  -1  -8  -5  934.46   25.38
   9  -1  -5  832.45   24.34
   9  -1  -5  799.84   22.75
  -8   9  -5  852.51   11.61
   9  -1  -5  884.19   18.30
  -1  -8  -2  161.04    8.60
  -1  -8  -2  158.10    4.85
  -1  -8  -2  173.40    8.68
  -8   9  -2  158.50    8.60
   9  -1  -2  168.15    6.03
   9  -1  -2  156.70    8.27
   9  -1  -2  181.29    8.84
   9  -1  -2  168.79    8.04
  -1  -8  -2  168.23    8.62
  -8   9  -2  163.23    8.39
  -1  -8   1 1590.79   23.43
   9  -1   1 1639.96   23.46
   9  -1   1 1602.48   23.92
  -8   9   1 1598.67   17.95
  -8   9   1 1627.30   22.95
   9  -1   1 1605.41   18.03
  -1  -8   1 1576.98   19.22
  -1  -8   1 1608.38   22.50
   9  -1   4  185.52    9.49
   9  -1   4  198.12    8.91
  -8   9   4  192.60   10.23
  -1  -8   4  190.92   10.00
  -1  -8   4  198.29    6.59
   9  -1   7  994.75   21.23
   0  -9 -12  233.86   18.81
  -9   9 -12  229.43   20.56
   9   0 -12  283.32   22.15
   0  -9  -9    8.46    4.08
   0  -9  -9    9.89    4.21
   9   0  -9   23.40    4.83
   0  -9  -9   17.11    7.28
  -9   9  -9   12.21    3.45
   9   0  -9    7.07    6.09
  -9   9  -9    9.14    6.41
   0  -9  -6  395.05   15.20
  -9   9  -6  417.09   19.14
   9   0  -6  388.19   18.12
   9   0  -6  378.91   11.21
  -9   9  -6  395.72    9.75
   0  -9  -6  362.50   17.49
   9   0  -6  390.21   12.41
   0  -9  -6  391.61   11.66
  -9   9  -3   10.94    3.70
   9   0  -3   13.15    2.54
  -9   9  -3   11.13    2.01
   9   0  -3    5.94    3.63
   9   0  -3    9.40    2.70
   0  -9  -3   19.07    4.77
   9   0  -3   11.41    3.57
   0  -9  -3   17.06    4.13
   0  -9  -3    8.68    1.69
   0  -9  -3   14.57    4.01
  -9   9  -3    8.03    3.59
  -9   9   0 2023.05   23.47
   9   0   0 2010.16   22.36
   0  -9   0 1963.49   23.87
   9   0   0 2089.10   27.98
   0  -9   0 2027.37   27.43
   0  -9   0 2002.12   26.80
  -9   9   0 1840.71   24.83
   9   0   0 1825.07   25.33
   0  -9   3    3.35    1.75
   9   0   3   -0.02    2.58
  -9   9   3    1.12    2.66
   9   0   3    0.66    2.34
   0  -9   3   -1.54    2.89
   0  -9   3   -0.79    1.76
   9   0   6  601.29   16.58
   1 -10 -10   52.42    7.13
   9   1 -10   51.18   10.02
 -10   9 -10   49.08   10.08
 -10   9 -10   51.72    5.70
   1 -10 -10   51.59    6.81
   1 -10 -10   64.24   10.87
   9   1 -10   47.84    6.59
   9   1  -7   51.18    5.24
   1 -10  -7   56.82    8.59
 -10   9  -7   29.99    7.18
   1 -10  -7   40.43    5.96
   9   1  -7   45.09    4.73
   9   1  -7   34.73    7.08
 -10   9  -7   47.21    4.24
   1 -10  -7   54.64    5.42
   1 -10  -4  265.95    8.09
   1 -10  -4  290.26   14.04
 -10   9  -4  261.01   13.81
   9   1  -4  268.07   10.40
   9   1  -4  275.73   13.60
   9   1  -4  265.60    8.60
 -10   9  -4  263.42    7.62
   9   1  -4  261.52   12.21
   1 -10  -4  266.54   12.31
   1 -10  -4  247.75   11.75
 -10   9  -4  246.48   11.90
   1 -10  -1  186.40    8.65
 -10   9  -1  186.39    7.85
   9   1  -1  191.79    8.29
 -10   9  -1  182.40    8.40
   1 -10  -1  187.19    8.81
   9   1  -1  185.32    8.63
   9   1  -1  177.01    8.53
   1 -10  -1  193.96    9.38
   9   1  -1  177.83    8.08
   1 -10  -1  185.65    7.34
 -10   9  -1  198.04    9.06
 -10   9   2  557.46   15.38
   9   1   2  598.35   15.87
   1 -10   2  594.16   16.15
 -10   9   2  585.24    8.94
   9   1   2  585.97    9.43
   1 -10   2  573.67   10.28
   9   1   2  584.78   16.01
   1 -10   2  554.95   13.41
   9   1   5  370.82   13.51
   1 -10   5  377.89    8.30
   9   1   8   40.36    5.56
   2 -11 -11  322.52   20.34
   9   2 -11  295.93   22.22
 -11   9 -11  301.83   22.54
   2 -11 -11  348.63   17.07
   9   2 -11  322.81   15.96
   2 -11 -11  318.98   16.30
   2 -11  -8  312.99   13.20
   9   2  -8  315.87   13.02
   9   2  -8  277.71   10.04
 -11   9  -8  304.11   11.22
   9   2  -8  295.82   18.76
   2 -11  -8  287.80   17.90
   2 -11  -8  302.51   14.89
 -11   9  -8  301.84   19.26
   2 -11  -5  990.17   24.52
   9   2  -5  961.26   19.70
   2 -11  -5 1005.72   18.06
   2 -11  -5  971.00   27.26
   9   2  -5  991.85   27.57
 -11   9  -5  980.79   28.22
   2 -11  -5  984.51   24.41
   9   2  -5  982.11   18.46
 -11   9  -5 1008.79   16.49
   9   2  -5  972.36   24.36
   9   2  -2  696.41   17.82
 -11   9  -2  702.76   18.81
   2 -11  -2  672.35   13.60
   9   2  -2  689.83   16.76
   2 -11  -2  709.12   18.78
   2 -11  -2  693.38   18.49
   9   2  -2  680.81   15.27
   2 -11  -2  673.47   16.83
 -11   9  -2  713.06   17.20
 -11   9  -2  681.83   14.41
   9   2  -2  700.75   17.38
 -11   9   1 2022.39   20.49
 -11   9   1 1920.24   27.68
   2 -11   1 2021.29   21.90
   9   2   1 2001.09   28.82
   9   2   1 1980.05   29.26
   2 -11   1 1977.71   27.57
   9   2   1 2032.56   19.17
   2 -11   1 2026.24   29.33
   2 -11   4 1017.75   16.06
   9   2   4 1011.69   24.34
   9   2   4 1008.80   22.22
   9   2   7  832.15   22.21
   9   3 -12  143.03   17.28
   3 -12 -12  145.08   14.91
 -12   9 -12  134.45   16.58
   3 -12 -12  176.70   18.01
   3 -12  -9    3.66    4.44
   3 -12  -9    1.40    3.20
 -12   9  -9   15.98    7.91
   9   3  -9   16.53    7.62
   9   3  -9    0.49    3.67
   3 -12  -9   20.85    7.22
 -12   9  -9   -1.42    3.09
   9   3  -6  263.13   10.37
   3 -12  -6  271.54   13.82
 -12   9  -6  265.50   16.16
 -12   9  -6  267.10    9.59
   9   3  -6  233.91   15.01
   3 -12  -6  265.67   15.95
   9   3  -6  271.68   10.89
   3 -12  -6  272.20   10.87
   3 -12  -3    7.17    3.46
   9   3  -3    4.15    2.42
   3 -12  -3    3.40    3.35
   3 -12  -3    6.62    3.15
   9   3  -3    9.23    2.95
 -12   9  -3    6.71    2.50
   9   3  -3    5.75    3.05
 -12   9  -3    7.68    4.57
   9   3  -3    5.09    3.16
 -12   9  -3    6.00    3.02
   3 -12  -3    4.30    2.05
   9   3   0  504.38   14.89
   3 -12   0  518.19   14.88
 -12   9   0  498.30   15.41
   3 -12   0  540.58   15.16
   3 -12   0  519.23   15.56
   9   3   0  510.11   15.25
 -12   9   0  513.74   13.09
 -12   9   0  545.79   14.92
   3 -12   0  502.48   13.22
   9   3   0  509.67   11.93
 -12   9   3  319.80   13.48
   3 -12   3  299.17    6.11
   3 -12   3  323.73   13.86
   9   3   3  311.88   13.35
   9   3   3  308.18   12.67
   3 -12   3  305.01   10.32
   3 -12   6  451.43    7.96
   4 -13 -10  395.12   23.61
   4 -13 -10  368.32   18.09
   9   4 -10  375.05   16.86
 -13   9 -10  362.60   14.64
   4 -13 -10  353.73   16.76
 -13   9 -10  356.74   23.51
   9   4 -10  371.54   23.95
   4 -13  -7   28.41    6.04
   4 -13  -7   27.32    7.34
   9   4  -7   23.71    4.33
 -13   9  -7   18.14    6.16
   4 -13  -7   25.25    4.46
 -13   9  -7   28.42    4.16
   9   4  -7   31.30    7.41
   9   4  -7   29.29    4.07
   4 -13  -4  509.13   16.25
   9   4  -4  509.65   15.01
   9   4  -4  529.36   16.63
 -13   9  -4  512.02   13.46
   4 -13  -4  499.46   19.43
 -13   9  -4  492.87   19.61
 -13   9  -4  517.95   15.57
   9   4  -4  524.40   14.69
   9   4  -4  500.85   18.86
   4 -13  -4  511.10   13.65
   4 -13  -4  522.24   18.17
 -13   9  -4  507.70   16.58
   4 -13  -1  472.56   15.95
 -13   9  -1  487.38   14.74
   9   4  -1  487.10   15.22
   9   4  -1  485.91   15.19
 -13   9  -1  487.55   14.88
   4 -13  -1  476.64   14.80
   4 -13  -1  481.41   14.52
   9   4  -1  464.78   14.42
   9   4  -1  494.09   14.09
 -13   9  -1  472.55   14.30
   4 -13  -1  499.62   14.25
   9   4   2 1001.59   10.19
   9   4   2 1032.26   23.00
 -13   9   2 1013.07   22.66
   9   4   2 1006.76   23.01
   4 -13   2 1019.67   13.50
   4 -13   2  992.84   23.14
   4 -13   2  961.71   19.71
 -13   9   2  998.20   11.31
   4 -13   5   31.23    3.20
   5 -14 -11  348.26   20.10
   5 -14 -11  313.12   22.87
   5 -14 -11  320.74   16.88
   5 -14 -11  304.16   17.40
 -14   9 -11  366.60   25.84
   9   5 -11  349.18   24.75
   9   5 -11  327.39   16.85
   9   5  -8  518.73   18.09
 -14   9  -8  505.35   16.07
 -14   9  -8  481.73   25.20
   5 -14  -8  479.84   17.46
   5 -14  -8  479.32   20.02
   9   5  -8  510.69   25.32
   5 -14  -8  467.04   23.86
   9   5  -5  837.36   19.66
   9   5  -5  860.99   20.17
 -14   9  -5  864.40   18.81
 -14   9  -5  876.34   20.82
 -14   9  -5  881.49   28.23
   5 -14  -5  901.53   25.07
   5 -14  -5  821.16   21.48
   5 -14  -5  871.28   19.42
   9   5  -5  846.61   26.90
   5 -14  -2 1233.41   22.22
 -14   9  -2 1193.65   25.18
 -14   9  -2 1185.37   23.16
   9   5  -2 1227.39   24.18
 -14   9  -2 1280.10   27.16
   9   5  -2 1219.38   25.26
   9   5  -2 1227.69   24.14
   5 -14  -2 1157.51   25.77
   5 -14  -2 1190.06   23.23
 -14   9  -2 1239.02   23.30
   9   5  -2 1195.49   24.21
   5 -14  -2 1269.80   27.32
   9   5   1 2211.73   33.87
 -14   9   1 2304.73   24.50
   5 -14   1 2281.46   25.59
 -14   9   1 2223.73   33.12
   9   5   1 2252.17   34.47
   9   5   1 2265.26   21.34
   5 -14   1 2277.91   32.95
   5 -14   1 2200.44   33.56
   5 -14   4  166.22    7.88
 -15   9 -12   22.91   11.42
   6 -15 -12   41.46   10.74
   6 -15  -9   72.35    8.92
   9   6  -9   57.27    7.53
 -15   9  -9   68.12   11.50
   6 -15  -9   62.02    7.56
   6 -15  -9   74.29   11.86
 -15   9  -9   69.18    7.09
   9   6  -9   48.23    9.94
 -15   9  -6   68.17    6.61
   6 -15  -6   79.15    9.73
   6 -15  -6   82.30    6.97
   9   6  -6   91.09   10.75
 -15   9  -6   83.55   10.61
   9   6  -6   76.90    6.47
 -15   9  -6   82.19    6.80
   9   6  -6   76.85    7.20
   6 -15  -6   60.75    7.90
   9   6  -3  616.82   17.70
   6 -15  -3  560.76   15.67
 -15   9  -3  583.96   17.21
   9   6  -3  596.76   17.57
 -15   9  -3  548.54   17.68
   6 -15  -3  567.86   16.71
   9   6  -3  587.31   19.64
   9   6  -3  567.64   17.22
   6 -15  -3  577.39   19.85
 -15   9  -3  649.83   17.30
   6 -15  -3  627.54   21.08
 -15   9  -3  585.98   20.72
   6 -15   0  416.11   15.26
   6 -15   0  405.81   15.19
 -15   9   0  464.66   16.79
   6 -15   0  437.38   13.52
   9   6   0  451.14   15.39
   6 -15   0  448.25   15.10
   9   6   0  367.83   15.52
   9   6   0  447.78   12.11
 -15   9   0  478.66   16.97
 -15   9   0  453.05   15.09
 -15   9   0  437.91   13.45
   9   6   0  424.62   15.43
   6 -15   3  255.36   10.68
   6 -15   3  240.25    4.93
   6 -15   6  335.53    9.31
   7 -16 -10  198.08   18.50
 -16   9 -10  238.77   20.89
 -16   9 -10  208.68   12.21
   7 -16 -10  190.49   14.20
   7 -16 -10  232.22   14.25
   9   7 -10  193.17   13.20
   9   7 -10  210.32   19.28
   7 -16  -7   22.40    5.99
   9   7  -7   19.28    6.71
   9   7  -7   11.96    3.65
 -16   9  -7   18.00    4.38
   7 -16  -7   14.87    7.22
   7 -16  -7   17.39    4.39
 -16   9  -7    6.79    5.22
 -16   9  -7   17.11    4.28
   9   7  -7   19.78    4.77
 -16   9  -4 1223.09   32.29
   9   7  -4 1196.33   25.16
 -16   9  -4 1235.10   27.28
   7 -16  -4 1245.42   30.52
   7 -16  -4 1252.43   32.17
   9   7  -4 1218.16   30.77
   7 -16  -4 1210.40   25.14
 -16   9  -4 1259.25   24.94
   9   7  -4 1281.95   26.57
   7 -16  -4 1198.82   24.19
   9   7  -4 1194.78   25.85
   9   7  -1  465.79   14.75
   9   7  -1  445.71   15.47
 -16   9  -1  433.30   16.61
   9   7  -1  412.34   15.44
   9   7  -1  467.26   17.05
 -16   9  -1  451.61   15.72
 -16   9  -1  453.11   15.06
   7 -16  -1  455.52   17.06
   7 -16  -1  479.80   16.09
 -16   9  -1  388.64   15.27
   7 -16  -1  440.56   15.03
   7 -16  -1  487.76   16.15
   7 -16   2  815.15   13.61
   9   7   2  800.69    8.94
   7 -16   2  838.96   20.77
 -16   9   2  815.10   12.54
   7 -16   5  156.72    7.98
   8 -17 -11  261.82   17.46
 -17   9 -11  242.11   22.29
   9   8 -11  272.41   22.53
   8 -17 -11  278.81   22.77
   9   8 -11  277.68   16.75
   8 -17 -11  247.51   15.87
   8 -17  -8  122.11   13.91
   8 -17  -8  169.37   11.34
 -17   9  -8  145.52   10.08
 -17   9  -8  130.19   14.49
   9   8  -8  136.27   10.77
 -17   9  -8  149.32   10.23
   9   8  -8  170.04   16.44
   8 -17  -8  152.31   12.53
 -17   9  -5 1293.88   28.72
   9   8  -5 1230.68   25.94
   8 -17  -5 1408.85   27.78
   8 -17  -5 1308.49   32.85
   9   8  -5 1433.54   36.28
   8 -17  -5 1230.20   26.17
   8 -17  -5 1330.98   35.82
 -17   9  -5 1364.21   37.02
 -17   9  -5 1350.93   26.98
   9   8  -5 1376.98   28.96
   8 -17  -2  590.14   20.57
 -17   9  -2  550.68   19.46
 -17   9  -2  537.68   16.79
   9   8  -2  611.76   19.16
   9   8  -2  556.76   18.76
   8 -17  -2  572.85   17.45
 -17   9  -2  577.44   18.53
   8 -17  -2  580.59   19.72
 -17   9  -2  598.60   19.90
   8 -17  -2  530.62   17.13
   8 -17   1 1218.87   29.25
 -17   9   1 1226.24   20.56
   8 -17   1 1199.86   20.99
   8 -17   1 1225.08   27.00
 -17   9   1 1247.68   30.48
 -17   9   1 1235.42   29.23
   9   8   1 1270.70   17.80
   8 -17   4  109.18    7.48
   8 -17   7  452.89   10.78
   8 -17   7  474.27   10.58
   9 -18  -9  188.32   17.68
 -18   9  -9  146.34   16.60
   9   9  -9  193.17   13.53
   9   9  -9  129.03   15.08
   9 -18  -9  150.71   13.26
 -18   9  -9  170.72   11.51
   9 -18  -9  178.12   12.64
   9   9  -6    9.90    4.70
 -18   9  -6    2.01    3.29
   9 -18  -6    4.08    4.70
 -18   9  -6    0.70    6.09
   9   9  -6    4.51    4.93
   9 -18  -6   17.27    7.46
   9   9  -6    8.06    3.95
 -18   9  -6   10.57    3.84
   9 -18  -6    7.59    4.04
   9   9  -3  351.11   15.52
   9 -18  -3  283.32   15.56
   9   9  -3  301.03   15.12
   9 -18  -3  329.07   13.61
 -18   9  -3  318.98   15.13
   9 -18  -3  348.04   16.71
 -18   9  -3  340.61   14.71
   9 -18  -3  346.95   14.39
 -18   9  -3  333.74   16.96
 -18   9   0   11.00    4.47
 -18   9   0   12.50    4.65
   9 -18   0   18.14    5.32
   9 -18   0   13.95    3.50
   9   9   0   15.06    5.06
 -18   9   0   14.04    3.71
   9   9   0   16.11    3.40
   9 -18   3  380.85    7.45
   9 -18   3  388.43    8.10
   9 -18   6   21.79    3.78
   9 -18   6   21.71    3.84
 -19   9 -10  294.82   24.18
 -19   9 -10  283.39   15.73
   9  10 -10  290.39   17.49
  10 -19 -10  280.09   22.27
  10 -19 -10  286.80   16.88
  10 -19 -10  305.06   19.44
 -19   9  -7  147.63   10.91
   9  10  -7  142.04   14.53
 -19   9  -7  138.42   15.00
  10 -19  -7  141.48   10.62
 -19   9  -7  146.46   10.43
  10 -19  -7  132.87   13.74
   9  10  -7  149.18   11.40
  10 -19  -7  121.10   11.78
   9  10  -4  920.55   28.33
  10 -19  -4  915.95   28.33
 -19   9  -4  937.10   26.44
  10 -19  -4  903.92   23.85
 -19   9  -4  937.62   24.50
   9  10  -4  904.66   25.30
  10 -19  -4  949.99   29.67
 -19   9  -1  337.60   14.92
 -19   9  -1  350.51   16.63
 -19   9  -1  347.29   16.25
   9  10  -1  329.84   13.49
   9  10  -1  328.93   16.32
  10 -19  -1  316.98   15.20
  10 -19  -1  347.50   14.93
 -19   9   2 1132.88   32.28
  10 -19   2 1077.38   30.80
  10 -19   2 1063.70   18.01
 -19   9   2 1113.78   18.41
 -19   9   2 1136.82   29.95
 -19   9   2 1151.34   18.15
   9  10   2 1020.21   12.77
   9  10   2 1064.09   12.31
  10 -19   5  166.95    9.44
   8  10 -11   76.56   14.46
  10 -18 -11   78.61   10.78
  10 -18 -11   88.03   14.84
 -18   8 -11   71.89   14.07
  10 -18 -11   81.75   10.25
   8  10 -11   70.59   10.38
 -18   8  -8  130.13   10.38
 -18   8  -8  131.22   10.08
   8  10  -8  136.17   11.34
  10 -18  -8  122.28   11.81
   8  10  -8  142.88   15.42
 -18   8  -8  148.89   15.45
  10 -18  -8  165.82   11.94
  10 -18  -8  128.66   14.44
   8  10  -5  416.13   20.37
 -18   8  -5  378.83   15.42
  10 -18  -5  383.93   15.75
  10 -18  -5  372.57   14.47
 -18   8  -5  352.92   16.16
 -18   8  -5  387.79   20.79
  10 -18  -5  401.99   20.54
   8  10  -5  404.99   16.93
  10 -18  -5  407.52   19.03
   8  10  -5  352.85   14.56
   8  10  -2  163.09   11.00
  10 -18  -2  135.29    9.69
 -18   8  -2  155.20   11.28
 -18   8  -2  156.43   10.60
 -18   8  -2  165.98   11.37
   8  10  -2  156.93   10.32
 -18   8  -2  129.77    8.71
  10 -18  -2  144.98    9.12
  10 -18   1  633.13   22.05
   8  10   1  695.28   14.04
 -18   8   1  688.88   23.31
 -18   8   1  696.92   22.74
   8  10   1  672.13   23.75
  10 -18   1  664.15   16.43
 -18   8   1  683.29   16.66
  10 -18   4  494.03   16.12
  10 -18   7  286.29    9.36
  10 -18   7  237.04    8.85
 -17   7  -9   48.38    7.12
  10 -17  -9   58.68    8.94
 -17   7  -9   39.62    6.25
   7  10  -9   49.92   10.33
   7  10  -9   43.22    7.50
  10 -17  -9   49.06   10.31
  10 -17  -9   51.64    7.75
 -17   7  -9   60.65   11.60
  10 -17  -6  166.16   14.18
   7  10  -6  153.57    9.22
  10 -17  -6  154.39   12.08
   7  10  -6  171.69   11.39
 -17   7  -6  160.88   10.33
 -17   7  -6  150.15   10.55
   7  10  -6  177.69   14.53
 -17   7  -6  193.49   15.33
  10 -17  -6  149.80    9.16
  10 -17  -6  165.98   10.92
  10 -17  -3  116.75    7.72
   7  10  -3   98.13    8.47
   7  10  -3  109.71    7.94
  10 -17  -3  104.14    8.19
 -17   7  -3   98.11    8.13
 -17   7  -3  126.00   10.85
 -17   7  -3  107.94    7.50
 -17   7  -3  106.65    9.09
   7  10  -3  106.09    8.28
 -17   7   0  108.52    9.43
  10 -17   0  107.49    8.21
  10 -17   0   98.74    8.52
 -17   7   0   94.10    8.58
 -17   7   0   89.27    7.38
   7  10   0   95.39    8.95
  10 -17   3  278.57    6.35
 -17   7   3  286.98   14.78
 -17   7   3  258.33    6.07
 -17   7   3  254.22    5.65
  10 -17   3  289.47    6.26
  10 -17   6  108.43    6.93
  10 -17   6  128.57    7.28
 -16   6 -10  690.55   34.21
  10 -16 -10  672.55   32.59
   6  10 -10  660.69   33.43
  10 -16 -10  699.33   26.10
  10 -16 -10  673.53   26.19
   6  10 -10  721.39   26.60
 -16   6 -10  674.38   23.65
   6  10  -7    1.09    4.31
 -16   6  -7    0.06    3.72
 -16   6  -7    4.20    3.74
  10 -16  -7    2.78    3.78
  10 -16  -7   13.29    5.81
   6  10  -7    8.74    3.28
 -16   6  -7   -3.88    6.80
   6  10  -7    8.84    5.99
   6  10  -7    4.50    3.78
  10 -16  -7    5.95    3.62
  10 -16  -7   10.63    6.81
 -16   6  -4 1789.79   39.72
   6  10  -4 1825.86   29.03
   6  10  -4 1750.30   29.76
  10 -16  -4 1852.07   27.35
 -16   6  -4 1825.99   33.71
   6  10  -4 1873.20   33.99
 -16   6  -4 1846.42   32.41
 -16   6  -4 1843.51   28.86
  10 -16  -4 1778.29   31.67
 -16   6  -1  497.04   18.02
   6  10  -1  449.31   15.18
 -16   6  -1  486.54   17.41
  10 -16  -1  491.16   15.25
 -16   6  -1  472.35   14.90
   6  10  -1  486.78   16.81
  10 -16  -1  479.30   16.56
   6  10  -1  501.21   17.90
  10 -16   2 2394.31   41.97
 -16   6   2 2468.09   24.79
   6  10   2 2321.48   18.19
 -16   6   2 2433.13   39.92
  10 -16   2 2427.62   24.97
   6  10   2 2514.01   17.78
 -16   6   2 2483.65   43.51
  10 -16   2 2494.16   25.86
  10 -16   5   11.40    3.29
  10 -15 -11  108.67   15.30
 -15   5 -11  118.18   11.39
  10 -15 -11  137.99   12.49
   5  10 -11  151.37   17.62
   5  10 -11  158.62   13.94
  10 -15 -11  139.39   12.83
 -15   5 -11  124.37   17.07
  10 -15  -8   37.94    9.16
  10 -15  -8   35.62    6.85
  10 -15  -8   42.00    6.90
   5  10  -8   39.65    6.54
 -15   5  -8   25.06    4.84
   5  10  -8   39.40    9.23
 -15   5  -8   55.24    7.56
 -15   5  -8   45.01   10.13
 -15   5  -5  231.71   10.46
  10 -15  -5  258.40   10.08
 -15   5  -5  231.92   11.84
 -15   5  -5  238.48   12.24
   5  10  -5  239.94   10.46
   5  10  -5  219.88   10.03
  10 -15  -5  239.98   12.27
   5  10  -5  230.19   12.50
 -15   5  -5  238.18   15.92
 -15   5  -2  753.28   21.09
 -15   5  -2  781.09   17.51
   5  10  -2  754.98   19.82
   5  10  -2  777.18   18.20
 -15   5  -2  741.81   19.96
   5  10  -2  774.77   21.14
  10 -15  -2  751.35   17.09
  10 -15  -2  804.32   20.45
   5  10   1  750.71   13.86
 -15   5   1  729.62   21.26
 -15   5   1  675.42   21.11
  10 -15   1  699.95   21.07
   5  10   1  742.26   22.49
 -15   5   1  725.93   19.50
   5  10   1  778.24   20.88
  10 -15   1  688.42   19.48
  10 -15   7  176.77    6.35
  10 -15   7  201.89    6.61
  10 -14 -12   12.94    9.59
   4  10 -12    0.02    8.32
   4  10 -12   -2.72    6.72
  10 -14 -12    8.38    7.01
 -14   4 -12    6.51    9.12
   4  10  -9  194.12   13.94
 -14   4  -9  242.55   19.72
 -14   4  -9  219.16   11.56
   4  10  -9  234.50   18.54
  10 -14  -9  226.85   14.71
 -14   4  -9  214.56   13.31
  10 -14  -9  246.85   19.46
  10 -14  -9  215.48   12.18
  10 -14  -9  243.35   14.69
  10 -14  -6   17.51    3.47
   4  10  -6   19.33    5.01
 -14   4  -6   13.67    4.05
  10 -14  -6   16.43    4.64
   4  10  -6   17.21    3.10
 -14   4  -6   24.68    7.13
 -14   4  -6   17.80    4.19
 -14   4  -6   15.84    3.78
   4  10  -6   18.20    3.74
  10 -14  -3  840.85   20.68
   4  10  -3  861.50   19.61
 -14   4  -3  834.32   17.03
  10 -14  -3  821.04   16.19
 -14   4  -3  840.85   20.90
   4  10  -3  834.66   21.59
 -14   4  -3  863.49   21.98
   4  10  -3  877.72   18.04
   4  10   0  105.18    8.42
  10 -14   0  105.73    8.10
   4  10   0  100.97    7.71
   4  10   0  106.51    7.48
 -14   4   0  104.21    7.01
 -14   4   0  100.49    8.18
 -14   4   0   97.42    7.86
  10 -14   0   90.72    6.81
 -14   4   3  366.85   16.80
 -14   4   3  338.35    7.23
  10 -14   3  344.77    6.41
 -14   4   3  348.94   14.54
  10 -14   6   13.50    2.80
  10 -13 -10  747.22   25.20
  10 -13 -10  781.03   34.10
 -13   3 -10  774.27   26.34
   3  10 -10  763.92   27.48
   3  10 -10  818.55   35.58
  10 -13 -10  757.11   27.70
 -13   3 -10  741.87   34.23
  10 -13 -10  690.08   21.73
 -13   3  -7   14.83    4.28
 -13   3  -7   10.84    6.44
  10 -13  -7   11.81    4.91
   3  10  -7   18.10    5.46
   3  10  -7    5.92    2.96
 -13   3  -7   13.11    3.99
  10 -13  -7    6.68    3.25
 -13   3  -7   12.77    4.33
   3  10  -4 2719.47   32.07
   3  10  -4 2687.82   38.97
 -13   3  -4 2650.53   37.41
 -13   3  -4 2673.34   29.35
   3  10  -4 2641.91   29.49
 -13   3  -4 2779.71   37.79
  10 -13  -4 2704.13   27.24
  10 -13  -4 2687.84   37.72
   3  10  -1  374.72   13.49
 -13   3  -1  370.57   14.03
  10 -13  -1  383.88   13.66
   3  10  -1  368.43   11.96
  10 -13  -1  374.71   11.55
 -13   3  -1  363.96   11.13
 -13   3  -1  368.78   13.61
   3  10  -1  378.44   14.03
  10 -13   2 2659.65   40.23
   3  10   2 2644.52   38.00
  10 -13   2 2706.74   24.23
   3  10   2 2684.07   19.30
 -13   3   2 2392.98   35.66
   3  10   2 2628.69   38.68
  10 -13   2 2612.72   38.63
   3  10   2 2575.25   41.06
 -13   3   2 2759.16   24.99
 -13   3   2 2610.03   37.44
 -13   3   2 2485.50   39.77
  10 -13   5  329.68   10.62
 -13   3   5  317.16    7.54
  10 -12 -11  153.18   12.03
   2  10 -11  166.37   17.48
 -12   2 -11  146.15   12.39
 -12   2 -11  161.58   13.13
  10 -12 -11  136.22   13.26
 -12   2 -11  167.27   18.16
  10 -12 -11  194.35   18.21
   2  10 -11  161.58   14.30
   2  10  -8   15.95    5.38
 -12   2  -8   14.39    3.90
 -12   2  -8    6.03    4.77
  10 -12  -8   10.26    3.84
  10 -12  -8   26.36    6.49
  10 -12  -8    9.37    4.48
 -12   2  -8   20.05    7.43
  10 -12  -8   15.17    3.99
   2  10  -8   15.10    3.97
   2  10  -5  392.42   15.62
  10 -12  -5  344.64   14.65
 -12   2  -5  320.35   13.04
  10 -12  -5  383.85   10.02
   2  10  -5  367.06   10.63
 -12   2  -5  378.24   11.52
 -12   2  -5  355.32   14.15
   2  10  -5  375.21   10.72
 -12   2  -2    0.84    3.03
   2  10  -2    4.81    2.21
 -12   2  -2    6.04    2.03
 -12   2  -2    5.85    3.17
  10 -12  -2    0.62    3.01
   2  10  -2    3.02    2.65
   2  10  -2   -0.59    2.88
  10 -12  -2    0.61    1.78
   2  10   1    8.25    1.89
  10 -12   1   14.45    4.32
 -12   2   1    9.95    2.94
 -12   2   1    8.93    2.57
   2  10   1    7.66    3.72
 -12   2   1    8.27    3.59
  10 -12   1    9.55    3.05
  10 -12   1   10.27    2.83
   2  10   1   12.66    3.36
 -12   2   1    2.35    3.05
   2  10   1   11.89    3.77
  10 -12   4  133.12    3.70
 -12   2   4  133.40    5.20
 -12   2   4  147.87    8.94
  10 -12   4  142.09    7.40
   2  10   4  141.93    4.98
  10 -12   7  106.88    4.47
   1  10 -12   10.51    8.04
 -11   1 -12   -1.84    8.04
  10 -11 -12   24.15   10.61
 -11   1 -12    4.80    5.90
  10 -11 -12   17.42    7.22
   1  10 -12   -5.71    7.01
 -11   1  -9  343.80   15.95
   1  10  -9  368.92   13.82
  10 -11  -9  360.90   16.50
  10 -11  -9  380.81   14.31
 -11   1  -9  353.17   13.98
  10 -11  -9  365.29   18.88
 -11   1  -9  368.88   22.72
 -11   1  -9  352.93   17.40
   1  10  -9  392.49   19.22
  10 -11  -6   42.14    3.87
   1  10  -6   51.14    4.27
   1  10  -6   49.47    6.44
  10 -11  -6   38.55    6.03
 -11   1  -6   41.64    5.45
 -11   1  -6   49.52    6.37
 -11   1  -6   45.40    4.69
   1  10  -3  782.74   16.28
 -11   1  -3  799.54   19.51
 -11   1  -3  756.92   19.02
   1  10  -3  817.74   13.97
   1  10  -3  664.28   18.40
  10 -11  -3  781.14   12.17
  10 -11  -3  702.65   18.28
 -11   1  -3  768.06   13.18
 -11   1   0    1.76    2.67
   1  10   0    5.29    2.73
   1  10   0    3.08    2.55
   1  10   0   -0.53    1.96
 -11   1   0    3.25    2.21
   1  10   0    0.16    3.32
  10 -11   0    0.78    2.42
  10 -11   0    3.82    2.85
 -11   1   0    2.22    2.56
 -11   1   0   -0.48    3.11
  10 -11   0    6.95    3.22
 -11   1   3  727.06   12.24
  10 -11   3  686.18   10.42
 -11   1   3  670.58   20.02
   1  10   3  709.78   19.56
  10 -11   3  710.60   21.08
   1  10   3  705.91   10.68
   1  10   3  713.72   20.98
  10 -11   3  714.67   21.42
  10 -11   3  701.23   16.10
 -11   1   3  675.23   17.97
 -11   1   6   88.04    5.86
  10 -11   6   73.86    4.51
   0  10 -10  625.62   30.76
 -10   0 -10  618.87   24.15
   0  10 -10  614.51   25.58
 -10   0 -10  621.38   18.18
 -10   0 -10  629.68   30.88
 -10   0 -10  611.94   21.98
   0  10 -10  627.88   17.98
  10 -10 -10  647.59   21.32
  10 -10 -10  672.00   26.90
  10 -10 -10  613.47   18.82
 -10   0  -7    8.99    3.54
 -10   0  -7    9.33    3.66
   0  10  -7   13.93    5.17
  10 -10  -7   11.27    3.10
  10 -10  -7   14.66    5.24
 -10   0  -7   11.65    3.81
   0  10  -7    9.11    2.70
  10 -10  -7    9.28    2.77
  10 -10  -4 1960.18   16.94
   0  10  -4 1947.72   23.09
   0  10  -4 1995.45   19.49
  10 -10  -4 1914.64   31.62
 -10   0  -4 1983.90   20.56
 -10   0  -4 1975.95   30.57
 -10   0  -4 1945.16   31.50
   0  10  -4 1995.21   33.10
   0  10  -1   22.38    2.99
   0  10  -1   33.09    4.47
 -10   0  -1   19.71    3.56
 -10   0  -1   22.99    3.75
  10 -10  -1   23.90    2.94
 -10   0  -1   27.28    2.87
   0  10  -1   24.97    3.69
  10 -10  -1   25.54    4.07
   0  10  -1   22.26    4.13
  10 -10   2 1583.74   18.22
  10 -10   2 1581.29   24.38
   0  10   2 1622.57   27.60
 -10   0   2 1541.36   26.99
   0  10   2 1526.34   27.85
  10 -10   2 1532.23   27.81
 -10   0   2 1477.46   18.97
   0  10   2 1541.55   16.96
   0  10   2 1539.44   27.72
 -10   0   2 1565.88   28.09
 -10   0   2 1583.79   25.92
  10 -10   2 1524.82   27.61
  10 -10   5    1.15    1.53
   0  10   5    0.95    2.21
  10 -10   5    1.67    1.82
 -10   0   5    1.16    1.99
 -10   0   5   -4.18    2.78
  -9  -1 -11  110.06   14.86
  -1  10 -11  120.95   15.61
  10  -9 -11  114.71   12.65
  -9  -1 -11  139.25   11.39
  -9  -1 -11  145.00   13.11
  -1  10 -11  156.24   14.46
  10  -9 -11  124.98   14.94
  -9  -1  -8   51.41    6.53
  -9  -1  -8   48.72    5.84
  10  -9  -8   40.03    6.82
  -9  -1  -8   48.57    7.35
  10  -9  -8   47.99    5.37
  -1  10  -8   54.48    4.89
  -1  10  -8   51.24    4.90
  -1  10  -8   50.71    7.50
  10  -9  -8   51.56    5.01
  -9  -1  -8   42.96    5.85
  -9  -1  -5  447.64   14.94
  -9  -1  -5  470.96   16.38
  -9  -1  -5  465.66   10.90
  10  -9  -5  414.86    8.76
  -1  10  -5  451.98    8.84
  10  -9  -5  429.52   16.25
  -1  10  -5  461.56   16.97
  10  -9  -5  444.44    8.36
  -1  10  -2  553.97   15.77
  10  -9  -2  531.99    9.04
  -9  -1  -2  542.83    8.98
  10  -9  -2  502.16   14.64
  -1  10  -2  523.70   13.09
  -9  -1  -2  517.68   14.89
  -9  -1  -2  527.86   15.16
  -1  10  -2  533.85   10.20
  -1  10   1  225.91    9.75
  10  -9   1  239.90    8.25
  -9  -1   1  248.71    9.79
  -1  10   1  229.12   10.11
  -9  -1   1  220.61    9.60
  10  -9   1  261.18   10.45
  10  -9   1  253.65   10.50
  -9  -1   1  232.28   10.12
  -1  10   1  242.84    7.69
  -1  10   1  237.15   10.11
  10  -9   1  234.30    9.61
  -9  -1   1  237.11    8.44
  -1  10   4  274.17    8.84
  10  -9   4  293.06    9.75
  -9  -1   4  285.76   10.86
  -9  -1   4  270.72    9.17
  10  -9   4  285.95    8.03
  -9  -1   7   28.53    4.84
  10  -9   7   21.82    2.45
  10  -8 -12   40.48    9.55
  -2  10 -12   45.94   11.39
  -8  -2 -12   44.26   11.45
  -8  -2 -12   41.33    8.68
  -2  10 -12   34.67    9.20
  10  -8 -12   53.05   11.08
  10  -8  -9  248.55   10.81
  10  -8  -9  238.63   16.02
  -8  -2  -9  261.77   15.61
  10  -8  -9  248.02   12.66
  -8  -2  -9  242.76   12.54
  -8  -2  -9  276.96   19.65
  -2  10  -9  257.49   16.55
  -8  -2  -9  278.30   12.74
  -2  10  -9  247.68    9.98
  10  -8  -6  459.51   17.92
  10  -8  -6  463.70   10.17
  -2  10  -6  460.94    9.24
  -8  -2  -6  451.18   17.10
  10  -8  -6  453.54   16.17
  -8  -2  -6  452.37   15.17
  -2  10  -6  480.02   18.83
  10  -8  -6  473.43   10.19
  -8  -2  -6  447.80   12.57
  -8  -2  -3  941.34   20.29
  -8  -2  -3  917.85    9.55
  -8  -2  -3  981.79   21.14
  -2  10  -3  925.51   10.22
  10  -8  -3  938.07   21.00
  -2  10  -3  893.89   21.02
  10  -8  -3  915.10   20.82
  -2  10   0 1312.94   19.91
  10  -8   0 1239.80   19.29
  -8  -2   0 1283.93   22.32
  10  -8   0 1283.95   22.41
  -8  -2   0 1279.18   18.21
  -2  10   0 1280.01   21.88
  -8  -2   0 1305.30   21.56
  -8  -2   0 1300.02   22.22
  10  -8   0 1250.13   21.29
  -2  10   0 1264.22   19.71
  10  -8   0 1287.80   21.15
  10  -8   3  681.40   18.60
  -8  -2   3  731.80   19.10
  -8  -2   3  699.78   16.15
  10  -8   3  710.16   15.42
  -2  10   3  722.07   13.65
  10  -8   3  737.72   12.96
  -8  -2   3  744.08   14.29
  10  -8   6  130.53    5.98
  -8  -2   6  132.15    8.28
  10  -7 -10  755.30   20.69
  -7  -3 -10  794.19   33.03
  -7  -3 -10  790.11   21.17
  -3  10 -10  856.00   31.12
  10  -7 -10  802.81   30.11
  -3  10 -10  737.90   17.76
  -7  -3 -10  801.81   23.70
  10  -7 -10  822.09   20.42
  -7  -3 -10  817.81   28.74
  -7  -3  -7    8.81    3.55
  -7  -3  -7    7.14    2.76
  10  -7  -7   12.60    2.65
  -7  -3  -7   11.11    4.54
  10  -7  -7   14.43    4.17
  -3  10  -7    6.91    1.95
  10  -7  -7    9.68    5.05
  -3  10  -7   10.69    2.10
  -7  -3  -7   11.31    3.52
  -3  10  -7    9.29    4.89
  -7  -3  -4 2093.46   30.53
  10  -7  -4 2082.24   31.42
  -7  -3  -4 2030.27   32.58
  10  -7  -4 2081.43   33.40
  -3  10  -4 2054.13   33.65
  -7  -3  -4 2073.73   15.91
  -7  -3  -1  578.83   15.10
  10  -7  -1  554.05   14.30
  10  -7  -1  589.64   15.61
  -7  -3  -1  583.78   14.97
  -3  10  -1  580.90   14.99
  10  -7  -1  606.24   15.64
  -7  -3  -1  558.74   15.51
  -7  -3  -1  567.82    9.23
  -3  10  -1  566.37   14.74
  -7  -3   2 1537.07   24.68
  10  -7   2 1516.41   22.84
  10  -7   2 1478.47   24.06
  -7  -3   2 1501.42   20.44
  10  -7   2 1561.96   19.63
  -3  10   2 1544.06   24.57
  -7  -3   2 1534.33   23.04
  -3  10   2 1558.07   19.52
  10  -7   5   84.79    5.72
  -7  -3   5   83.22    6.43
  10  -7   5   77.14    5.05
  -7  -3   5   78.59    5.41
  -3  10   5   90.19    6.62
  10  -7   8 1011.32   14.33
  -6  -4 -11   12.85    6.73
  -4  10 -11   23.66    8.53
  -6  -4 -11    9.28    5.18
  10  -6 -11   -1.86    6.38
  -6  -4 -11   14.44    7.71
  10  -6  -8  149.96   12.46
  -4  10  -8  162.34    6.91
  10  -6  -8  142.79    9.57
  -6  -4  -8  163.19    9.27
  10  -6  -8  180.22    8.14
  -4  10  -8  178.50   13.71
  -6  -4  -8  155.76    9.87
  -6  -4  -8  203.92   13.69
  -4  10  -8  158.11    7.27
  10  -6  -5  375.01   13.64
  -4  10  -5  370.15   15.70
  -6  -4  -5  362.57   13.35
  -6  -4  -5  368.14    9.16
  -6  -4  -5  353.42   14.72
  10  -6  -5  330.60    5.79
  -6  -4  -5  375.05    8.83
  10  -6  -5  377.40   15.62
  10  -6  -5  340.87    6.53
  -6  -4  -2  696.06   18.84
  -4  10  -2  718.57   18.20
  10  -6  -2  710.38   18.45
  10  -6  -2  682.88   16.82
  10  -6  -2  664.11   16.42
  -6  -4  -2  698.13   16.91
  -4  10  -2  715.14   17.36
  -6  -4  -2  729.10   17.22
  -6  -4   1   35.23    4.07
  10  -6   1   23.73    3.43
  -4  10   1   31.06    3.32
  10  -6   1   30.89    3.86
  -6  -4   1   30.24    4.02
  10  -6   1   26.70    3.17
  -6  -4   1   32.67    3.73
  -4  10   1   28.29    3.50
  -6  -4   4  907.94   20.79
  -6  -4   4  902.84   16.69
  -4  10   4  932.61   18.60
  10  -6   4  921.80   17.26
  -6  -4   4  917.35   18.77
  10  -6   4  952.02   17.65
  -6  -4   7  133.79    9.95
  10  -6   7  136.33    6.53
  -5  10 -12   36.37    9.44
  10  -5 -12   29.84    8.97
  -5  -5 -12   58.00   10.84
  -5  10 -12   48.35   11.29
  10  -5 -12   69.46   12.24
  -5  -5 -12   26.49    9.76
  -5  10  -9  281.38    9.69
  10  -5  -9  284.70   18.02
  -5  -5  -9  267.18   12.58
  -5  10  -9  293.35   18.14
  -5  -5  -9  275.18   13.17
  10  -5  -9  284.25   11.17
  -5  -5  -9  288.65   17.38
  -5  -5  -6  258.58    8.70
  -5  10  -6  258.88   14.26
  10  -5  -6  237.36   13.71
  -5  -5  -6  269.20   11.96
  10  -5  -6  259.19   11.41
  -5  -5  -6  283.37   14.38
  10  -5  -6  261.51    7.17
  -5  10  -6  255.12    5.40
  -5  10  -6  248.10    5.74
  -5  -5  -3 1517.20   29.57
  -5  10  -3 1514.62   28.70
  10  -5  -3 1544.45   25.38
  10  -5  -3 1553.09   26.83
  -5  10  -3 1583.15   27.98
  -5  -5  -3 1508.91   26.71
  -5  -5  -3 1479.37   25.36
  10  -5  -3 1523.22   28.90
  -5  10   0   30.73    3.56
  -5  -5   0   26.92    3.72
  10  -5   0   24.46    3.50
  -5  -5   0   34.29    4.04
  -5  10   0   27.84    3.61
  10  -5   0   25.93    3.57
  10  -5   0   28.98    3.62
  -5  -5   0   31.06    3.78
  -5  -5   3 1743.60   24.67
  10  -5   3 1713.77   26.24
  10  -5   3 1799.36   23.66
  -5  -5   3 1730.65   22.56
  -5  10   3 1756.04   24.15
  -5  10   3 1696.95   25.43
  10  -5   3 1753.17   24.42
  -5  -5   3 1745.79   25.74
  -5  -5   6  313.63   13.78
  10  -5   6  324.18   12.77
  -5  10   6  304.27   13.72
  10  -5   6  323.85   10.59
  -5  -5   6  351.85    9.10
  -4  -6 -10  325.65   14.58
  -4  -6 -10  299.32   20.21
  10  -4 -10  282.02   11.64
  10  -4 -10  307.26   19.85
  -4  -6 -10  325.71   14.94
  -4  -6 -10  296.37   18.69
  10  -4 -10  285.43   12.42
  -6  10 -10  310.51   19.89
  10  -4  -7   85.50    7.01
  -4  -6  -7   84.48    6.04
  10  -4  -7   89.17    9.71
  -6  10  -7   99.65   10.20
  -4  -6  -7   99.74    8.02
  10  -4  -7   95.52    5.40
  -6  10  -7   89.39    4.22
  -4  -6  -7   85.27    9.17
  -6  10  -7   84.21    4.65
  10  -4  -4  914.21   22.86
  -6  10  -4  895.10   23.80
  -4  -6  -4  870.08    9.16
  10  -4  -4  900.33   19.72
  -6  10  -4  894.37   23.10
  -4  -6  -4  887.17   22.57
  10  -4  -4  866.19   23.20
  -4  -6  -4  891.49   20.37
  -4  -6  -1   44.18    4.89
  -4  -6  -1   43.56    4.62
  -4  -6  -1   43.57    4.34
  10  -4  -1   36.03    4.33
  -6  10  -1   49.66    4.67
  10  -4  -1   45.35    4.97
  10  -4  -1   32.49    4.19
  -6  10  -1   38.53    4.41
  -4  -6   2  813.51   16.70
  10  -4   2  820.32   15.75
  -6  10   2  822.01   16.29
  10  -4   2  853.78   16.47
  10  -4   2  820.24   17.10
  -4  -6   2  822.80   16.04
  -4  -6   2  827.34   15.79
  -6  10   2  841.90   15.39
  -4  -6   5  567.18   17.36
  -4  -6   5  551.89   11.52
  -6  10   5  526.97   16.72
  10  -4   5  542.86   13.92
  10  -4   5  555.93   15.96
  10  -4   8  128.29    7.03
  -7  10 -11   43.56   10.14
  -3  -7 -11   17.40    8.21
  -3  -7 -11    0.18    6.05
  10  -3 -11   22.02    8.79
  -3  -7 -11   28.56    6.05
  -7  10  -8 1345.66   36.99
  -3  -7  -8 1295.67   34.90
  10  -3  -8 1359.68   36.96
  -3  -7  -8 1367.78   24.94
  10  -3  -8 1375.66   22.78
  10  -3  -8 1278.18   24.73
  -3  -7  -8 1420.39   29.61
  -7  10  -8 1357.30   18.82
  10  -3  -5   56.24    5.40
  10  -3  -5   52.22    3.07
  -3  -7  -5   68.46    7.59
  -3  -7  -5   52.25    3.41
  -3  -7  -5   43.27    5.42
  10  -3  -5   52.60    6.88
  -7  10  -5   50.82    6.78
  -7  10  -2 2026.73   29.65
  -3  -7  -2 1963.79   28.80
  -3  -7  -2 2047.68   29.65
  10  -3  -2 2022.55   28.20
  10  -3  -2 2097.20   30.69
  10  -3  -2 2002.62   28.49
  -3  -7  -2 2029.14   30.71
  -3  -7   1  310.40   10.54
  -3  -7   1  282.42    9.04
  10  -3   1  278.15    9.76
  10  -3   1  262.70    8.38
  10  -3   1  272.80   10.18
  -7  10   1  302.34    9.99
  -7  10   1  274.25    8.45
  -3  -7   1  269.10    9.71
  -3  -7   4 2239.45   28.24
  -3  -7   4 2198.21   23.45
  -7  10   4 2222.10   32.03
  10  -3   4 2237.69   29.03
  10  -3   4 2291.57   31.28
  -3  -7   4 2209.71   32.55
  10  -3   7   32.50    4.26
  10  -2 -12   50.24   10.38
  -8  10 -12   32.79   10.06
  -2  -8 -12   38.35    9.76
  -2  -8 -12   32.89    9.73
  -8  10  -9  662.56   14.94
  -2  -8  -9  619.42   26.00
  -2  -8  -9  698.82   19.59
  -2  -8  -9  673.41   21.56
  -8  10  -9  678.09   28.49
  10  -2  -9  710.79   28.64
  10  -2  -9  651.43   17.78
  -2  -8  -6  116.20    8.62
  -2  -8  -6  109.65    9.63
  -2  -8  -6  103.55    5.63
  10  -2  -6  118.32   10.72
  -8  10  -6  117.35   10.36
  10  -2  -6  116.62    7.50
  10  -2  -6  129.69    5.88
  -8  10  -6  105.86    4.17
  10  -2  -3  857.72   11.87
  10  -2  -3  852.19   20.90
  -2  -8  -3  868.08   21.44
  -8  10  -3  859.16   21.75
  -2  -8  -3  861.73    9.72
  -2  -8  -3  868.70   21.52
  -2  -8  -3  830.31   19.71
  10  -2  -3  837.72   18.50
  10  -2  -3  867.37   21.31
  -8  10  -3  837.04   20.60
  10  -2   0 1503.55   23.95
  -2  -8   0 1605.79   24.47
  -2  -8   0 1624.54   22.47
  -2  -8   0 1663.19   24.75
  10  -2   0 1565.97   20.90
  -8  10   0 1631.19   23.56
  -8  10   0 1548.88   21.39
  10  -2   0 1560.90   23.79
  10  -2   3  935.68   16.49
  10  -2   3  977.11   20.01
  -8  10   3  944.46   15.34
  -2  -8   3  905.64   19.96
  -8  10   3  926.94   19.81
  -2  -8   3  899.04   15.75
  -2  -8   3  931.66   16.17
  10  -2   3  930.31   19.17
  10  -2   6  356.46   15.07
  10  -2   6  378.87   12.86
  -2  -8   6  385.07    7.71
  10  -1 -10   97.38    7.91
  -1  -9 -10   92.58    8.92
  -9  10 -10   86.64   12.20
  10  -1 -10  109.19   13.33
  -1  -9 -10   82.74   11.23
  -1  -9 -10   84.30    8.18
  10  -1  -7   38.96    4.11
  -9  10  -7   37.80    3.29
  -9  10  -7   37.64    7.51
  10  -1  -7   33.25    7.16
  -1  -9  -7   28.88    5.09
  -1  -9  -7   33.72    4.07
  10  -1  -7   34.08    4.70
  -1  -9  -7   40.61    7.82
  -9  10  -4  280.73    6.29
  -1  -9  -4  250.17   11.56
  -1  -9  -4  279.89   13.09
  10  -1  -4  264.06   13.37
  10  -1  -4  278.25   10.93
  -1  -9  -4  305.89   14.25
  -9  10  -4  278.22   13.82
  -1  -9  -4  292.55    7.17
  10  -1  -4  283.13   13.03
  10  -1  -4  287.17    7.76
  -9  10  -4  289.54   13.29
  10  -1  -1   85.80    6.36
  -9  10  -1   76.82    5.86
  10  -1  -1   78.16    5.92
  -1  -9  -1   81.80    6.26
  10  -1  -1   75.81    5.56
  -9  10  -1   83.38    6.10
  -1  -9  -1   85.91    6.19
  -1  -9  -1   81.03    6.06
  -1  -9   2  447.25   12.04
  -9  10   2  471.42    9.66
  10  -1   2  457.08   13.79
  -1  -9   2  460.14   13.96
  -9  10   2  450.11   13.65
  10  -1   2  490.26   13.97
  10  -1   2  441.16    9.93
  -1  -9   2  426.13   10.21
  10  -1   5  397.97   15.40
  10  -1   5  425.81   13.82
  10  -1   8   25.07    4.73
   0 -10 -11    3.27    4.62
   0 -10 -11   14.93    7.68
   0 -10 -11   13.05    6.66
  10   0 -11    7.48    7.48
   0 -10 -11    7.41    4.68
 -10  10 -11   20.12    8.94
   0 -10  -8 1697.95   42.26
 -10  10  -8 1687.41   43.27
   0 -10  -8 1746.68   34.65
  10   0  -8 1718.29   43.12
 -10  10  -8 1718.65   23.26
   0 -10  -8 1711.20   28.62
  10   0  -8 1760.83   27.85
   0 -10  -5   -1.14    3.11
   0 -10  -5    0.29    3.66
   0 -10  -5    1.44    1.70
  10   0  -5    3.89    2.79
 -10  10  -5   -1.60    4.40
  10   0  -5    6.66    3.96
 -10  10  -5   -1.04    1.42
  10   0  -5    1.44    1.89
 -10  10  -2 1450.45   25.11
   0 -10  -2 1407.57   25.10
  10   0  -2 1478.98   24.83
  10   0  -2 1447.09   20.37
 -10  10  -2 1456.36   26.65
  10   0  -2 1454.12   25.26
  10   0  -2 1446.51   25.71
   0 -10  -2 1482.05   26.49
   0 -10  -2 1464.01   17.65
 -10  10  -2 1442.25   19.20
   0 -10  -2 1382.11   25.83
   0 -10   1   30.52    4.19
   0 -10   1   27.23    3.81
  10   0   1   28.98    4.15
 -10  10   1   27.26    3.84
  10   0   1   27.62    2.77
   0 -10   1   26.67    3.18
  10   0   1   22.30    3.84
 -10  10   1   30.05    3.07
  10   0   4 1933.76   32.06
  10   0   4 1929.75   29.84
   0 -10   4 1901.34   33.37
 -10  10   4 1883.92   32.63
   0 -10   4 1942.56   22.50
  10   0   7    4.24    3.20
   1 -11 -12   21.00    8.88
  10   1 -12   19.49    8.16
 -11  10 -12   17.64    8.96
   1 -11 -12    6.33    7.05
   1 -11  -9  177.58   12.12
 -11  10  -9  181.01    8.72
  10   1  -9  169.84   15.35
   1 -11  -9  162.32   14.74
   1 -11  -9  162.23   10.20
  10   1  -9  193.84   10.47
  10   1  -6   70.27    6.01
 -11  10  -6   78.30    4.73
   1 -11  -6   73.04    5.43
  10   1  -6   66.68    5.26
  10   1  -6   72.99    9.01
   1 -11  -6   62.37    8.43
   1 -11  -6   68.82    7.22
 -11  10  -6   58.94    8.20
   1 -11  -3  711.71   19.87
 -11  10  -3  686.14   13.29
 -11  10  -3  674.51   20.33
  10   1  -3  693.17   19.78
  10   1  -3  680.92   18.62
 -11  10  -3  653.94   18.17
  10   1  -3  712.70   17.66
  10   1  -3  701.61   14.50
   1 -11  -3  701.13   20.66
   1 -11  -3  717.27   13.00
   1 -11  -3  686.08   18.56
   1 -11   0    4.59    2.37
  10   1   0    5.90    2.26
  10   1   0    2.84    2.67
 -11  10   0    3.09    2.44
  10   1   0    2.42    2.69
 -11  10   0   -0.63    2.61
   1 -11   0    3.84    2.82
   1 -11   0    3.12    2.31
  10   1   3  636.90   11.07
   1 -11   3  654.27   14.53
  10   1   3  654.47   18.29
   1 -11   3  615.54   18.34
  10   1   3  627.44   17.48
 -11  10   3  630.23   18.25
   1 -11   3  663.00   11.23
 -11  10   3  620.99    9.40
   1 -11   6   95.57    3.83
  10   1   6   72.50    6.81
   2 -12 -10    5.03    3.85
  10   2 -10    3.08    4.02
  10   2 -10    1.66    7.28
   2 -12 -10   14.15    8.07
 -12  10 -10    5.19    7.55
   2 -12 -10   -1.00    3.95
   2 -12  -7  172.85    9.10
  10   2  -7  171.16    9.09
 -12  10  -7  186.50    8.11
  10   2  -7  172.59   14.01
   2 -12  -7  173.06   14.01
  10   2  -7  178.47    9.13
   2 -12  -7  193.48   12.17
 -12  10  -7  169.39   14.04
   2 -12  -4  113.11    8.87
   2 -12  -4  100.61    9.09
 -12  10  -4  106.05    9.36
  10   2  -4   88.88    8.51
 -12  10  -4  100.57    7.97
  10   2  -4   91.02    7.73
 -12  10  -4  111.85    5.79
   2 -12  -4  100.47    5.55
  10   2  -4  101.27    7.09
   2 -12  -4  102.09    8.02
  10   2  -4  106.70    6.29
   2 -12  -1    2.09    2.56
   2 -12  -1    2.62    2.98
 -12  10  -1    9.13    3.29
  10   2  -1    4.02    2.62
  10   2  -1    3.09    2.39
   2 -12  -1    4.50    3.07
  10   2  -1    1.88    2.52
 -12  10  -1    5.88    2.86
   2 -12  -1    3.94    2.82
  10   2  -1    1.18    2.40
 -12  10  -1    2.49    2.64
   2 -12   2   25.38    3.80
  10   2   2   27.40    2.38
  10   2   2   27.04    4.57
 -12  10   2   25.17    2.21
  10   2   2   25.38    4.28
   2 -12   2   30.11    2.80
   2 -12   2   27.46    4.43
 -12  10   2   27.66    4.16
   2 -12   5  269.94    8.20
  10   2   5  234.54   11.68
   3 -13 -11   30.40    9.63
  10   3 -11   14.87    9.23
   3 -13 -11   44.64    9.16
 -13  10 -11   49.27   11.74
   3 -13 -11   30.44    6.38
   3 -13 -11   29.40    6.83
   3 -13  -8  487.27   23.99
 -13  10  -8  465.49   14.10
   3 -13  -8  467.29   19.40
 -13  10  -8  467.07   24.25
  10   3  -8  447.12   15.86
  10   3  -8  421.27   13.36
   3 -13  -8  439.78   15.71
  10   3  -8  458.30   23.40
   3 -13  -5  355.27   15.59
   3 -13  -5  356.69   17.45
 -13  10  -5  362.87   11.09
  10   3  -5  357.14   17.32
  10   3  -5  336.68   12.69
   3 -13  -5  339.61   11.16
  10   3  -5  342.31   11.80
 -13  10  -5  372.18   18.35
 -13  10  -2 3265.62   42.28
  10   3  -2 3252.20   39.92
   3 -13  -2 3387.79   33.94
  10   3  -2 3342.33   39.90
   3 -13  -2 3451.74   43.71
   3 -13  -2 3218.34   41.80
  10   3  -2 3454.34   41.31
   3 -13  -2 3291.08   39.04
 -13  10  -2 3300.14   38.86
 -13  10  -2 3359.67   35.95
  10   3  -2 3346.90   37.57
 -13  10   1  381.21   13.58
   3 -13   1  368.30   10.33
  10   3   1  389.26    9.17
 -13  10   1  388.26    9.84
  10   3   1  383.38   14.19
   3 -13   1  398.88   13.56
   3 -13   1  386.86   13.80
   3 -13   4 2773.60   30.12
  10   4 -12    7.30    8.39
 -14  10 -12    6.23    9.03
   4 -14 -12   -7.99    9.02
   4 -14  -9  325.03   14.82
   4 -14  -9  336.72   17.55
 -14  10  -9  332.11   12.91
 -14  10  -9  310.61   21.36
  10   4  -9  316.64   21.05
  10   4  -9  325.48   14.68
   4 -14  -9  305.17   20.51
  10   4  -6    8.31    5.40
 -14  10  -6   12.10    5.70
   4 -14  -6   19.51    6.86
 -14  10  -6   13.11    3.22
  10   4  -6    9.56    3.25
  10   4  -6   15.85    3.78
   4 -14  -6    8.01    4.30
   4 -14  -6   19.02    3.77
   4 -14  -3  442.92   16.84
  10   4  -3  414.81   14.45
   4 -14  -3  478.14   18.12
 -14  10  -3  399.43   14.43
  10   4  -3  442.15   15.57
 -14  10  -3  437.54   17.39
  10   4  -3  400.35   16.09
   4 -14  -3  403.54   14.43
 -14  10  -3  434.52   13.38
   4 -14  -3  435.23   12.77
  10   4  -3  434.60   13.91
 -14  10   0   94.29    6.43
   4 -14   0   80.99    6.93
   4 -14   0   92.88    7.36
 -14  10   0   77.60    7.11
  10   4   0   75.16    6.73
   4 -14   0   87.48    7.23
   4 -14   0  100.87    6.68
  10   4   0   81.92    5.51
  10   4   0   74.92    6.49
 -14  10   0   80.66    6.51
   4 -14   3  850.71   10.98
   4 -14   3  811.16   18.29
   4 -14   6   39.25    3.25
  10   5 -10  155.21   11.36
   5 -15 -10  168.88   13.71
   5 -15 -10  127.13   15.24
  10   5 -10  148.29   16.51
 -15  10 -10  141.20   16.64
   5 -15 -10  152.15   11.32
 -15  10  -7  343.39   12.78
   5 -15  -7  319.50   16.60
  10   5  -7  341.37   20.17
 -15  10  -7  341.55   20.45
   5 -15  -7  293.31   12.67
   5 -15  -7  339.80   19.72
  10   5  -7  338.90   14.12
  10   5  -7  286.46   12.01
  10   5  -4  285.07   11.88
  10   5  -4  261.93   11.90
 -15  10  -4  278.19   15.43
  10   5  -4  287.89   15.12
   5 -15  -4  280.63   15.46
   5 -15  -4  279.59   10.85
 -15  10  -4  263.25   10.69
   5 -15  -4  284.35   12.94
   5 -15  -4  318.67   15.20
 -15  10  -4  250.79   11.89
 -15  10  -1  616.37   17.63
   5 -15  -1  639.00   19.73
  10   5  -1  613.94   18.50
   5 -15  -1  638.37   18.01
  10   5  -1  636.27   16.81
  10   5  -1  610.92   18.43
  10   5  -1  578.74   17.59
   5 -15  -1  628.73   17.39
 -15  10  -1  626.69   17.57
 -15  10  -1  610.48   18.28
   5 -15  -1  628.80   17.93
  10   5   2  688.54    9.22
 -15  10   2  669.76   10.71
   5 -15   2  684.73   18.16
   5 -15   2  669.96   12.17
   5 -15   5  244.15    9.09
   6 -16 -11   11.13    6.53
   6 -16 -11   24.26    7.35
  10   6 -11   36.25   11.93
   6 -16 -11   21.88    8.43
 -16  10 -11   21.70    9.46
   6 -16 -11   15.73    6.29
  10   6  -8  810.26   23.33
   6 -16  -8  861.73   33.23
 -16  10  -8  845.26   21.53
   6 -16  -8  804.14   22.55
   6 -16  -8  889.17   28.90
 -16  10  -8  848.84   34.27
  10   6  -5   34.36    4.96
   6 -16  -5   45.38    7.51
 -16  10  -5   39.59    5.57
   6 -16  -5   31.40    6.00
  10   6  -5   31.38    6.46
 -16  10  -5   38.79    4.79
 -16  10  -5   37.76    7.51
  10   6  -5   29.49    5.06
   6 -16  -5   35.88    4.91
 -16  10  -2 2299.20   37.96
   6 -16  -2 2330.63   34.61
  10   6  -2 2221.32   34.62
  10   6  -2 2095.69   34.43
 -16  10  -2 2309.55   37.43
  10   6  -2 2244.16   35.62
  10   6  -2 2243.96   35.49
   6 -16  -2 2351.72   33.48
   6 -16  -2 2250.78   39.05
 -16  10  -2 2372.45   35.32
 -16  10  -2 2198.91   33.59
   6 -16  -2 2321.96   38.08
   6 -16   1  479.00   18.00
 -16  10   1  462.92   12.17
   6 -16   1  446.28   12.51
  10   6   1  432.51   10.15
   6 -16   1  469.00   16.35
   6 -16   4 1638.82   26.47
   6 -16   7   17.72    2.22
   6 -16   7   15.97    1.98
  10   7  -9  178.80   12.32
   7 -17  -9  189.06   17.43
  10   7  -9  201.42   17.95
 -17  10  -9  193.80   11.41
   7 -17  -9  160.69   11.39
 -17  10  -9  188.33   17.90
   7 -17  -6   76.76    9.10
  10   7  -6   56.12    6.67
 -17  10  -6   76.60    7.55
  10   7  -6   71.79   10.05
 -17  10  -6   65.76    9.89
   7 -17  -6   68.23    6.80
 -17  10  -6   57.29    6.20
  10   7  -6   52.40    6.21
   7 -17  -6   76.72   10.13
  10   7  -3  144.43    9.67
 -17  10  -3  140.12   11.16
   7 -17  -3  144.86    9.12
   7 -17  -3  148.85   11.04
 -17  10  -3  126.34    9.63
  10   7  -3  137.48   10.36
   7 -17  -3  136.41    8.95
   7 -17  -3  161.82   11.45
 -17  10  -3  132.26    8.74
   7 -17   0   19.93    4.59
  10   7   0   33.12    6.08
 -17  10   0   18.35    3.70
 -17  10   0   20.72    5.08
 -17  10   0   22.65    5.15
  10   7   0   28.48    3.89
   7 -17   0   19.03    3.78
   7 -17   0   21.31    4.85
   7 -17   3   96.86    7.61
   7 -17   3   95.95    3.72
   7 -17   6  104.71    6.28
   8 -18 -10   67.66    8.67
   8 -18 -10   56.73    9.26
 -18  10 -10   60.30   12.71
   8 -18 -10   44.87   10.89
  10   8 -10   54.43   11.63
  10   8 -10   57.71    8.53
 -18  10  -7  280.32   13.94
  10   8  -7  307.40   19.67
  10   8  -7  342.41   15.76
 -18  10  -7  322.61   14.04
   8 -18  -7  313.06   20.01
 -18  10  -7  369.31   22.53
   8 -18  -7  335.92   14.98
   8 -18  -7  324.68   17.94
 -18  10  -4  506.33   21.92
  10   8  -4  514.76   18.03
  10   8  -4  492.52   20.44
 -18  10  -4  506.51   18.61
 -18  10  -4  505.51   17.09
   8 -18  -4  503.48   21.46
   8 -18  -4  519.94   17.11
   8 -18  -4  523.12   20.98
   8 -18  -1  912.17   25.40
 -18  10  -1  853.81   24.03
  10   8  -1  871.42   24.99
  10   8  -1  890.68   21.16
 -18  10  -1  852.69   24.75
   8 -18  -1  910.44   23.16
   8 -18  -1  878.00   23.45
   8 -18   2  209.14    7.82
 -18  10   2  204.54    7.07
   8 -18   2  193.68   10.86
  10   8   2  208.25    5.18
   8 -18   5  356.75   12.92
   9 -19 -11   16.94    9.96
   9 -19 -11   11.87    6.84
 -19  10 -11    3.74    9.15
  10   9 -11    6.75    9.64
 -19  10  -8  399.80   17.36
   9 -19  -8  406.41   24.27
   9 -19  -8  455.13   18.52
   9 -19  -8  388.40   20.71
  10   9  -8  422.95   24.77
 -19  10  -8  401.95   16.84
  10   9  -8  440.81   19.08
 -19  10  -8  471.26   27.23
 -19  10  -5  191.89   12.11
 -19  10  -5  209.70   15.79
  10   9  -5  186.35   14.17
 -19  10  -5  190.03   11.24
   9 -19  -5  197.31   11.23
  10   9  -5  177.37   11.66
   9 -19  -5  220.28   15.40
   9 -19  -5  192.09   13.74
 -19  10  -2 1193.40   29.79
 -19  10  -2 1136.90   29.27
  10   9  -2 1174.85   29.06
   9 -19  -2 1134.44   28.53
  10   9  -2 1181.33   27.55
 -19  10  -2 1226.32   28.85
   9 -19  -2 1138.25   26.61
   9 -19  -2 1165.22   29.84
   9 -19   1  245.26   14.61
   9 -19   1  234.81   10.12
  10   9   1  254.46    8.61
 -19  10   1  269.77   14.87
   9 -19   1  261.26   13.42
 -19  10   1  245.64   14.64
 -19  10   1  246.84   10.13
   9 -19   4  950.37   22.76
   9 -19   7  247.70    9.24
  10 -20  -9   69.28    9.82
  10 -20  -9   79.65   13.17
  10  10  -9   88.41   10.03
 -20  10  -9   80.44    8.83
 -20  10  -9  100.06   14.34
  10 -20  -9   85.36    9.71
 -20  10  -6  213.93   12.39
  10 -20  -6  173.45   15.13
 -20  10  -6  205.80   13.06
 -20  10  -6  198.40   16.57
  10  10  -6  196.28   12.75
  10 -20  -6  212.61   12.51
  10 -20  -6  211.37   15.14
  10  10  -6  213.42   16.16
  10  10  -3   24.02    5.72
 -20  10  -3   25.37    5.57
  10 -20  -3   29.57    6.28
 -20  10  -3   17.21    5.42
  10  10  -3   26.14    5.82
 -20  10  -3   22.95    6.06
  10 -20  -3   21.79    5.42
  10 -20  -3   26.58    6.38
  10 -20   0  296.45   13.01
 -20  10   0  347.14   17.10
  10  10   0  312.01   11.93
 -20  10   0  332.93   13.71
 -20  10   0  312.57   16.49
  10  10   0  300.26   16.51
  10 -20   0  318.06   15.76
  10 -20   0  305.17   15.72
  10 -20   3   28.25    2.58
 -20  10   3   24.94    1.92
 -20  10   3   24.11    1.95
  10 -20   3   27.21    2.95
  10 -20   6  114.23    7.69
  10 -20   6  119.81    8.21
  10  11 -10   29.14    7.96
  11 -21 -10   26.86    8.02
  11 -21 -10   23.16   11.00
 -21  10 -10   10.90    9.50
  10  11 -10   22.45   10.07
  11 -21 -10   27.42    7.35
  11 -21  -7  126.32   10.64
  11 -21  -7  129.53   14.23
  10  11  -7  109.07   12.97
 -21  10  -7  147.98   15.89
 -21  10  -7  139.10   11.45
 -21  10  -7  122.38   10.11
  10  11  -7  140.77   11.59
  11 -21  -7  121.65   12.43
  10  11  -4  241.23   15.50
  11 -21  -4  250.59   15.83
  10  11  -4  250.04   14.64
 -21  10  -4  250.36   16.78
 -21  10  -4  243.22   14.83
 -21  10  -4  250.18   13.96
  11 -21  -4  255.06   16.71
  11 -21  -4  224.83   13.01
  10  11  -1  442.33   19.94
 -21  10  -1  472.42   20.28
  11 -21  -1  471.11   18.32
  10  11  -1  488.05   16.89
 -21  10  -1  500.61   18.79
 -21  10  -1  510.87   20.64
  11 -21  -1  507.75   19.87
  11 -21   2  304.14   14.96
  11 -21   2  318.18   10.77
 -21  10   2  292.30   10.30
 -21  10   2  323.16   10.44
  10  11   2  297.02    7.53
  10  11   2  324.06    7.35
  11 -21   5  290.87   13.19
  11 -20 -11  126.36   13.48
   9  11 -11  155.53   14.12
   9  11 -11  151.97   19.38
  11 -20 -11  138.86   17.64
 -20   9 -11  159.14   19.67
  11 -20 -11  144.31   13.50
  11 -20  -8   44.01   10.76
 -20   9  -8   45.69   10.84
  11 -20  -8   24.72    7.15
 -20   9  -8   32.64    7.09
 -20   9  -8   48.75    7.30
  11 -20  -8   31.73    6.53
   9  11  -8   34.27    9.64
   9  11  -8   35.94    7.21
 -20   9  -5  466.57   23.35
  11 -20  -5  445.64   21.04
  11 -20  -5  404.23   17.02
   9  11  -5  478.28   22.45
  11 -20  -5  414.78   21.68
 -20   9  -5  478.14   19.90
 -20   9  -5  432.10   17.59
   9  11  -5  435.50   18.66
  11 -20  -2  133.27   10.79
  11 -20  -2  134.19   10.19
 -20   9  -2  121.87   10.44
 -20   9  -2  117.54   10.22
   9  11  -2  126.42    9.82
   9  11  -2  118.05   10.26
 -20   9  -2  145.73   10.77
 -20   9   1  947.75   20.82
  11 -20   1  992.94   28.86
 -20   9   1  963.38   28.23
   9  11   1  976.52   17.49
  11 -20   1  961.48   20.98
   9  11   1  937.08   29.84
 -20   9   1  942.77   29.08
  11 -20   4   77.61    7.30
  11 -20   7  143.16    7.79
  11 -19  -9  214.59   19.52
   8  11  -9  255.87   16.05
 -19   8  -9  240.80   14.73
   8  11  -9  275.70   21.43
 -19   8  -9  282.47   15.49
  11 -19  -9  259.45   17.51
  11 -19  -9  268.53   16.07
 -19   8  -9  280.92   22.51
   8  11  -6   86.48    7.94
 -19   8  -6  106.93    9.28
  11 -19  -6  136.64   12.45
  11 -19  -6   93.01   11.04
   8  11  -6  121.43   12.60
  11 -19  -6   99.31    8.75
   8  11  -6  105.92    9.76
 -19   8  -6  106.09    9.51
 -19   8  -6  103.74   12.56
 -19   8  -3  327.50   15.08
   8  11  -3  356.18   16.37
  11 -19  -3  356.95   15.29
 -19   8  -3  347.38   16.41
  11 -19  -3  332.05   13.56
   8  11  -3  348.36   16.74
 -19   8  -3  371.75   18.17
 -19   8   0  416.41   18.31
 -19   8   0  449.63   15.77
 -19   8   0  431.25   18.65
   8  11   0  447.12   19.25
   8  11   0  448.49   14.04
  11 -19   0  462.93   15.93
  11 -19   0  456.37   18.56
 -19   8   3  204.60    5.97
 -19   8   3  190.70    5.63
  11 -19   3  210.16    6.41
  11 -19   6  241.27   10.97
  11 -19   6  276.34   11.22
  11 -18 -10  152.34   17.46
  11 -18 -10  146.03   13.65
   7  11 -10  187.12   19.19
 -18   7 -10  128.71   11.38
   7  11 -10  149.87   13.25
  11 -18 -10  153.68   12.87
 -18   7 -10  145.37   18.04
   7  11  -7  314.56   16.22
  11 -18  -7  325.57   20.86
   7  11  -7  337.62   21.11
 -18   7  -7  325.32   15.67
  11 -18  -7  305.67   17.70
 -18   7  -7  324.80   21.37
  11 -18  -7  314.27   15.55
 -18   7  -7  318.65   15.40
  11 -18  -4  619.94   19.83
 -18   7  -4  571.31   17.44
 -18   7  -4  630.32   24.74
   7  11  -4  633.91   21.16
  11 -18  -4  608.85   17.09
 -18   7  -4  660.42   20.52
   7  11  -4  608.56   18.22
 -18   7  -4  669.56   22.00
  11 -18  -1 1429.66   30.51
   7  11  -1 1461.68   32.41
 -18   7  -1 1373.23   27.04
  11 -18  -1 1325.47   26.99
 -18   7  -1 1344.66   31.41
 -18   7  -1 1461.45   31.96
  11 -18   2  731.00   15.47
  11 -18   2  737.30   15.03
  11 -18   2  760.46   25.25
   7  11   2  685.49   10.32
   7  11   2  700.46   10.80
 -18   7   2  701.72   14.51
 -18   7   2  714.96   23.22
 -18   7   2  707.51   24.80
  11 -18   5 1304.59   25.67
  11 -18   5 1418.96   26.18
   6  11 -11   94.49   11.31
  11 -17 -11   85.64   10.79
 -17   6 -11   79.92    9.74
   6  11 -11  108.67   16.42
 -17   6 -11   97.68   15.42
  11 -17 -11   96.76   11.45
  11 -17 -11   92.42   14.79
 -17   6  -8   16.20    7.89
 -17   6  -8    3.64    3.80
   6  11  -8    4.88    4.53
  11 -17  -8   10.27    5.33
   6  11  -8    9.89    7.53
  11 -17  -8    3.01    6.86
 -17   6  -8    0.73    3.94
  11 -17  -8    2.10    4.65
 -17   6  -5  304.35   18.11
 -17   6  -5  263.80   13.24
   6  11  -5  274.60   11.99
  11 -17  -5  273.35   11.14
   6  11  -5  276.79   14.25
   6  11  -5  251.61   11.81
 -17   6  -5  291.63   14.27
  11 -17  -5  292.55   13.97
 -17   6  -5  255.18   11.56
 -17   6  -2   72.91    7.32
 -17   6  -2   65.24    5.84
   6  11  -2   56.79    6.79
  11 -17  -2   79.40    6.31
   6  11  -2   72.36    6.65
 -17   6  -2   71.35    7.54
  11 -17  -2   63.15    7.04
   6  11   1 1440.23   20.65
   6  11   1 1438.26   33.33
 -17   6   1 1402.36   31.48
 -17   6   1 1386.82   32.15
  11 -17   1 1414.74   31.66
  11 -17   7  268.99    9.21
  11 -17   7  286.21    9.31
  11 -16  -9   90.02   12.21
 -16   5  -9  102.77    8.89
 -16   5  -9   86.72    9.30
   5  11  -9   84.88   10.00
   5  11  -9   96.80   13.49
 -16   5  -9   71.84   13.08
  11 -16  -9   87.08   10.05
  11 -16  -9   93.76   10.26
 -16   5  -6  553.86   25.46
 -16   5  -6  537.67   19.02
   5  11  -6  504.76   15.07
   5  11  -6  541.02   20.17
 -16   5  -6  491.33   18.08
   5  11  -6  503.74   15.62
  11 -16  -6  537.13   19.43
 -16   5  -6  499.02   16.14
  11 -16  -6  504.41   14.59
   5  11  -3   33.26    4.35
   5  11  -3   27.08    4.72
 -16   5  -3   37.95    5.68
  11 -16  -3   31.41    5.36
   5  11  -3   36.95    5.84
 -16   5  -3   25.47    5.00
 -16   5  -3   37.66    4.40
  11 -16  -3   34.43    4.31
  11 -16   0  726.55   19.46
 -16   5   0  757.47   22.32
 -16   5   0  781.37   19.69
   5  11   0  752.14   22.57
 -16   5   0  737.45   21.99
   5  11   0  741.97   20.20
  11 -16   0  730.76   21.31
  11 -16   3  121.89    4.40
 -16   5   3  108.64   10.47
 -16   5   3  118.07    4.60
 -16   5   3  121.05    9.52
  11 -16   6  110.98    6.87
  11 -15 -10  109.85   14.48
 -15   4 -10  133.84   16.61
  11 -15 -10  127.72   12.01
   4  11 -10  154.86   13.35
 -15   4 -10  148.27   12.24
  11 -15 -10  135.75   12.77
   4  11 -10  113.07   14.85
   4  11  -7  712.23   15.01
  11 -15  -7  629.21   16.25
 -15   4  -7  723.47   22.45
 -15   4  -7  702.84   29.64
   4  11  -7  682.89   17.79
   4  11  -7  727.00   23.71
  11 -15  -7  758.53   23.97
 -15   4  -7  651.03   18.90
  11 -15  -7  731.60   25.02
 -15   4  -7  704.02   21.38
   4  11  -4 1326.56   24.99
 -15   4  -4 1253.30   27.00
   4  11  -4 1316.07   28.59
 -15   4  -4 1240.14   27.55
   4  11  -4 1314.28   22.81
  11 -15  -4 1256.21   26.99
 -15   4  -4 1228.31   21.85
  11 -15  -4 1307.91   20.81
   4  11  -1 1610.82   31.04
  11 -15  -1 1635.11   26.30
 -15   4  -1 1731.01   32.16
  11 -15  -1 1661.22   30.21
   4  11  -1 1684.91   27.71
 -15   4  -1 1674.14   31.01
 -15   4  -1 1710.92   26.13
   4  11  -1 1684.74   30.18
  11 -15   2  453.24   18.29
 -15   4   2  476.48   11.35
  11 -15   2  474.89   11.31
 -15   4   2  464.64   17.09
 -15   4   2  463.79   18.62
   4  11   2  462.49   18.72
   4  11   2  492.56    8.83
  11 -15   5 1380.43   23.64
   3  11 -11   61.31    9.75
  11 -14 -11   58.98   12.01
 -14   3 -11   42.90    8.06
   3  11 -11   46.28   11.91
  11 -14 -11   51.96    9.50
  11 -14 -11   42.60    7.53
 -14   3 -11   65.94   13.05
   3  11  -8   96.86    9.86
 -14   3  -8   94.55    9.13
 -14   3  -8  114.75   13.93
  11 -14  -8   84.19    9.27
  11 -14  -8   84.20    8.74
 -14   3  -8   88.18    7.86
  11 -14  -5  170.49    7.45
   3  11  -5  178.34    8.51
   3  11  -5  163.77    7.84
 -14   3  -5  149.47    9.72
  11 -14  -5  170.19   10.90
 -14   3  -5  186.52   11.01
 -14   3  -5  169.81    8.14
   3  11  -5  176.62   11.09
   3  11  -2  108.17    8.28
  11 -14  -2  109.34    6.31
   3  11  -2  111.14    6.72
 -14   3  -2   84.11    7.27
   3  11  -2  108.78    7.70
 -14   3  -2  114.34    8.40
  11 -14  -2  109.37    7.97
 -14   3  -2  122.15    6.62
   3  11   1  114.05    8.48
   3  11   1  129.41    8.68
  11 -14   1  122.40    8.45
 -14   3   1  115.17    7.87
 -14   3   1  129.93    9.11
 -14   3   1  125.01    7.03
 -14   3   1  113.17    9.11
   3  11   1  115.63    5.70
  11 -14   1  115.58    8.98
  11 -14   1  117.72    6.75
   3  11   1  117.23    9.62
  11 -14   4   33.33    4.42
 -14   3   4   34.14    2.61
  11 -14   7  191.40    6.84
 -13   2 -12   15.61   10.16
  11 -13 -12   14.80    9.53
 -13   2 -12   11.69    6.77
   2  11 -12   27.17   11.07
  11 -13 -12   15.57    7.96
   2  11 -12   15.39    8.00
  11 -13  -9  188.76   10.23
  11 -13  -9  217.04   13.79
 -13   2  -9  195.95   11.17
 -13   2  -9  204.97   18.21
   2  11  -9  215.66   14.69
  11 -13  -9  216.98   15.07
 -13   2  -9  207.61   13.75
   2  11  -6  504.26   18.95
 -13   2  -6  520.02   18.42
   2  11  -6  507.22   13.19
  11 -13  -6  496.61   12.07
  11 -13  -6  489.26   18.52
 -13   2  -6  489.31   14.07
 -13   2  -6  513.44   17.38
   2  11  -3  175.53    8.75
   2  11  -3  173.05    7.55
   2  11  -3  196.73   10.81
 -13   2  -3  153.37    9.35
 -13   2  -3  189.56    7.46
  11 -13  -3  181.26    6.87
  11 -13  -3  168.48    9.78
 -13   2  -3  191.87   10.38
   2  11   0   19.57    4.19
   2  11   0   19.12    3.74
  11 -13   0   27.88    4.17
 -13   2   0   26.89    4.72
   2  11   0   20.13    3.25
 -13   2   0   22.89    3.72
 -13   2   0   17.54    4.38
  11 -13   0   19.28    4.18
   2  11   0   28.84    4.80
  11 -13   3   38.56    6.40
  11 -13   3   43.61    4.86
  11 -13   3   45.08    2.98
 -13   2   3   41.83    3.38
 -13   2   3   40.12    5.16
   2  11   3   39.46    2.60
 -13   2   3   40.52    6.17
  11 -13   6  149.21    6.94
 -13   2   6  151.33    6.69
  11 -12 -10  278.56   20.87
 -12   1 -10  270.82   13.21
   1  11 -10  258.89   17.03
 -12   1 -10  253.43   15.80
   1  11 -10  251.18   20.19
 -12   1 -10  265.32   14.64
  11 -12 -10  258.44   14.82
  11 -12 -10  287.40   17.98
 -12   1 -10  254.49   20.51
  11 -12  -7  898.37   17.84
 -12   1  -7  881.06   25.07
 -12   1  -7  934.25   23.37
   1  11  -7  877.81   16.89
  11 -12  -7  924.58   26.75
 -12   1  -7  850.22   19.85
   1  11  -7  897.08   26.71
  11 -12  -7  841.03   16.32
   1  11  -4  585.28   14.37
  11 -12  -4  597.97   10.81
   1  11  -4  582.21   12.19
 -12   1  -4  606.78   18.26
 -12   1  -4  589.94   18.03
  11 -12  -4  585.28   18.30
 -12   1  -4  592.90   12.25
   1  11  -4  593.60   18.67
   1  11  -1 3115.31   32.94
 -12   1  -1 3072.50   39.49
  11 -12  -1 3162.25   31.45
 -12   1  -1 3054.05   30.07
 -12   1  -1 3024.64   38.17
  11 -12  -1 3180.27   38.21
   1  11  -1 3117.22   39.37
   1  11  -1 3062.55   36.80
 -12   1   2  893.00   21.44
   1  11   2  920.44   22.79
  11 -12   2  905.87   20.02
 -12   1   2  878.67   21.71
  11 -12   2  886.64   22.49
  11 -12   2  913.06   15.00
   1  11   2  908.32   13.30
 -12   1   2  937.66   15.79
 -12   1   2  884.59   22.91
   1  11   2  937.97   22.58
  11 -12   2  911.20   23.04
  11 -12   5  876.51   17.44
 -12   1   5  836.83   15.11
 -12   1   5  831.06   21.01
  11 -12   5  843.03   11.62
  11 -11 -11   11.93    8.17
 -11   0 -11   -0.34    5.51
 -11   0 -11    5.99    8.43
   0  11 -11   12.48    8.44
   0  11 -11    6.38    6.72
  11 -11 -11   -0.86    6.14
 -11   0  -8   28.40    5.13
   0  11  -8   24.90    6.48
   0  11  -8   27.37    3.61
 -11   0  -8   35.13    6.32
 -11   0  -8   30.84    5.27
  11 -11  -8   34.50    4.27
  11 -11  -8   27.55    4.00
  11 -11  -8   27.71    6.42
  11 -11  -5    2.90    3.41
 -11   0  -5    9.37    3.57
  11 -11  -5    7.27    1.54
 -11   0  -5    9.36    3.66
   0  11  -5    9.15    1.99
   0  11  -5    4.40    3.56
 -11   0  -5    8.71    2.19
  11 -11  -2  111.81    7.60
  11 -11  -2  117.26    5.20
   0  11  -2  103.71    7.47
 -11   0  -2  110.43    7.88
 -11   0  -2  105.95    7.68
 -11   0  -2  118.32    5.13
   0  11  -2  105.95    5.51
   0  11  -2  105.32    6.71
   0  11   1    3.12    2.79
  11 -11   1    6.86    3.03
   0  11   1    5.59    2.97
 -11   0   1    9.54    2.52
 -11   0   1    4.47    3.03
   0  11   1    7.01    3.33
 -11   0   1    1.16    2.59
  11 -11   1   12.78    4.14
 -11   0   1    1.83    3.02
  11 -11   1    5.53    2.77
  11 -11   1    5.63    2.51
   0  11   1    6.14    1.98
  11 -11   4  461.44    9.47
 -11   0   4  493.01   15.76
   0  11   4  486.62   10.93
 -11   0   4  461.57   11.46
  11 -11   4  483.23   13.45
 -11   0   7    4.76    3.31
  11 -11   7    5.68    1.85
  11 -10 -12   23.14    9.42
 -10  -1 -12   43.77    8.69
 -10  -1 -12   18.99    9.19
  -1  11 -12   27.86   10.73
  11 -10 -12   37.93    9.41
  -1  11 -12   41.52    9.72
  11 -10  -9  337.92   12.13
 -10  -1  -9  321.38   21.60
 -10  -1  -9  336.84   17.59
 -10  -1  -9  342.11   15.02
  11 -10  -9  313.80   15.16
  11 -10  -9  298.03   17.52
  -1  11  -9  306.59   17.67
  -1  11  -9  322.01   11.23
 -10  -1  -9  319.17   14.02
  11 -10  -6   68.62    3.81
 -10  -1  -6   70.34    6.71
 -10  -1  -6   60.54    7.12
  -1  11  -6   73.00    7.84
  11 -10  -6   72.25    4.12
  -1  11  -6   76.64    4.11
  11 -10  -6   66.90    7.58
 -10  -1  -6   69.40    5.04
  -1  11  -3  662.83   18.74
  -1  11  -3  637.57   10.84
  11 -10  -3  633.18   17.96
  11 -10  -3  612.47    8.69
 -10  -1  -3  624.18    9.83
 -10  -1  -3  598.47   17.30
  -1  11   0   11.87    3.02
  11 -10   0   11.26    3.16
  11 -10   0    8.23    2.76
  11 -10   0    3.37    2.82
  -1  11   0    8.43    3.54
  11 -10   0   10.54    2.83
  -1  11   0    7.77    2.57
 -10  -1   0   13.54    2.76
 -10  -1   0   14.93    3.72
 -10  -1   0   12.89    3.58
 -10  -1   0    9.32    2.92
  -1  11   0    5.36    2.55
 -10  -1   3  672.90   13.56
 -10  -1   3  673.51   17.33
  -1  11   3  674.21   12.74
  11 -10   3  679.66   12.36
  11 -10   3  684.21   16.25
 -10  -1   3  654.62   19.71
  -1  11   3  673.28   19.96
  11 -10   3  639.40   20.15
  11 -10   6   68.10    4.80
 -10  -1   6   79.46    6.27
  11  -9 -10   84.45    8.53
  -9  -2 -10  110.18    8.82
  11  -9 -10  104.66   11.71
  -9  -2 -10   98.53    8.71
  -9  -2 -10   86.68   10.39
  -2  11 -10   93.02   10.94
  -9  -2 -10   88.45   12.52
  11  -9  -7  999.75   28.08
  -9  -2  -7 1014.34   20.27
  -9  -2  -7  999.40   27.37
  -9  -2  -7  961.80   23.57
  11  -9  -7  954.65   15.32
  11  -9  -7  962.00   15.79
  -2  11  -7  992.42   14.39
  -2  11  -7  980.16   15.09
  -2  11  -7  986.52   28.44
  -9  -2  -7 1003.63   20.42
  11  -9  -4 1010.66   23.90
  -2  11  -4  960.56   10.27
  -9  -2  -4  992.08   22.34
  -2  11  -4  950.48   23.47
  -9  -2  -4  984.64   11.62
  11  -9  -4  968.07   22.97
  -9  -2  -4  987.24   23.04
  -9  -2  -1 1713.65   27.02
  -2  11  -1 1794.34   27.60
  -2  11  -1 1798.65   21.85
  -9  -2  -1 1749.96   27.71
  -2  11  -1 1820.26   27.89
  -9  -2  -1 1796.52   19.17
  11  -9  -1 1696.39   27.93
  11  -9  -1 1763.95   27.00
  -9  -2  -1 1753.41   29.17
  11  -9  -1 1791.83   20.57
  11  -9  -1 1783.36   28.80
  -9  -2   2  629.18   13.54
  -2  11   2  656.10   17.75
  11  -9   2  666.75   18.62
  11  -9   2  633.72   13.06
  11  -9   2  680.89   16.35
  -2  11   2  625.80   12.43
  -9  -2   2  655.39   17.82
  -9  -2   2  622.77   16.03
  11  -9   2  646.64   17.49
  11  -9   5  953.30   16.76
  -9  -2   5  910.09   19.25
  -2  11   5  951.73   19.29
  11  -9   5  949.02   17.66
  -9  -2   5  944.09   19.02
  11  -9   8  259.19    7.12
  -3  11 -11  179.24   15.96
  -8  -3 -11  167.89   14.62
  -8  -3 -11  182.49   17.90
  11  -8 -11  164.63   15.32
  -8  -3  -8  132.95    8.87
  -3  11  -8  148.94   12.45
  -8  -3  -8  161.12   10.08
  -8  -3  -8  154.29    9.00
  -3  11  -8  135.86    5.89
  11  -8  -8  131.93    6.60
  11  -8  -8  136.23    7.42
  -3  11  -8  145.18    6.24
  -8  -3  -8  139.53   11.56
  -8  -3  -5  164.52    9.53
  -3  11  -5  179.81   11.36
  11  -8  -5  192.37   10.68
  -8  -3  -5  186.75    6.29
  11  -8  -5  187.28   11.43
  -8  -3  -5  179.56   10.81
  -8  -3  -5  185.76    5.94
  -3  11  -2  989.31   22.39
  -8  -3  -2  962.54   20.90
  -3  11  -2  929.27   20.76
  -8  -3  -2  926.40   20.36
  -8  -3  -2  896.67    9.65
  11  -8  -2  965.32   20.78
  11  -8  -2  928.97   21.08
  -8  -3  -2  956.19   23.02
  -3  11  -2  947.40   12.63
  11  -8  -2  962.20   22.73
  -3  11   1  354.99   12.11
  -8  -3   1  351.48   12.09
  -8  -3   1  347.79   12.03
  11  -8   1  355.96   12.15
  11  -8   1  386.72   11.01
  -3  11   1  350.99    9.91
  11  -8   1  370.94   12.29
  -8  -3   1  375.70   11.28
  -8  -3   4  136.96    9.10
  11  -8   4  147.08    6.75
  11  -8   4  140.64    7.26
  -8  -3   4  157.02    7.92
  -3  11   4  127.69    6.84
  -8  -3   4  153.11    7.62
  -8  -3   7  141.17    9.74
  11  -8   7  152.89    6.79
  11  -7 -12   66.74   11.90
  -7  -4 -12   41.71   11.66
  -4  11 -12   34.75   10.76
  -7  -4 -12   28.81    8.07
  11  -7 -12   39.24   10.82
  -4  11 -12   34.66    9.36
  -7  -4  -9  303.72   13.11
  -7  -4  -9  294.94   13.81
  -7  -4  -9  306.06   17.42
  -4  11  -9  299.40    9.34
  11  -7  -9  276.55   17.66
  11  -7  -9  331.00   11.22
  -4  11  -9  319.42   18.72
  -7  -4  -6   45.36    4.04
  11  -7  -6   44.12    2.65
  -7  -4  -6   47.83    5.78
  11  -7  -6   54.86    7.51
  -7  -4  -6   55.37    6.94
  11  -7  -6   47.53    2.93
  11  -7  -6   49.91    5.99
  -7  -4  -6   52.27    4.11
  -4  11  -6   54.27    7.51
  11  -7  -3  210.41   10.33
  -7  -4  -3  221.40   10.61
  -7  -4  -3  185.90    9.48
  11  -7  -3  190.86    9.98
  -4  11  -3  192.70   10.20
  -4  11  -3  194.14   11.57
  11  -7  -3  195.87   11.15
  -7  -4   0  322.63   11.53
  -7  -4   0  318.91   11.27
  11  -7   0  296.23   11.19
  -4  11   0  302.82   10.73
  11  -7   0  325.39   11.20
  -7  -4   0  288.92   10.61
  -4  11   0  297.06   10.21
  11  -7   0  324.21   10.95
  11  -7   3  476.89   15.12
  -7  -4   3  456.01   12.97
  -4  11   3  496.80   15.21
  -7  -4   3  486.96   12.89
  11  -7   3  486.28   13.48
  -4  11   3  480.13   12.37
  11  -7   3  514.21   12.37
  -7  -4   3  477.87   15.04
  11  -7   6   90.51    5.75
  11  -7   6   93.16    6.78
  -7  -4   6   91.49    5.68
  -4  11   6   75.73    7.02
  -7  -4   6   83.40    7.18
  11  -6 -10  261.70   12.51
  11  -6 -10  251.71   18.25
  -6  -5 -10  258.24   17.44
  -6  -5 -10  269.76   13.49
  -5  11 -10  246.92   17.51
  -6  -5 -10  276.49   13.84
  11  -6 -10  269.28   11.15
  -6  -5 -10  256.54   19.53
  -6  -5  -7  939.61   23.38
  11  -6  -7  872.80   22.33
  11  -6  -7  946.69   28.38
  -6  -5  -7  915.76   17.81
  -5  11  -7  939.85   28.84
  11  -6  -7  925.15   14.05
  -5  11  -7  844.45   10.38
  -6  -5  -7  935.18   27.55
  -6  -5  -4 1103.55   25.02
  -6  -5  -4 1049.97   22.74
  11  -6  -4 1059.54   22.94
  11  -6  -4 1095.00   24.88
  -5  11  -4 1069.93   25.34
  -5  11  -1  894.31   18.99
  11  -6  -1  874.70   19.54
  11  -6  -1  857.19   19.17
  11  -6  -1  856.02   18.01
  -6  -5  -1  890.36   20.06
  -5  11  -1  880.05   18.79
  -6  -5  -1  894.41   19.22
  -6  -5  -1  931.56   19.14
  11  -6   2 1193.31   21.18
  -6  -5   2 1277.61   20.81
  -5  11   2 1248.16   19.69
  -6  -5   2 1202.53   20.64
  -5  11   2 1234.44   21.17
  -6  -5   2 1260.03   21.79
  11  -6   2 1236.31   19.63
  11  -6   2 1264.27   21.97
  11  -6   5  757.96   17.77
  11  -6   5  765.28   16.77
  -6  -5   5  776.25   19.59
  -6  -5   5  788.87   15.77
  -5  11   5  765.14   19.22
  11  -6   8  732.34   15.23
  -5  -6 -11  488.20   24.68
  -6  11 -11  430.18   24.65
  -5  -6 -11  490.07   27.26
  11  -5 -11  456.57   25.23
  -5  -6  -8  621.36   19.71
  11  -5  -8  626.72   18.86
  -5  -6  -8  665.47   17.08
  -6  11  -8  600.75   10.75
  -6  11  -8  672.63   26.08
  11  -5  -8  630.96   25.28
  -6  11  -8  588.13   11.74
  11  -5  -8  629.75   13.87
  -5  -6  -8  693.90   25.49
  11  -5  -5  895.42   21.33
  -5  -6  -5  891.68   24.44
  -5  -6  -5  884.81   21.77
  -6  11  -5  893.73   25.09
  11  -5  -5  839.88   23.82
  -5  -6  -5  879.82   11.36
  11  -5  -2 1371.42   24.30
  -5  -6  -2 1367.07   24.69
  -5  -6  -2 1383.75   26.42
  -6  11  -2 1390.63   25.56
  -6  11  -2 1373.53   25.09
  11  -5  -2 1398.78   24.56
  11  -5  -2 1326.23   25.51
  -5  -6   1  994.67   19.16
  -5  -6   1 1049.91   18.98
  -5  -6   1 1014.42   19.04
  -6  11   1  992.65   17.77
  11  -5   1 1047.45   18.91
  -6  11   1  977.93   17.73
  11  -5   1 1057.08   20.56
  11  -5   1 1029.72   18.09
  -5  -6   4 1308.32   19.95
  11  -5   4 1344.00   22.94
  -5  -6   4 1338.39   24.52
  11  -5   4 1324.17   22.51
  -6  11   4 1327.09   23.95
  -5  -6   4 1250.69   23.61
  11  -5   7  643.69   15.60
  11  -5   7  603.86   19.23
  -4  -7 -12   50.90   11.53
  11  -4 -12   58.57   11.52
  -4  -7 -12   76.50   11.92
  -7  11 -12   92.92   13.60
  -4  -7  -9  364.37   20.04
  -4  -7  -9  381.85   14.36
  -7  11  -9  396.69   21.52
  11  -4  -9  383.64   21.15
  -7  11  -9  374.97    9.89
  11  -4  -9  402.48   12.73
  -4  -7  -9  401.73   16.79
  11  -4  -6  127.67    4.83
  11  -4  -6  124.97   10.54
  -7  11  -6  141.67   11.19
  11  -4  -6  131.70    8.63
  -4  -7  -6  129.10    8.99
  -4  -7  -6  131.07    5.80
  -4  -7  -6  121.92   10.29
  -7  11  -3  412.33   15.18
  11  -4  -3  407.87   14.78
  -4  -7  -3  482.06   17.01
  -4  -7  -3  403.77   14.76
  11  -4  -3  451.48   16.14
  11  -4  -3  423.97   14.02
  -4  -7  -3  441.95   14.63
  -7  11  -3  441.65   15.88
  -7  11   0  331.14   10.54
  -4  -7   0  321.10   11.55
  -4  -7   0  347.37   11.83
  11  -4   0  331.29   11.74
  11  -4   0  327.72   11.30
  11  -4   0  325.85   10.44
  -4  -7   0  339.12   10.99
  -7  11   0  336.38   11.08
  11  -4   3  218.01    9.16
  -4  -7   3  216.20    9.70
  -7  11   3  231.48    9.84
  11  -4   3  220.78    9.40
  -4  -7   3  218.11    8.62
  -7  11   3  223.67    8.99
  11  -4   3  234.32    9.74
  -4  -7   3  239.22    9.41
  11  -4   6    7.81    3.61
  -4  -7   6   13.02    2.21
  -3  -8 -10  384.12   16.94
  -3  -8 -10  314.74   19.82
  -8  11 -10  392.44   23.32
  -3  -8 -10  344.01   14.60
  11  -3 -10  348.47   13.19
  11  -3 -10  405.01   23.18
  11  -3  -7  154.76    9.26
  -3  -8  -7  187.38   13.27
  11  -3  -7  160.23   12.90
  11  -3  -7  173.61    6.97
  -8  11  -7  182.89   13.69
  -8  11  -7  172.88    5.18
  -3  -8  -7  180.33   11.01
  -3  -8  -7  182.65    7.96
  11  -3  -4  127.19    9.27
  -3  -8  -4  131.00    9.53
  -3  -8  -4  137.22    8.81
  11  -3  -4  139.74    9.84
  -8  11  -4  119.30    9.23
  11  -3  -4  140.90    8.25
  11  -3  -4  123.56    4.14
  -3  -8  -4  124.31    9.50
  -3  -8  -4  134.86    3.82
  -3  -8  -1  408.14   13.32
  -3  -8  -1  404.84   12.82
  11  -3  -1  416.67   12.60
  -8  11  -1  427.19   12.93
  11  -3  -1  401.15   13.30
  -8  11  -1  403.51   12.98
  11  -3  -1  417.07   13.37
  11  -3   2 1258.69   19.13
  -3  -8   2 1222.33   22.30
  -8  11   2 1239.62   21.80
  11  -3   2 1261.46   22.07
  11  -3   2 1331.63   23.50
  -3  -8   2 1259.18   19.29
  -3  -8   2 1260.43   20.94
  -8  11   2 1257.72   18.38
  11  -3   5  107.30    7.18
  -3  -8   5   92.80    7.98
  -8  11   5  104.91    8.35
  11  -3   5  114.08    8.18
  -3  -8   5  119.33    5.66
  11  -3   8  119.96    7.98
  -2  -9 -11  454.24   25.67
  -2  -9 -11  403.77   23.72
  11  -2 -11  500.37   27.07
  -2  -9 -11  439.45   18.73
  -9  11 -11  496.21   27.43
  11  -2  -8  161.28   13.86
  -9  11  -8  170.37   14.04
  -2  -9  -8  173.35   13.95
  -2  -9  -8  181.94    9.01
  11  -2  -8  173.65    8.22
  11  -2  -8  150.47    9.19
  -2  -9  -8  181.50   11.54
  -9  11  -8  169.97    6.39
  -2  -9  -5 1304.16   27.47
  -9  11  -5 1319.59   31.57
  11  -2  -5 1281.55   30.79
  11  -2  -5 1324.53   24.91
  -9  11  -5 1281.15   10.94
  11  -2  -5 1348.43   16.29
  -2  -9  -5 1394.59   16.31
  -2  -9  -5 1334.71   31.44
  -2  -9  -2  528.69   16.01
  11  -2  -2  542.94   15.39
  -9  11  -2  574.89   16.71
  11  -2  -2  572.23   16.13
  -2  -9  -2  554.52   16.35
  11  -2  -2  582.20   16.85
  -2  -9  -2  563.46   16.58
  -9  11  -2  542.71   15.94
  -2  -9   1 1971.84   27.37
  -9  11   1 1970.95   22.91
  -2  -9   1 1911.56   23.89
  11  -2   1 1947.28   22.90
  11  -2   1 1997.42   27.98
  11  -2   1 2030.68   29.48
  -2  -9   1 2031.50   28.73
  -9  11   1 1970.34   27.39
  -2  -9   4 1080.53   24.29
  11  -2   4 1052.55   21.77
  -2  -9   4 1062.12   17.51
  -9  11   4 1100.51   24.16
  11  -2   4 1112.20   23.56
  -2  -9   4 1081.65   18.74
  11  -2   7  652.02   17.94
  11  -1 -12   48.37   11.54
  -1 -10 -12   42.78   10.28
 -10  11 -12   48.61   11.73
  -1 -10 -12   39.22   10.71
  -1 -10  -9  128.89   12.91
  -1 -10  -9  137.31   10.62
 -10  11  -9  127.97    6.45
 -10  11  -9  133.84   13.99
  -1 -10  -9  122.17    8.42
  11  -1  -9  117.24    7.86
  11  -1  -9  107.30   12.46
  -1 -10  -6   61.77    6.94
  -1 -10  -6   89.22    5.27
  -1 -10  -6   81.85    9.18
  11  -1  -6   82.09    6.73
  11  -1  -6   81.76    5.08
 -10  11  -6   72.92    8.85
  11  -1  -6   72.52    8.67
 -10  11  -6   84.78    3.96
  11  -1  -3  705.69   19.91
  11  -1  -3  716.00   13.22
  -1 -10  -3  702.84   20.37
  -1 -10  -3  712.26   11.10
  11  -1  -3  700.04   17.82
  -1 -10  -3  725.10   19.85
  -1 -10  -3  699.02   19.34
 -10  11  -3  700.27   20.46
 -10  11  -3  707.35   19.44
  11  -1  -3  725.46   20.11
  11  -1   0    0.48    2.70
  -1 -10   0    0.62    2.34
  11  -1   0    1.56    1.92
  11  -1   0   -1.10    2.25
  -1 -10   0    2.34    2.31
  -1 -10   0   -2.35    2.79
 -10  11   0    1.31    2.55
 -10  11   0    1.78    2.17
 -10  11   3  793.85   13.33
  -1 -10   3  795.20   20.33
  -1 -10   3  771.94   16.03
  11  -1   3  794.55   19.23
  11  -1   3  748.94   18.91
  -1 -10   3  796.97   14.42
 -10  11   3  779.18   19.49
  11  -1   3  808.62   14.58
  -1 -10   6   56.90    3.41
  11  -1   6   50.62    5.69
  11   0 -10   31.97    5.53
   0 -11 -10   44.31    7.31
   0 -11 -10   51.93    9.87
  11   0 -10   42.91    9.36
 -11  11 -10   56.85   11.28
   0 -11 -10   40.81    6.07
   0 -11  -7    3.81    4.97
  11   0  -7    8.73    3.71
  11   0  -7    8.21    6.64
   0 -11  -7    7.59    4.00
  11   0  -7    1.84    2.17
 -11  11  -7    8.97    2.20
   0 -11  -7    2.17    2.19
 -11  11  -7    1.08    5.45
   0 -11  -4  488.37   17.49
   0 -11  -4  500.50   18.96
  11   0  -4  495.24   15.37
   0 -11  -4  469.53   16.76
 -11  11  -4  488.47   18.96
  11   0  -4  469.82   17.81
  11   0  -4  506.98   11.74
 -11  11  -4  500.00   10.34
   0 -11  -4  489.23   10.41
  11   0  -1    6.40    2.68
   0 -11  -1    7.96    3.64
  11   0  -1    8.61    3.39
   0 -11  -1    3.67    3.18
  11   0  -1    3.32    2.63
   0 -11  -1    7.25    2.92
 -11  11  -1    8.89    3.26
 -11  11  -1    9.19    3.02
 -11  11   2  125.17    5.10
   0 -11   2  105.26    6.73
  11   0   2  113.24    7.63
 -11  11   2  126.24    7.94
   0 -11   2  120.00    5.71
  11   0   2  123.55    7.97
  11   0   2  129.31    5.42
   0 -11   2  117.95    8.01
   0 -11   5    8.47    2.06
  11   0   5    1.13    2.82
   1 -12 -11  725.59   30.86
   1 -12 -11  644.95   24.00
  11   1 -11  703.94   33.05
 -12  11 -11  681.02   32.86
   1 -12 -11  706.14   32.77
  11   1  -8  271.34   18.27
  11   1  -8  208.92   10.21
 -12  11  -8  237.29    8.87
   1 -12  -8  224.10   10.78
   1 -12  -8  214.42   16.21
 -12  11  -8  233.92   17.38
   1 -12  -8  257.58   14.41
  11   1  -8  213.45   10.39
  11   1  -5  934.40   17.45
  11   1  -5  935.05   27.34
 -12  11  -5  950.58   28.42
   1 -12  -5  903.96   24.34
   1 -12  -5  953.30   16.66
   1 -12  -5  944.07   27.83
  11   1  -5  944.68   21.38
 -12  11  -5  949.41   15.40
 -12  11  -2  543.50   17.27
  11   1  -2  571.17   16.64
   1 -12  -2  564.49   17.44
 -12  11  -2  541.97   13.63
   1 -12  -2  544.27   16.38
  11   1  -2  557.44   14.61
  11   1  -2  581.10   16.93
 -12  11  -2  554.61   16.33
  11   1  -2  528.88   16.33
   1 -12  -2  549.86   17.59
   1 -12  -2  538.32   12.64
   1 -12   1 3083.83   36.83
  11   1   1 3152.24   39.31
  11   1   1 3019.38   37.74
  11   1   1 3000.83   26.94
 -12  11   1 3098.72   37.57
 -12  11   1 3046.34   28.09
   1 -12   1 3063.68   30.04
   1 -12   4  756.86   15.71
   1 -12   4  753.42   12.72
  11   1   4  761.35   20.33
  11   2 -12   41.50   11.07
   2 -13 -12   28.23    8.87
   2 -13 -12   31.80   10.83
 -13  11 -12   53.00   13.30
  11   2  -9  155.54   15.35
 -13  11  -9  124.30    7.35
   2 -13  -9  115.81    8.73
 -13  11  -9  120.67   14.41
   2 -13  -9  100.08   12.33
  11   2  -9  126.25    9.00
   2 -13  -9  122.61   10.81
   2 -13  -6  216.68   14.58
  11   2  -6  222.28   14.82
  11   2  -6  205.42    9.36
   2 -13  -6  195.95    8.75
 -13  11  -6  199.86    7.99
  11   2  -6  187.86    9.92
 -13  11  -6  208.17   15.17
   2 -13  -6  199.13   12.47
  11   2  -3   25.49    4.39
   2 -13  -3   30.25    5.90
  11   2  -3   24.20    4.71
 -13  11  -3   27.33    5.18
  11   2  -3   25.00    5.49
  11   2  -3   27.08    3.97
   2 -13  -3   22.51    4.67
 -13  11  -3   29.59    3.64
   2 -13  -3   30.40    3.63
   2 -13  -3   30.08    4.95
 -13  11  -3   19.38    4.06
  11   2   0   -2.29    2.25
   2 -13   0    4.84    3.37
   2 -13   0    2.19    2.61
  11   2   0    1.68    2.63
   2 -13   0    0.64    2.58
  11   2   0    2.98    2.14
 -13  11   0   -0.04    2.18
 -13  11   0    0.46    2.10
  11   2   3  147.67    5.21
  11   2   3  150.90    9.62
   2 -13   3  155.20    7.95
   2 -13   3  162.88    5.80
 -13  11   3  142.25    4.36
   2 -13   6  488.26   10.37
  11   3 -10  127.67   15.44
 -14  11 -10  129.48   15.67
   3 -14 -10  134.18   14.96
   3 -14 -10  129.65    9.87
   3 -14 -10  123.31   11.39
  11   3 -10  136.31   10.25
   3 -14  -7  274.19   17.60
   3 -14  -7  306.05   15.91
  11   3  -7  264.68   11.57
  11   3  -7  255.99   11.61
 -14  11  -7  290.36   18.58
  11   3  -7  225.76   16.19
   3 -14  -7  263.10   11.22
 -14  11  -7  307.78   10.93
   3 -14  -4   63.78    7.47
   3 -14  -4   57.18    7.68
  11   3  -4   49.35    4.97
 -14  11  -4   47.25    7.18
  11   3  -4   50.93    7.22
  11   3  -4   63.23    6.27
 -14  11  -4   51.91    4.71
   3 -14  -4   54.99    4.62
   3 -14  -1  153.31    8.50
 -14  11  -1  157.33    9.03
   3 -14  -1  165.98   10.13
   3 -14  -1  168.27    9.32
 -14  11  -1  156.27    9.04
  11   3  -1  159.49    9.52
  11   3  -1  144.51    9.11
  11   3  -1  146.18    8.19
  11   3  -1  165.05    9.71
 -14  11  -1  171.46    9.36
   3 -14  -1  164.91    9.33
 -14  11   2  106.87    4.51
  11   3   2   94.87    4.10
   3 -14   2  105.58    5.16
   3 -14   2  103.53    7.46
   3 -14   5  156.75    7.09
   4 -15 -11  419.28   21.15
   4 -15 -11  450.09   27.43
  11   4 -11  432.35   27.22
   4 -15  -8   33.39    5.22
 -15  11  -8   38.47    4.87
  11   4  -8   35.65    5.45
 -15  11  -8   35.62    8.60
   4 -15  -8   49.35    7.56
  11   4  -8   34.62    8.27
   4 -15  -8   31.41    8.08
   4 -15  -5 1723.86   26.50
   4 -15  -5 1661.64   35.42
 -15  11  -5 1846.59   41.01
   4 -15  -5 1795.80   39.85
  11   4  -5 1793.68   39.00
 -15  11  -5 1731.03   26.03
  11   4  -5 1661.65   29.85
  11   4  -5 1732.09   28.43
  11   4  -2  336.81   13.70
   4 -15  -2  373.87   15.79
   4 -15  -2  393.49   15.80
  11   4  -2  359.51   14.27
 -15  11  -2  383.02   15.34
   4 -15  -2  367.35   14.07
  11   4  -2  377.96   14.59
 -15  11  -2  354.34   13.71
  11   4  -2  387.60   14.29
 -15  11  -2  390.69   13.72
   4 -15  -2  375.38   12.70
   4 -15   1 1945.03   25.39
  11   4   1 1950.61   21.34
 -15  11   1 1970.05   24.07
   4 -15   4 1277.63   22.52
   4 -15   7  564.52    8.93
   4 -15   7  551.21    9.07
   5 -16  -9   67.89   11.41
 -16  11  -9   63.09   11.53
   5 -16  -9   41.71    7.58
  11   5  -9   53.90    7.03
  11   5  -9   50.80   10.19
 -16  11  -9   57.99    6.33
   5 -16  -9   61.32    7.24
 -16  11  -6  119.93    7.80
   5 -16  -6  116.96   12.11
 -16  11  -6  120.56   12.56
   5 -16  -6  119.79   10.62
  11   5  -6  119.48   12.04
  11   5  -6  102.59    7.81
   5 -16  -6  119.23    7.99
  11   5  -6  105.90    8.15
  11   5  -3  149.71    9.71
   5 -16  -3  138.85   10.43
 -16  11  -3  132.43   10.63
  11   5  -3  141.31    9.01
   5 -16  -3  139.89    8.14
  11   5  -3  135.28   10.19
 -16  11  -3  156.88    8.92
   5 -16  -3  134.74   10.14
   5 -16   0  648.14   19.48
 -16  11   0  688.54   21.36
  11   5   0  675.91   15.70
   5 -16   0  695.44   17.69
 -16  11   0  680.45   17.20
   5 -16   0  691.00   20.32
   5 -16   3    6.47    3.09
   5 -16   3    4.90    1.43
   5 -16   6  476.84   12.00
  11   6 -10   37.28   10.08
 -17  11 -10   18.42    9.00
  11   6 -10   23.16    6.02
   6 -17 -10   12.59    6.10
   6 -17 -10   17.37    5.75
   6 -17 -10   30.27    8.80
 -17  11  -7  290.56   19.38
  11   6  -7  281.82   18.88
  11   6  -7  290.75   13.63
 -17  11  -7  269.55   12.08
   6 -17  -7  282.83   18.66
   6 -17  -7  291.38   13.26
   6 -17  -7  276.64   16.31
   6 -17  -4   96.15    9.82
   6 -17  -4  124.80   10.60
 -17  11  -4  110.40    8.04
 -17  11  -4   92.41    8.18
 -17  11  -4  109.92   10.71
   6 -17  -4  106.30    7.44
  11   6  -4  125.05    8.72
  11   6  -4  103.32    9.78
  11   6  -1 1295.20   29.19
   6 -17  -1 1317.08   27.03
  11   6  -1 1352.49   25.30
   6 -17  -1 1399.87   30.46
 -17  11  -1 1313.01   27.10
 -17  11  -1 1382.53   29.23
   6 -17   2   20.73    2.68
 -17  11   2   18.96    2.39
   6 -17   2   17.61    4.34
  11   6   2   17.94    1.93
   6 -17   5  286.82   11.01
   7 -18 -11  216.70   16.82
 -18  11 -11  205.02   21.05
  11   7 -11  222.45   21.14
   7 -18 -11  227.70   21.28
 -18  11  -8  123.58   14.68
  11   7  -8  120.94   10.06
 -18  11  -8  136.74    9.38
  11   7  -8  124.91   13.95
   7 -18  -8  138.29   10.30
   7 -18  -8  118.91   12.08
   7 -18  -8  121.78   13.90
 -18  11  -5 1741.03   41.98
   7 -18  -5 1649.57   40.49
 -18  11  -5 1699.44   33.68
 -18  11  -5 1734.07   30.58
  11   7  -5 1721.27   40.57
   7 -18  -5 1696.16   30.25
   7 -18  -5 1628.65   37.68
  11   7  -5 1745.13   32.77
 -18  11  -2  691.42   21.90
 -18  11  -2  693.11   20.78
   7 -18  -2  685.40   21.75
 -18  11  -2  667.51   21.95
  11   7  -2  691.93   20.59
  11   7  -2  717.20   21.97
   7 -18  -2  707.60   19.94
   7 -18   1 1356.47   23.12
   7 -18   1 1308.73   28.79
 -18  11   1 1367.64   22.20
   7 -18   1 1363.95   31.95
  11   7   1 1377.48   19.05
   7 -18   4  743.52   19.43
   7 -18   7  190.77    7.43
   7 -18   7  172.36    7.36
 -19  11  -9  167.97   17.62
   8 -19  -9  209.73   15.88
  11   8  -9  193.20   13.32
   8 -19  -9  183.84   12.73
   8 -19  -9  218.58   18.80
  11   8  -9  204.35   18.69
 -19  11  -9  205.83   12.33
   8 -19  -6  258.49   16.05
   8 -19  -6  277.44   18.09
 -19  11  -6  270.89   14.39
 -19  11  -6  232.05   17.49
  11   8  -6  211.83   15.93
   8 -19  -6  268.92   13.06
 -19  11  -6  225.98   12.09
  11   8  -6  250.78   13.46
   8 -19  -3  271.47   12.82
 -19  11  -3  270.28   15.31
  11   8  -3  252.18   13.62
   8 -19  -3  287.93   15.62
 -19  11  -3  284.55   14.67
  11   8  -3  271.80   14.59
   8 -19  -3  274.37   15.69
 -19  11  -3  292.07   14.06
   8 -19   0  390.15   17.03
   8 -19   0  392.07   16.93
   8 -19   0  401.51   14.54
 -19  11   0  409.33   14.64
  11   8   0  427.50   13.27
  11   8   0  423.16   18.85
 -19  11   0  399.62   17.91
   8 -19   3  266.46   12.71
   8 -19   3  289.87    7.18
   8 -19   6   83.87    6.31
   9 -20 -10   58.76   11.73
   9 -20 -10   86.17   11.53
 -20  11 -10   93.36   15.00
  11   9 -10   52.43    8.66
   9 -20 -10   72.66    9.17
  11   9 -10   73.03   13.29
   9 -20  -7  131.87   12.65
 -20  11  -7  122.43   10.27
  11   9  -7  156.78   15.13
 -20  11  -7  116.81    9.54
   9 -20  -7  124.30   14.05
  11   9  -7  139.32   11.17
   9 -20  -7  143.83   10.50
 -20  11  -7  112.73   13.93
   9 -20  -4   64.75    9.07
  11   9  -4   71.28    7.77
  11   9  -4   79.05    9.23
 -20  11  -4   68.23    7.52
 -20  11  -4   62.87    7.72
 -20  11  -4   62.68    8.85
   9 -20  -4   59.30    8.60
   9 -20  -4   62.49    6.91
   9 -20  -1 1009.11   26.69
 -20  11  -1  943.20   24.63
  11   9  -1  872.27   21.88
 -20  11  -1  960.18   27.82
   9 -20  -1  927.90   24.57
  11   9  -1  929.79   27.46
   9 -20  -1 1012.18   28.13
 -20  11  -1  928.06   26.72
   9 -20   2  103.40    6.05
 -20  11   2  102.31    5.54
  11   9   2  106.40    4.13
   9 -20   2  104.82    9.02
   9 -20   5  472.23   15.90
  10 -21  -8  292.96   21.60
  10 -21  -8  354.64   20.70
 -21  11  -8  300.73   22.41
  11  10  -8  337.83   22.79
 -21  11  -8  267.54   14.53
  11  10  -8  283.45   16.06
  10 -21  -8  283.65   15.53
  10 -21  -5  396.78   21.18
  10 -21  -5  388.96   20.14
  10 -21  -5  400.98   16.82
  11  10  -5  403.40   17.96
 -21  11  -5  414.52   18.79
  11  10  -5  403.97   20.90
 -21  11  -5  384.44   16.78
  11  10  -2  333.62   16.75
  10 -21  -2  373.04   17.33
 -21  11  -2  396.83   17.91
  10 -21  -2  352.56   16.12
  11  10  -2  409.06   16.88
  10 -21  -2  374.48   18.43
 -21  11  -2  393.40   17.79
 -21  11  -2  359.97   17.75
 -21  11   1  542.11   15.69
 -21  11   1  573.30   23.42
  10 -21   1  578.60   20.89
  10 -21   1  535.44   15.92
  10 -21   1  557.67   22.37
  11  10   1  550.98   13.32
  10 -21   4  264.34   13.06
  10 -21   7   95.81    6.74
 -22  11  -9  460.96   29.21
  11  11  -9  610.81   32.30
  11 -22  -9  551.30   26.71
  11 -22  -9  518.66   21.73
  11  11  -9  537.98   23.40
 -22  11  -9  501.47   20.60
  11 -22  -9  494.54   28.78
 -22  11  -6   97.64   13.03
 -22  11  -6   68.87    7.91
  11  11  -6   83.42   11.15
  11 -22  -6   96.03   11.34
 -22  11  -6   77.03    9.29
  11 -22  -6   72.23    8.40
  11 -22  -6   67.53   10.35
  11  11  -6   74.52    9.18
  11 -22  -3  439.04   20.78
  11 -22  -3  440.76   20.33
 -22  11  -3  406.91   18.41
 -22  11  -3  414.14   19.43
  11  11  -3  450.08   19.37
  11 -22  -3  428.28   18.03
  11  11  -3  436.45   19.51
 -22  11  -3  422.59   20.46
  11 -22   0   61.13    8.53
  11 -22   0   59.85    7.89
  11 -22   0   58.60    6.64
  11  11   0   77.21    9.75
 -22  11   0   46.33    7.87
  11  11   0   63.56    5.91
 -22  11   0   70.68    7.04
 -22  11   0   61.21    8.47
  11 -22   3  559.56   20.22
 -22  11   3  517.59    8.91
  11 -22   3  548.26   12.13
 -22  11   3  535.32    9.46
  11 -22   6   86.50    7.34
  12 -23 -10   30.33   11.01
  11  12 -10   34.79    8.69
  12 -23 -10   23.75    6.87
  12 -23 -10   46.46   10.62
  11  12 -10   24.05   11.29
 -23  11 -10   31.52   11.44
 -23  11  -7  261.95   15.39
 -23  11  -7  262.16   16.12
  12 -23  -7  251.78   19.71
  12 -23  -7  270.02   18.47
  11  12  -7  256.29   19.72
  12 -23  -7  243.75   14.76
 -23  11  -7  297.66   22.05
  11  12  -7  252.49   16.37
 -23  11  -4  144.58   13.23
 -23  11  -4  145.79   12.12
  11  12  -4  162.84   12.78
  11  12  -4  124.78   12.08
  12 -23  -4  163.32   13.83
  12 -23  -4  178.27   14.50
 -23  11  -4  158.09   11.83
  12 -23  -4  141.64   11.00
  12 -23  -1  578.56   20.89
 -23  11  -1  559.70   22.95
  12 -23  -1  592.97   22.81
  11  12  -1  596.12   24.52
  11  12  -1  631.26   19.87
 -23  11  -1  594.60   24.11
 -23  11  -1  603.35   21.33
  12 -23  -1  658.46   24.69
 -23  11   2  243.03   10.06
  12 -23   2  268.69   15.24
  11  12   2  267.26    7.09
  12 -23   2  279.14   10.69
 -23  11   2  283.59   10.47
  11  12   2  266.83    7.51
  12 -23   5  368.36   15.88
 -22  10  -8   95.44   10.30
  12 -22  -8  115.15   12.76
  12 -22  -8   79.11   13.34
 -22  10  -8   98.46   14.45
 -22  10  -8   93.29    9.59
  10  12  -8  124.61   14.65
  10  12  -8   91.34   10.49
  12 -22  -8  122.50   11.17
  10  12  -5  186.66   13.53
 -22  10  -5  171.94   12.76
  12 -22  -5  187.27   14.73
 -22  10  -5  205.73   17.06
  10  12  -5  232.71   16.37
  12 -22  -5  176.32   15.07
 -22  10  -5  201.88   13.14
  12 -22  -5  201.82   12.81
  12 -22  -2  392.39   18.44
 -22  10  -2  412.90   18.81
  10  12  -2  366.20   16.52
  10  12  -2  437.25   20.13
 -22  10  -2  393.46   19.37
  12 -22  -2  391.96   19.45
 -22  10  -2  386.97   18.42
  12 -22  -2  380.12   17.55
  12 -22   1  209.88   14.67
  12 -22   1  190.35   10.18
 -22  10   1  219.38   14.60
 -22  10   1  208.55   10.56
  10  12   1  219.17   15.93
  10  12   1  207.71    8.74
 -22  10   1  211.04   15.16
  12 -22   4  182.75   11.39
  12 -22   7    9.93    3.79
   9  12  -9  172.52   17.96
  12 -21  -9  135.21   12.10
   9  12  -9  162.18   13.89
 -21   9  -9  157.58   12.49
  12 -21  -9  146.02   14.38
  12 -21  -9  190.46   18.88
 -21   9  -9  168.50   18.36
   9  12  -6  100.83   12.09
  12 -21  -6   83.21   11.52
 -21   9  -6   84.33    8.65
 -21   9  -6   95.86   12.11
  12 -21  -6   89.67    9.30
   9  12  -6   86.24    9.29
  12 -21  -6   62.63    9.38
 -21   9  -6   91.25    9.42
 -21   9  -3  618.45   24.36
 -21   9  -3  660.92   23.92
   9  12  -3  641.54   23.20
  12 -21  -3  656.24   24.45
 -21   9  -3  635.57   22.20
   9  12  -3  597.86   22.33
  12 -21  -3  608.04   21.21
  12 -21   0   66.48    7.15
 -21   9   0   61.60    8.09
   9  12   0   69.93    6.28
   9  12   0   71.54    9.13
 -21   9   0   65.87    7.05
 -21   9   0   54.87    7.97
  12 -21   0   72.56    8.33
 -21   9   3  584.76   10.82
  12 -21   3  605.46   12.02
  12 -21   3  605.49   11.61
 -21   9   3  583.20   10.56
  12 -21   6   69.02    6.58
  12 -20 -10   85.95   14.28
 -20   8 -10   80.30   14.32
   8  12 -10   65.49   13.41
 -20   8 -10   87.94   10.03
   8  12 -10   87.60   11.00
  12 -20 -10   87.88   10.63
  12 -20 -10   88.20   11.63
   8  12  -7  738.40   31.14
  12 -20  -7  735.46   28.28
   8  12  -7  721.72   25.30
 -20   8  -7  730.42   23.85
 -20   8  -7  710.69   31.87
  12 -20  -7  750.95   24.78
  12 -20  -7  744.95   31.79
 -20   8  -7  735.51   24.61
  12 -20  -4  178.35   10.36
  12 -20  -4  160.98   11.14
   8  12  -4  210.08   14.41
 -20   8  -4  170.50   12.27
   8  12  -4  183.77   12.31
 -20   8  -4  171.46   13.87
 -20   8  -1  911.81   24.99
   8  12  -1  898.14   27.47
 -20   8  -1  905.54   27.31
   8  12  -1  830.06   21.69
 -20   8  -1  943.98   27.16
  12 -20  -1  900.50   25.63
 -20   8   2  306.59   17.39
  12 -20   2  302.29   11.03
  12 -20   2  313.97   17.27
  12 -20   2  316.08   10.64
 -20   8   2  337.87   17.16
   8  12   2  308.01    7.71
 -20   8   2  305.10   10.43
   8  12   2  312.70    7.59
 -20   8   2  312.01   10.70
  12 -20   5  738.32   20.31
  12 -20   5  649.70   19.76
   7  12 -11   -1.53    8.60
  12 -19 -11    4.26    6.22
   7  12 -11   10.12    7.54
  12 -19 -11    5.84    8.37
 -19   7 -11    7.68   10.37
  12 -19 -11    8.27    6.25
   7  12  -8  244.22   19.46
   7  12  -8  231.35   14.89
 -19   7  -8  227.39   13.89
 -19   7  -8  271.22   15.28
 -19   7  -8  246.33   19.77
  12 -19  -8  224.41   14.44
  12 -19  -8  260.73   17.17
  12 -19  -8  276.22   20.50
  12 -19  -5   35.41    5.21
 -19   7  -5   38.08    8.29
 -19   7  -5   48.98    7.19
   7  12  -5   41.54    6.91
 -19   7  -5   36.60    5.91
  12 -19  -5   44.05    6.56
 -19   7  -2  367.37   17.33
  12 -19  -2  389.14   14.79
   7  12  -2  434.84   18.16
 -19   7  -2  396.71   17.08
  12 -19  -2  414.04   16.81
   7  12   1   80.04    5.57
 -19   7   1  101.02    9.54
   7  12   1   91.86    5.79
   7  12   1   82.76    9.38
 -19   7   1  105.87   10.61
  12 -19   1   87.02    9.41
  12 -19   7  183.32    8.69
  12 -18  -9  191.63   18.34
  12 -18  -9  223.12   16.12
 -18   6  -9  230.33   13.98
   6  12  -9  165.78   16.91
   6  12  -9  242.04   15.70
 -18   6  -9  222.69   14.49
 -18   6  -9  210.35   19.46
  12 -18  -9  211.97   14.74
   6  12  -6   24.40    4.80
 -18   6  -6   40.28    9.35
  12 -18  -6   27.55    4.37
 -18   6  -6   28.36    5.52
   6  12  -6   24.11    4.80
  12 -18  -6   29.79    5.61
   6  12  -6   29.45    6.19
 -18   6  -6   25.10    5.60
   6  12  -3  480.90   15.96
 -18   6  -3  513.62   18.52
 -18   6  -3  525.96   15.99
 -18   6  -3  524.05   19.61
  12 -18  -3  513.41   18.27
  12 -18  -3  508.52   15.56
   6  12  -3  517.35   19.31
  12 -18   0    8.24    5.20
 -18   6   0   11.60    4.98
   6  12   0    6.12    4.51
 -18   6   0    9.80    4.27
 -18   6   3  770.79   27.39
  12 -18   3  787.86   12.64
 -18   6   3  813.29   25.02
 -18   6   3  796.48   12.51
  12 -18   3  811.10   12.56
  12 -18   6    9.21    3.71
  12 -18   6    7.72    3.00
 -17   5 -10  189.10   19.61
  12 -17 -10  176.07   14.23
   5  12 -10  185.01   19.05
 -17   5 -10  152.29   12.21
  12 -17 -10  147.00   16.63
  12 -17 -10  157.71   13.73
   5  12 -10  164.54   14.06
  12 -17  -7  414.04   19.98
   5  12  -7  356.83   12.48
   5  12  -7  415.29   18.91
 -17   5  -7  396.95   16.91
  12 -17  -7  385.25   17.54
   5  12  -7  335.80   13.70
 -17   5  -7  378.78   17.03
  12 -17  -7  356.98   12.88
 -17   5  -7  381.57   23.01
   5  12  -4  385.97   14.98
 -17   5  -4  420.89   16.69
   5  12  -4  403.42   16.85
   5  12  -4  413.67   14.02
 -17   5  -4  405.07   13.36
 -17   5  -4  416.87   17.26
  12 -17  -4  400.55   16.28
  12 -17  -4  398.48   12.70
   5  12  -1  985.65   26.23
   5  12  -1  947.08   22.53
 -17   5  -1 1027.08   26.61
 -17   5  -1  951.68   25.25
  12 -17  -1 1020.09   22.59
  12 -17  -1 1003.23   25.27
 -17   5  -1  971.99   21.52
  12 -17   2  257.71   14.61
   5  12   2  254.97    6.85
 -17   5   2  270.44   14.05
 -17   5   2  244.94    8.86
   5  12   2  244.99   14.84
 -17   5   2  277.54   15.36
  12 -17   2  243.34    8.96
  12 -17   5 1552.08   27.38
  12 -17   8  261.80    6.80
  12 -16 -11   28.56   10.97
   4  12 -11   17.34    9.34
 -16   4 -11   23.53    7.39
   4  12 -11   12.29    6.31
  12 -16 -11   19.33    6.89
  12 -16 -11   21.59    7.65
 -16   4 -11    5.47    8.40
  12 -16  -8  146.44   12.32
 -16   4  -8  134.12   15.47
   4  12  -8  109.20   10.76
 -16   4  -8  143.35   11.44
  12 -16  -8  111.68   10.54
 -16   4  -8  149.66   10.87
  12 -16  -5   34.33    4.04
   4  12  -5   27.12    4.05
   4  12  -5   27.47    5.75
 -16   4  -5   36.96    5.92
 -16   4  -5   34.03    4.49
  12 -16  -5   31.59    5.47
 -16   4  -5   36.75    5.90
   4  12  -5   33.64    4.90
   4  12  -2  329.32   13.92
   4  12  -2  317.96   14.60
 -16   4  -2  339.55   14.57
   4  12  -2  339.40   12.59
 -16   4  -2  359.36   12.21
 -16   4  -2  350.78   15.40
  12 -16  -2  338.25   11.95
  12 -16  -2  333.95   14.23
   4  12   1   13.65    5.12
  12 -16   1    1.64    3.81
  12 -16   1   -0.22    2.63
   4  12   1    3.80    2.30
 -16   4   1    3.11    3.83
  12 -16   1    5.76    3.74
 -16   4   1    4.92    3.42
 -16   4   1    6.21    2.93
 -16   4   1    5.07    3.51
 -16   4   4  106.41    8.94
  12 -16   4  101.07    7.56
 -16   4   4  114.35    4.35
  12 -16   7  188.51    7.87
  12 -16   7  184.75    7.80
   3  12  -9   69.05    9.51
 -15   3  -9   75.41   12.51
 -15   3  -9   68.60    8.76
  12 -15  -9   69.39    9.03
 -15   3  -9   61.28    7.21
  12 -15  -9   51.36    8.24
  12 -15  -9   59.45    6.50
   3  12  -9   45.04   10.64
   3  12  -6  183.09   12.41
 -15   3  -6  195.97    9.40
 -15   3  -6  201.84   11.88
 -15   3  -6  183.96   11.60
  12 -15  -6  207.21    8.28
   3  12  -6  180.14    8.61
  12 -15  -6  202.22   12.54
   3  12  -6  196.56    8.96
 -15   3  -3  367.01   14.90
 -15   3  -3  363.12   15.40
   3  12  -3  379.86   12.22
 -15   3  -3  401.60   11.84
  12 -15  -3  380.31   11.24
  12 -15  -3  397.85   15.32
   3  12  -3  401.63   14.33
   3  12  -3  369.05   15.39
   3  12   0   19.50    3.77
   3  12   0   21.69    4.93
   3  12   0   23.30    4.10
 -15   3   0   18.70    4.92
 -15   3   0   23.92    4.13
   3  12   0   25.79    4.89
  12 -15   0   14.37    3.62
 -15   3   0   17.70    4.70
  12 -15   0   30.23    5.02
  12 -15   3  103.62    7.56
  12 -15   3  139.47   11.14
 -15   3   3  125.68    5.49
  12 -15   3  120.86    4.93
   3  12   3  118.28    4.12
 -15   3   3  131.88    9.48
 -15   3   3  140.38   11.18
  12 -15   6  267.47   10.10
   2  12 -10  304.28   18.35
 -14   2 -10  302.72   23.48
 -14   2 -10  331.35   18.20
 -14   2 -10  313.22   14.76
 -14   2 -10  338.83   16.52
  12 -14 -10  322.33   23.00
  12 -14 -10  281.94   16.54
  12 -14 -10  307.23   18.77
   2  12 -10  330.58   23.46
 -14   2  -7  603.16   19.93
  12 -14  -7  570.42   13.31
   2  12  -7  544.53   14.06
  12 -14  -7  612.20   22.16
   2  12  -7  560.40   21.63
 -14   2  -7  560.39   16.10
 -14   2  -7  579.80   20.90
 -14   2  -4  354.06   14.82
  12 -14  -4  352.24    9.52
   2  12  -4  344.21   10.69
 -14   2  -4  352.23   14.72
   2  12  -4  344.06   12.31
  12 -14  -4  356.64   14.89
 -14   2  -4  336.47   10.26
   2  12  -4  364.66   15.39
 -14   2  -1 1472.43   23.28
  12 -14  -1 1484.19   23.97
 -14   2  -1 1463.33   28.60
   2  12  -1 1514.57   25.25
 -14   2  -1 1533.49   29.75
  12 -14  -1 1490.86   28.22
   2  12  -1 1465.35   27.72
   2  12  -1 1450.63   29.01
 -14   2   2  928.69   25.19
 -14   2   2  943.48   16.93
 -14   2   2  946.75   23.77
  12 -14   2  921.16   24.36
 -14   2   2  953.76   23.89
   2  12   2  957.47   25.84
  12 -14   2  937.40   16.39
   2  12   2  974.28   14.21
  12 -14   2  939.87   21.88
  12 -14   2  928.51   25.03
  12 -14   5 1015.41   20.35
 -14   2   5 1075.81   25.71
 -14   2   5 1035.36   15.72
  12 -14   8  228.06    5.93
  12 -14   8  244.93    5.82
  12 -13 -11   24.37    6.29
 -13   1 -11    9.00    6.11
   1  12 -11   34.02   11.44
   1  12 -11   15.28    7.16
  12 -13 -11   37.64   11.09
  12 -13 -11   18.88    7.55
 -13   1 -11   29.40   10.71
  12 -13  -8   18.60    3.59
   1  12  -8   24.25    6.48
 -13   1  -8   22.84    5.05
 -13   1  -8   32.33    9.16
 -13   1  -8    7.93    5.30
  12 -13  -8   36.37    6.79
  12 -13  -5   98.44    4.69
   1  12  -5  102.08    9.19
   1  12  -5  107.15    6.43
   1  12  -5  116.44    5.76
 -13   1  -5   86.59    8.00
 -13   1  -5  110.02    8.58
 -13   1  -5  115.53    6.07
  12 -13  -5   95.20    8.48
   1  12  -2    6.50    3.10
   1  12  -2    4.86    2.29
 -13   1  -2   13.01    4.38
 -13   1  -2    6.15    3.40
  12 -13  -2    9.99    2.47
 -13   1  -2    5.13    2.12
  12 -13  -2    4.28    3.47
   1  12  -2    1.89    3.01
   1  12   1  299.57   12.74
   1  12   1  293.75   13.58
 -13   1   1  295.30   13.05
 -13   1   1  320.72   12.61
  12 -13   1  302.61   13.51
  12 -13   1  301.07   12.80
 -13   1   1  315.13   11.12
 -13   1   1  318.24   14.09
  12 -13   1  308.33   10.80
   1  12   1  317.78    9.63
   1  12   1  324.80   13.69
 -13   1   4   76.14    8.70
  12 -13   4   72.04    6.09
 -13   1   4   66.26    6.77
   1  12   4   67.04    4.02
 -13   1   4   62.77    4.31
  12 -13   4   59.75    3.47
  12 -13   7   24.64    3.09
  12 -12 -12   23.78   10.70
 -12   0 -12   36.98    9.23
   0  12 -12   35.00   11.85
   0  12 -12   34.29    8.85
  12 -12 -12   36.59    9.72
 -12   0 -12   17.08    9.17
 -12   0  -9    5.95    4.03
   0  12  -9    8.58    3.10
 -12   0  -9    8.30    4.01
  12 -12  -9    5.16    3.13
  12 -12  -9   11.87    5.63
 -12   0  -9    9.97    5.15
   0  12  -9    8.36    5.55
 -12   0  -9   15.69    7.63
  12 -12  -9    1.03    4.56
  12 -12  -6  244.43    6.92
   0  12  -6  249.50    7.73
 -12   0  -6  258.94   13.53
  12 -12  -6  238.62   13.59
 -12   0  -6  242.54   12.44
 -12   0  -6  259.44    9.19
   0  12  -6  249.64   13.88
   0  12  -3   23.94    3.69
   0  12  -3   16.51    4.48
  12 -12  -3   18.66    4.28
  12 -12  -3   20.90    2.27
   0  12  -3   21.89    2.80
 -12   0  -3   16.45    4.16
 -12   0  -3   31.05    5.04
 -12   0  -3   18.19    2.32
   0  12   0  123.00    8.19
 -12   0   0  110.17    6.72
  12 -12   0  103.43    6.93
   0  12   0  111.82    7.31
 -12   0   0   93.10    6.96
 -12   0   0   89.74    7.34
 -12   0   0   92.37    7.49
   0  12   0  111.93    6.73
  12 -12   0   98.52    7.52
  12 -12   0  105.55    7.34
   0  12   0   89.46    7.55
 -12   0   3   -1.41    3.61
  12 -12   3    4.43    3.91
 -12   0   3    0.93    1.65
   0  12   3    4.53    4.03
  12 -12   3   -1.22    2.40
  12 -12   3    0.16    1.48
   0  12   3    0.12    1.58
 -12   0   3   -1.96    3.06
 -12   0   6  516.75   13.85
  12 -12   6  500.25   13.14
  12 -11 -10  468.48   19.41
 -11  -1 -10  435.06   26.35
 -11  -1 -10  452.95   21.60
 -11  -1 -10  446.88   17.07
 -11  -1 -10  458.82   18.01
  12 -11 -10  451.00   22.83
  -1  12 -10  433.96   22.12
 -11  -1  -7  850.74   25.42
 -11  -1  -7  809.38   22.35
  12 -11  -7  822.39   13.93
  -1  12  -7  814.67   13.37
  12 -11  -7  862.87   26.40
  -1  12  -7  827.28   26.32
  12 -11  -7  808.20   13.20
 -11  -1  -7  810.09   17.37
  -1  12  -4  809.30   22.25
  12 -11  -4  820.63   21.99
 -11  -1  -4  807.58   11.99
  -1  12  -4  807.90   12.05
 -11  -1  -4  763.39   20.74
 -11  -1  -4  795.36   21.43
  12 -11  -4  750.30    9.05
  -1  12  -1 3018.03   37.38
  -1  12  -1 3016.89   36.29
 -11  -1  -1 2953.09   38.83
  -1  12  -1 2964.22   31.38
  12 -11  -1 3009.96   29.92
  -1  12  -1 3002.93   38.52
 -11  -1  -1 3015.99   28.46
 -11  -1  -1 3093.52   38.49
  12 -11  -1 3025.41   39.45
 -11  -1  -1 2968.69   39.94
  12 -11  -1 3075.95   38.08
  12 -11  -1 3001.79   39.20
  -1  12   2  558.77   17.83
  -1  12   2  559.48   17.82
 -11  -1   2  518.65   16.70
  12 -11   2  563.21   16.14
  12 -11   2  541.36   18.08
 -11  -1   2  575.51   13.60
  12 -11   2  535.87   12.41
  -1  12   2  568.50   17.79
 -11  -1   2  536.39   16.37
  -1  12   2  547.78   11.74
 -11  -1   2  468.32   16.32
  12 -11   2  471.09   16.11
 -11  -1   5  935.97   18.20
 -11  -1   5  961.11   21.72
  -1  12   5  970.54   18.47
  12 -11   5 1014.78   19.50
  12 -11   5 1005.92   15.86
  12 -11   8  167.88    5.92
 -10  -2 -11  197.70   15.35
  12 -10 -11  169.41   15.42
  -2  12 -11  185.86   18.56
  -2  12 -11  188.84   15.88
 -10  -2 -11  231.66   20.71
 -10  -2  -8   14.99    3.63
  -2  12  -8   18.45    6.25
  -2  12  -8   13.05    2.52
  12 -10  -8   21.92    3.07
 -10  -2  -8   29.28    6.48
 -10  -2  -8   24.40    4.28
  12 -10  -8   18.47    2.79
  -2  12  -8   18.70    2.49
  12 -10  -8   23.04    6.32
 -10  -2  -8   25.03    5.07
 -10  -2  -5  302.47   13.18
  -2  12  -5  280.32    5.78
 -10  -2  -5  305.86   14.10
 -10  -2  -5  327.54    7.74
  12 -10  -5  304.95   14.51
  -2  12  -5  299.88   14.37
  12 -10  -2   31.75    5.16
  12 -10  -2   22.54    4.55
  -2  12  -2   22.18    4.33
 -10  -2  -2   20.95    4.51
  -2  12  -2   23.96    4.74
 -10  -2  -2   23.10    3.99
  12 -10  -2   32.91    3.30
 -10  -2  -2   26.79    2.53
  -2  12  -2   25.65    2.85
  12 -10  -2   20.93    3.92
  12 -10   1    6.99    2.89
 -10  -2   1   16.68    3.92
  -2  12   1   11.22    3.11
 -10  -2   1    9.56    3.61
 -10  -2   1   14.30    3.29
  -2  12   1   13.84    2.63
  12 -10   1   14.10    3.60
  -2  12   1    5.83    2.80
  12 -10   1   13.14    2.91
  12 -10   1   12.75    3.76
 -10  -2   1   10.49    2.86
 -10  -2   4  103.25    8.67
 -10  -2   4   95.48    6.87
 -10  -2   4  101.27    6.23
  -2  12   4   96.93    5.72
  12 -10   4   97.63    6.44
  12 -10   4   95.08    5.32
  12 -10   7  147.08    6.92
 -10  -2   7  140.99    9.40
  -3  12 -12  134.80   15.21
  -3  12 -12  114.21   16.63
  12  -9 -12  126.13   14.33
  12  -9 -12  127.91   15.97
  -9  -3 -12  147.52   17.92
  -9  -3 -12  159.82   15.19
  -9  -3  -9   18.42    4.82
  -9  -3  -9   15.32    6.28
  -9  -3  -9   21.77    4.59
  12  -9  -9   16.36    6.50
  12  -9  -9   12.99    2.72
  -3  12  -9   21.73    7.06
  -3  12  -9    9.11    2.28
  -9  -3  -6  441.76   10.90
  12  -9  -6  464.88   18.74
  -9  -3  -6  445.91   18.05
  -3  12  -6  403.49   17.87
  -9  -3  -6  446.69   16.34
  -9  -3  -6  460.88   10.64
  12  -9  -3  329.12   14.92
  12  -9  -3  332.08   13.55
  -3  12  -3  325.01   14.63
  -9  -3  -3  315.56   12.80
  -9  -3  -3  334.38   13.51
  -3  12  -3  331.06    6.59
  12  -9  -3  315.07   13.04
  -3  12  -3  343.07   13.78
  -9  -3   0  512.75   14.98
  12  -9   0  477.58   15.11
  -9  -3   0  487.26   12.17
  -9  -3   0  514.32   15.52
  -3  12   0  493.19   14.89
  -9  -3   0  507.40   15.22
  12  -9   0  501.90   14.63
  12  -9   0  495.18   14.64
  -3  12   0  481.76   13.31
  12  -9   3    5.80    3.30
  -9  -3   3    6.97    3.03
  12  -9   3   11.62    3.16
  12  -9   3    7.20    2.12
  -9  -3   3   10.51    2.54
  -3  12   3    9.06    2.48
  -3  12   3    9.80    3.38
  -9  -3   3    7.34    3.63
  12  -9   6  229.15    9.92
  -9  -3   6  227.64   11.08
  -3  12   6  230.94   11.24
  -9  -3   6  241.99   10.17
  12  -9   6  240.23    9.37
  -8  -4 -10  169.24   16.61
  -8  -4 -10  144.30   10.31
  -8  -4 -10  141.32   13.46
  -8  -4 -10  162.12   10.35
  12  -8 -10  143.43   13.95
  12  -8 -10  145.50   10.42
  -4  12 -10  152.23   14.52
  -8  -4  -7  767.85   21.77
  12  -8  -7  675.67   10.77
  -8  -4  -7  769.36   24.90
  -8  -4  -7  742.63   15.44
  12  -8  -7  716.14   24.63
  -4  12  -7  688.87   24.69
  12  -8  -7  689.81   10.30
  -8  -4  -7  744.74   15.95
  12  -8  -4  785.61   20.86
  -8  -4  -4  791.10   20.69
  -8  -4  -4  763.17   21.24
  12  -8  -4  756.74   21.21
  -4  12  -4  815.63   22.38
  12  -8  -1 3352.11   39.97
  -4  12  -1 3352.99   38.28
  -8  -4  -1 3275.73   38.73
  12  -8  -1 3383.43   39.93
  -8  -4  -1 3199.70   39.47
  -8  -4  -1 3316.26   38.12
  12  -8  -1 3274.21   37.24
  -4  12  -1 3287.19   37.91
  -8  -4   2  234.46    9.17
  -4  12   2  238.35   10.65
  12  -8   2  243.63    8.91
  12  -8   2  254.51   10.94
  12  -8   2  250.11   10.54
  -4  12   2  247.97    8.83
  -8  -4   2  237.13   10.55
  -8  -4   2  233.81   10.04
  12  -8   5 1463.15   23.41
  12  -8   5 1444.89   23.63
  -4  12   5 1428.94   25.20
  -8  -4   5 1450.04   23.82
  -8  -4   5 1464.42   25.94
  12  -8   8   21.09    3.16
  -7  -5 -11  312.10   19.82
  12  -7 -11  342.38   22.30
  -5  12 -11  332.26   21.71
  -7  -5 -11  330.79   23.29
  12  -7  -8    7.85    1.98
  -7  -5  -8    8.02    3.58
  -5  12  -8    4.17    1.13
  12  -7  -8    6.62    2.56
  -7  -5  -8    5.85    4.97
  -5  12  -8    7.33    1.22
  12  -7  -8    8.22    5.55
  -7  -5  -8    6.51    3.83
  -5  12  -8   10.06    5.40
  -7  -5  -8    7.60    3.03
  -7  -5  -5 1437.72   30.86
  -7  -5  -5 1301.74   12.12
  12  -7  -5 1360.72   27.62
  12  -7  -5 1398.98   30.41
  -5  12  -5 1420.09   31.66
  -7  -5  -5 1384.59   27.82
  -7  -5  -5 1312.56   12.25
  -7  -5  -2  214.04   10.48
  -7  -5  -2  231.75   10.77
  -7  -5  -2  269.88   12.48
  12  -7  -2  239.13   10.91
  12  -7  -2  218.53   10.61
  12  -7  -2  220.79   11.18
  -5  12  -2  239.60   11.15
  -5  12  -2  245.54   11.68
  -7  -5   1  438.83   13.70
  12  -7   1  446.74   14.00
  12  -7   1  460.66   12.88
  -7  -5   1  460.62   13.22
  -5  12   1  412.80   12.57
  -7  -5   1  466.09   13.82
  12  -7   1  426.66   12.94
  -5  12   1  435.95   12.08
  -7  -5   4  266.70   10.82
  12  -7   4  253.69    9.81
  12  -7   4  256.45   10.31
  -7  -5   4  258.76   11.99
  -5  12   4  277.63   10.75
  -7  -5   4  252.75    9.85
  12  -7   7  714.66   20.00
  12  -7   7  735.45   16.58
  12  -6 -12  135.48   16.05
  -6  -6 -12  124.14   14.13
  -6  -6 -12  109.28   15.75
  -6  12 -12  136.67   15.33
  -6  -6  -9   70.01    7.70
  -6  12  -9   66.31   10.15
  -6  -6  -9   53.86    8.83
  -6  12  -9   54.09    3.22
  -6  -6  -9   72.00    6.49
  12  -6  -9   62.79   10.01
  12  -6  -9   77.85    5.40
  -6  -6  -6  680.15   12.69
  -6  -6  -6  696.15   20.44
  -6  -6  -6  630.27   22.02
  -6  -6  -6  663.41   11.52
  12  -6  -6  680.34   23.01
  -6  12  -6  655.95   23.17
  12  -6  -6  634.14   19.34
  -6  12  -3  113.75    8.67
  -6  -6  -3  107.53    7.82
  12  -6  -3  123.74    8.51
  -6  12  -3  116.65    8.83
  12  -6  -3  109.98    7.78
  -6  -6  -3   99.25    7.62
  12  -6  -3  118.39    9.13
  -6  -6  -3  108.48    8.80
  -6  -6   0 1847.34   28.31
  -6  -6   0 1814.92   27.58
  12  -6   0 1807.39   28.36
  -6  -6   0 1738.28   26.37
  12  -6   0 1828.72   27.23
  12  -6   0 1798.90   25.95
  -6  12   0 1846.75   26.45
  -6  12   0 1871.04   26.66
  -6  -6   3   49.56    4.72
  12  -6   3   55.58    5.34
  -6  -6   3   50.40    5.17
  12  -6   3   50.68    4.67
  -6  12   3   53.28    4.90
  -6  -6   3   42.90    4.58
  -6  12   3   47.99    5.06
  12  -6   3   47.76    5.07
  -6  -6   6  503.21   17.71
  12  -6   6  534.40   14.84
  -6  12   6  512.84   17.90
  -6  -6   6  541.82   12.92
  12  -6   6  543.21   16.88
  -5  -7 -10   24.99    5.97
  12  -5 -10   32.56    8.69
  -5  -7 -10   21.10    4.91
  -5  -7 -10   37.36    8.22
  12  -5  -7  709.93   11.38
  -5  -7  -7  723.24   25.26
  12  -5  -7  645.19   19.52
  -5  -7  -7  736.81   14.55
  -7  12  -7  709.19   25.89
  12  -5  -7  722.49   25.84
  -5  -7  -7  718.34   21.60
  -5  -7  -4  501.79   17.72
  -5  -7  -4  477.22   16.27
  12  -5  -4  464.03   17.13
  12  -5  -4  450.49   15.28
  -7  12  -4  489.86   17.92
  -5  -7  -1  391.90   13.05
  -5  -7  -1  343.95   12.87
  -5  -7  -1  344.42   12.87
  12  -5  -1  345.43   12.67
  -7  12  -1  360.39   12.57
  -7  12  -1  355.72   12.39
  12  -5  -1  362.72   12.12
  12  -5  -1  391.30   13.62
  -7  12   2  144.81    7.31
  -5  -7   2  145.39    7.91
  12  -5   2  148.13    8.34
  -5  -7   2  148.56    7.81
  12  -5   2  142.49    7.50
  -5  -7   2  144.64    7.56
  -7  12   2  152.39    7.75
  12  -5   2  144.29    7.37
  12  -5   5 1536.23   25.82
  -5  -7   5 1510.54   29.24
  -5  -7   5 1571.02   22.23
  -7  12   5 1556.27   29.25
  12  -5   5 1503.28   27.09
  12  -5   8   27.15    4.22
  -4  -8 -11  413.17   23.75
  -4  -8 -11  368.15   23.72
  -8  12 -11  384.91   24.26
  12  -4 -11  334.80   22.12
  12  -4  -8   36.34    3.56
  -4  -8  -8   42.66    6.33
  -4  -8  -8   40.39    7.75
  -8  12  -8   28.10    2.31
  12  -4  -8   21.59    4.88
  -8  12  -8   28.86    1.99
  12  -4  -8   49.10    8.63
  -8  12  -8   30.24    7.22
  -4  -8  -8   38.75    4.21
  12  -4  -5 1389.80   11.96
  12  -4  -5 1513.07   28.33
  -8  12  -5 1399.89   32.41
  -4  -8  -5 1497.61   29.48
  -4  -8  -5 1437.10   13.24
  -4  -8  -5 1500.16   32.72
  12  -4  -5 1432.18   32.03
  -4  -8  -2  343.68   13.14
  12  -4  -2  340.79   12.78
  -4  -8  -2  332.48   13.64
  12  -4  -2  328.20   12.42
  -4  -8  -2  315.35   12.66
  -8  12  -2  364.38   13.53
  12  -4  -2  334.62   13.60
  -4  -8   1 3164.19   35.84
  12  -4   1 3218.55   35.71
  -8  12   1 3214.62   32.05
  -4  -8   1 3257.29   33.56
  -4  -8   1 3282.93   36.77
  12  -4   1 3229.22   37.82
  -8  12   1 3238.61   35.12
  12  -4   1 3220.91   32.35
  12  -4   4  453.87   14.30
  12  -4   4  459.21   14.78
  -4  -8   4  461.32   12.51
  -8  12   4  461.39   15.33
  -4  -8   4  478.28   15.83
  -4  -8   4  444.16   13.89
  12  -4   7  890.78   20.46
  -3  -9 -12  128.64   15.31
  -3  -9 -12  135.54   16.03
  12  -3 -12  170.40   17.45
  -9  12 -12  160.40   17.45
  -3  -9  -9   35.10    6.38
  12  -3  -9   27.13    3.86
  -9  12  -9   21.84    2.42
  12  -3  -9   44.85    9.15
  -3  -9  -9   40.78    5.11
  -9  12  -9   22.25    6.85
  -3  -9  -9   24.99    7.67
  -3  -9  -6  270.13    7.78
  -3  -9  -6  248.36   14.70
  -3  -9  -6  297.00   14.02
  12  -3  -6  249.55   11.83
  -9  12  -6  269.92   15.67
  12  -3  -6  274.26    7.35
  12  -3  -6  280.59   15.69
  -3  -9  -3   60.08    6.29
  -9  12  -3   48.77    6.19
  -9  12  -3   52.74    6.52
  12  -3  -3   49.65    5.48
  12  -3  -3   47.17    5.72
  12  -3  -3   54.87    6.58
  -3  -9  -3   52.64    6.39
  -3  -9  -3   53.45    6.14
  -3  -9   0  412.80   13.60
  -3  -9   0  410.79   13.52
  12  -3   0  386.66   13.31
  12  -3   0  412.98   13.52
  12  -3   0  406.75   11.84
  -9  12   0  446.40   13.65
  -3  -9   0  411.79   12.54
  -9  12   0  403.74   12.08
  -9  12   3  363.33   10.71
  12  -3   3  371.41   13.10
  -9  12   3  334.55   12.71
  -3  -9   3  355.62   11.35
  12  -3   3  357.39   13.08
  -3  -9   3  333.90   10.86
  -3  -9   3  357.75   13.29
  12  -3   3  339.38   10.89
  12  -3   6  405.20   14.28
  -3  -9   6  419.68   10.15
  -2 -10 -10    3.59    6.00
  12  -2 -10   20.05    7.87
  -2 -10 -10   14.07    4.62
 -10  12 -10    6.05    8.04
  -2 -10 -10   10.70    5.04
  -2 -10  -7  124.61   11.65
  12  -2  -7  114.66    8.45
 -10  12  -7  118.67   12.13
  -2 -10  -7  126.79    6.59
  12  -2  -7  115.76   11.68
 -10  12  -7  115.38    4.08
  12  -2  -7  117.05    5.95
  -2 -10  -7  118.24    9.74
  -2 -10  -4  138.67    9.36
 -10  12  -4  163.16   11.15
  12  -2  -4  152.39   10.32
  -2 -10  -4  171.24   11.35
  12  -2  -4  154.69    9.14
  -2 -10  -4  151.97    4.79
  12  -2  -4  155.45    5.76
  -2 -10  -1   18.03    3.50
  12  -2  -1   22.60    3.70
  -2 -10  -1   17.41    3.57
  12  -2  -1   17.44    3.70
  12  -2  -1   28.11    4.35
 -10  12  -1   18.92    3.35
 -10  12  -1   18.22    3.56
  -2 -10  -1   16.67    4.12
  12  -2   2   10.55    2.64
  12  -2   2    8.39    3.13
  12  -2   2   10.27    3.21
 -10  12   2    5.73    2.03
  -2 -10   2    8.38    2.44
  -2 -10   2    5.88    2.88
 -10  12   2    8.80    3.00
  -2 -10   2    5.81    3.02
  -2 -10   5  311.67    9.47
  12  -2   5  278.34   12.14
  12  -2   8   13.52    4.27
  12  -1 -11  534.89   28.79
  -1 -11 -11  561.06   22.49
 -11  12 -11  588.92   30.32
  -1 -11 -11  608.42   29.64
 -11  12  -8  451.88   23.13
  12  -1  -8  414.45   21.86
  -1 -11  -8  461.58   18.92
 -11  12  -8  434.66    9.75
  -1 -11  -8  440.95   22.13
  12  -1  -8  440.41   13.11
  -1 -11  -8  438.95   13.74
  12  -1  -8  405.34   14.81
  12  -1  -5  836.45   14.52
 -11  12  -5  819.23   26.07
  12  -1  -5  823.35   20.61
  12  -1  -5  781.68   24.81
  -1 -11  -5  805.27   22.82
  -1 -11  -5  821.27   13.33
 -11  12  -5  801.10   11.46
  -1 -11  -5  817.30   25.48
  -1 -11  -2  851.81   21.17
  -1 -11  -2  859.74   14.38
  -1 -11  -2  874.78   21.76
 -11  12  -2  879.14   21.68
  12  -1  -2  922.52   21.29
  12  -1  -2  910.47   21.79
 -11  12  -2  904.02   21.35
  12  -1  -2  866.88   20.72
  -1 -11   1 3300.79   38.01
  12  -1   1 3305.41   40.40
  12  -1   1 3214.46   38.67
  -1 -11   1 3255.71   32.47
 -11  12   1 3179.98   37.54
  -1 -11   1 3247.55   39.16
 -11  12   1 3231.19   30.27
  12  -1   1 3192.15   29.96
  -1 -11   4  553.27   12.96
  12  -1   4  521.67   16.72
  12  -1   4  520.74   17.46
  -1 -11   4  558.29   13.77
   0 -12 -12   36.87    9.77
   0 -12 -12   30.75   10.29
  12   0 -12   26.85   10.03
 -12  12 -12   21.47    9.83
   0 -12  -9   -0.20    4.20
 -12  12  -9    0.38    7.02
  12   0  -9    2.28    2.95
 -12  12  -9    2.79    2.25
  12   0  -9   17.65    7.85
   0 -12  -9    7.67    3.64
   0 -12  -9    4.23    5.90
   0 -12  -6  484.47   18.62
   0 -12  -6  442.39   20.36
  12   0  -6  433.23   15.30
 -12  12  -6  499.05   22.17
  12   0  -6  501.46   12.81
 -12  12  -6  488.53   10.27
   0 -12  -6  488.58   12.21
   0 -12  -3    2.07    1.59
 -12  12  -3    1.20    1.77
   0 -12  -3    3.58    3.83
  12   0  -3    0.41    2.65
  12   0  -3    7.60    4.01
 -12  12  -3   -0.78    3.29
  12   0  -3   -0.39    2.08
   0 -12  -3    1.34    2.86
  12   0  -3    1.84    2.89
   0 -12  -3   -2.12    3.66
   0 -12   0  112.95    7.71
 -12  12   0  109.08    7.38
  12   0   0  130.32    8.33
   0 -12   0  143.88    9.00
   0 -12   0  139.69    7.68
  12   0   0  126.05    6.80
 -12  12   0  130.81    7.25
  12   0   0  119.78    8.05
  12   0   3   22.28    4.46
   0 -12   3   19.10    3.34
  12   0   3   20.76    4.38
 -12  12   3   20.25    2.53
   0 -12   3   23.53    2.92
  12   0   3   23.42    3.03
   0 -12   6  297.94    8.43
   1 -13 -10    3.07    6.54
   1 -13 -10    6.47    5.11
  12   1 -10   20.91    8.34
 -13  12 -10    9.41    8.03
  12   1 -10   17.90    4.41
   1 -13 -10   14.41    4.34
   1 -13  -7   61.70    7.82
   1 -13  -7   83.63   10.63
  12   1  -7   59.75    6.45
 -13  12  -7   67.78   10.14
  12   1  -7   64.84    9.69
 -13  12  -7   60.65    4.52
  12   1  -7   61.30    5.43
   1 -13  -7   65.41    5.38
  12   1  -4  149.03    9.14
   1 -13  -4  162.63   11.66
  12   1  -4  143.84    7.37
  12   1  -4  148.59   10.74
 -13  12  -4  171.53   11.96
   1 -13  -4  151.93    6.63
 -13  12  -4  158.36    6.88
   1 -13  -4  155.20   10.71
   1 -13  -1  292.65   13.08
 -13  12  -1  253.80   11.08
   1 -13  -1  266.78   11.53
  12   1  -1  269.15   12.14
  12   1  -1  276.08   12.14
  12   1  -1  276.27   10.95
 -13  12  -1  259.75   11.44
   1 -13  -1  267.72   11.83
  12   1   2   28.83    4.83
 -13  12   2   26.11    2.66
  12   1   2   13.47    4.01
   1 -13   2   20.74    2.76
   1 -13   2   24.44    4.21
  12   1   2   20.23    2.52
   1 -13   5   42.26    3.95
  12   2 -11  451.81   27.80
   2 -14 -11  394.83   20.34
 -14  12 -11  377.30   25.86
   2 -14 -11  407.72   26.04
  12   2  -8  409.49   22.69
   2 -14  -8  421.17   19.44
 -14  12  -8  447.51   23.92
  12   2  -8  377.27   13.76
   2 -14  -8  466.49   23.81
 -14  12  -8  388.29   11.69
   2 -14  -8  398.68   14.12
  12   2  -5 1175.01   21.68
   2 -14  -5 1171.55   29.38
  12   2  -5 1143.00   25.00
 -14  12  -5 1206.36   32.85
  12   2  -5 1239.85   32.08
 -14  12  -5 1199.09   19.50
   2 -14  -5 1194.10   20.05
 -14  12  -2  950.36   20.19
  12   2  -2  984.02   21.50
  12   2  -2  911.55   21.82
 -14  12  -2 1007.22   24.39
   2 -14  -2  994.35   24.29
   2 -14  -2 1055.03   25.70
   2 -14  -2  965.00   22.96
  12   2  -2  976.07   23.21
   2 -14  -2 1008.74   19.35
  12   2   1 1360.23   18.83
   2 -14   1 1378.34   21.75
 -14  12   1 1372.70   20.06
   2 -14   4  290.42   10.78
   2 -14   4  259.02    7.24
   2 -14   7  697.05    9.91
  12   3  -9   57.56    6.74
   3 -15  -9   40.49    9.43
 -15  12  -9   74.20   12.09
  12   3  -9   68.85   11.86
 -15  12  -9   65.51    5.86
   3 -15  -9   53.83    6.42
   3 -15  -9   61.68    8.52
 -15  12  -6  282.49   17.60
  12   3  -6  237.08   11.91
  12   3  -6  269.93   16.90
 -15  12  -6  266.98   10.14
   3 -15  -6  276.15   10.81
  12   3  -6  280.98   11.47
   3 -15  -6  259.01   16.67
   3 -15  -6  289.18   15.67
   3 -15  -3   87.18    8.61
  12   3  -3   60.54    6.56
  12   3  -3   83.80    6.74
   3 -15  -3   81.00    6.00
  12   3  -3   85.93    8.06
   3 -15  -3   56.34    7.27
 -15  12  -3   65.69    7.69
 -15  12  -3   70.35    5.91
   3 -15   0   27.38    4.90
 -15  12   0   25.79    4.03
   3 -15   0   22.76    3.79
  12   3   0   24.36    3.74
   3 -15   3  187.45    9.53
   3 -15   3  205.86    6.69
 -15  12   3  206.73    5.12
  12   3   3  202.34    5.75
   3 -15   6  275.90    9.00
   4 -16 -10   73.46   10.12
  12   4 -10   39.26   10.21
   4 -16 -10   29.70    9.94
 -16  12 -10   77.00   13.26
  12   4 -10   65.56    7.93
   4 -16 -10   58.36    7.31
   4 -16  -7  231.12   14.76
  12   4  -7  205.28   11.40
 -16  12  -7  196.33   16.42
  12   4  -7  233.50   16.80
 -16  12  -7  242.47   10.46
  12   4  -7  216.94   11.13
   4 -16  -7  219.73   10.64
   4 -16  -7  217.40   16.63
  12   4  -4  114.80    7.87
  12   4  -4  132.15   10.83
   4 -16  -4  127.89   10.58
 -16  12  -4  131.13   11.70
 -16  12  -4  110.91    7.28
   4 -16  -4  142.25   11.34
   4 -16  -4  127.11    7.49
   4 -16  -1   22.26    4.35
 -16  12  -1   18.52    4.32
 -16  12  -1   18.82    4.39
  12   4  -1   19.02    4.94
  12   4  -1   24.51    4.23
   4 -16  -1   16.92    3.62
   4 -16  -1   28.67    5.36
   4 -16   2  323.76   13.37
   4 -16   2  309.25    9.32
  12   4   2  295.80    7.46
 -16  12   2  305.73    8.04
   4 -16   5   22.97    3.44
   5 -17 -11  262.49   17.88
 -17  12 -11  286.33   23.73
  12   5 -11  274.02   23.08
   5 -17 -11  277.53   22.63
   5 -17  -8  469.13   21.64
   5 -17  -8  518.64   26.31
 -17  12  -8  516.21   15.90
 -17  12  -8  496.68   26.89
  12   5  -8  536.94   27.13
  12   5  -8  502.69   18.06
   5 -17  -8  520.90   17.73
  12   5  -5 1338.03   27.08
 -17  12  -5 1328.65   36.62
  12   5  -5 1265.85   33.92
   5 -17  -5 1374.11   36.20
   5 -17  -5 1285.45   32.86
   5 -17  -5 1324.23   24.83
 -17  12  -5 1365.41   25.41
   5 -17  -2  420.04   17.48
   5 -17  -2  408.93   16.73
 -17  12  -2  409.68   16.63
  12   5  -2  392.32   15.54
  12   5  -2  414.30   15.92
 -17  12  -2  379.63   14.80
   5 -17  -2  431.53   14.83
 -17  12   1 1390.08   21.57
   5 -17   1 1411.05   22.99
  12   5   1 1364.11   19.08
   5 -17   1 1370.82   28.71
   5 -17   4  251.14   11.14
   5 -17   7  556.94   11.79
  12   6  -9   27.18    6.04
   6 -18  -9   24.51    7.06
   6 -18  -9   35.36    9.91
 -18  12  -9   24.36    9.55
  12   6  -9   30.33    8.61
 -18  12  -9   28.57    5.14
   6 -18  -9   26.74    5.55
  12   6  -6    6.44    3.83
  12   6  -6    9.83    6.49
   6 -18  -6    1.64    4.57
 -18  12  -6   16.72    6.87
 -18  12  -6    9.89    3.58
   6 -18  -6    6.03    6.01
   6 -18  -6    4.94    2.85
   6 -18  -3  718.13   23.67
   6 -18  -3  624.15   22.20
  12   6  -3  690.09   22.38
 -18  12  -3  713.40   23.92
  12   6  -3  664.46   20.60
 -18  12  -3  615.33   18.74
   6 -18  -3  671.40   18.84
   6 -18   0   39.42    5.92
   6 -18   0   39.84    5.88
 -18  12   0   39.37    6.19
 -18  12   0   36.32    4.83
  12   6   0   38.89    4.36
   6 -18   0   38.95    5.03
   6 -18   3  493.04   16.72
   6 -18   3  479.01    9.67
   6 -18   6   54.09    4.92
 -19  12 -10  132.74   17.65
   7 -19 -10   98.75   12.05
  12   7 -10  108.32   15.29
  12   7 -10  110.59   10.53
   7 -19 -10  125.56   10.76
   7 -19 -10  138.88   16.67
 -19  12  -7  237.24   12.08
   7 -19  -7  249.15   16.27
   7 -19  -7  223.44   17.45
  12   7  -7  236.13   17.68
 -19  12  -7  245.42   18.71
   7 -19  -7  242.23   12.49
  12   7  -7  232.70   13.00
 -19  12  -4  176.15   11.77
   7 -19  -4  205.94   14.19
   7 -19  -4  215.09   14.09
  12   7  -4  217.09   12.26
 -19  12  -4  195.05   11.12
   7 -19  -4  148.27    9.72
 -19  12  -4  164.20   12.93
  12   7  -4  202.73   13.65
  12   7  -1  131.79   10.52
   7 -19  -1  103.39    9.42
   7 -19  -1  114.53    8.84
 -19  12  -1  107.84    8.55
  12   7  -1  112.54    8.06
 -19  12  -1  106.13    9.44
   7 -19  -1   84.48    8.05
   7 -19   2  299.97    9.74
   7 -19   2  274.64   13.28
  12   7   2  290.56    7.07
 -19  12   2  299.34    8.67
   7 -19   5   66.08    6.20
  12   8 -11  124.26   17.91
   8 -20 -11  103.18   12.85
   8 -20 -11  105.06   16.45
 -20  12 -11  124.46   17.51
   8 -20  -8   67.09   11.89
   8 -20  -8   42.95    6.75
   8 -20  -8   43.76    8.25
  12   8  -8   49.31   10.75
 -20  12  -8   41.86    6.50
 -20  12  -8   49.99   11.45
  12   8  -8   42.74    7.34
   8 -20  -5  789.04   27.52
   8 -20  -5  787.29   28.97
   8 -20  -5  770.93   21.72
  12   8  -5  746.49   23.00
 -20  12  -5  842.25   30.34
 -20  12  -5  823.59   25.33
  12   8  -5  829.19   28.94
 -20  12  -5  800.42   22.57
  12   8  -2  363.78   16.97
   8 -20  -2  372.70   16.85
 -20  12  -2  394.15   17.88
  12   8  -2  422.76   16.69
   8 -20  -2  398.38   18.40
 -20  12  -2  437.87   17.80
 -20  12  -2  393.86   17.31
   8 -20  -2  399.81   16.27
   8 -20   1 1238.76   29.54
 -20  12   1 1260.00   22.95
  12   8   1 1254.00   19.39
   8 -20   4  169.61   10.29
   8 -20   7  661.87   15.59
   9 -21  -9  218.95   19.86
 -21  12  -9  190.29   19.35
  12   9  -9  224.20   19.57
   9 -21  -9  211.90   16.85
 -21  12  -9  174.06   12.10
  12   9  -9  189.96   13.77
   9 -21  -9  182.83   12.78
  12   9  -6   65.66    8.01
   9 -21  -6   73.42    9.76
   9 -21  -6   51.07    9.50
 -21  12  -6   63.31    7.87
 -21  12  -6   60.05   10.20
  12   9  -6   59.67    9.96
 -21  12  -6   54.58    6.97
   9 -21  -6   60.12    7.12
   9 -21  -3  381.99   19.01
  12   9  -3  399.93   17.94
 -21  12  -3  371.31   18.63
 -21  12  -3  374.02   18.00
  12   9  -3  352.88   17.15
 -21  12  -3  402.25   17.38
   9 -21  -3  410.58   19.40
   9 -21  -3  382.51   16.13
   9 -21   0  175.23   12.39
  12   9   0  183.49   13.55
   9 -21   0  190.48   12.80
  12   9   0  195.12    9.68
   9 -21   0  176.77   10.44
 -21  12   0  193.78   10.90
 -21  12   0  174.97   13.15
   9 -21   3  486.75   10.23
   9 -21   3  481.88   18.09
 -21  12   3  448.55    7.08
   9 -21   6  146.62    9.04
  10 -22 -10   55.97   10.30
 -22  12 -10   65.56   14.21
  12  10 -10   64.48   13.11
  12  10 -10   61.53    9.65
  10 -22 -10   64.73    9.10
  10 -22 -10   78.06   14.06
  10 -22  -7    8.12    7.06
 -22  12  -7   -2.54    7.44
  12  10  -7    5.40    6.15
  12  10  -7    7.17    5.44
 -22  12  -7   -0.42    3.81
  10 -22  -7   13.39    7.23
  10 -22  -7    5.86    3.82
  10 -22  -4  206.49   14.73
  10 -22  -4  208.32   15.51
 -22  12  -4  229.47   16.17
 -22  12  -4  216.29   14.45
  12  10  -4  223.99   14.16
  12  10  -4  220.20   14.88
 -22  12  -4  226.50   13.51
  10 -22  -4  222.04   13.09
  10 -22  -1  187.65   12.14
 -22  12  -1  190.76   12.18
 -22  12  -1  196.01   13.96
  12  10  -1  185.62   10.73
  10 -22  -1  206.13   13.83
  12  10  -1  212.60   14.56
 -22  12  -1  208.45   13.92
  10 -22  -1  187.52   12.73
  12  10   2  427.78   10.04
 -22  12   2  482.79   12.49
  10 -22   2  489.56   13.56
  12  10   2  468.98    9.02
  10 -22   2  536.56   20.19
  10 -22   5  250.39   12.71
  11 -23  -8    1.74    6.57
  12  11  -8   18.17    6.61
 -23  12  -8   -0.43    7.28
  12  11  -8    5.03    7.96
 -23  12  -8    1.56    4.55
  11 -23  -8    3.13    4.46
  11 -23  -8    9.59    7.40
  11 -23  -5  361.41   21.22
 -23  12  -5  378.80   22.06
 -23  12  -5  317.73   16.38
  12  11  -5  356.41   20.37
  11 -23  -5  352.17   19.92
  12  11  -5  345.73   17.80
 -23  12  -5  328.46   18.16
  11 -23  -5  346.71   16.70
 -23  12  -2  310.71   16.63
  11 -23  -2  319.98   17.89
  11 -23  -2  308.11   16.59
  12  11  -2  307.01   15.24
  12  11  -2  300.91   17.36
 -23  12  -2  310.68   17.56
 -23  12  -2  307.78   16.80
  11 -23  -2  336.45   16.66
  11 -23   1  474.57   22.15
 -23  12   1  451.27   22.31
  11 -23   1  495.39   20.36
 -23  12   1  513.11   16.25
  11 -23   1  515.32   16.54
  12  11   1  532.53   13.52
  11 -23   4  136.45   10.17
  11 -23   7  225.45   10.93
  12 -24  -9  241.61   19.02
  12 -24  -9  250.84   21.93
 -24  12  -9  250.20   22.73
  12  12  -9  260.65   22.74
  12 -24  -9  212.55   15.13
  12  12  -9  243.84   16.97
  12 -24  -6  125.58   13.33
  12  12  -6  142.27   12.19
 -24  12  -6  131.06   12.10
  12  12  -6  134.16   14.19
 -24  12  -6  133.23   14.48
 -24  12  -6  138.33   11.55
  12 -24  -6  111.43   13.52
  12 -24  -6  125.49   11.12
 -24  12  -3  131.59   12.16
  12  12  -3  141.38   11.66
  12 -24  -3  151.04   13.06
  12 -24  -3  155.49   13.66
  12  12  -3  150.81   12.57
 -24  12  -3  164.07   13.44
 -24  12  -3  153.17   12.39
  12 -24  -3  136.47   11.48
  12 -24   0  160.87   13.37
 -24  12   0  205.23   15.18
  12  12   0  176.74    9.75
  12  12   0  185.60   14.98
  12 -24   0  189.88   13.69
 -24  12   0  186.56   11.46
  12 -24   0  174.07   11.44
 -24  12   0  208.18   15.21
  12 -24   3  220.71   13.72
  12 -24   3  208.81    7.63
 -24  12   3  192.74    6.12
 -24  12   3  185.19    6.11
  12 -24   3  167.00    7.55
  12 -24   6   92.53    8.37
  13 -25  -7   45.22    9.55
 -25  12  -7   31.17    9.74
  12  13  -7   45.84    8.53
  13 -25  -7   40.37    9.90
 -25  12  -7   32.54    7.42
 -25  12  -7   36.62    7.55
  12  13  -7   50.10   10.99
  13 -25  -7   36.87    7.32
  13 -25  -4  116.41   12.33
  13 -25  -4  117.22   12.41
 -25  12  -4  107.82   10.83
  12  13  -4  102.75   11.54
  12  13  -4  113.07   11.65
 -25  12  -4  107.45   12.57
  13 -25  -4  122.29   11.12
 -25  12  -4  123.18   11.99
  13 -25  -1   10.35    5.01
  13 -25  -1   17.28    6.20
  13 -25  -1    9.71    4.94
  12  13  -1   21.29    5.39
 -25  12  -1   17.26    6.06
 -25  12  -1   20.22    5.90
  12  13  -1   12.79    5.92
 -25  12  -1   13.61    6.04
  13 -25   2  208.32   14.31
  13 -25   2  206.30    9.87
 -25  12   2  213.59    9.54
  12  13   2  192.36    6.31
 -25  12   2  209.52   10.09
  12  13   2  181.42    6.46
  13 -25   5    0.56    3.88
 -24  11  -8   65.42   12.77
 -24  11  -8   48.47    8.91
  11  13  -8   62.65   12.20
  13 -24  -8   67.91   13.11
 -24  11  -8   76.96    9.42
  13 -24  -8   64.70    9.37
  11  13  -8   67.32   10.05
  13 -24  -8   68.27   11.02
  11  13  -5   26.95    7.46
  13 -24  -5   14.88    6.06
  13 -24  -5   26.82    8.48
 -24  11  -5   28.92    6.88
 -24  11  -5   18.79    7.63
  11  13  -5   24.76    7.08
 -24  11  -5   36.15    7.11
  13 -24  -5   18.22    5.57
  13 -24  -2  322.07   17.15
  11  13  -2  306.71   15.81
 -24  11  -2  306.03   17.23
 -24  11  -2  306.93   17.69
  13 -24  -2  341.37   18.87
 -24  11  -2  302.27   17.47
  13 -24  -2  295.63   16.39
  11  13  -2  287.46   17.75
  13 -24   1   53.96    8.86
  11  13   1   64.82    6.00
 -24  11   1   90.87   10.59
  13 -24   1   71.82    6.95
  11  13   1   67.47    5.55
 -24  11   1   54.04    6.17
  13 -24   1   67.63    8.84
 -24  11   1   62.76    9.47
  13 -24   4   62.58    7.68
  13 -24   7   87.78    7.69
 -23  10  -9   58.04    8.62
 -23  10  -9   44.78    8.58
 -23  10  -9   57.75   12.52
  10  13  -9   48.16   11.96
  10  13  -9   53.57    9.54
  13 -23  -9   65.22    9.37
  13 -23  -9   92.28   15.06
  13 -23  -9   53.41    9.94
 -23  10  -6  517.54   27.37
  13 -23  -6  548.79   27.31
 -23  10  -6  549.20   22.89
  13 -23  -6  487.05   20.42
 -23  10  -6  483.84   20.63
  13 -23  -6  493.08   24.22
  10  13  -6  554.04   26.90
  10  13  -6  519.51   22.21
  13 -23  -3  100.42   11.22
  10  13  -3   74.53    8.84
 -23  10  -3   92.20   10.10
 -23  10  -3  101.59   11.33
 -23  10  -3   86.09    9.45
  10  13  -3   94.54   10.26
  13 -23  -3   75.48    9.26
  13 -23  -3   93.56    9.25
  13 -23   0  326.80   17.97
  13 -23   0  286.70   14.02
 -23  10   0  304.58   14.40
  10  13   0  315.87   12.96
  10  13   0  305.88   18.39
 -23  10   0  279.44   16.70
 -23  10   0  300.76   17.77
  13 -23   3   26.05    3.07
 -23  10   3   26.80    2.85
  13 -23   3   20.20    2.95
 -23  10   3   25.35    2.81
  13 -23   6  216.46   11.85
  13 -22 -10  209.26   17.49
  13 -22 -10  211.84   20.81
   9  13 -10  224.46   21.87
   9  13 -10  226.16   16.92
 -22   9 -10  224.43   21.81
  13 -22 -10  183.03   14.61
  13 -22  -7  113.84   14.26
  13 -22  -7  145.29   13.98
 -22   9  -7  120.25   11.18
 -22   9  -7  128.81   11.08
   9  13  -7  147.56   15.36
   9  13  -7  139.01   12.21
  13 -22  -7  151.86   12.19
 -22   9  -7  138.89   15.48
  13 -22  -4  487.19   22.24
   9  13  -4  483.15   20.68
 -22   9  -4  466.40   20.91
   9  13  -4  506.11   22.70
  13 -22  -4  496.67   23.33
 -22   9  -4  460.05   19.47
 -22   9  -4  539.27   24.41
  13 -22  -4  488.28   19.63
   9  13  -1  146.85   12.63
  13 -22  -1  163.90   11.36
 -22   9  -1  171.96   11.84
 -22   9  -1  162.34   12.88
   9  13  -1  162.80   10.45
 -22   9  -1  180.49   13.21
  13 -22  -1  174.37   12.56
  13 -22   2  805.72   18.92
 -22   9   2  796.40   29.38
  13 -22   2  819.68   29.13
  13 -22   2  843.28   18.53
 -22   9   2  830.16   18.12
   9  13   2  855.77   13.38
 -22   9   2  797.40   27.41
 -22   9   2  867.37   18.49
   9  13   2  851.39   13.21
  13 -22   5   15.87    4.98
  13 -21  -8  188.03   17.90
 -21   8  -8  194.99   18.71
 -21   8  -8  192.54   13.81
   8  13  -8  173.38   13.70
  13 -21  -8  173.66   14.71
 -21   8  -8  191.95   13.58
  13 -21  -8  205.01   14.54
   8  13  -8  185.33   17.74
 -21   8  -5  144.22   14.22
 -21   8  -5  138.88   10.92
 -21   8  -5  156.59   12.32
   8  13  -5  170.64   14.35
   8  13  -5  147.75   11.79
  13 -21  -5  169.45   12.30
  13 -21  -5  162.88   13.40
 -21   8  -2 1000.09   28.86
 -21   8  -2  974.58   28.97
   8  13  -2  934.66   28.37
 -21   8  -2 1021.35   28.77
  13 -21  -2  964.09   26.93
  13 -21   1   79.14    9.38
   8  13   1   98.79    6.33
 -21   8   1  105.59    7.79
  13 -21   1   88.88    7.41
   8  13   1   75.21   10.04
   8  13   1   85.43    5.84
 -21   8   1  103.70   10.13
 -21   8   1   81.83    9.82
  13 -21   7  192.55    9.70
  13 -20  -9   -0.52    7.00
 -20   7  -9    6.22    7.51
   7  13  -9    4.58    8.20
 -20   7  -9   -5.42    4.85
  13 -20  -9   -2.60    5.05
   7  13  -9   -0.72    5.21
 -20   7  -9   -0.25    4.63
  13 -20  -9   -0.80    5.41
  13 -20  -6  118.96   12.10
 -20   7  -6  104.41    9.90
   7  13  -6  110.70   12.89
 -20   7  -6   96.96    9.41
   7  13  -6  111.81   10.29
  13 -20  -6   87.64    9.23
   7  13  -3  103.78   10.04
 -20   7  -3   74.10    8.66
  13 -20  -3   87.58    8.73
 -20   7  -3  115.52   10.16
  13 -20  -3   78.54    7.09
 -20   7   0  586.67   22.31
   7  13   0  540.35   21.85
 -20   7   0  532.33   21.61
  13 -20   0  512.16   20.51
 -20   7   3   28.37    7.50
 -20   7   3   22.53    2.88
  13 -20   3   22.35    2.77
 -20   7   3   25.42    6.22
 -20   7   3   25.49    2.74
  13 -20   3   21.29    2.78
  13 -20   6  176.20   10.14
  13 -20   6  201.86   10.42
  13 -19 -10  291.68   23.55
 -19   6 -10  317.36   25.30
   6  13 -10  363.17   20.55
 -19   6 -10  326.54   18.14
  13 -19 -10  351.93   20.60
  13 -19 -10  324.14   19.04
   6  13 -10  377.20   26.37
  13 -19  -7   89.76   10.60
 -19   6  -7   83.25   12.40
   6  13  -7   74.62    9.16
 -19   6  -7   79.57    8.90
   6  13  -7   78.47   11.57
 -19   6  -7   68.81    8.41
  13 -19  -7   90.52    9.24
   6  13  -4 1719.52   30.46
 -19   6  -4 1822.07   37.49
   6  13  -4 1873.48   37.89
 -19   6  -4 1865.64   36.31
 -19   6  -4 1753.23   29.75
  13 -19  -4 1879.94   36.39
  13 -19  -4 1725.17   28.32
   6  13  -1  122.44   10.68
 -19   6  -1  123.16   10.35
  13 -19  -1  114.86    8.70
 -19   6  -1   97.59    9.56
  13 -19  -1  106.68    9.38
  13 -19   2 1851.22   40.33
 -19   6   2 1872.26   38.64
 -19   6   2 1843.52   25.66
   6  13   2 1905.43   19.75
  13 -19   2 1818.40   25.97
 -19   6   2 1844.75   40.98
  13 -19   5   71.84    7.14
  13 -18 -11   59.77   13.52
 -18   5 -11   12.23    9.30
   5  13 -11   32.76    8.86
   5  13 -11   52.80   12.92
 -18   5 -11   37.08    8.12
  13 -18 -11   31.56    8.19
  13 -18 -11   21.89    7.38
  13 -18  -8  428.56   21.23
 -18   5  -8  490.11   27.32
 -18   5  -8  439.94   18.73
   5  13  -8  430.90   20.26
   5  13  -8  461.56   25.95
 -18   5  -8  433.26   19.30
  13 -18  -8  428.51   19.89
  13 -18  -5   10.73    3.33
   5  13  -5   10.00    4.09
 -18   5  -5    6.23    4.60
 -18   5  -5    2.11    3.46
 -18   5  -5    8.15    3.32
  13 -18  -5    4.24    3.96
   5  13  -5    2.12    4.15
   5  13  -5    5.73    3.17
 -18   5  -2  226.01   13.14
   5  13  -2  219.94   13.05
  13 -18  -2  221.65   10.65
 -18   5  -2  237.71   10.85
 -18   5  -2  233.04   13.11
   5  13  -2  236.19   11.48
  13 -18  -2  226.15   12.66
  13 -18   1 1053.77   22.35
   5  13   1 1036.14   29.41
 -18   5   1 1058.14   28.24
 -18   5   1 1075.68   22.55
 -18   5   1 1030.69   28.90
  13 -18   1 1097.98   28.93
   5  13   1 1128.47   19.43
 -18   5   4  261.04   14.51
  13 -18   4  248.07   12.31
 -18   5   4  247.70    6.05
  13 -18   7  283.14   10.60
  13 -17  -9   52.74   11.67
   4  13  -9   63.88    9.41
 -17   4  -9   47.90    7.19
  13 -17  -9   61.60    9.43
   4  13  -9   68.05   11.90
 -17   4  -9   32.94    9.81
  13 -17  -9   52.09    8.45
 -17   4  -9   55.14    8.59
  13 -17  -6  169.34    8.07
   4  13  -6  176.51   12.39
 -17   4  -6  188.88   12.14
   4  13  -6  167.28    9.02
  13 -17  -6  166.47   11.64
 -17   4  -6  170.42    9.41
   4  13  -6  185.35    9.78
 -17   4  -6  192.06   12.04
 -17   4  -3  118.39    9.66
   4  13  -3   79.29    7.40
   4  13  -3  107.40    7.43
 -17   4  -3   91.74    8.31
 -17   4  -3  111.54    7.08
   4  13  -3  122.36    9.92
  13 -17  -3  106.51    6.90
  13 -17  -3  101.90    8.61
   4  13   0  287.72   11.67
  13 -17   0  279.91   12.84
 -17   4   0  247.90   13.49
   4  13   0  247.38   14.06
 -17   4   0  281.83   12.48
  13 -17   0  257.22   13.63
 -17   4   0  273.96   14.11
  13 -17   3  225.42   14.58
 -17   4   3  273.19   14.29
 -17   4   3  254.51    8.02
  13 -17   3  266.45    7.71
   4  13   3  242.54    5.72
 -17   4   3  250.77   15.21
  13 -17   6   89.98    6.75
  13 -16 -10  699.00   26.80
  13 -16 -10  709.87   34.19
 -16   3 -10  682.34   26.22
   3  13 -10  700.40   34.18
  13 -16 -10  711.12   27.89
   3  13 -10  677.26   27.75
 -16   3 -10  711.46   35.49
 -16   3  -7   33.56    8.80
 -16   3  -7   33.66    5.11
  13 -16  -7   36.69    4.29
   3  13  -7   46.59    7.93
   3  13  -7   32.47    4.41
 -16   3  -7   26.01    5.68
 -16   3  -7   30.13    5.67
  13 -16  -7   41.69    7.06
 -16   3  -4 2636.36   41.43
 -16   3  -4 2620.13   42.29
   3  13  -4 2655.60   42.89
   3  13  -4 2611.31   36.60
  13 -16  -4 2618.69   41.27
 -16   3  -4 2612.75   30.63
  13 -16  -4 2562.29   28.68
   3  13  -4 2599.69   31.84
   3  13  -1   42.05    5.22
 -16   3  -1   37.88    5.93
  13 -16  -1   43.70    5.09
 -16   3  -1   48.53    5.16
   3  13  -1   33.63    5.81
 -16   3  -1   30.36    5.63
  13 -16  -1   43.16    6.20
  13 -16   2 1847.40   24.49
   3  13   2 1839.07   38.05
   3  13   2 1882.49   20.33
 -16   3   2 1821.98   35.27
 -16   3   2 1863.08   25.17
 -16   3   2 1835.78   37.53
  13 -16   2 1856.69   37.17
 -16   3   5   75.76    4.15
 -16   3   5   85.66    8.29
  13 -16   5   73.65    6.61
  13 -16   8 1404.66   17.45
  13 -15 -11   87.80   14.83
  13 -15 -11   62.25    9.27
  13 -15 -11   80.26   11.29
   2  13 -11   58.53   10.53
 -15   2 -11   53.25   11.60
 -15   2 -11   54.18    9.30
   2  13 -11   64.42   13.32
 -15   2  -8    6.43    6.83
  13 -15  -8   17.10    3.39
   2  13  -8   17.70    6.61
 -15   2  -8   18.94    5.43
 -15   2  -8    9.89    4.68
  13 -15  -8   17.28    6.04
 -15   2  -5   99.65    8.51
 -15   2  -5   97.33    8.54
   2  13  -5   95.86    6.80
   2  13  -5  100.36    9.36
  13 -15  -5   90.07    8.41
   2  13  -5   88.22    5.92
 -15   2  -5   88.40    5.89
  13 -15  -5   85.05    4.93
  13 -15  -2  205.74    8.75
 -15   2  -2  208.67   11.98
   2  13  -2  218.44    9.71
 -15   2  -2  201.85   11.44
 -15   2  -2  209.08    8.74
   2  13  -2  181.94   11.01
  13 -15  -2  191.79   10.95
   2  13  -2  196.89   10.69
  13 -15   1  194.33   11.04
 -15   2   1  189.05   11.60
   2  13   1  186.79   11.76
 -15   2   1  167.44    9.98
   2  13   1  192.29   11.02
 -15   2   1  165.14   11.02
  13 -15   1  179.38    9.03
   2  13   1  206.46    8.18
 -15   2   1  170.97    8.85
  13 -15   1  206.20   12.35
 -15   2   4    7.59    4.77
 -15   2   4   -3.31    3.14
  13 -15   4    3.53    1.33
  13 -15   4   -0.15    2.61
   2  13   4    0.93    1.22
 -15   2   4    4.92    2.05
  13 -15   7  137.77    7.16
   1  13  -9  316.19   18.42
 -14   1  -9  331.12   23.27
 -14   1  -9  284.37   14.76
 -14   1  -9  315.89   17.19
  13 -14  -9  305.03   17.89
  13 -14  -9  307.98   16.97
  13 -14  -6   18.02    2.50
   1  13  -6   15.03    4.96
 -14   1  -6   16.48    4.48
   1  13  -6   18.19    2.84
 -14   1  -6   19.74    5.68
 -14   1  -6   14.99    2.91
 -14   1  -3  327.71   14.59
   1  13  -3  342.16   10.72
  13 -14  -3  352.14    9.68
 -14   1  -3  333.21    9.76
  13 -14  -3  320.54   14.08
   1  13  -3  312.79   14.20
 -14   1  -3  293.11   13.59
   1  13  -3  315.54   12.35
 -14   1   0  123.12    9.30
  13 -14   0  145.02    8.55
 -14   1   0  137.37    9.50
  13 -14   0  120.26    8.82
 -14   1   0  136.46    8.07
   1  13   0  152.98    9.66
   1  13   0  124.47    9.38
 -14   1   0  147.41    8.91
   1  13   0  146.40    8.91
  13 -14   0  125.71    8.18
   1  13   0  155.78    8.21
 -14   1   3  114.77    5.99
 -14   1   3  118.00    9.01
  13 -14   3  104.48    7.83
  13 -14   3  108.29    5.28
  13 -14   3  119.61    9.88
   1  13   3  122.24    5.24
   1  13   3   99.11    9.51
 -14   1   3  105.82    9.61
  13 -14   6   36.88    4.55
 -14   1   6   35.71    3.96
  13 -13 -10 1475.17   36.15
 -13   0 -10 1494.86   49.07
 -13   0 -10 1520.10   39.15
  13 -13 -10 1539.22   41.72
 -13   0 -10 1537.56   32.52
   0  13 -10 1504.40   41.14
  13 -13  -7    8.11    2.07
 -13   0  -7    8.66    4.02
   0  13  -7    5.47    2.10
   0  13  -7    9.03    5.14
 -13   0  -7   14.14    5.51
  13 -13  -7    6.21    1.75
 -13   0  -7    6.29    2.91
  13 -13  -7    5.35    4.35
 -13   0  -4 1902.11   34.34
   0  13  -4 1942.90   22.01
 -13   0  -4 1930.11   34.50
  13 -13  -4 1897.34   18.14
 -13   0  -4 1917.78   20.79
  13 -13  -4 1920.38   34.75
   0  13  -4 1915.52   35.40
   0  13  -1    6.80    3.37
  13 -13  -1    2.04    3.10
   0  13  -1    7.12    3.26
   0  13  -1    6.33    4.07
 -13   0  -1   10.37    4.21
  13 -13  -1    2.34    2.28
 -13   0  -1    7.63    2.58
 -13   0  -1    6.21    3.54
 -13   0  -1    4.70    4.15
   0  13  -1    7.57    2.83
  13 -13  -1   10.11    3.75
  13 -13   2 4188.98   51.11
 -13   0   2 4139.89   48.49
  13 -13   2 4225.52   36.00
 -13   0   2 4199.02   49.42
   0  13   2 4276.05   52.98
  13 -13   2 4180.56   46.12
   0  13   2 4144.24   32.99
 -13   0   2 4187.86   37.58
 -13   0   2 4217.76   52.14
   0  13   2 4194.01   51.23
  13 -13   2 4232.82   51.49
   0  13   5   24.58    3.45
  13 -13   5   21.55    4.00
 -13   0   5   19.75    3.43
 -13   0   5   16.91    4.38
  13 -13   5   16.57    2.29
  13 -12 -11    0.67    6.19
  -1  13 -11    8.00    6.81
 -12  -1 -11   15.59    9.52
 -12  -1 -11    8.81    5.94
  -1  13 -11   22.02    9.48
 -12  -1  -8   20.59    5.00
  -1  13  -8   21.55    2.90
  13 -12  -8   15.21    2.43
 -12  -1  -8   18.30    5.66
 -12  -1  -8   21.92    4.30
  13 -12  -8   12.04    5.96
  -1  13  -8   18.50    5.70
  -1  13  -5   49.18    7.07
 -12  -1  -5   47.97    6.38
 -12  -1  -5   63.43    7.22
 -12  -1  -5   56.46    3.75
  13 -12  -5   45.23    2.19
  13 -12  -5   49.20    6.54
  -1  13  -5   59.03    3.43
  -1  13  -2   11.68    3.36
  13 -12  -2    9.82    4.30
  -1  13  -2   14.11    4.05
  -1  13  -2   15.73    2.75
  13 -12  -2   12.79    2.31
 -12  -1  -2   17.09    4.28
 -12  -1  -2   13.79    2.22
  -1  13  -2   17.19    4.39
  13 -12  -2    5.91    3.45
 -12  -1  -2   13.44    3.90
  13 -12   1  242.70   11.52
  13 -12   1  239.24   11.40
  -1  13   1  239.00   11.82
 -12  -1   1  250.32   11.86
  -1  13   1  241.59   11.94
 -12  -1   1  264.89   11.38
 -12  -1   1  233.80   10.00
  13 -12   1  221.13    9.51
  -1  13   1  253.21   11.77
  -1  13   1  256.78    9.19
  13 -12   1  256.13   12.20
 -12  -1   1  259.42   12.48
  13 -12   4  136.48    8.22
 -12  -1   4  140.33    9.16
  -1  13   4  140.82    6.67
  13 -12   4  131.89    5.94
 -12  -1   4  136.12    6.89
 -12  -1   4  127.67   10.28
  13 -12   7   45.52    4.52
 -12  -1   7   39.27    5.37
  -2  13 -12   26.67    9.45
 -11  -2 -12   16.21    7.04
  -2  13 -12    3.06    9.52
 -11  -2 -12   13.64    8.76
  13 -11 -12   22.45    8.70
  13 -11 -12   35.38   10.69
 -11  -2  -9  262.60   13.92
 -11  -2  -9  256.04   16.06
  13 -11  -9  274.21   17.24
  -2  13  -9  258.13   17.20
 -11  -2  -9  254.82   11.86
  -2  13  -6  406.11    6.84
 -11  -2  -6  459.06   18.56
 -11  -2  -6  438.21   16.81
  13 -11  -6  442.51   18.63
 -11  -2  -6  444.33   10.22
  -2  13  -6  454.27   19.13
  13 -11  -3  127.01    4.14
 -11  -2  -3  168.25   10.14
 -11  -2  -3  144.26    9.32
 -11  -2  -3  142.60    4.76
  -2  13  -3  144.44    5.58
  13 -11  -3  157.08    9.80
  -2  13  -3  155.44    9.97
  13 -11   0    1.51    2.57
  -2  13   0    4.99    3.47
 -11  -2   0    0.85    2.63
  13 -11   0    5.16    3.32
 -11  -2   0    2.96    2.21
 -11  -2   0    1.34    3.07
  13 -11   0    0.20    2.62
  -2  13   0    1.29    2.51
  13 -11   0    5.76    3.34
  -2  13   0    1.04    2.37
 -11  -2   0    4.28    3.09
  -2  13   3   43.52    6.32
  13 -11   3   27.64    4.36
 -11  -2   3   34.53    4.02
  13 -11   3   42.83    6.23
  13 -11   3   45.33    4.06
  -2  13   3   42.73    3.91
 -11  -2   3   43.65    5.54
 -11  -2   3   33.84    5.59
 -11  -2   6  212.95   10.36
  13 -11   6  221.67    8.93
  -2  13   6  229.18   10.40
  13 -11   6  223.80    9.43
 -11  -2   6  239.09   11.15
  13 -10 -10  734.49   23.79
 -10  -3 -10  724.61   33.51
  13 -10 -10  751.78   29.80
 -10  -3 -10  759.87   23.40
  -3  13 -10  725.41   29.51
 -10  -3 -10  745.27   28.53
  -3  13  -7    0.23    4.47
 -10  -3  -7    1.45    3.42
  13 -10  -7    0.34    4.49
 -10  -3  -7    1.28    4.33
 -10  -3  -7    2.88    2.08
 -10  -3  -7    1.30    2.06
 -10  -3  -4 2921.04   41.22
  13 -10  -4 2952.63   42.56
 -10  -3  -4 2985.56   42.45
  -3  13  -4 2959.29   43.68
  -3  13  -1  379.30   11.08
 -10  -3  -1  332.42   13.20
  -3  13  -1  353.37   13.61
 -10  -3  -1  401.52   14.88
  13 -10  -1  384.23   14.65
 -10  -3  -1  405.79   10.11
  13 -10  -1  377.00   14.20
 -10  -3  -1  340.52   13.52
  13 -10  -1  314.73   12.70
  -3  13  -1  388.84   13.72
 -10  -3   2 3204.70   38.93
  13 -10   2 3223.40   32.72
  13 -10   2 3204.68   38.81
  -3  13   2 3325.53   41.98
  -3  13   2 3301.91   31.57
 -10  -3   2 3205.71   41.33
  13 -10   2 3164.52   40.71
 -10  -3   2 3290.30   34.43
  13 -10   5  363.78   11.13
  -3  13   5  365.99   12.38
  13 -10   5  351.88   12.28
 -10  -3   5  362.88   13.19
 -10  -3   5  361.49   12.61
  13 -10   8  417.10   11.33
  -9  -4 -11   10.15    7.30
  -9  -4 -11   22.91    8.09
  13  -9 -11    1.11    6.47
  -4  13 -11   13.14    7.11
  13  -9  -8  115.91   11.54
  -9  -4  -8  119.17    9.43
  -9  -4  -8  109.87    6.73
  -9  -4  -8  108.05   10.95
  -4  13  -8  133.68   12.27
  13  -9  -8   91.13    3.97
  13  -9  -8  103.86    4.08
  -9  -4  -8   99.01    6.75
  -4  13  -5   37.40    6.16
  -9  -4  -5   36.58    5.62
  -9  -4  -5   34.10    5.57
  -9  -4  -5   29.82    1.88
  13  -9  -5   32.68    5.78
  -9  -4  -5   27.20    1.73
  13  -9  -2 1120.02   24.74
  13  -9  -2 1089.90   23.34
  -9  -4  -2 1109.03   24.22
  -9  -4  -2 1082.04   23.61
  13  -9  -2 1140.77   26.24
  -9  -4  -2 1172.18   26.87
  -4  13  -2 1074.74   24.51
  -9  -4   1  436.01   14.65
  13  -9   1  438.02   14.60
  -9  -4   1  460.73   14.81
  13  -9   1  463.46   13.45
  -4  13   1  451.62   12.47
  -9  -4   1  447.71   13.55
  13  -9   1  448.84   14.60
  -4  13   1  459.63   14.69
  13  -9   4  493.82   17.82
  -9  -4   4  503.81   15.11
  -9  -4   4  519.50   14.65
  13  -9   4  543.89   13.68
  13  -9   4  550.07   15.65
  -4  13   4  531.13   14.56
  -9  -4   4  523.40   18.32
  -9  -4   7   20.31    5.16
  13  -9   7   20.43    4.26
  -4  13   7   17.86    4.92
  13  -9   7   27.64    4.00
  13  -8 -12   57.40   11.31
  -8  -5 -12   62.07   11.57
  -8  -5 -12   64.43   13.36
  -5  13 -12   63.61   11.66
  -8  -5  -9  111.09    9.53
  -8  -5  -9  115.14    7.52
  -8  -5  -9  133.38   12.48
  13  -8  -9  102.00   11.36
  -5  13  -9   99.58   12.10
  13  -8  -9  102.56    5.06
  -8  -5  -6  206.80   11.64
  -8  -5  -6  179.27   12.18
  -5  13  -6  182.35   12.73
  -8  -5  -6  178.63    5.51
  13  -8  -6  193.25   12.62
  -8  -5  -6  189.43    5.72
  -8  -5  -3  836.16   21.34
  13  -8  -3  850.25   21.88
  13  -8  -3  839.02   21.74
  -8  -5  -3  834.03   21.62
  -5  13  -3  842.85   22.24
  -8  -5   0 1850.23   28.92
  -8  -5   0 1834.49   29.56
  13  -8   0 1962.23   30.91
  -5  13   0 1837.68   28.20
  -8  -5   0 1891.09   29.32
  13  -8   0 1877.65   28.72
  13  -8   0 1862.88   28.35
  -5  13   0 1946.35   27.77
  -8  -5   3  310.49   11.24
  -8  -5   3  319.58   11.93
  13  -8   3  309.11   10.61
  -5  13   3  283.70   12.25
  13  -8   3  303.38   11.79
  -5  13   3  335.43   11.38
  -8  -5   3  281.33   12.38
  13  -8   3  321.24   13.20
  13  -8   6  290.92   11.86
  13  -8   6  280.80   11.01
  -8  -5   6  281.82   13.05
  -8  -5   6  274.02   10.44
  -5  13   6  264.67   12.59
  -7  -6 -10  218.90   16.70
  -7  -6 -10  286.20   14.93
  13  -7 -10  263.16   18.94
  -6  13 -10  208.74   17.08
  -7  -6  -7   31.76    3.48
  -7  -6  -7   32.93    5.63
  -7  -6  -7   18.25    5.77
  13  -7  -7   37.09    7.27
  -6  13  -7   38.66    7.41
  -7  -6  -7   32.14    3.18
  -7  -6  -4 2080.56   36.07
  -7  -6  -4 2046.10   34.16
  13  -7  -4 2020.23   35.27
  13  -7  -4 1996.37   33.81
  -6  13  -4 2096.96   36.98
  -6  13  -1   68.79    6.16
  -7  -6  -1   62.56    6.18
  13  -7  -1   53.97    5.68
  -7  -6  -1   61.91    5.80
  -7  -6  -1   70.12    6.43
  13  -7  -1   69.95    6.10
  13  -7  -1   69.64    6.48
  -6  13  -1   68.81    6.27
  -6  13   2 1628.68   26.27
  -7  -6   2 1578.75   26.07
  13  -7   2 1576.88   27.01
  13  -7   2 1605.98   24.64
  -7  -6   2 1626.03   25.66
  -7  -6   2 1590.28   26.44
  -6  13   2 1614.38   24.34
  13  -7   2 1620.04   26.45
  -6  13   5  403.79   14.89
  13  -7   5  459.72   14.40
  -7  -6   5  431.01   15.28
  -7  -6   5  463.10   13.46
  13  -7   5  431.59   14.13
  13  -7   8  706.04   16.97
  -6  -7 -11   25.30    9.07
  -6  -7 -11   40.27    8.94
  13  -6 -11   43.67   10.01
  -7  13 -11   14.92    8.12
  -7  13  -8  778.72   28.46
  -6  -7  -8  782.78   27.80
  13  -6  -8  795.51   28.70
  -6  -7  -8  766.24   15.75
  -6  -7  -8  804.80   23.89
  -6  -7  -5  419.47   16.20
  -7  13  -5  428.48   18.22
  13  -6  -5  371.04   14.96
  13  -6  -5  386.18   17.04
  -6  -7  -5  412.05   17.38
  -6  -7  -2 1363.94   26.62
  13  -6  -2 1487.70   27.62
  13  -6  -2 1372.75   25.93
  -6  -7  -2 1595.45   28.45
  13  -6  -2 1543.63   29.59
  -7  13  -2 1414.27   26.85
  -7  13  -2 1391.11   28.62
  -6  -7   1   89.91    6.74
  -6  -7   1   80.91    6.20
  13  -6   1   79.94    6.15
  -6  -7   1   82.65    6.37
  -7  13   1   66.49    5.39
  -7  13   1   80.43    5.84
  13  -6   1   77.75    6.46
  13  -6   1   72.61    5.79
  13  -6   4 1978.45   29.55
  13  -6   4 1953.31   32.03
  13  -6   4 2027.02   30.38
  -6  -7   4 2047.92   27.86
  -6  -7   4 1979.91   31.62
  -7  13   4 2057.90   31.27
  -6  -7   4 1938.44   31.07
  13  -6   7   42.98    5.08
  -6  -7   7   38.81    3.83
  -8  13 -12   59.94   11.99
  -5  -8 -12   59.42   11.54
  13  -5 -12   71.07   13.25
  -5  -8 -12   65.82   12.55
  13  -5  -9  361.38   10.01
  -5  -8  -9  420.31   21.68
  -8  13  -9  415.57   22.55
  13  -5  -9  423.77   22.48
  -5  -8  -9  390.07   12.74
  -5  -8  -9  411.88   18.02
  -5  -8  -6  251.41   14.79
  13  -5  -6  213.83   11.62
  -5  -8  -6  265.05   13.38
  -8  13  -6  244.88   15.04
  -5  -8  -6  242.26    6.06
  13  -5  -6  237.18   14.60
  -5  -8  -3  228.34   11.64
  -5  -8  -3  210.42   11.53
  13  -5  -3  206.86   11.11
  -8  13  -3  238.77   12.45
  13  -5  -3  248.92   11.75
  -8  13   0 1866.52   27.21
  -5  -8   0 1772.55   27.25
  13  -5   0 1870.25   30.04
  -5  -8   0 1802.33   28.82
  -5  -8   0 1821.45   29.27
  13  -5   0 1811.17   28.65
  13  -5   0 1861.72   26.86
  -8  13   0 1855.62   27.79
  -8  13   3  773.85   17.49
  -5  -8   3  743.13   17.17
  13  -5   3  720.64   18.53
  13  -5   3  719.33   17.72
  -8  13   3  733.94   18.29
  -5  -8   3  729.18   17.47
  -5  -8   3  738.81   18.75
  13  -5   3  754.00   17.83
  -5  -8   6  306.93    9.85
  13  -5   6  305.44   13.83
  13  -5   6  310.27   12.41
  -9  13 -10  383.15   23.17
  13  -4 -10  354.78   22.23
  -4  -9 -10  393.02   18.24
  -4  -9 -10  341.56   21.25
  13  -4  -7    5.39    1.60
  -9  13  -7    8.57    5.62
  -4  -9  -7    4.53    3.76
  13  -4  -7    7.75    5.65
  -4  -9  -7    6.48    2.09
  -4  -9  -7    6.99    5.33
  -4  -9  -4  675.94   21.47
  -4  -9  -4  693.77   20.41
  13  -4  -4  678.32   19.28
  13  -4  -4  723.57   21.80
  -4  -9  -1  269.09   11.85
  -4  -9  -1  307.62   12.64
  13  -4  -1  283.35   12.15
  13  -4  -1  283.76   11.04
  13  -4  -1  278.04   12.03
  -4  -9  -1  258.57   11.13
  -9  13  -1  299.76   11.80
  -9  13  -1  292.52   11.88
  -4  -9   2 1305.79   24.75
  -4  -9   2 1373.84   23.89
  13  -4   2 1333.94   24.27
  -4  -9   2 1329.48   22.19
  -9  13   2 1277.37   23.70
  13  -4   2 1262.29   24.97
  13  -4   2 1330.18   21.76
  -9  13   2 1299.83   20.87
  -4  -9   5   38.62    3.80
  13  -4   5   34.54    4.96
  13  -4   8   97.69    7.89
  13  -3 -11    8.92    7.28
  -3 -10 -11    7.85    5.10
  -3 -10 -11    7.79    6.33
 -10  13 -11    6.49    7.48
  13  -3  -8  475.34   11.59
  13  -3  -8  469.16   22.81
  -3 -10  -8  487.57   22.87
  -3 -10  -8  509.89   13.30
  -3 -10  -8  509.15   19.92
 -10  13  -8  492.18   23.97
  -3 -10  -5  324.70   14.85
  -3 -10  -5  330.89   16.27
  13  -3  -5  336.98   13.80
  -3 -10  -5  311.99    6.48
 -10  13  -5  293.18   15.99
  13  -3  -5  299.69   15.27
  13  -3  -5  304.86    7.25
  -3 -10  -2 2803.71   39.09
  -3 -10  -2 2640.90   38.41
 -10  13  -2 2650.03   37.37
  13  -3  -2 2670.05   38.54
  -3 -10  -2 2809.51   38.32
  13  -3  -2 2683.39   36.94
 -10  13  -2 2679.96   37.54
  -3 -10   1  386.68   13.73
 -10  13   1  386.60   11.45
  13  -3   1  370.33   13.17
  -3 -10   1  366.78   11.80
  -3 -10   1  390.08   13.45
  13  -3   1  373.85   14.00
 -10  13   1  389.31   13.29
  13  -3   1  371.59   11.24
  13  -3   4 2551.40   36.17
  13  -3   4 2473.26   36.78
  -3 -10   4 2499.56   30.30
  13  -3   7   10.16    3.87
  -3 -10   7   17.87    2.39
  -2 -11 -12   12.28    9.36
  13  -2 -12   11.03    8.11
  -2 -11 -12   17.44    9.37
 -11  13 -12   28.05   10.51
  -2 -11  -9  132.14   11.18
  -2 -11  -9  147.16   14.02
  13  -2  -9  126.13    7.16
 -11  13  -9  135.48   13.96
  13  -2  -9  103.71   12.24
  -2 -11  -9  125.66    7.87
  -2 -11  -6  110.69    9.70
  13  -2  -6  114.61    8.78
  13  -2  -6  117.46   11.12
 -11  13  -6  140.48   12.52
  -2 -11  -6  132.00    5.53
  -2 -11  -6  131.24   11.36
  13  -2  -6  127.29    5.58
  -2 -11  -3   31.13    2.62
  -2 -11  -3   42.48    5.95
  -2 -11  -3   23.35    5.08
  13  -2  -3   34.89    5.10
  13  -2  -3   26.95    5.00
 -11  13  -3   26.98    5.54
 -11  13   0   10.61    3.12
  -2 -11   0   15.23    3.46
  13  -2   0    8.72    3.25
  -2 -11   0   12.21    3.86
  13  -2   0    5.77    2.86
  13  -2   0   12.00    3.18
  -2 -11   0    9.14    3.29
 -11  13   0   16.17    3.81
  13  -2   3  185.78   10.17
  -2 -11   3  189.28    9.00
 -11  13   3  173.12    9.92
 -11  13   3  184.99    7.46
  -2 -11   3  199.97    8.26
  13  -2   3  187.84   10.28
  13  -2   3  186.20    8.00
  -2 -11   6  538.87   12.09
  -1 -12 -10   17.05    8.01
  13  -1 -10   13.61    7.11
  -1 -12 -10   36.98    7.18
  -1 -12  -7   22.71    6.09
  13  -1  -7   24.42    5.10
  -1 -12  -7   30.20    5.89
 -12  13  -7   30.91    7.63
  13  -1  -7   27.28    3.56
  -1 -12  -7   30.34    3.72
 -12  13  -7   22.00    2.09
  13  -1  -7   31.39    8.03
  -1 -12  -4   92.04    9.25
  13  -1  -4   71.02    4.91
  -1 -12  -4   72.94    7.70
  13  -1  -4   75.99    7.13
 -12  13  -4   72.95    8.30
  13  -1  -4   67.23    7.80
  -1 -12  -4   63.90    3.85
  13  -1  -1  323.13   12.03
  -1 -12  -1  319.27   12.42
  13  -1  -1  334.48   13.75
  13  -1  -1  326.90   13.29
  -1 -12  -1  308.80   13.15
 -12  13  -1  313.12   12.24
 -12  13  -1  323.24   12.98
  -1 -12  -1  329.56   13.91
  -1 -12   2    1.35    2.54
  13  -1   2    4.32    2.33
  -1 -12   2   -0.94    3.13
  13  -1   2   -0.43    2.74
  13  -1   2    3.22    3.25
  -1 -12   2    4.11    2.39
 -12  13   2    4.68    3.37
 -12  13   2    3.74    1.99
  -1 -12   5   73.90    5.33
   0 -13 -11    8.60    5.78
   0 -13 -11   17.79    9.55
 -13  13 -11   19.22    8.84
  13   0 -11   15.32    8.56
 -13  13  -8 1579.02   43.81
  13   0  -8 1661.80   25.73
  13   0  -8 1665.04   44.20
   0 -13  -8 1608.92   25.41
   0 -13  -8 1569.39   36.46
   0 -13  -8 1625.07   43.05
  13   0  -5   16.06    2.92
   0 -13  -5   18.41    4.94
   0 -13  -5   18.49    6.22
  13   0  -5   21.32    4.71
 -13  13  -5   18.65    5.69
  13   0  -5   16.52    5.35
   0 -13  -5   18.00    2.76
 -13  13  -5   21.29    2.73
   0 -13  -2 4089.05   35.98
   0 -13  -2 4125.80   48.39
  13   0  -2 4018.08   46.89
 -13  13  -2 4136.88   48.35
  13   0  -2 4146.62   46.45
 -13  13   1    4.50    2.09
  13   0   1    3.94    3.32
   0 -13   1   10.52    3.75
   0 -13   1    4.91    2.21
  13   0   1   -0.71    2.98
  13   0   1    6.65    2.26
 -13  13   1    9.22    3.41
   0 -13   1    5.42    3.00
   0 -13   4 1873.58   23.07
   0 -13   4 1854.18   27.01
   0 -13   7    2.83    1.33
   1 -14  -9   92.26   12.56
   1 -14  -9   81.61    7.05
   1 -14  -9  100.44   10.54
 -14  13  -9   89.96   12.63
  13   1  -9  103.25    7.80
  13   1  -9   64.49   11.01
   1 -14  -6   -4.87    5.13
  13   1  -6    2.65    2.53
 -14  13  -6    1.58    5.06
  13   1  -6    0.64    4.60
   1 -14  -6    3.64    4.44
   1 -14  -6    7.88    2.66
 -14  13  -6    4.07    2.01
 -14  13  -3  110.39    6.65
   1 -14  -3  120.67    9.58
  13   1  -3  110.42    8.33
   1 -14  -3  102.57    9.04
  13   1  -3  109.54    8.62
 -14  13  -3  113.12    9.61
  13   1  -3  104.60    7.00
   1 -14  -3   98.05    5.89
  13   1   0  211.66    9.07
 -14  13   0  219.08    9.73
   1 -14   0  229.57   10.29
 -14  13   3  360.73    8.49
   1 -14   3  387.45   10.14
  13   1   3  380.38    9.58
   1 -14   3  367.92   12.97
   1 -14   6   13.59    2.62
   2 -15 -10   44.85   10.88
 -15  13 -10   51.00   11.78
  13   2 -10   30.42    9.59
   2 -15 -10   51.32    8.78
 -15  13  -7  195.05   16.04
   2 -15  -7  214.30   14.14
   2 -15  -7  191.87   15.46
 -15  13  -7  196.36    8.20
  13   2  -7  215.42   16.43
   2 -15  -7  211.26    9.67
  13   2  -7  202.33    9.89
   2 -15  -4   10.58    4.62
 -15  13  -4    6.71    2.80
 -15  13  -4   12.01    5.63
  13   2  -4   10.27    4.08
   2 -15  -4    3.18    4.45
  13   2  -4    8.44    3.19
   2 -15  -4   11.90    2.89
   2 -15  -1  268.39   11.43
   2 -15  -1  234.91   12.57
   2 -15  -1  232.15   11.28
 -15  13  -1  231.32   11.38
  13   2  -1  262.80   11.15
   2 -15   2  181.04    7.49
   2 -15   2  151.77    9.13
 -15  13   2  165.87    6.36
  13   2   2  162.87    6.30
   2 -15   5   82.61    6.09
   3 -16 -11    3.25    5.44
  13   3 -11   11.77    8.82
   3 -16 -11   -3.42    7.84
 -16  13 -11   -4.66    7.89
   3 -16  -8 1365.85   35.81
 -16  13  -8 1445.25   44.19
 -16  13  -8 1268.78   22.01
  13   3  -8 1316.88   26.71
   3 -16  -8 1383.70   41.55
   3 -16  -8 1266.57   25.52
   3 -16  -5  148.31   12.69
  13   3  -5  156.34    9.18
 -16  13  -5  166.87   13.25
   3 -16  -5  166.18   12.15
  13   3  -5  167.29   12.90
 -16  13  -5  166.47    8.60
   3 -16  -5  163.08    8.29
 -16  13  -2 1681.91   29.16
   3 -16  -2 1644.88   32.62
  13   3  -2 1657.69   30.41
   3 -16  -2 1682.84   34.35
 -16  13  -2 1598.54   32.12
  13   3  -2 1710.46   31.17
   3 -16  -2 1678.07   27.60
   3 -16   1   65.96    6.93
   3 -16   1   65.97    5.33
  13   3   1   77.02    4.85
 -16  13   1   59.08    4.90
   3 -16   4 2419.90   33.09
   3 -16   4 2359.77   21.07
   3 -16   7    6.42    1.89
   4 -17  -9   31.99    7.35
   4 -17  -9   22.80    8.42
 -17  13  -9   41.78   10.35
  13   4  -9   23.18    8.55
  13   4  -9   23.73    5.21
   4 -17  -9   32.38    5.62
  13   4  -6  123.27    8.51
   4 -17  -6  123.27   12.42
 -17  13  -6  118.82   12.49
  13   4  -6  110.23   11.73
 -17  13  -6  121.81    7.74
   4 -17  -6  108.39   10.73
   4 -17  -6  124.42    7.85
   4 -17  -3  285.46   15.05
   4 -17  -3  272.51   14.84
 -17  13  -3  276.93   14.99
  13   4  -3  272.90   14.21
  13   4  -3  284.96   12.90
 -17  13  -3  301.06   12.63
   4 -17  -3  273.09   11.32
   4 -17   0  300.25   12.17
   4 -17   0  278.52   13.89
 -17  13   0  274.03   11.40
  13   4   0  261.09   10.27
   4 -17   3  104.75    7.88
 -17  13   3  100.67    3.82
   4 -17   3   98.61    5.08
  13   4   3  103.52    3.93
   4 -17   6  140.57    7.47
   5 -18 -10   49.80    8.87
   5 -18 -10   47.95   11.31
 -18  13 -10   37.57   11.30
  13   5 -10   66.22   12.19
   5 -18  -7  315.92   20.15
   5 -18  -7  289.38   17.34
 -18  13  -7  307.16   20.33
  13   5  -7  305.63   19.66
 -18  13  -7  302.91   12.41
   5 -18  -7  296.57   12.78
  13   5  -7  299.11   13.93
   5 -18  -4  234.74   14.64
   5 -18  -4  272.02   16.19
 -18  13  -4  254.93   15.55
  13   5  -4  239.50   14.49
  13   5  -4  269.95   12.97
 -18  13  -4  249.74   11.78
   5 -18  -4  265.63   11.60
   5 -18  -1 1057.79   25.25
 -18  13  -1 1035.50   26.41
 -18  13  -1 1092.11   25.45
  13   5  -1 1040.96   27.15
  13   5  -1 1107.66   23.53
   5 -18  -1 1059.71   25.09
   5 -18  -1 1075.76   27.75
   5 -18   2  222.10    8.49
   5 -18   2  220.21   11.75
  13   5   2  208.77    6.64
 -18  13   2  221.52    7.52
   5 -18   5    3.68    2.99
 -19  13 -11   20.80   11.30
   6 -19 -11    8.66    6.58
  13   6 -11   24.43    9.69
   6 -19 -11   27.21   10.48
   6 -19  -8  596.00   25.33
   6 -19  -8  561.89   28.15
  13   6  -8  639.28   29.65
 -19  13  -8  589.54   18.04
   6 -19  -8  646.33   20.18
 -19  13  -8  523.75   27.87
  13   6  -8  575.09   20.23
   6 -19  -5   35.48    6.98
   6 -19  -5   19.97    6.66
  13   6  -5   34.27    5.79
 -19  13  -5   35.84    8.21
  13   6  -5   32.15    6.87
 -19  13  -5   38.64    5.54
   6 -19  -5   35.35    5.56
   6 -19  -2 1925.49   38.86
 -19  13  -2 1860.36   36.48
  13   6  -2 1876.15   36.29
  13   6  -2 1833.94   33.85
   6 -19  -2 1886.07   36.67
 -19  13  -2 1870.10   35.04
   6 -19  -2 1919.27   33.67
  13   6   1  275.29    9.12
   6 -19   1  260.48   13.58
 -19  13   1  266.45   10.31
   6 -19   1  263.53   10.79
   6 -19   4 1944.35   32.76
   6 -19   7  144.13    7.16
   7 -20  -9    6.24    8.60
   7 -20  -9    2.56    5.66
  13   7  -9    1.85    4.59
  13   7  -9   -9.28    8.42
 -20  13  -9    2.37    8.24
   7 -20  -9    0.30    3.94
   7 -20  -6  218.24   16.90
  13   7  -6  230.80   13.10
   7 -20  -6  217.77   15.51
  13   7  -6  210.15   16.16
 -20  13  -6  237.69   12.39
 -20  13  -6  247.76   18.09
   7 -20  -6  222.73   11.84
   7 -20  -3   28.43    6.48
   7 -20  -3   23.98    6.17
 -20  13  -3   40.52    7.24
  13   7  -3   25.42    6.19
 -20  13  -3   19.51    4.64
  13   7  -3   43.26    6.61
   7 -20  -3   24.20    4.83
   7 -20   0  483.76   19.43
   7 -20   0  464.09   18.86
  13   7   0  494.58   14.68
   7 -20   0  494.24   16.70
 -20  13   0  486.58   16.26
   7 -20   3  172.94   10.97
 -20  13   3  160.48    4.27
   7 -20   3  177.98    6.49
   7 -20   6  102.74    7.60
   8 -21 -10   79.38   11.67
   8 -21 -10   87.43   14.85
 -21  13 -10   96.75   15.26
  13   8 -10   94.49   15.11
  13   8  -7  196.80   16.71
   8 -21  -7  167.00   14.64
  13   8  -7  192.27   12.66
   8 -21  -7  215.62   17.79
 -21  13  -7  181.69   11.33
 -21  13  -7  200.67   17.51
   8 -21  -7  201.65   12.07
   8 -21  -4  147.23   12.90
   8 -21  -4  138.92   12.40
  13   8  -4  153.89   12.29
  13   8  -4  118.55   10.10
 -21  13  -4  136.62   10.22
   8 -21  -4  142.17    9.88
 -21  13  -4  140.48   13.00
   8 -21  -1   69.05    7.71
 -21  13  -1   80.97    7.99
  13   8  -1   81.28    7.46
  13   8  -1   76.65    9.32
   8 -21  -1   99.51    9.82
 -21  13  -1   88.66    9.40
   8 -21  -1   91.86    8.54
   8 -21   2  885.88   25.06
 -21  13   2  905.07   16.12
  13   8   2  863.29   12.75
   8 -21   2  865.33   17.52
   8 -21   5  147.67    9.72
   9 -22  -8  406.35   22.95
  13   9  -8  367.83   23.88
 -22  13  -8  419.18   26.10
 -22  13  -8  393.67   17.02
   9 -22  -8  358.60   16.89
  13   9  -8  385.74   18.82
  13   9  -5    6.91    4.82
 -22  13  -5    9.52    7.11
  13   9  -5   12.79    5.69
   9 -22  -5    2.89    6.08
   9 -22  -5   -1.37    5.56
 -22  13  -5   -2.73    3.89
   9 -22  -5    7.79    3.56
   9 -22  -2  823.96   27.71
  13   9  -2  838.22   26.84
  13   9  -2  856.98   24.55
 -22  13  -2  824.89   26.05
   9 -22  -2  829.41   25.86
 -22  13  -2  835.75   26.15
   9 -22  -2  782.95   24.14
 -22  13   1  183.93    9.52
  13   9   1  176.42    7.72
   9 -22   1  166.15    9.40
   9 -22   1  179.31   12.49
   9 -22   4  450.20   17.54
   9 -22   7  130.51    8.06
  10 -23  -9   13.58    8.74
 -23  13  -9   25.39   10.52
  13  10  -9    9.19    5.64
  13  10  -9   15.02    8.11
  10 -23  -9   19.70    7.70
  10 -23  -9   -3.14    4.74
  10 -23  -6  264.14   17.91
 -23  13  -6  288.73   20.34
  13  10  -6  282.79   16.20
  10 -23  -6  271.82   19.22
  13  10  -6  300.13   19.61
 -23  13  -6  259.29   14.58
  10 -23  -6  237.85   13.91
  10 -23  -3   61.94    8.85
  10 -23  -3   58.64    9.14
 -23  13  -3   53.89    8.44
 -23  13  -3   54.78    8.07
  13  10  -3   56.88    8.16
 -23  13  -3   55.26    7.77
  10 -23  -3   63.54    7.90
  13  10  -3   64.20    8.92
 -23  13   0  274.43   16.85
  10 -23   0  259.59   15.88
  10 -23   0  271.04   15.68
  10 -23   0  284.97   13.74
 -23  13   0  269.96   13.28
  13  10   0  299.02   12.39
  10 -23   3   82.99    8.74
  10 -23   3   77.95    4.65
 -23  13   3   76.40    3.77
 -23  13   3   78.81    3.47
  10 -23   6  513.93   17.63
  11 -24 -10   43.93   12.27
 -24  13 -10   46.62   12.55
  13  11 -10   28.41   10.71
  11 -24 -10   35.41    9.27
  11 -24  -7  138.49   13.93
  11 -24  -7  157.17   16.27
 -24  13  -7  127.93   15.28
 -24  13  -7  153.21   12.16
  11 -24  -7  127.22   10.91
  13  11  -7  147.68   12.69
  11 -24  -4   45.28    8.65
  11 -24  -4   46.28    8.39
 -24  13  -4   36.60    7.03
  13  11  -4   50.89    8.38
  13  11  -4   38.72    7.53
 -24  13  -4   54.94    8.12
 -24  13  -4   46.67    9.00
  11 -24  -4   37.71    6.43
  13  11  -1   98.54   11.02
  11 -24  -1  146.02   12.66
  11 -24  -1  123.11   10.19
 -24  13  -1  137.11   10.64
  13  11  -1  112.00    8.92
 -24  13  -1  134.45   12.19
  11 -24  -1  124.91   11.18
  13  11   2  193.08    6.92
  11 -24   2  230.58    9.99
 -24  13   2  220.88    9.12
  13  11   2  212.62    6.51
  11 -24   2  211.40   13.67
  11 -24   5   17.59    4.97
  12 -25  -8   44.49   10.04
  13  12  -8   58.75    9.47
 -25  13  -8   38.65   11.78
  13  12  -8   54.77   11.87
  12 -25  -8   36.27   10.15
 -25  13  -8   51.04    8.44
  12 -25  -8   46.87    7.99
  12 -25  -5    3.09    5.34
 -25  13  -5    8.94    6.88
  13  12  -5   -0.60    5.06
 -25  13  -5    3.12    5.19
  12 -25  -5   -3.32    6.84
  13  12  -5   -0.15    5.62
 -25  13  -5   -3.30    4.41
  12 -25  -5    0.43    5.05
  12 -25  -2  205.36   15.30
 -25  13  -2  197.25   13.83
  13  12  -2  200.05   15.17
 -25  13  -2  207.15   15.19
  13  12  -2  187.72   12.50
  12 -25  -2  164.53   12.76
 -25  13  -2  182.85   14.11
  12 -25  -2  184.04   13.73
  12 -25   1   22.61    7.52
 -25  13   1   14.60    6.69
  12 -25   1   13.88    4.15
  13  12   1   20.13    3.44
 -25  13   1   21.45    4.52
  12 -25   1   22.07    6.49
  12 -25   4   80.87    8.84
  12 -25   7   65.77    7.15
  13 -26  -9    6.15    6.88
  13 -26  -9   23.79   10.79
 -26  13  -9   39.10   12.48
  13  13  -9   22.30   10.71
  13  13  -9   12.51    7.29
  13 -26  -9    9.71    6.09
  13 -26  -6  567.01   27.46
  13 -26  -6  556.53   28.60
  13  13  -6  604.80   25.60
 -26  13  -6  548.62   23.20
 -26  13  -6  581.14   25.35
  13  13  -6  584.39   28.43
  13 -26  -6  559.40   22.99
 -26  13  -6  566.05   29.13
  13 -26  -3   52.18    9.20
 -26  13  -3   64.25   10.25
 -26  13  -3   64.36    9.58
  13  13  -3   63.46    8.43
 -26  13  -3   57.48    9.18
  13 -26  -3   56.72    9.70
  13 -26  -3   55.11    8.69
  13  13  -3   45.01    8.27
  13 -26   0  514.11   23.74
  13 -26   0  535.82   23.69
 -26  13   0  502.50   19.03
  13  13   0  518.79   25.60
  13  13   0  508.54   16.99
  13 -26   0  518.35   19.37
 -26  13   0  481.16   23.87
  13 -26   3   52.39    7.78
  13 -26   3   67.38    4.89
 -26  13   3   59.41    3.80
  13 -26   6  503.11   19.54
  13  14  -7   31.87    7.96
  14 -27  -7   25.05    9.34
  13  14  -7   36.56   10.45
  14 -27  -7   25.90    9.81
 -27  13  -7   28.70    7.71
 -27  13  -7   20.83    6.81
 -27  13  -7   24.09   10.13
  14 -27  -7   30.25    7.29
  14 -27  -4   76.55   11.44
  14 -27  -4   72.34   10.68
 -27  13  -4   57.39    9.43
  13  14  -4   59.38    9.29
 -27  13  -4   82.80   11.71
 -27  13  -4   82.98   10.34
  13  14  -4   44.99    8.79
  14 -27  -4   75.63   10.05
 -27  13  -1   51.30    9.20
  13  14  -1   30.86    8.41
 -27  13  -1   35.05    7.91
  14 -27  -1   45.52    8.61
 -27  13  -1   44.30    7.40
  13  14  -1   42.23    6.51
  14 -27  -1   47.61    8.25
  14 -27  -1   40.18    7.73
 -27  13   2    2.32    2.90
  13  14   2    3.50    1.62
  14 -27   2    8.87    3.53
  14 -27   2    2.78    5.12
  14 -27   5   47.55    7.55
  14 -26  -8   26.82    7.39
  14 -26  -8    3.34    7.52
 -26  12  -8    0.25    5.56
 -26  12  -8    8.53    8.16
  12  14  -8   17.57    8.55
  12  14  -8   16.62    7.10
  14 -26  -8    5.67    7.12
 -26  12  -8   13.49    6.54
  14 -26  -5  100.93   12.86
 -26  12  -5   95.20   10.80
 -26  12  -5  131.58   14.62
  12  14  -5  137.00   13.18
 -26  12  -5  112.53   11.75
  12  14  -5  121.54   13.47
  14 -26  -5  133.76   11.95
  14 -26  -5  114.99   12.79
 -26  12  -2   32.19    7.70
  14 -26  -2   22.09    7.07
  12  14  -2   26.92    8.13
 -26  12  -2   17.55    5.92
 -26  12  -2   19.72    6.30
  12  14  -2   26.51    6.32
  14 -26  -2   23.46    7.04
  14 -26  -2   23.55    7.18
 -26  12   1   72.63   10.50
  12  14   1   72.57    6.26
  14 -26   1  100.32   11.98
  14 -26   1   92.19   10.49
  14 -26   1   72.21    7.42
 -26  12   1   82.40    7.76
 -26  12   1   79.56   10.67
  12  14   1   84.50    6.33
  14 -26   4   70.37    8.60
  14 -26   7   98.59    8.67
  14 -25  -9  340.65   22.69
  14 -25  -9  351.65   26.08
 -25  11  -9  331.34   26.41
  11  14  -9  346.02   26.09
 -25  11  -9  331.79   18.88
  14 -25  -9  317.71   18.94
  11  14  -9  347.31   20.85
  14 -25  -6  160.61   15.41
 -25  11  -6  136.64   14.96
  11  14  -6  156.07   15.49
  11  14  -6  124.97   12.35
 -25  11  -6  158.20   13.78
 -25  11  -6  172.97   13.60
  14 -25  -6  142.04   15.54
  14 -25  -6  143.56   11.95
 -25  11  -3  786.78   27.86
  14 -25  -3  808.96   29.17
 -25  11  -3  793.70   29.53
 -25  11  -3  765.68   28.45
  11  14  -3  765.50   27.03
  14 -25  -3  853.89   30.73
  11  14  -3  802.84   29.28
  14 -25  -3  773.94   26.70
  14 -25   0  131.68   12.54
  14 -25   0  151.74   12.88
  14 -25   0  140.15   10.48
  11  14   0  146.02   13.81
 -25  11   0  121.77   12.72
  11  14   0  139.44    9.23
 -25  11   0  130.51   10.34
 -25  11   0  152.77   13.83
  14 -25   3  380.32   10.70
 -25  11   3  360.15    9.59
 -25  11   3  355.91    9.48
  14 -25   6  170.29   11.38
  14 -24 -10   33.76   11.51
  14 -24 -10   25.39    8.83
  10  14 -10   20.40    8.29
 -24  10 -10   25.75   11.16
  10  14 -10   25.75   11.39
  14 -24 -10   24.11    8.33
  14 -24  -7  164.22   15.62
  14 -24  -7  165.21   16.84
 -24  10  -7  154.40   16.58
 -24  10  -7  156.21   13.24
  10  14  -7  180.76   17.28
 -24  10  -7  158.45   12.68
  14 -24  -7  150.57   12.67
  10  14  -7  170.16   14.31
  14 -24  -4   21.53    6.91
  10  14  -4   42.36    7.64
 -24  10  -4   28.48    8.35
  14 -24  -4   24.40    7.53
 -24  10  -4   27.42    7.15
  10  14  -4   24.99    6.68
 -24  10  -4   36.84    7.18
  14 -24  -4   21.95    6.07
  14 -24  -1  303.63   16.03
 -24  10  -1  334.31   18.57
  10  14  -1  329.72   14.94
 -24  10  -1  327.39   16.60
  10  14  -1  291.68   18.03
  14 -24  -1  316.43   17.67
 -24  10  -1  315.92   17.94
 -24  10   2  379.95   21.62
  14 -24   2  398.80   21.52
  14 -24   2  393.80   13.35
 -24  10   2  383.41   13.11
 -24  10   2  394.89   13.21
 -24  10   2  406.49   20.79
  10  14   2  383.85    9.29
  10  14   2  368.67    9.23
  14 -24   2  360.69   13.54
  14 -24   5  468.73   18.49
  14 -23  -8   29.61    9.33
  14 -23  -8   30.37    8.81
 -23   9  -8   26.49    7.43
 -23   9  -8   30.11   10.24
   9  14  -8   28.38    7.27
   9  14  -8   29.66   10.01
 -23   9  -8   33.26    7.50
  14 -23  -8   29.81    7.03
   9  14  -5  112.74   11.15
  14 -23  -5  136.02   13.71
 -23   9  -5  124.62   11.88
   9  14  -5  127.30   13.06
 -23   9  -5  144.20   14.30
 -23   9  -5  121.51   10.99
  14 -23  -5  119.81   12.45
  14 -23  -5  127.09   10.99
 -23   9  -2  120.68   11.52
   9  14  -2  108.24    9.74
   9  14  -2   95.28   10.25
  14 -23  -2  124.58   11.05
 -23   9  -2  124.78   11.28
 -23   9  -2  122.73   11.54
  14 -23  -2  114.50   10.80
   9  14   1  200.31    9.34
  14 -23   1  207.52   15.08
  14 -23   1  187.09   10.54
   9  14   1  214.69   16.27
 -23   9   1  204.89   15.11
   9  14   1  225.03    9.66
 -23   9   1  212.72   11.21
 -23   9   1  199.26   15.36
  14 -23   4   48.93    6.75
  14 -23   7  125.43    8.82
 -22   8  -9  246.56   22.32
 -22   8  -9  188.43   14.79
 -22   8  -9  232.75   15.32
   8  14  -9  232.11   21.51
   8  14  -9  189.04   15.40
  14 -22  -9  208.02   17.05
  14 -22  -9  242.06   16.47
  14 -22  -9  194.23   19.22
  14 -22  -6  147.18   14.02
 -22   8  -6  129.82   14.71
  14 -22  -6  101.46   12.93
 -22   8  -6  134.22   11.94
   8  14  -6  155.74   14.94
 -22   8  -6  152.07   12.04
   8  14  -6  139.44   12.35
  14 -22  -6  127.42   10.96
 -22   8  -3  443.96   21.52
   8  14  -3  411.27   19.48
 -22   8  -3  405.54   19.53
 -22   8  -3  433.10   19.34
  14 -22  -3  414.10   18.48
   8  14   0  201.36   14.80
 -22   8   0  170.74   12.96
   8  14   0  181.94    9.90
 -22   8   0  177.66   13.37
  14 -22   0  204.75   14.01
  14 -22   3  594.30   12.82
 -22   8   3  563.88   12.05
  14 -22   3  569.62   12.65
 -22   8   3  592.70   13.12
  14 -22   6   28.80    5.30
 -21   7 -10   54.21   13.70
  14 -21 -10   48.75   11.60
   7  14 -10   61.97   13.40
 -21   7 -10   56.48    9.12
  14 -21 -10   45.49    8.87
  14 -21 -10   56.93   10.56
   7  14 -10   37.84    9.01
 -21   7  -7  294.48   16.57
  14 -21  -7  266.14   19.77
  14 -21  -7  257.31   17.64
 -21   7  -7  289.29   21.51
   7  14  -7  306.54   21.02
   7  14  -7  252.75   15.91
 -21   7  -7  272.79   15.76
  14 -21  -7  275.06   16.01
 -21   7  -4  250.40   14.46
 -21   7  -4  251.00   15.18
 -21   7  -4  242.47   16.75
  14 -21  -4  205.52   11.10
  14 -21  -4  237.96   14.14
   7  14  -4  236.48   14.59
   7  14  -1  726.70   25.42
 -21   7  -1  777.88   26.23
 -21   7  -1  768.90   25.91
  14 -21  -1  742.87   24.59
  14 -21   2  394.33   19.87
  14 -21   2  406.59   12.98
   7  14   2  369.69   20.21
 -21   7   2  377.38   18.91
   7  14   2  386.43    9.89
 -21   7   2  389.75   12.72
   7  14   2  387.07    9.56
  14 -21   2  369.92   12.75
 -21   7   2  412.64   20.65
   6  14 -11   26.76    8.35
  14 -20 -11   34.81   10.83
  14 -20 -11   29.80    8.43
 -20   6 -11   38.91   11.69
  14 -20 -11   13.24    6.97
  14 -20  -8   14.69    7.82
 -20   6  -8   22.20    9.16
  14 -20  -8   19.64    6.53
 -20   6  -8   20.55    5.63
   6  14  -8   15.08    8.38
 -20   6  -8   24.17    6.18
   6  14  -8   31.41    7.43
  14 -20  -8   24.00    6.55
 -20   6  -5  162.02   14.41
  14 -20  -5  182.41   12.51
 -20   6  -5  180.33   12.59
   6  14  -5  171.34   12.77
 -20   6  -5  183.49   12.92
  14 -20  -5  152.03    8.93
   6  14  -2   38.49    7.25
 -20   6  -2   49.98    7.36
  14 -20  -2   35.53    5.83
 -20   6  -2   41.62    6.68
  14 -20  -2   33.23    5.96
  14 -20   1  219.13   11.12
 -20   6   1  276.38   15.68
   6  14   1  256.23   15.92
 -20   6   1  245.34   15.12
 -20   6   1  239.88   11.48
   6  14   1  255.01   10.01
  14 -20   1  254.16   15.23
 -20   6   4  160.13    4.93
 -20   6   4  192.76   13.37
  14 -20   7  119.82    7.86
 -19   5  -9  133.09   17.11
  14 -19  -9   93.97   14.15
  14 -19  -9  118.91   12.57
 -19   5  -9   88.44    9.66
   5  14  -9  100.43   11.39
   5  14  -9   75.08   12.75
 -19   5  -9   81.87    9.99
  14 -19  -9   78.59   10.16
  14 -19  -6  126.94    7.61
 -19   5  -6  148.39   15.02
   5  14  -6  119.02    8.76
 -19   5  -6  126.53   11.05
   5  14  -6  118.79    8.47
   5  14  -6  161.58   12.27
 -19   5  -6  126.02   10.65
  14 -19  -6  151.23   11.68
   5  14  -3  375.24   14.51
 -19   5  -3  437.64   18.87
 -19   5  -3  394.18   17.19
 -19   5  -3  406.67   14.08
  14 -19  -3  372.71   13.59
  14 -19  -3  412.19   17.48
   5  14  -3  396.89   18.01
   5  14   0  123.47    8.23
  14 -19   0   99.38    9.29
   5  14   0  108.47   10.37
 -19   5   0  115.67   10.26
 -19   5   0  107.98   10.02
  14 -19   3  213.17   15.19
 -19   5   3  209.97   13.64
 -19   5   3  190.09    7.38
  14 -19   3  199.54    7.27
   5  14   3  174.28    4.63
 -19   5   3  194.82   14.64
  14 -19   6  231.65   11.45
  14 -18 -10   94.37   14.40
  14 -18 -10  104.58   11.78
 -18   4 -10  138.49   17.01
   4  14 -10  138.46   13.59
   4  14 -10  121.42   15.66
 -18   4 -10  130.92   12.58
  14 -18 -10  131.61   13.34
   4  14  -7  632.65   24.25
 -18   4  -7  658.13   23.12
 -18   4  -7  582.08   22.15
 -18   4  -7  594.70   29.10
  14 -18  -7  616.40   23.16
   4  14  -4  760.32   19.12
   4  14  -4  726.34   23.90
 -18   4  -4  785.73   24.11
 -18   4  -4  715.21   17.69
  14 -18  -4  766.43   17.56
 -18   4  -4  740.51   23.97
  14 -18  -4  785.55   23.81
 -18   4  -1 1028.93   27.78
 -18   4  -1  998.12   22.58
 -18   4  -1 1073.66   28.10
  14 -18  -1 1058.92   27.34
  14 -18  -1 1008.84   23.35
   4  14  -1  963.01   23.91
   4  14  -1  981.00   27.51
  14 -18   2  513.03   21.10
 -18   4   2  513.14   14.16
  14 -18   2  544.43   14.19
   4  14   2  521.39   11.24
 -18   4   2  530.88   21.81
 -18   4   2  521.33   20.08
   4  14   2  488.78   21.15
  14 -18   5  788.61   21.24
 -18   4   5  736.26   10.60
  14 -18   8  365.92   10.51
   3  14 -11   11.38    7.69
  14 -17 -11   15.90    6.79
   3  14 -11    6.27    8.60
 -17   3 -11   18.08    6.72
  14 -17 -11    7.63    6.18
 -17   3 -11   10.48    9.85
  14 -17 -11    7.95    9.24
 -17   3  -8   71.23   12.29
 -17   3  -8   48.44    7.42
 -17   3  -8   39.90    7.07
  14 -17  -8   49.26    7.83
   3  14  -8   43.96    7.77
  14 -17  -5    7.75    2.61
   3  14  -5   16.68    4.99
 -17   3  -5   12.12    5.02
   3  14  -5   10.01    3.33
 -17   3  -5   10.65    4.46
 -17   3  -5    7.37    2.79
  14 -17  -5   12.53    4.90
   3  14  -5   10.99    3.87
   3  14  -2   60.18    6.00
 -17   3  -2   73.74    8.11
  14 -17  -2   62.30    5.75
 -17   3  -2   70.13    5.77
 -17   3  -2   67.75    7.63
  14 -17  -2   66.86    7.39
   3  14  -2   71.86    7.79
 -17   3   1  187.09    9.74
 -17   3   1  200.11   12.34
 -17   3   1  201.55   13.07
  14 -17   1  180.48    9.56
   3  14   1  183.21    8.11
   3  14   1  197.32   13.02
  14 -17   1  193.63   12.62
 -17   3   4   16.79    6.19
  14 -17   4   17.07    1.92
  14 -17   4   16.44    4.33
 -17   3   4   19.42    5.23
   3  14   4   11.56    1.52
 -17   3   4   17.11    2.63
  14 -17   7   11.57    3.30
 -16   2  -9   71.99   12.49
 -16   2  -9   73.05    8.67
   2  14  -9   73.29    9.91
 -16   2  -9   82.06   10.00
  14 -16  -9   78.48   10.20
  14 -16  -9   65.17    9.18
 -16   2  -6  133.84   10.38
   2  14  -6  123.59    6.80
  14 -16  -6  134.47   10.84
 -16   2  -6  127.78    7.18
  14 -16  -6  130.61    6.07
   2  14  -6  155.25   11.77
   2  14  -3   68.63    6.88
 -16   2  -3   97.16    8.83
   2  14  -3   81.41    6.14
   2  14  -3   74.51    8.06
  14 -16  -3   72.49    5.37
 -16   2  -3   78.41    7.92
 -16   2  -3   78.97    5.57
  14 -16  -3   71.80    7.65
 -16   2   0  294.12   13.17
 -16   2   0  279.44   14.18
   2  14   0  276.01   12.80
   2  14   0  277.25   14.61
  14 -16   0  292.85   12.70
 -16   2   0  282.60   12.12
 -16   2   0  270.76   14.12
  14 -16   0  275.31   13.81
  14 -16   0  280.19   12.68
   2  14   0  280.92   11.51
  14 -16   3  200.00   13.38
 -16   2   3  196.35   12.13
  14 -16   3  186.73   10.86
  14 -16   3  217.55    7.67
   2  14   3  195.76    6.63
   2  14   3  210.45   14.17
 -16   2   3  215.43    8.24
 -16   2   3  188.26   12.99
 -16   2   6   91.60    5.22
  14 -16   6   78.59    6.62
   1  14 -10  181.72   15.39
  14 -15 -10  201.13   14.75
 -15   1 -10  190.54   19.42
 -15   1 -10  200.15   14.93
 -15   1 -10  206.96   13.07
  14 -15 -10  186.76   15.15
  14 -15  -7  656.81   11.97
  14 -15  -7  690.04   13.34
   1  14  -7  766.91   26.34
   1  14  -7  687.16   14.33
 -15   1  -7  763.30   25.14
  14 -15  -7  728.25   25.39
 -15   1  -7  697.35   16.45
 -15   1  -7  761.82   23.69
   1  14  -4  723.21   18.90
   1  14  -4  673.10   14.93
   1  14  -4  702.51   22.43
 -15   1  -4  713.97   22.19
 -15   1  -4  688.77   21.47
  14 -15  -4  734.74   13.41
 -15   1  -4  706.53   14.31
  14 -15  -4  760.95   22.93
  14 -15  -1 1124.07   26.99
   1  14  -1 1232.94   26.16
 -15   1  -1 1187.51   21.74
 -15   1  -1 1171.77   27.81
   1  14  -1 1175.43   23.57
 -15   1  -1 1156.66   27.11
  14 -15  -1 1197.02   26.95
   1  14  -1 1178.59   27.81
  14 -15  -1 1231.65   23.02
   1  14   2  614.07   21.60
 -15   1   2  648.88   20.63
  14 -15   2  613.20   19.15
  14 -15   2  607.15   14.64
   1  14   2  664.50   13.39
 -15   1   2  608.41   21.23
 -15   1   2  578.90   15.01
  14 -15   2  634.18   21.58
  14 -15   5 1716.78   17.22
  14 -15   5 1668.58   28.78
 -15   1   5 1799.14   34.44
 -15   1   5 1739.81   22.71
   1  14   5 1806.90   21.35
  14 -14 -11    2.45    8.55
  14 -14 -11    2.12    5.18
 -14   0 -11    1.12    8.37
 -14   0 -11    5.90    6.24
   0  14 -11    7.50    9.71
   0  14 -11    7.17    6.36
  14 -14 -11   -2.85    6.08
  14 -14  -8   13.51    2.34
   0  14  -8   10.93    5.45
 -14   0  -8   22.06    5.42
  14 -14  -8   19.90    5.95
 -14   0  -8   12.53    4.22
   0  14  -5    2.94    1.88
   0  14  -5   -1.32    3.83
 -14   0  -5    1.33    4.03
 -14   0  -5    4.35    3.76
  14 -14  -5    7.15    3.96
 -14   0  -5    1.72    1.81
  14 -14  -5    0.19    1.04
   0  14  -2   56.39    7.04
   0  14  -2   44.41    6.07
  14 -14  -2   53.12    4.40
 -14   0  -2   63.07    6.97
 -14   0  -2   55.26    4.43
  14 -14  -2   43.26    5.91
 -14   0  -2   50.68    6.67
   0  14  -2   59.56    6.12
   0  14  -2   51.54    4.96
   0  14   1   14.48    4.16
  14 -14   1   12.31    4.12
  14 -14   1   16.50    4.04
 -14   0   1   11.30    3.09
   0  14   1   16.26    5.18
 -14   0   1   18.94    3.82
 -14   0   1   18.55    4.71
 -14   0   1   21.59    5.32
  14 -14   1   16.19    3.51
   0  14   1   13.98    2.74
  14 -14   1   19.69    5.12
  14 -14   4   46.47    3.74
 -14   0   4   58.21    6.68
   0  14   4   53.82    4.16
  14 -14   4   62.19    6.23
 -14   0   4   52.26    4.58
 -14   0   4   54.81    7.57
 -14   0   7    6.10    3.29
  14 -14   7    7.90    3.03
  14 -13  -9  179.14   14.64
 -13  -1  -9  184.00   14.18
 -13  -1  -9  194.88   12.58
 -13  -1  -9  184.83   10.35
  -1  14  -9  176.52   14.49
 -13  -1  -6   18.57    5.32
 -13  -1  -6   15.54    5.03
  -1  14  -6   18.99    2.18
  14 -13  -6   28.78    6.20
 -13  -1  -6   19.10    2.78
  -1  14  -3  411.51   10.83
  14 -13  -3  410.70    9.28
 -13  -1  -3  400.12   16.03
 -13  -1  -3  362.38   15.06
  -1  14  -3  355.78   15.42
 -13  -1  -3  404.80    9.37
  14 -13  -3  420.23   16.09
 -13  -1   0  190.58   10.32
  -1  14   0  207.10   11.11
 -13  -1   0  216.60   11.84
  14 -13   0  187.66   10.91
 -13  -1   0  211.96    9.76
  -1  14   0  198.45   10.29
 -13  -1   0  177.48   10.50
  14 -13   0  197.24    9.74
  14 -13   0  201.03   11.00
  14 -13   0  211.71   10.61
  -1  14   0  216.23   11.62
  -1  14   0  171.26    9.50
  14 -13   3  120.50    9.73
  -1  14   3  113.13    9.87
  -1  14   3  120.82    6.05
 -13  -1   3  116.89    6.68
 -13  -1   3  124.49    8.85
  14 -13   3  117.81    8.23
  14 -13   3  123.51    6.33
 -13  -1   3  112.58    9.61
  14 -13   6    2.27    2.18
  14 -13   6    3.08    2.66
 -13  -1   6    6.93    3.24
 -13  -1   6    6.17    3.57
  -1  14   6    1.60    2.70
  14 -12 -10  113.85   10.66
 -12  -2 -10  114.39   15.64
 -12  -2 -10   93.04    9.16
 -12  -2 -10  102.69   11.65
  -2  14 -10  126.63   13.11
  14 -12 -10   89.19   11.59
 -12  -2  -7  815.66   23.98
 -12  -2  -7  753.25   25.17
 -12  -2  -7  792.25   15.98
 -12  -2  -7  751.95   14.38
  14 -12  -7  791.23   26.47
  -2  14  -7  744.44   26.00
 -12  -2  -4  208.37   11.69
  -2  14  -4  219.24   12.76
  -2  14  -4  216.09    6.37
 -12  -2  -4  201.53   11.83
 -12  -2  -4  200.45    5.45
  14 -12  -4  218.93   12.25
  -2  14  -1 1388.13   26.84
  14 -12  -1 1433.34   22.33
  -2  14  -1 1469.90   23.82
 -12  -2  -1 1469.49   29.25
  -2  14  -1 1380.34   28.19
 -12  -2  -1 1393.18   28.12
 -12  -2  -1 1370.86   28.61
  14 -12  -1 1436.51   28.10
  14 -12  -1 1433.50   29.00
 -12  -2  -1 1423.31   20.87
  14 -12   2  958.97   24.61
  14 -12   2  953.77   22.56
 -12  -2   2 1026.82   24.33
 -12  -2   2  997.19   19.77
  14 -12   2  965.60   18.61
  -2  14   2  989.72   17.69
 -12  -2   2  917.39   24.01
  -2  14   2  979.00   24.82
  14 -12   2  923.03   23.69
  14 -12   5 1059.02   18.00
  14 -12   5 1048.74   21.87
 -12  -2   5 1066.01   24.25
 -12  -2   5  991.62   20.21
  -2  14   5 1024.44   19.71
  -3  14 -11   66.18   10.80
 -11  -3 -11   83.71   14.25
 -11  -3 -11   63.88   10.01
  14 -11 -11   92.40   12.12
  -3  14  -8  111.03   11.33
 -11  -3  -8  108.09   10.73
 -11  -3  -8  117.70    6.88
  14 -11  -8  116.00   11.40
 -11  -3  -8  107.34    9.42
 -11  -3  -5  137.48   10.17
  14 -11  -5  125.08   10.00
 -11  -3  -5  122.94    9.34
 -11  -3  -5  126.29    3.90
  -3  14  -5  123.84   10.03
  -3  14  -2   72.70    7.36
 -11  -3  -2   74.83    7.68
  -3  14  -2   78.68    7.61
 -11  -3  -2   85.90    4.21
 -11  -3  -2   71.65    6.95
  -3  14  -2   88.25    5.22
  14 -11  -2   81.68    7.49
 -11  -3  -2   75.10    7.25
  14 -11  -2   81.98    7.97
 -11  -3   1  153.47    8.46
  -3  14   1  167.06    9.92
  14 -11   1  158.41    8.27
 -11  -3   1  170.26    9.92
  14 -11   1  175.84   10.13
 -11  -3   1  166.69   10.04
  -3  14   1  168.82    7.90
  14 -11   1  152.23    9.46
  14 -11   4   61.32    7.45
  14 -11   4   66.85    5.00
  14 -11   4   58.92    5.80
 -11  -3   4   61.95    6.34
  -3  14   4   65.54    5.36
 -11  -3   4   73.26    5.94
 -11  -3   4   66.43    7.51
 -11  -3   7  222.57   11.88
  14 -11   7  243.83   10.03
  -4  14 -12    4.69    7.24
 -10  -4 -12   -4.20    7.54
  -4  14 -12   -5.81    8.88
  14 -10 -12   15.60    8.66
 -10  -4 -12   -2.02    8.64
 -10  -4  -9  253.90   16.66
 -10  -4  -9  257.35   14.39
 -10  -4  -9  260.26   10.51
  14 -10  -9  273.33   18.13
  -4  14  -9  243.03   17.35
  -4  14  -6   29.90    6.29
 -10  -4  -6   35.17    5.91
 -10  -4  -6   32.23    6.39
  14 -10  -6   43.70    6.98
 -10  -4  -6   26.69    2.37
 -10  -4  -6   33.65    2.35
  -4  14  -3  888.90   23.39
 -10  -4  -3  918.25   23.41
  14 -10  -3  865.50   22.60
 -10  -4  -3  839.03   22.40
 -10  -4   0   88.33    7.46
 -10  -4   0   91.27    7.21
  14 -10   0   94.22    7.78
 -10  -4   0   94.33    7.54
  -4  14   0   86.08    7.04
  14 -10   0  119.73    7.91
  14 -10   0   89.93    7.20
  -4  14   0   94.64    6.73
 -10  -4   3  509.73   14.57
 -10  -4   3  520.14   16.09
  14 -10   3  505.67   15.80
  14 -10   3  551.92   14.03
  -4  14   3  554.10   14.29
 -10  -4   3  508.21   17.60
  14 -10   3  546.62   18.36
  14 -10   6   12.84    3.42
  14 -10   6   18.31    3.64
 -10  -4   6   16.38    3.69
 -10  -4   6    8.44    3.69
  -4  14   6    4.46    3.01
  14  -9 -10   89.20   12.03
  -5  14 -10   91.08   11.87
  -9  -5 -10   93.09   11.33
  -9  -5 -10   94.79    9.45
  -9  -5  -7  565.80   20.02
  -9  -5  -7  509.65   21.28
  -9  -5  -7  512.16   10.36
  14  -9  -7  543.64   22.37
  -5  14  -7  498.08   22.09
  -9  -5  -7  496.49   10.30
  -9  -5  -4  136.58    9.39
  -9  -5  -4  144.86   10.10
  14  -9  -4  131.58    9.59
  -5  14  -4  147.32   10.55
  14  -9  -1 2270.58   33.38
  -9  -5  -1 2301.54   35.29
  14  -9  -1 2262.57   35.46
  -9  -5  -1 2237.07   34.06
  -5  14  -1 2268.77   34.10
  -9  -5  -1 2278.06   35.84
  14  -9  -1 2355.41   36.10
  -5  14  -1 2389.52   34.33
  14  -9   2 1131.61   23.85
  -9  -5   2 1146.84   22.07
  -5  14   2 1147.76   24.04
  14  -9   2 1096.64   20.61
  -9  -5   2 1125.34   24.11
  -5  14   2 1141.99   20.44
  14  -9   2 1142.38   23.97
  -9  -5   2 1141.11   23.54
  14  -9   5  757.35   17.97
  14  -9   5  753.06   18.73
  -9  -5   5  826.94   19.40
  -5  14   5  760.85   19.39
  -9  -5   5  760.76   19.72
  14  -9   8  412.41   12.84
  -8  -6 -11  199.74   18.90
  -8  -6 -11  215.09   17.41
  14  -8 -11  244.13   19.15
  -6  14 -11  215.93   18.13
  -8  -6  -8  239.63   15.68
  -8  -6  -8  213.69   13.11
  -8  -6  -8  214.84    8.05
  14  -8  -8  227.29   15.55
  -6  14  -8  228.61   16.14
  -8  -6  -5  693.75   21.28
  -8  -6  -5  690.81   22.45
  14  -8  -5  730.85   23.09
  -6  14  -5  749.12   23.86
  -6  14  -2  330.59   13.74
  -8  -6  -2  316.36   14.38
  14  -8  -2  321.08   13.87
  -8  -6  -2  322.07   13.54
  14  -8  -2  319.00   13.15
  14  -8  -2  295.78   13.73
  -6  14  -2  336.68   14.08
  -8  -6   1 1711.83   29.16
  14  -8   1 1618.98   28.84
  -8  -6   1 1724.72   28.49
  14  -8   1 1745.04   27.21
  -8  -6   1 1718.10   27.66
  -6  14   1 1678.41   27.58
  -6  14   1 1682.06   25.60
  14  -8   1 1781.81   28.43
  14  -8   4  390.74   15.57
  14  -8   4  404.83   14.12
  14  -8   4  414.47   13.31
  -8  -6   4  374.32   12.99
  -6  14   4  396.84   13.64
  -8  -6   4  389.75   14.12
  -8  -6   4  382.38   15.30
  14  -8   7  245.91   12.41
  14  -8   7  247.46   10.86
  -8  -6   7  278.81   10.43
  -7  -7 -12   -5.06    9.03
  -7  -7 -12   -0.25    6.57
  14  -7 -12    4.91    7.34
  -7  14 -12    2.21    7.44
  -7  -7  -9  242.94   14.35
  14  -7  -9  232.54   17.01
  -7  -7  -9  249.19    9.65
  -7  14  -9  270.94   18.68
  -7  -7  -9  291.69   18.18
  -7  -7  -6    8.40    5.16
  14  -7  -6   11.55    5.38
  -7  14  -6    8.38    5.39
  -7  -7  -6    7.64    4.28
  14  -7  -3 1152.09   26.08
  -7  -7  -3 1190.79   26.68
  14  -7  -3 1234.71   26.75
  -7  -7  -3 1226.86   26.97
  -7  14  -3 1213.89   27.37
  -7  -7   0    4.63    3.38
  14  -7   0    9.63    3.67
  -7  -7   0   -0.89    2.71
  -7  -7   0    6.75    3.39
  -7  14   0    9.97    3.53
  14  -7   0    0.88    2.73
  14  -7   0   11.76    3.75
  -7  14   0    8.64    3.11
  -7  14   3 1674.14   28.25
  -7  -7   3 1567.16   26.37
  14  -7   3 1610.71   26.54
  -7  14   3 1604.61   26.44
  -7  -7   3 1575.29   28.02
  14  -7   3 1616.06   28.36
  14  -7   3 1665.37   28.72
  -7  -7   3 1619.65   27.45
  14  -7   6    3.89    3.32
  14  -7   6    4.44    2.98
  -7  -7   6    1.49    2.36
  -6  -8 -10   16.05    5.70
  -6  -8 -10   24.52    8.00
  14  -6 -10   18.61    8.63
  -8  14 -10   27.58    8.85
  -6  -8  -7  522.69   11.04
  -6  -8  -7  519.20   19.53
  -6  -8  -7  549.30   22.86
  14  -6  -7  542.80   23.11
  -8  14  -7  535.95   23.31
  -6  -8  -7  526.55    9.75
  -6  -8  -4  256.93   12.98
  -8  14  -4  284.77   14.53
  -6  -8  -4  255.91   13.43
  14  -6  -4  247.50   13.00
  -8  14  -1 1852.39   29.91
  -6  -8  -1 1860.72   31.68
  14  -6  -1 1837.45   31.28
  14  -6  -1 1894.08   29.52
  14  -6  -1 1877.94   31.57
  -8  14  -1 1889.28   30.61
  -6  -8  -1 1897.91   31.70
  -8  14   2  283.54   10.97
  -6  -8   2  287.62   11.68
  -6  -8   2  308.62   11.65
  14  -6   2  290.10   12.38
  -6  -8   2  313.52   12.31
  -8  14   2  296.78   11.51
  14  -6   2  298.81   11.34
  14  -6   2  293.86   11.48
  -6  -8   5  572.32   18.28
  14  -6   5  583.12   17.77
  14  -6   5  562.48   17.04
  -6  -8   5  570.18   14.96
  14  -6   8  202.90   10.55
  -9  14 -11  401.62   24.98
  14  -5 -11  399.08   24.77
  -5  -9 -11  367.97   18.22
  -5  -9 -11  379.17   23.51
  -5  -9  -8  385.28   17.63
  -5  -9  -8  381.64   20.51
  14  -5  -8  370.03   20.36
  -9  14  -8  375.63   20.91
  -5  -9  -8  405.49   10.62
  14  -5  -8  343.70    7.41
  -5  -9  -5  909.81   26.67
  -5  -9  -5  898.44   24.55
  -9  14  -5  900.65   27.01
  14  -5  -5  910.21   26.29
  -5  -9  -2 1301.61   27.20
  -5  -9  -2 1250.60   26.12
  14  -5  -2 1193.01   25.77
  -5  -9  -2 1209.33   26.97
  14  -5  -2 1278.43   25.70
  -9  14  -2 1247.26   26.13
  -9  14  -2 1204.55   25.89
  -5  -9   1 2140.23   32.11
  -9  14   1 2154.40   28.87
  -5  -9   1 2136.09   32.09
  -5  -9   1 2127.61   29.87
  14  -5   1 2138.94   31.51
  14  -5   1 2194.55   33.72
  -9  14   1 2106.93   30.48
  14  -5   1 2170.34   29.12
  14  -5   4  385.82   14.15
  14  -5   4  372.14   14.14
  14  -5   4  368.11   14.03
  -9  14   4  343.77   14.09
  -5  -9   4  334.53   14.04
  -5  -9   4  379.01   13.67
  -5  -9   4  377.98   12.64
  -5  -9   7  464.39   11.63
  14  -5   7  415.37   14.99
  -4 -10 -12   10.78    8.89
  14  -4 -12    0.14    7.87
 -10  14 -12    1.91    8.27
  -4 -10 -12    5.51    8.22
  -4 -10  -9  199.93   13.43
  -4 -10  -9  188.84   15.84
 -10  14  -9  219.12   17.32
  14  -4  -9  186.70   16.14
  -4 -10  -9  190.63    8.69
  -4 -10  -6   15.85    4.83
  14  -4  -6   10.09    5.61
 -10  14  -6    7.08    5.46
  -4 -10  -6    6.83    1.31
  14  -4  -6    5.68    1.22
  -4 -10  -3  270.13   13.32
  14  -4  -3  290.35   13.10
  14  -4  -3  250.73   12.39
 -10  14  -3  269.84   13.36
  -4 -10  -3  288.03   13.60
 -10  14   0   93.99    6.63
  14  -4   0  100.55    7.88
  -4 -10   0  101.43    7.02
  -4 -10   0   88.40    7.18
  14  -4   0   87.57    7.18
  -4 -10   0   83.18    6.93
  14  -4   0   81.36    6.02
 -10  14   0   97.83    7.29
  -4 -10   3  795.25   18.58
  14  -4   3  765.55   20.31
  14  -4   3  802.49   20.25
 -10  14   3  799.31   17.65
 -10  14   3  794.04   20.54
  -4 -10   3  789.20   17.87
  -4 -10   3  787.67   20.81
  14  -4   3  808.26   18.14
  14  -4   6    7.60    3.66
  -4 -10   6   16.96    3.03
  -3 -11 -10  119.19   11.33
 -11  14 -10  130.60   14.84
  14  -3 -10   96.35   12.76
  -3 -11 -10   93.88   12.54
  14  -3  -7  222.45    6.96
  -3 -11  -7  232.36   15.95
  -3 -11  -7  242.58    7.54
  14  -3  -7  209.14   14.90
  -3 -11  -7  252.49   14.24
  -3 -11  -4   26.87    1.93
  -3 -11  -4   34.79    6.42
 -11  14  -4   37.58    6.50
  14  -3  -4   34.54    6.28
  -3 -11  -4   41.29    6.35
  14  -3  -1  122.07    8.67
  -3 -11  -1  123.01    8.21
  14  -3  -1  125.89    8.58
  -3 -11  -1  131.91    9.08
  14  -3  -1  129.99    8.02
 -11  14  -1  145.41    8.69
  -3 -11  -1  124.99    8.57
 -11  14  -1  128.98    8.47
  -3 -11   2  135.67    8.96
  14  -3   2  117.44    8.40
  14  -3   2  115.88    7.99
  -3 -11   2  122.53    7.03
 -11  14   2  127.73    6.77
 -11  14   2  106.66    7.70
  -3 -11   2  136.88    8.31
  14  -3   2  139.73    7.17
  -3 -11   5  187.99    9.26
  -3 -11   5  207.31    8.84
  -2 -12 -11  645.90   25.21
  -2 -12 -11  690.56   32.27
 -12  14 -11  640.95   32.29
  14  -2 -11  597.77   30.88
 -12  14  -8  324.41   20.20
  14  -2  -8  316.61   19.69
  -2 -12  -8  319.28   19.51
  14  -2  -8  272.66    9.20
  -2 -12  -8  280.44    9.78
  -2 -12  -8  283.17   15.84
 -12  14  -5 1212.39   32.59
  14  -2  -5 1198.53   17.15
  14  -2  -5 1205.96   31.42
  -2 -12  -5 1210.73   29.45
  -2 -12  -5 1212.30   14.59
  -2 -12  -5 1213.11   31.85
  -2 -12  -2  958.18   24.25
  -2 -12  -2  974.88   23.71
  14  -2  -2  910.70   23.03
 -12  14  -2 1010.51   24.09
  14  -2  -2  995.39   22.76
  14  -2   1 1360.11   27.75
  -2 -12   1 1399.41   26.91
  -2 -12   1 1400.26   27.55
  -2 -12   1 1406.95   23.64
 -12  14   1 1392.45   26.51
  14  -2   1 1467.90   27.93
  14  -2   1 1424.41   22.36
 -12  14   1 1465.14   22.74
  14  -2   4  418.84   12.79
  -2 -12   4  405.56   12.94
  -2 -12   4  416.13   12.60
  -2 -12   7  549.06   11.36
  -1 -13  -9  102.62   10.48
  -1 -13  -9   82.35   11.97
 -13  14  -9   90.69   12.73
  14  -1  -9   92.05   12.57
  -1 -13  -9   83.45    6.51
  14  -1  -9   74.54    5.87
  -1 -13  -6   36.65    6.50
  14  -1  -6   38.52    3.82
  14  -1  -6   39.53    7.37
 -13  14  -6   34.20    7.77
  -1 -13  -6   29.43    3.21
  -1 -13  -6   35.31    7.20
 -13  14  -6   24.32    2.17
  -1 -13  -3  103.64    5.39
  -1 -13  -3   88.39    8.34
  -1 -13  -3  120.37    9.76
 -13  14  -3  106.38    9.38
  14  -1  -3   91.17    8.15
  -1 -13   0  144.01    8.45
  14  -1   0  130.83    7.45
 -13  14   0  141.91    8.02
  -1 -13   0  135.49    9.14
  -1 -13   3  306.68   11.98
 -13  14   3  326.80    9.62
  -1 -13   3  301.83   10.13
  14  -1   3  323.78   10.25
  -1 -13   6   19.87    3.03
   0 -14 -10   79.29   10.20
  14   0 -10   59.91   11.81
 -14  14 -10   58.12   12.02
   0 -14 -10   67.11   11.20
  14   0  -7    1.37    5.42
   0 -14  -7   10.67    6.57
  14   0  -7    7.34    3.05
 -14  14  -7    6.31    5.05
   0 -14  -7   11.57    5.58
   0 -14  -7    5.57    2.56
 -14  14  -7    3.42    1.57
   0 -14  -4   61.19    7.61
 -14  14  -4   84.32    9.11
  14   0  -4   70.93    5.59
   0 -14  -4   72.60    8.06
  14   0  -4   74.42    8.53
   0 -14  -4   77.15    4.91
   0 -14  -1   22.95    4.84
   0 -14  -1   18.27    3.94
  14   0  -1   14.27    3.41
 -14  14  -1   14.71    4.02
   0 -14   2   55.78    5.88
  14   0   2   70.59    4.93
 -14  14   2   71.70    4.76
   0 -14   2   74.39    5.38
   0 -14   5    3.57    2.65
   1 -15 -11  485.24   23.18
  14   1 -11  457.61   28.14
   1 -15 -11  465.48   27.92
 -15  14 -11  429.36   27.72
   1 -15  -8  164.57   15.03
   1 -15  -8  178.34   13.26
 -15  14  -8  188.65   16.23
  14   1  -8  191.32   16.59
 -15  14  -8  171.34    6.94
   1 -15  -8  184.18    9.19
  14   1  -8  170.82    9.05
   1 -15  -5 2164.15   44.53
   1 -15  -5 2184.32   41.58
 -15  14  -5 2234.17   45.57
  14   1  -5 2266.66   30.37
   1 -15  -5 2211.75   26.54
 -15  14  -5 2215.16   26.22
 -15  14  -2  573.85   19.06
   1 -15  -2  565.51   15.06
   1 -15  -2  545.22   19.45
   1 -15  -2  600.60   19.66
  14   1  -2  546.65   17.76
   1 -15   1 1368.45   27.89
   1 -15   1 1356.48   23.07
  14   1   1 1367.06   20.77
 -15  14   1 1382.22   21.94
   1 -15   4  896.21   20.15
   1 -15   4  932.40   16.13
   1 -15   7  710.15   13.20
  14   2  -9   31.84    5.29
 -16  14  -9   29.29    9.19
  14   2  -9   40.16    9.80
   2 -16  -9   30.27    4.96
   2 -16  -9   39.08    9.54
   2 -16  -9   36.58    8.01
   2 -16  -6  154.08   12.05
   2 -16  -6  148.38   13.54
  14   2  -6  127.40    7.95
 -16  14  -6  144.48   13.34
  14   2  -6  136.40   12.23
 -16  14  -6  141.26    7.31
   2 -16  -6  138.52    7.55
 -16  14  -3  150.81    8.50
  14   2  -3  144.53   10.40
 -16  14  -3  157.65   11.53
   2 -16  -3  140.54   10.68
   2 -16  -3  132.95   10.56
  14   2  -3  138.06    8.79
   2 -16  -3  138.57    7.77
   2 -16   0  254.31   13.14
   2 -16   0  251.90   11.27
 -16  14   0  234.21   10.56
  14   2   0  230.82    9.81
   2 -16   3   50.09    5.66
   2 -16   3   46.01    3.91
  14   2   3   46.79    3.52
 -16  14   3   46.66    3.31
   2 -16   6  158.68    7.78
   3 -17 -10   50.54   11.77
   3 -17 -10   42.52    8.74
  14   3 -10   27.18    9.76
 -17  14 -10   30.21   10.38
   3 -17  -7   10.31    5.68
   3 -17  -7    0.20    5.76
 -17  14  -7    8.35    5.34
  14   3  -7   10.62    3.82
  14   3  -7   -4.39    6.19
   3 -17  -7    7.80    3.13
 -17  14  -7    8.90    2.93
   3 -17  -4   62.55    8.28
   3 -17  -4   47.73    7.18
 -17  14  -4   68.75    8.66
  14   3  -4   59.30    7.92
 -17  14  -4   59.44    5.78
   3 -17  -4   60.33    5.31
  14   3  -4   66.05    6.55
   3 -17  -1  319.53   13.47
   3 -17  -1  360.20   16.24
   3 -17  -1  364.81   14.67
 -17  14  -1  341.43   13.98
  14   3  -1  324.20   12.78
 -17  14   2   81.16    4.86
   3 -17   2   75.37    7.09
   3 -17   2   75.47    5.43
  14   3   2   83.66    4.77
   3 -17   5   21.10    3.90
   4 -18 -11  373.69   26.29
 -18  14 -11  342.57   26.08
  14   4 -11  414.68   28.35
   4 -18 -11  324.90   20.26
 -18  14  -8  246.66   19.65
   4 -18  -8  221.21   16.04
   4 -18  -8  228.65   18.41
  14   4  -8  260.59   19.36
 -18  14  -8  243.26   10.82
   4 -18  -8  236.94   11.68
  14   4  -8  246.08   12.56
 -18  14  -5  837.13   29.41
  14   4  -5  901.52   29.23
  14   4  -5  804.83   21.40
   4 -18  -5  742.89   26.15
   4 -18  -5  828.30   29.08
 -18  14  -5  778.35   19.74
   4 -18  -5  841.01   19.68
   4 -18  -2  407.42   14.77
 -18  14  -2  350.13   14.67
   4 -18  -2  362.75   16.98
   4 -18  -2  344.82   15.81
  14   4  -2  412.04   16.57
 -18  14  -2  383.13   16.64
  14   4  -2  391.52   15.69
   4 -18   1  976.19   25.49
   4 -18   1  977.32   20.31
 -18  14   1  985.87   19.31
  14   4   1  955.64   17.39
   4 -18   4  975.19   22.68
   4 -18   4  940.03   13.34
   4 -18   7  574.99   13.46
   5 -19  -9  121.18   12.60
   5 -19  -9  137.93   15.77
 -19  14  -9  143.36   16.36
  14   5  -9  148.25   16.49
   5 -19  -9  122.07    9.38
  14   5  -9  129.46   10.23
   5 -19  -6  142.99   12.53
  14   5  -6  183.29   10.93
 -19  14  -6  168.22   14.91
   5 -19  -6  162.26   14.30
  14   5  -6  164.92   13.56
 -19  14  -6  154.72    9.36
   5 -19  -6  166.53    9.69
   5 -19  -3  128.17   11.22
   5 -19  -3  141.49   11.56
 -19  14  -3  127.76   11.00
  14   5  -3  119.28   10.08
  14   5  -3  114.54    9.15
 -19  14  -3  114.62    8.67
   5 -19  -3  117.33    8.46
   5 -19   0  113.78    9.96
   5 -19   0  125.16    8.51
 -19  14   0  102.05    7.59
  14   5   0  108.34    7.20
   5 -19   3  330.58   14.44
   5 -19   3  347.78    9.48
 -19  14   3  321.25    6.98
  14   5   3  305.17    6.37
   5 -19   6  110.36    7.39
   6 -20 -10    9.74    8.62
   6 -20 -10   11.27    6.97
 -20  14 -10   13.73    9.75
  14   6 -10   -1.16    7.72
  14   6  -7  123.93   10.01
   6 -20  -7  119.98   13.73
  14   6  -7  134.40   13.95
   6 -20  -7  109.39   11.95
 -20  14  -7  108.02    8.33
   6 -20  -7  124.56    9.14
 -20  14  -7  134.15   15.21
   6 -20  -4  191.36   13.82
 -20  14  -4  203.75   14.78
  14   6  -4  183.52   13.43
  14   6  -4  182.67   11.71
 -20  14  -4  181.11   10.92
   6 -20  -4  185.14   13.70
   6 -20  -4  182.06   10.38
   6 -20  -1  218.44   12.76
 -20  14  -1  249.64   14.35
   6 -20  -1  239.79   14.42
   6 -20  -1  269.58   13.48
  14   6  -1  262.18   12.12
 -20  14  -1  279.27   13.50
   6 -20   2   41.70    6.13
   6 -20   2   41.64    4.30
  14   6   2   45.73    3.46
 -20  14   2   46.34    3.91
   6 -20   5  128.08    8.68
  14   7  -8  248.13   14.37
   7 -21  -8  227.94   16.90
 -21  14  -8  253.56   20.41
  14   7  -8  270.00   20.59
 -21  14  -8  237.38   12.57
   7 -21  -8  226.05   19.45
   7 -21  -8  249.98   13.63
   7 -21  -5  605.33   25.02
   7 -21  -5  510.38   23.89
 -21  14  -5  609.29   26.53
  14   7  -5  527.59   19.90
  14   7  -5  557.29   24.17
 -21  14  -5  532.02   18.68
   7 -21  -5  529.14   18.21
   7 -21  -2  400.35   18.92
 -21  14  -2  379.74   17.57
   7 -21  -2  404.12   18.00
  14   7  -2  417.20   16.93
  14   7  -2  422.03   18.68
 -21  14  -2  417.50   17.78
   7 -21  -2  375.06   16.23
   7 -21   1  797.30   24.66
   7 -21   1  831.68   19.88
 -21  14   1  803.37   18.66
  14   7   1  855.09   16.78
   7 -21   4  296.83   13.88
   7 -21   7  204.02    9.51
  14   8  -9  188.55   13.70
   8 -22  -9  184.75   16.40
  14   8  -9  197.83   19.40
 -22  14  -9  189.34   19.53
   8 -22  -9  173.22   12.15
   8 -22  -9  184.34   18.19
   8 -22  -6   15.73    6.40
  14   8  -6   17.60    5.65
  14   8  -6   17.45    6.86
 -22  14  -6   26.69    7.86
   8 -22  -6   12.53    7.14
 -22  14  -6   21.26    5.34
   8 -22  -6   16.45    4.93
  14   8  -3  680.35   23.75
   8 -22  -3  634.12   24.86
   8 -22  -3  632.46   24.49
 -22  14  -3  658.26   24.77
  14   8  -3  682.33   23.75
 -22  14  -3  652.56   22.35
   8 -22  -3  619.94   20.71
   8 -22   0  185.01   13.24
   8 -22   0  177.23   12.63
   8 -22   0  186.79   10.98
  14   8   0  170.48    9.19
 -22  14   0  186.41   10.92
   8 -22   3  392.92   17.02
 -22  14   3  369.26    7.13
   8 -22   3  402.34   10.33
   8 -22   6  148.81    9.34
   9 -23 -10    6.90    6.57
 -23  14 -10   21.62   11.66
   9 -23 -10    8.97    8.15
  14   9 -10   35.79   11.59
   9 -23  -7  120.52   12.88
   9 -23  -7  125.51   14.71
  14   9  -7  104.56   10.27
  14   9  -7  115.54   14.04
 -23  14  -7  113.52    9.73
 -23  14  -7  123.96   14.73
   9 -23  -7  128.58   10.59
   9 -23  -4   38.19    8.16
 -23  14  -4   46.34    8.78
  14   9  -4   32.74    7.34
   9 -23  -4   43.40    8.18
  14   9  -4   44.03    7.59
 -23  14  -4   52.90    7.53
   9 -23  -4   61.77    7.48
   9 -23  -1  117.62   10.62
  14   9  -1  135.03    9.63
 -23  14  -1  147.64   11.03
   9 -23  -1  118.24   11.09
  14   9  -1  131.98   12.17
   9 -23  -1  132.29   10.45
 -23  14  -1  129.06   11.88
   9 -23   2  194.61   12.64
 -23  14   2  198.67    8.22
   9 -23   2  191.17    8.97
  14   9   2  190.33    6.38
   9 -23   5  126.77    9.49
  10 -24  -8  124.04   14.24
  14  10  -8  117.70   11.50
 -24  14  -8  147.93   17.23
  14  10  -8  112.14   14.88
 -24  14  -8  106.95    9.98
  10 -24  -8  128.48   15.54
  10 -24  -8  125.86   11.09
 -24  14  -5  443.79   23.91
  10 -24  -5  465.96   24.06
  14  10  -5  486.07   23.58
  14  10  -5  492.40   21.34
 -24  14  -5  523.49   20.80
  10 -24  -5  472.74   19.24
  10 -24  -5  442.42   23.07
  10 -24  -2  348.76   18.94
  10 -24  -2  313.70   16.91
 -24  14  -2  330.88   17.27
  14  10  -2  353.68   16.43
 -24  14  -2  337.18   17.96
  14  10  -2  331.72   18.43
  10 -24  -2  355.75   17.43
  10 -24   1  253.64   15.33
 -24  14   1  234.52   11.19
  10 -24   1  232.45   11.63
  14  10   1  242.77    9.42
  10 -24   4   17.88    5.13
  10 -24   7  135.46    8.98
  11 -25  -9  339.23   22.94
  11 -25  -9  245.28   22.95
 -25  14  -9  356.91   26.74
  14  11  -9  295.97   23.59
  14  11  -9  299.08   18.51
  11 -25  -9  276.95   16.62
  11 -25  -6   92.85   12.16
  14  11  -6   92.77   10.89
 -25  14  -6  123.45   14.28
  11 -25  -6  119.29   14.18
  14  11  -6  113.23   13.25
 -25  14  -6   91.68   10.04
  11 -25  -6  115.47   10.59
  11 -25  -3  357.41   20.49
  11 -25  -3  364.89   19.74
  14  11  -3  336.67   18.69
 -25  14  -3  328.19   19.24
  14  11  -3  307.20   16.95
 -25  14  -3  308.22   17.42
  11 -25  -3  326.36   17.19
 -25  14   0   81.07   10.49
  11 -25   0   79.92   10.16
  11 -25   0   73.62    9.56
  14  11   0   71.91    6.73
  11 -25   0   90.24    8.45
 -25  14   0   94.60    8.80
  11 -25   3  666.56   23.74
 -25  14   3  580.48   10.56
  11 -25   3  645.82   13.67
 -25  14   3  594.54   10.09
  11 -25   6  138.04   10.31
  12 -26  -7  148.54   15.12
  12 -26  -7   99.19   13.82
 -26  14  -7  137.51   16.52
  14  12  -7  121.99   12.50
  14  12  -7  111.92   14.12
 -26  14  -7  127.16   11.59
  12 -26  -7  129.10   11.93
  14  12  -4   81.77   10.28
  12 -26  -4  106.53   12.09
  12 -26  -4   78.98   11.04
 -26  14  -4   63.52   10.16
 -26  14  -4   83.69   10.87
  14  12  -4   78.16   10.16
  12 -26  -4   72.85    9.19
 -26  14  -4   63.27    8.51
  12 -26  -1  118.03   11.75
  12 -26  -1  117.54   12.11
  12 -26  -1   94.82    9.73
 -26  14  -1  105.36   10.12
  14  12  -1   88.63   11.28
  14  12  -1  101.12    8.86
 -26  14  -1  108.45   11.94
  14  12   2    6.01    2.11
  12 -26   2    6.48    3.31
 -26  14   2    5.72    2.91
  14  12   2    7.40    1.86
  12 -26   2    7.42    5.31
  12 -26   5  144.48   11.28
  14  13  -8   33.75    8.99
  13 -27  -8   29.62    9.67
 -27  14  -8   36.16   11.42
  13 -27  -8   24.49   10.83
  14  13  -8   44.97   11.47
 -27  14  -8   21.58    7.17
  13 -27  -8   32.86    7.61
  13 -27  -5   67.12   10.73
  13 -27  -5   70.11   11.17
 -27  14  -5   67.15   10.38
 -27  14  -5   66.45   11.05
  14  13  -5   74.93   11.27
  14  13  -5   84.31   10.98
 -27  14  -5   80.54    9.98
  13 -27  -5   75.94    9.48
 -27  14  -2   -7.38    6.29
  13 -27  -2    5.17    5.31
  13 -27  -2   -0.80    5.08
 -27  14  -2    5.79    5.21
  14  13  -2   11.11    5.26
 -27  14  -2    0.90    5.60
  14  13  -2   -4.25    6.31
  13 -27  -2   -2.45    6.16
  13 -27   1   63.87    7.19
  13 -27   1   60.45   10.14
 -27  14   1   73.13    7.24
  13 -27   1   55.53    9.17
  14  13   1   65.74    5.60
  13 -27   4   62.42    8.68
  14 -28  -6  115.97   14.10
 -28  14  -6  122.29   15.49
  14  14  -6  107.21   13.64
  14  14  -6  127.47   13.27
 -28  14  -6  120.04   12.74
  14 -28  -6  121.41   15.74
  14 -28  -6   94.75   11.26
  14 -28  -3  424.55   23.41
  14 -28  -3  498.27   24.02
 -28  14  -3  481.00   23.89
  14  14  -3  465.05   24.14
 -28  14  -3  464.83   24.24
  14  14  -3  433.62   20.95
 -28  14  -3  442.58   22.71
  14 -28  -3  431.06   21.75
 -28  14   0  262.87   19.04
  14 -28   0  275.83   18.77
  14 -28   0  288.42   15.48
  14  14   0  298.92   13.35
 -28  14   0  323.20   16.00
  14 -28   0  289.95   18.63
 -28  14   3  393.03    9.32
  14 -28   3  413.84   11.88
  14 -28   6  167.61   12.47
  15 -29  -7   41.91   10.67
 -29  14  -7   40.56   11.79
  14  15  -7   63.24   12.54
  15 -29  -7   44.86   11.33
  14  15  -7   33.69    8.66
 -29  14  -7   44.38    9.08
  15 -29  -7   36.55    8.58
  15 -29  -4    3.04    6.07
  15 -29  -4   -2.07    6.67
 -29  14  -4    4.71    6.00
  14  15  -4   -1.19    6.11
  14  15  -4   -1.75    6.18
  15 -29  -4   -1.31    6.10
 -29  14  -4    5.23    6.09
 -29  14  -4    1.38    5.57
  15 -29  -1   48.32    9.25
  14  15  -1   29.78    8.60
 -29  14  -1   56.92    9.04
  15 -29  -1   55.45    9.73
  15 -29  -1   49.96    7.98
  14  15  -1   56.37    7.33
 -29  14  -1   69.94   11.32
  15 -29   2    5.28    5.64
  15 -29   2    4.66    3.38
 -29  14   2    6.40    3.53
  15 -29   5   34.10    7.24
 -28  13  -8    5.64    9.19
  13  15  -8   20.01    9.96
  15 -28  -8   17.63    9.50
 -28  13  -8    8.82    6.00
  15 -28  -8   16.23   10.31
  15 -28  -8    2.98    5.81
  13  15  -8   16.37    8.09
  13  15  -5   32.65    8.67
 -28  13  -5   60.33   10.14
  15 -28  -5   51.41   10.56
  13  15  -5   58.25    9.96
 -28  13  -5   49.13   10.88
  15 -28  -5   40.27    9.37
 -28  13  -5   63.65    9.68
  15 -28  -5   56.78    9.10
 -28  13  -2    4.25    6.35
  15 -28  -2    8.88    6.51
  15 -28  -2    3.57    5.82
 -28  13  -2   14.00    7.14
  13  15  -2    3.75    6.27
  15 -28  -2    0.58    5.86
 -28  13  -2   -0.06    5.19
  13  15  -2    4.89    5.06
 -28  13   1  124.52   14.41
  15 -28   1  114.69   13.39
  15 -28   1  142.95   13.31
  15 -28   1  126.05    9.67
 -28  13   1  132.33    9.86
  13  15   1  109.14    7.12
  15 -28   4   10.79    5.55
  12  15  -9  104.13   13.10
  15 -27  -9   97.28   14.48
  15 -27  -9  134.88   18.41
  12  15  -9  125.79   16.62
 -27  12  -9  102.34   16.93
  15 -27  -9  129.73   13.11
  15 -27  -6  160.68   15.80
  15 -27  -6  191.52   18.11
  12  15  -6  150.89   14.18
 -27  12  -6  156.88   16.58
 -27  12  -6  164.34   14.81
  12  15  -6  172.76   16.73
 -27  12  -6  156.26   13.59
  15 -27  -6  162.33   13.93
 -27  12  -3  443.01   22.61
  15 -27  -3  484.13   23.54
  15 -27  -3  478.38   24.18
 -27  12  -3  458.29   23.36
  12  15  -3  451.80   21.41
 -27  12  -3  443.14   22.22
  12  15  -3  440.95   23.47
  15 -27  -3  444.99   21.83
  15 -27   0   89.49   11.05
  15 -27   0  105.39    9.69
 -27  12   0   98.97    9.67
 -27  12   0  106.29   12.29
  15 -27   0   93.51   11.04
  12  15   0  104.48   13.22
  12  15   0   98.04    8.20
 -27  12   0  106.02   12.83
  15 -27   3  672.51   25.40
  15 -27   3  651.51   14.66
 -27  12   3  602.24   12.71
  15 -27   6  154.99   11.58
  11  15  -7  188.38   15.50
  15 -26  -7  231.91   18.41
  15 -26  -7  217.06   19.54
 -26  11  -7  227.55   21.12
  11  15  -7  222.97   19.54
 -26  11  -7  191.83   14.86
  15 -26  -7  193.48   14.87
 -26  11  -7  201.34   15.81
  15 -26  -4   42.69    8.63
  15 -26  -4   39.17    8.77
 -26  11  -4   29.71    8.19
  11  15  -4   41.25    8.62
 -26  11  -4   43.68    8.29
  11  15  -4   39.31    8.31
 -26  11  -4   39.61    8.33
  15 -26  -4   38.07    7.38
  15 -26  -1  438.20   22.09
 -26  11  -1  372.99   18.52
  11  15  -1  401.55   22.05
 -26  11  -1  387.20   21.28
  11  15  -1  412.60   17.23
  15 -26  -1  380.37   18.41
 -26  11  -1  356.34   20.37
  15 -26  -1  358.47   19.73
 -26  11   2   53.07    5.86
 -26  11   2   62.50   10.70
  15 -26   2   54.53    9.83
  15 -26   2   82.80    9.74
  15 -26   2   61.12    6.11
 -26  11   2   66.47    9.91
 -26  11   2   72.93    6.29
  11  15   2   66.08    4.12
  11  15   2   64.52    4.28
  15 -26   2   58.32    6.55
  15 -26   5  116.07   10.54
 -25  10  -8   33.66    8.40
  15 -25  -8   63.93   11.64
 -25  10  -8   49.80   12.10
  10  15  -8   67.22   12.83
  10  15  -8   58.53    9.55
 -25  10  -8   70.07    9.84
  15 -25  -8   57.86   12.21
  15 -25  -8   47.80    8.77
 -25  10  -5  140.40   12.43
  15 -25  -5  113.01   12.93
  15 -25  -5  142.35   14.83
 -25  10  -5  167.25   16.26
  15 -25  -5  112.31   11.21
 -25  10  -5  132.61   12.85
  10  15  -5  120.82   13.08
  10  15  -5  109.08   11.85
  15 -25  -2    6.09    5.44
 -25  10  -2   20.38    6.83
 -25  10  -2   24.04    6.93
  10  15  -2   15.96    5.07
  10  15  -2    9.14    5.90
 -25  10  -2   13.80    5.61
  15 -25  -2   17.62    6.41
  15 -25   1  118.26   12.45
  15 -25   1  105.17    8.74
 -25  10   1  106.30    8.55
 -25  10   1  119.94   12.37
  10  15   1  124.96    7.54
 -25  10   1   99.12    8.86
  10  15   1  126.64   14.16
 -25  10   1  151.48   14.19
  10  15   1   93.63    6.98
  15 -25   4  126.11   10.57
  15 -25   7   30.33    5.60
  15 -24  -9  176.16   16.49
  15 -24  -9  207.85   20.69
 -24   9  -9  195.69   20.73
 -24   9  -9  151.42   14.35
   9  15  -9  160.75   18.33
 -24   9  -9  168.03   13.96
   9  15  -9  188.62   15.88
  15 -24  -9  167.31   14.37
  15 -24  -6  297.23   19.56
  15 -24  -6  276.65   20.28
 -24   9  -6  276.81   20.86
 -24   9  -6  285.31   17.74
   9  15  -6  329.37   21.16
 -24   9  -6  266.22   16.21
  15 -24  -6  246.84   15.55
   9  15  -6  314.45   18.99
 -24   9  -3  428.75   21.26
   9  15  -3  456.63   20.88
 -24   9  -3  422.32   21.65
   9  15  -3  448.96   21.40
 -24   9  -3  448.75   21.01
  15 -24  -3  437.73   20.28
   9  15   0   90.59    8.20
 -24   9   0  110.91    9.61
 -24   9   0   83.95   10.50
   9  15   0   78.91    7.19
   9  15   0   99.37   11.49
 -24   9   0   91.28   11.38
  15 -24   0  114.72    9.55
  15 -24   0   97.90   10.53
  15 -24   3  485.43   12.28
 -24   9   3  455.20   11.91
 -24   9   3  510.75   23.84
  15 -24   3  448.92   12.25
 -24   9   3  433.72   11.17
  15 -24   6  154.57   10.79
   8  15 -10   44.41    9.84
  15 -23 -10   43.35   10.19
 -23   8 -10   56.45   14.37
 -23   8 -10   58.30    9.85
  15 -23 -10   40.32   11.41
  15 -23 -10   66.41   10.30
   8  15 -10   30.10   11.11
  15 -23  -7  275.27   20.65
 -23   8  -7  291.34   17.42
   8  15  -7  282.77   20.84
 -23   8  -7  308.46   17.33
 -23   8  -7  290.83   22.06
   8  15  -7  307.05   18.56
  15 -23  -7  266.27   16.29
  15 -23  -7  302.58   20.02
   8  15  -4  300.23   17.52
 -23   8  -4  317.40   19.58
 -23   8  -4  271.06   16.74
  15 -23  -4  326.79   17.07
 -23   8  -4  286.41   16.31
 -23   8  -1  511.16   22.43
 -23   8  -1  517.72   22.54
   8  15  -1  529.92   23.36
  15 -23  -1  560.22   22.64
  15 -23   2   78.16   10.54
  15 -23   2   64.85    6.06
 -23   8   2   68.71    6.20
 -23   8   2   89.59   10.27
   8  15   2   66.00    4.30
 -23   8   2   75.73    6.38
   8  15   2   79.98    4.89
  15 -23   2   63.57    6.13
 -23   8   2   84.00   11.15
  15 -22  -8   32.45    8.66
 -22   7  -8   16.17    9.08
 -22   7  -8   22.58    6.49
   7  15  -8   40.83    9.78
  15 -22  -8   35.95   10.81
 -22   7  -8   22.08    6.49
  15 -22  -8   36.00    7.48
   7  15  -8   27.86    7.39
 -22   7  -5   95.80   11.99
 -22   7  -5  117.56   11.22
 -22   7  -5  107.11   10.52
   7  15  -5   94.59   10.28
  15 -22  -5  103.47   10.19
   7  15  -2  621.38   24.12
 -22   7  -2  567.48   22.88
 -22   7  -2  599.22   23.25
  15 -22  -2  584.32   22.61
 -22   7   1    6.27    5.66
   7  15   1    5.95    2.91
  15 -22   1   -2.48    4.75
  15 -22   1    5.30    3.82
 -22   7   1    2.38    4.54
   7  15   1    1.01    5.38
 -22   7   1    0.63    3.23
 -22   7   4    9.03    1.52
 -22   7   4    9.33    1.47
  15 -22   7   86.54    7.37
  15 -21  -9   75.80   11.47
  15 -21  -9   70.46   11.98
 -21   6  -9  105.43   16.11
 -21   6  -9   75.60   10.10
   6  15  -9   77.86   10.86
   6  15  -9   96.25   14.99
 -21   6  -9   97.37   10.94
  15 -21  -9   99.00   11.43
 -21   6  -6  168.55   15.71
 -21   6  -6  147.73   12.19
 -21   6  -6  157.53   12.34
   6  15  -6  152.59   12.44
  15 -21  -6  140.07   11.84
   6  15  -3  281.61   16.01
 -21   6  -3  264.94   15.76
  15 -21  -3  247.98   12.18
 -21   6  -3  274.52   15.37
  15 -21  -3  259.92   14.89
   6  15   0  364.50   14.36
 -21   6   0  394.57   19.05
 -21   6   0  363.45   18.71
   6  15   0  368.98   18.87
  15 -21   0  391.11   18.82
 -21   6   3  254.70   17.32
  15 -21   3  242.93   16.82
  15 -21   3  233.35    8.63
 -21   6   3  226.25   14.67
   6  15   3  190.48    4.79
 -21   6   3  226.29    8.39
   6  15   3  189.53    4.51
  15 -21   3  225.30    8.27
  15 -20 -10  122.31   17.03
  15 -20 -10  101.37   12.23
   5  15 -10   80.58   14.09
 -20   5 -10  118.08   12.28
  15 -20 -10  128.55   13.38
   5  15 -10  117.16   13.40
 -20   5  -7  765.49   26.10
   5  15  -7  740.89   27.06
 -20   5  -7  779.13   26.52
  15 -20  -7  772.81   26.91
   5  15  -4  204.34   11.09
 -20   5  -4  200.13   13.62
 -20   5  -4  193.34   10.36
  15 -20  -4  197.76   10.10
 -20   5  -4  235.05   14.07
   5  15  -4  203.03   13.65
  15 -20  -4  214.01   13.28
 -20   5  -1  872.79   27.21
   5  15  -1  798.66   26.25
 -20   5  -1  814.39   25.95
  15 -20  -1  871.38   26.29
  15 -20   2  426.95   20.49
   5  15   2  446.92   21.44
 -20   5   2  400.05   13.23
 -20   5   2  443.57   20.12
  15 -20   2  445.86   13.77
   5  15   2  419.05   10.62
 -20   5   2  460.96   21.38
 -20   5   5  553.23   22.59
  15 -19 -11   31.80    8.31
 -19   4 -11   54.78   14.48
   4  15 -11   71.76   13.84
  15 -19 -11   52.78   12.45
   4  15 -11   48.23   10.36
 -19   4 -11   48.19    9.35
  15 -19 -11   45.40    9.78
   4  15  -8   96.09   10.99
 -19   4  -8   97.59   14.31
 -19   4  -8   96.44    9.83
 -19   4  -8  104.18   10.55
  15 -19  -8  109.20   11.37
  15 -19  -8   88.77   10.83
 -19   4  -5  157.19   12.10
   4  15  -5  163.93   12.57
 -19   4  -5  192.23   12.84
 -19   4  -5  142.95    8.53
  15 -19  -5  150.02    8.04
  15 -19  -5  153.64   11.70
   4  15  -5  157.87    9.21
   4  15  -2  121.45   10.62
   4  15  -2   91.52    7.90
 -19   4  -2  100.10    9.49
  15 -19  -2   84.18    7.04
 -19   4  -2  101.74    7.66
 -19   4  -2  101.69    9.48
  15 -19  -2   95.38    9.06
 -19   4   1   71.96    6.75
 -19   4   1   67.87    8.37
 -19   4   1   71.42    8.71
   4  15   1   44.44    7.42
  15 -19   1   67.25    6.68
   4  15   1   67.11    5.51
  15 -19   1   62.20    8.14
 -19   4   4    4.21    6.24
 -19   4   4    4.62    1.98
 -19   4   4    6.67    4.53
  15 -19   4    3.21    1.26
  15 -18  -9   42.31    8.31
 -18   3  -9   56.37   11.50
 -18   3  -9   61.64    9.28
   3  15  -9   47.90    9.15
  15 -18  -9   51.45    8.74
 -18   3  -9   51.33    7.92
  15 -18  -6   18.05    3.15
   3  15  -6   24.36    4.82
 -18   3  -6   21.77    5.63
   3  15  -6   21.53    3.96
 -18   3  -6   26.99    5.71
   3  15  -6   15.91    5.74
 -18   3  -6   20.61    3.93
  15 -18  -6   29.53    6.08
 -18   3  -3  402.29   13.15
   3  15  -3  415.43   14.42
 -18   3  -3  429.42   18.52
 -18   3  -3  407.48   17.51
  15 -18  -3  428.92   13.48
   3  15  -3  453.55   18.95
  15 -18  -3  425.93   17.75
  15 -18   0  301.34   13.74
   3  15   0  305.12   16.05
 -18   3   0  284.11   13.06
 -18   3   0  292.76   13.90
 -18   3   0  308.92   15.76
  15 -18   0  306.72   15.58
  15 -18   0  313.89   14.09
   3  15   0  290.80   12.21
  15 -18   3  322.03   17.61
   3  15   3  272.20    7.58
   3  15   3  259.95   16.47
 -18   3   3  298.64   15.65
 -18   3   3  283.43    9.90
  15 -18   3  297.07    9.36
 -18   3   3  293.02   17.04
 -18   3   6  251.68    7.16
  15 -18   6  312.65   13.39
  15 -17 -10  172.67   14.60
 -17   2 -10  168.93   18.90
   2  15 -10  145.03   14.32
 -17   2 -10  152.09   11.87
 -17   2 -10  163.21   13.86
   2  15 -10  133.77   17.08
  15 -17 -10  162.28   14.94
   2  15  -7  783.92   27.17
 -17   2  -7  733.80   24.55
 -17   2  -7  765.52   25.77
  15 -17  -7  788.09   26.72
   2  15  -4  202.58   11.35
   2  15  -4  207.20    9.46
 -17   2  -4  208.78   12.90
   2  15  -4  220.30   13.33
 -17   2  -4  205.45   12.68
  15 -17  -4  204.42    8.26
 -17   2  -4  213.79    8.94
  15 -17  -4  214.18   13.02
   2  15  -1  834.57   24.81
   2  15  -1  762.97   21.58
   2  15  -1  710.51   19.84
  15 -17  -1  762.33   19.83
 -17   2  -1  753.31   23.83
 -17   2  -1  786.98   19.31
 -17   2  -1  711.88   22.69
  15 -17  -1  785.50   23.32
 -17   2   2  617.09   16.03
 -17   2   2  631.65   21.77
   2  15   2  631.08   23.31
  15 -17   2  608.42   15.62
   2  15   2  598.25   13.35
 -17   2   2  601.16   22.64
  15 -17   2  616.88   22.60
  15 -17   5  857.80   10.15
  15 -17   5  867.05   22.22
 -17   2   5  918.38   26.36
   2  15   5  896.97   13.00
 -17   2   5  938.30   15.88
 -16   1 -11   -0.69    8.50
 -16   1 -11    6.01    6.88
  15 -16 -11    6.54    7.21
   1  15 -11    6.64    6.88
  15 -16 -11    9.53    9.57
  15 -16 -11    0.54    5.65
   1  15 -11   10.53    8.58
 -16   1  -8    5.02    4.96
   1  15  -8   -2.12    5.36
 -16   1  -8    3.15    4.83
  15 -16  -8   11.17    5.07
   1  15  -5   14.73    4.96
 -16   1  -5    6.86    3.60
 -16   1  -5    9.26    4.70
   1  15  -5    8.61    2.73
 -16   1  -5    5.45    2.36
  15 -16  -5   10.13    2.05
  15 -16  -5    2.71    4.18
   1  15  -2   21.36    3.96
  15 -16  -2   16.88    3.46
 -16   1  -2   10.90    3.10
 -16   1  -2   21.65    5.65
 -16   1  -2   12.43    4.84
  15 -16  -2   14.59    4.53
   1  15  -2   12.24    4.67
  15 -16   1   78.08    8.06
 -16   1   1   71.13    7.94
 -16   1   1   68.04    6.94
 -16   1   1   67.45    6.36
   1  15   1   73.06    8.18
 -16   1   1   70.23    8.10
  15 -16   1   82.85    6.60
   1  15   1   81.48    5.93
  15 -16   1   64.12    7.59
 -16   1   4   27.05    6.42
  15 -16   4   23.78    6.25
 -16   1   4   17.78    3.13
  15 -16   4   11.86    4.12
  15 -16   4   17.47    2.63
   1  15   4   18.50    2.60
 -16   1   4   19.89    5.26
 -16   1   7   85.09    5.91
  15 -16   7   90.77    6.85
   0  15  -9    4.78    5.26
 -15   0  -9    6.09    7.13
 -15   0  -9   -0.59    4.87
  15 -15  -9   14.13    6.31
 -15   0  -9    1.70    4.19
   0  15  -6  104.24   10.31
   0  15  -6   96.21    5.04
 -15   0  -6   93.83    9.10
 -15   0  -6  103.25   10.00
  15 -15  -6   76.94    3.16
  15 -15  -6   85.49    9.27
 -15   0  -6   84.27    5.25
 -15   0  -3    5.76    3.94
   0  15  -3    7.48    2.72
 -15   0  -3    9.61    4.34
  15 -15  -3    5.52    2.26
   0  15  -3    9.87    3.54
 -15   0  -3    9.45    2.60
   0  15  -3    6.20    4.32
  15 -15  -3    5.45    3.96
   0  15   0  251.54   11.96
   0  15   0  258.06   13.48
  15 -15   0  271.92   12.00
 -15   0   0  264.19   13.69
 -15   0   0  268.15   12.69
 -15   0   0  270.09   11.59
 -15   0   0  244.86   13.08
  15 -15   0  268.51   13.42
  15 -15   0  261.23   12.36
   0  15   0  277.49   11.59
 -15   0   3    2.40    4.15
  15 -15   3   -1.51    4.59
   0  15   3    7.69    4.84
 -15   0   3    2.53    3.37
  15 -15   3    2.99    3.21
  15 -15   3    6.69    2.54
 -15   0   3    3.50    2.40
   0  15   3    8.39    2.29
 -15   0   6   15.66    3.52
 -15   0   6   27.03    5.30
   0  15   6   24.19    3.72
  15 -15   6   20.23    4.45
  15 -15   6   15.60    2.35
  15 -14 -10  318.24   18.17
 -14  -1 -10  382.47   25.98
 -14  -1 -10  387.75   18.16
 -14  -1 -10  343.99   19.88
  15 -14 -10  425.17   23.08
  -1  15 -10  364.93   21.52
  -1  15  -7  727.31   26.11
 -14  -1  -7  742.15   23.84
 -14  -1  -7  716.25   24.88
  15 -14  -7  691.47   25.27
 -14  -1  -7  661.07   13.75
  -1  15  -4  969.68   26.59
  15 -14  -4  920.29   12.03
 -14  -1  -4  944.83   25.94
 -14  -1  -4 1053.57   27.15
 -14  -1  -4 1014.02   14.53
  15 -14  -4  941.60   25.62
  -1  15  -4  988.21   16.10
  -1  15  -1 1309.31   27.78
  -1  15  -1 1415.73   25.31
 -14  -1  -1 1416.17   30.32
 -14  -1  -1 1380.19   22.52
 -14  -1  -1 1340.54   29.24
  15 -14  -1 1401.17   23.85
  15 -14  -1 1373.81   28.92
 -14  -1  -1 1367.91   30.17
  15 -14  -1 1431.78   30.21
  -1  15  -1 1391.14   27.98
 -14  -1   2  566.83   19.11
  15 -14   2  515.17   17.68
  15 -14   2  551.67   14.56
 -14  -1   2  554.03   15.28
  -1  15   2  549.22   13.58
 -14  -1   2  601.04   20.78
  -1  15   2  534.71   19.77
  15 -14   2  630.18   21.16
  15 -14   5 2171.38   24.41
  15 -14   5 2069.00   32.76
 -14  -1   5 2222.56   37.47
  -1  15   5 2111.97   26.97
 -14  -1   5 2122.93   28.73
 -13  -2 -11   54.55   12.46
 -13  -2 -11   57.38    9.69
  15 -13 -11   65.21   11.02
  -2  15 -11   85.67   12.54
  -2  15  -8    8.56    5.45
 -13  -2  -8    8.31    4.40
 -13  -2  -8    1.88    4.58
 -13  -2  -8    5.19    2.83
  15 -13  -8   10.55    5.66
  -2  15  -5   59.99    7.77
 -13  -2  -5   64.74    7.55
 -13  -2  -5   55.03    7.37
 -13  -2  -5   59.13    3.25
  15 -13  -5   70.84    8.29
  -2  15  -5   65.64    3.37
 -13  -2  -2  174.52   11.19
  -2  15  -2  170.93    7.97
 -13  -2  -2  178.95    6.93
  -2  15  -2  174.24   10.87
 -13  -2  -2  172.46   10.68
  15 -13  -2  175.80    7.36
  15 -13  -2  170.66   10.43
  15 -13   1  251.17   12.15
  -2  15   1  230.17   12.57
 -13  -2   1  235.24   11.26
 -13  -2   1  246.68   12.44
 -13  -2   1  221.97   12.35
  15 -13   1  220.47   10.27
 -13  -2   1  240.87   10.96
  -2  15   1  230.02    9.61
  15 -13   1  225.57   12.17
  -2  15   1  254.97   12.53
 -13  -2   4   16.33    5.19
 -13  -2   4   10.06    3.06
  15 -13   4   12.51    3.69
 -13  -2   4   11.33    4.40
  15 -13   4    9.69    2.70
  -2  15   4   11.06    2.77
 -13  -2   7  145.15    9.42
  15 -13   7  158.82    8.82
  15 -12  -9   67.20    9.83
 -12  -3  -9   57.38    7.57
 -12  -3  -9   62.97    9.33
  -3  15  -9   64.49    9.41
 -12  -3  -6  254.82   14.72
 -12  -3  -6  217.39    6.32
 -12  -3  -6  246.38   13.52
  15 -12  -6  259.67   14.99
 -12  -3  -6  220.99    5.67
  -3  15  -6  239.48   14.66
  -3  15  -3  232.92    7.57
  -3  15  -3  260.37   13.46
 -12  -3  -3  223.07   12.39
 -12  -3  -3  231.03   12.45
 -12  -3  -3  217.51    5.75
  15 -12  -3  230.57   12.44
 -12  -3   0   26.49    4.86
 -12  -3   0   21.55    3.63
 -12  -3   0   28.03    4.85
 -12  -3   0   29.63    5.31
  -3  15   0   25.58    4.75
  15 -12   0   24.97    4.16
  15 -12   0   23.09    4.44
  15 -12   0   13.08    3.56
  -3  15   0   20.61    3.99
 -12  -3   3   99.54    6.72
  15 -12   3   86.83    7.41
  15 -12   3   99.54    6.28
  -3  15   3  101.10    9.06
  -3  15   3   89.20    6.01
 -12  -3   3   84.06    7.39
 -12  -3   3   83.45    8.50
  15 -12   3   85.69    8.38
  15 -12   6  292.33   10.78
  15 -12   6  295.68   12.13
 -12  -3   6  300.94   12.73
 -12  -3   6  305.35   13.19
  -3  15   6  273.30   11.83
 -11  -4 -10  254.26   17.61
 -11  -4 -10  276.12   15.30
  15 -11 -10  295.32   19.50
  -4  15 -10  276.66   19.13
 -11  -4  -7  614.43   23.29
 -11  -4  -7  543.91   10.18
  15 -11  -7  570.64   23.23
 -11  -4  -7  593.13   21.20
 -11  -4  -7  564.22    9.87
  -4  15  -4 1335.33   30.82
 -11  -4  -4 1327.50   29.57
 -11  -4  -4 1326.61   29.98
  15 -11  -4 1334.47   30.18
 -11  -4  -1 1941.17   34.34
 -11  -4  -1 1945.78   34.00
  -4  15  -1 2056.91   34.23
 -11  -4  -1 1948.65   33.63
  15 -11  -1 1917.46   32.61
  15 -11  -1 1966.21   34.28
  -4  15  -1 1980.43   32.51
  15 -11   2  437.96   13.40
 -11  -4   2  477.84   16.29
  15 -11   2  432.12   15.63
 -11  -4   2  443.85   14.16
  -4  15   2  439.08   16.34
 -11  -4   2  459.32   16.98
  -4  15   2  434.68   12.74
  15 -11   2  405.83   15.69
 -11  -4   5 1520.67   34.65
  15 -11   5 1606.82   25.04
 -11  -4   5 1615.12   29.29
  -4  15   5 1549.51   26.89
 -11  -4   5 1573.30   27.76
  15 -11   5 1559.73   28.02
  15 -10 -11   75.20   11.55
 -10  -5 -11   62.46   12.93
 -10  -5 -11   72.51   11.14
  -5  15 -11   67.53   11.42
  -5  15  -8   30.15    7.86
 -10  -5  -8   46.72    8.47
 -10  -5  -8   46.72    7.20
 -10  -5  -8   33.03    3.27
  15 -10  -8   37.01    7.76
 -10  -5  -5  214.29   12.88
 -10  -5  -5  237.60   13.12
  15 -10  -5  224.63   13.42
  -5  15  -5  250.86   14.49
  -5  15  -2  727.71   21.09
 -10  -5  -2  720.87   20.96
 -10  -5  -2  747.06   21.07
  15 -10  -2  740.51   20.64
  15 -10   1  583.51   18.11
 -10  -5   1  530.71   17.31
  15 -10   1  579.47   16.22
 -10  -5   1  575.29   17.92
 -10  -5   1  588.08   16.80
  -5  15   1  569.22   15.30
  15 -10   1  530.09   16.87
  -5  15   1  575.39   17.66
  15 -10   4  283.26   14.36
  15 -10   4  277.46   12.16
  15 -10   4  287.55   10.87
 -10  -5   4  243.94   11.39
  -5  15   4  286.46   11.42
 -10  -5   4  264.13   11.41
 -10  -5   4  286.43   14.05
  15 -10   7  291.10   12.67
  15 -10   7  271.21   11.51
  -6  15 -12   42.30   11.06
  -9  -6 -12   74.91   14.21
  -9  -6 -12   52.89   10.90
  15  -9 -12   72.73   13.49
  -9  -6  -9   95.43    9.53
  -9  -6  -9   89.94   11.26
  15  -9  -9  113.48   12.40
  -6  15  -9   97.00   11.89
  -9  -6  -6  331.63   15.59
  -9  -6  -6  355.98   17.61
  15  -9  -6  353.08   17.33
  -6  15  -6  331.58   17.25
  -9  -6  -3  277.57   13.39
  -9  -6  -3  306.99   14.17
  15  -9  -3  287.21   13.53
  -6  15  -3  273.01   13.51
  -9  -6   0  416.47   14.92
  -6  15   0  375.95   14.11
  15  -9   0  382.31   14.95
  -9  -6   0  425.58   15.52
  -9  -6   0  395.28   14.65
  15  -9   0  399.74   14.44
  15  -9   0  413.91   14.56
  -6  15   0  401.09   13.83
  -9  -6   3  622.76   17.25
  -6  15   3  626.71   19.01
  15  -9   3  627.14   18.41
  15  -9   3  627.44   16.37
  -9  -6   3  634.86   17.92
  -9  -6   3  597.19   18.78
  -6  15   3  634.41   16.57
  15  -9   3  614.26   19.06
  15  -9   6   69.75    6.49
  -9  -6   6   78.26    6.61
  15  -9   6   74.00    6.71
  -8  -7 -10  213.25   13.99
  -8  -7 -10  206.31   16.51
  15  -8 -10  180.14   16.07
  -7  15 -10  210.02   17.86
  -8  -7  -7  346.97   18.22
  15  -8  -7  417.97   20.01
  -8  -7  -7  331.86    5.68
  -7  15  -7  401.09   20.18
  -8  -7  -7  368.14   16.88
  -8  -7  -4  647.00   20.73
  -8  -7  -4  719.55   22.36
  15  -8  -4  663.15   21.60
  -7  15  -4  675.73   22.09
  -7  15  -1 1970.70   32.35
  15  -8  -1 1951.98   33.76
  -8  -7  -1 1953.14   33.63
  -8  -7  -1 2048.83   33.10
  15  -8  -1 2050.39   32.34
  15  -8  -1 1995.88   33.93
  -7  15  -1 2112.81   33.23
  -8  -7   2  317.14   12.66
  -8  -7   2  284.58   12.16
  15  -8   2  299.75   11.68
  -8  -7   2  327.30   13.01
  -7  15   2  304.93   11.50
  -7  15   2  308.44   12.47
  15  -8   2  313.79   13.21
  15  -8   2  338.25   13.12
  -8  -7   5 1144.74   27.47
  15  -8   5 1134.29   23.89
  15  -8   5 1112.62   24.13
  -8  -7   5 1168.13   23.12
  -7  15   5 1110.06   25.13
  -8  -7   5 1074.33   25.27
  -7  -8 -11  175.49   16.43
  15  -7 -11  199.14   17.63
  -8  15 -11  187.30   17.69
  -8  15  -8   68.03   10.28
  -7  -8  -8   66.26    8.24
  -7  -8  -8   63.17    9.50
  15  -7  -8   64.51    9.70
  -7  -8  -8   69.83    3.90
  -7  -8  -5 1002.68   26.41
  -7  -8  -5  961.28   27.47
  -8  15  -5 1020.39   28.90
  -7  -8  -2  240.45   12.36
  -7  -8  -2  274.80   12.80
  15  -7  -2  245.12   11.87
  -8  15  -2  269.16   12.89
  -7  -8   1 1991.44   32.29
  15  -7   1 2019.05   33.35
  -7  -8   1 1977.19   31.64
  -7  -8   1 1981.22   30.74
  15  -7   1 1994.83   30.86
  -8  15   1 1966.91   29.77
  -8  15   1 2028.62   30.04
  15  -7   1 2000.68   30.14
  15  -7   4  432.27   15.95
  15  -7   4  442.89   15.59
  -7  -8   4  435.28   14.32
  15  -7   4  505.98   16.25
  -8  15   4  435.57   15.32
  -8  15   4  463.61   16.19
  -7  -8   4  452.86   16.09
  -7  -8   4  455.51   16.07
  15  -7   7  316.32   13.36
  -7  -8   7  353.18   11.51
  -6  -9 -12   26.70   10.15
  -6  -9 -12   57.82   11.81
  15  -6 -12   44.01   10.74
  -9  15 -12   53.61   11.75
  -6  -9  -9   36.20    8.65
  15  -6  -9   30.09    8.61
  -9  15  -9   30.87    9.08
  -6  -9  -9   29.59    6.68
  -6  -9  -6   57.12    8.47
  15  -6  -6   71.88    8.90
  -9  15  -6   60.12    8.68
  -6  -9  -6   72.32    8.08
  -6  -9  -3  478.81   17.51
  -6  -9  -3  455.09   17.33
  15  -6  -3  517.34   17.99
  -9  15  -3  475.37   17.87
  -9  15   0  441.93   14.51
  -6  -9   0  409.39   15.09
  15  -6   0  438.19   15.97
  -6  -9   0  406.10   14.32
  15  -6   0  429.60   15.12
  -6  -9   0  422.34   15.22
  15  -6   0  452.05   14.44
  -9  15   0  441.50   14.79
  -6  -9   3  214.99   10.37
  15  -6   3  193.03   10.70
  15  -6   3  185.91   10.01
  -9  15   3  189.74   10.21
  -9  15   3  187.69    9.69
  -6  -9   3  197.11    9.95
  15  -6   3  186.12    9.73
  -6  -9   3  203.53   10.81
  15  -6   6  309.91   13.42
  -6  -9   6  326.22   11.44
  -5 -10 -10  192.52   13.82
  -5 -10 -10  189.11   16.44
 -10  15 -10  208.93   18.37
  15  -5 -10  209.43   18.08
 -10  15  -7  225.97   15.81
  15  -5  -7  231.55   15.78
  -5 -10  -7  208.92    5.32
  -5 -10  -7  254.73   14.53
  -5 -10  -7  240.32   15.82
  -5 -10  -4  305.90   14.63
  -5 -10  -4  338.00   16.09
  15  -5  -4  313.93   14.93
 -10  15  -4  310.45   15.33
  -5 -10  -1  742.82   19.80
  -5 -10  -1  755.10   21.18
  15  -5  -1  778.71   19.37
 -10  15  -1  729.20   19.91
 -10  15  -1  759.88   19.74
  15  -5   2  710.11   20.14
  -5 -10   2  697.56   19.43
  15  -5   2  764.97   19.75
  -5 -10   2  724.54   17.87
 -10  15   2  728.72   19.14
  -5 -10   2  743.34   19.07
 -10  15   2  711.94   17.05
  15  -5   2  773.67   18.11
  -5 -10   5  242.24   10.22
  -5 -10   5  261.26   12.05
  -4 -11 -11  347.21   18.82
  -4 -11 -11  344.04   22.63
  15  -4 -11  377.86   24.46
 -11  15 -11  346.14   23.86
  -4 -11  -8   89.83    9.71
  -4 -11  -8  108.96   12.40
  15  -4  -8   87.39    3.91
 -11  15  -8   99.94   12.17
  15  -4  -8   95.93   11.67
  -4 -11  -8   96.70    5.04
  -4 -11  -5 1567.31   33.51
 -11  15  -5 1645.38   37.48
  15  -4  -5 1637.20   36.24
  -4 -11  -2  443.76   16.73
  -4 -11  -2  438.80   16.19
  15  -4  -2  401.75   15.07
 -11  15  -2  436.48   16.25
  -4 -11   1 1659.74   29.73
 -11  15   1 1663.76   25.74
  -4 -11   1 1627.10   26.74
  15  -4   1 1614.80   29.15
 -11  15   1 1647.55   28.84
  15  -4   1 1682.33   26.12
  15  -4   4 1176.27   23.63
  -4 -11   4 1185.16   22.95
  -4 -11   4 1157.37   23.16
 -11  15   4 1145.38   22.13
  -4 -11   7  745.73   14.92
  -3 -12  -9   39.37    7.25
  -3 -12  -9   41.53    8.86
  15  -3  -9   50.39    9.57
 -12  15  -9   49.13   10.18
  15  -3  -6  208.48   14.28
  -3 -12  -6  284.07   15.27
  -3 -12  -6  228.88   15.23
  15  -3  -6  232.01    6.83
 -12  15  -6  278.44   17.15
  -3 -12  -6  218.59    5.89
 -12  15  -3  103.09    8.86
  -3 -12  -3  111.21    9.20
  -3 -12  -3  130.49    9.93
  15  -3  -3  101.69    8.52
  -3 -12   0   21.31    4.07
  15  -3   0   24.36    4.08
 -12  15   0   25.50    4.28
  -3 -12   3  375.42   13.63
 -12  15   3  357.84   11.54
  -3 -12   3  344.51   11.89
  15  -3   3  358.17   11.90
  -3 -12   6  215.64    8.91
  -2 -13 -10   31.20    9.08
  -2 -13 -10   33.23    7.04
  15  -2 -10   23.54    8.72
 -13  15 -10   30.45    9.90
  -2 -13  -7  183.65   14.44
  -2 -13  -7  181.59   12.92
  15  -2  -7  173.77    6.95
 -13  15  -7  146.67   13.85
  15  -2  -7  185.69   15.11
  -2 -13  -7  183.55    6.83
  -2 -13  -4    1.05    1.40
  -2 -13  -4    1.81    3.74
  15  -2  -4    5.60    4.75
  -2 -13  -4   -0.71    4.16
 -13  15  -4    2.96    4.39
  -2 -13  -1  199.48   11.58
  -2 -13  -1  187.44   10.50
  15  -2  -1  180.14    9.50
 -13  15  -1  190.04   10.36
  -2 -13   2  210.69   10.81
 -13  15   2  214.40    8.62
  -2 -13   2  205.09    9.18
  15  -2   2  202.75    8.70
  -2 -13   5  102.00    6.98
  -2 -13   5   89.46    6.22
  -1 -14 -11  383.60   25.52
 -14  15 -11  418.23   27.40
  15  -1 -11  417.55   26.53
  -1 -14 -11  349.76   19.82
  15  -1  -8  368.53   11.31
  -1 -14  -8  389.64   19.28
  -1 -14  -8  386.34   22.11
 -14  15  -8  382.33   22.56
  15  -1  -8  422.60   23.01
  -1 -14  -8  374.55   11.20
  -1 -14  -5 1681.63   36.44
  15  -1  -5 1752.91   23.78
 -14  15  -5 1721.63   39.46
  15  -1  -5 1724.17   38.29
  -1 -14  -5 1716.70   19.99
  -1 -14  -2  637.03   19.99
  -1 -14  -2  627.95   20.82
 -14  15  -2  619.45   19.76
  15  -1  -2  623.62   18.70
 -14  15   1 1181.16   21.06
  -1 -14   1 1172.48   25.83
  -1 -14   1 1187.22   22.33
  15  -1   1 1190.34   20.86
  15  -1   4  720.15   16.16
  -1 -14   4  702.68   16.01
  -1 -14   4  719.67   18.42
  -1 -14   7  707.67   14.14
   0 -15  -9   -0.84    4.66
   0 -15  -9    6.41    6.86
 -15  15  -9    6.12    7.73
  15   0  -9    8.99    7.51
 -15  15  -6   14.48    2.30
   0 -15  -6    5.13    4.49
   0 -15  -6   18.01    6.39
  15   0  -6   11.45    5.32
 -15  15  -6   26.33    7.01
  15   0  -6   23.02    3.57
   0 -15  -6   19.11    3.23
   0 -15  -3   11.23    2.99
   0 -15  -3    9.43    5.02
   0 -15  -3    6.93    4.55
  15   0  -3    9.15    4.16
 -15  15  -3   -4.08    4.45
   0 -15   0  286.94   13.62
   0 -15   0  262.95   11.62
  15   0   0  294.35   11.38
 -15  15   0  279.50   11.49
   0 -15   3    8.60    3.49
 -15  15   3    6.80    2.29
   0 -15   3    6.18    2.36
  15   0   3   13.78    2.95
   0 -15   6  106.71    6.53
   1 -16 -10   25.21    7.19
   1 -16 -10   42.82    9.69
  15   1 -10   36.64   10.43
 -16  15 -10   33.12   10.92
   1 -16  -7  108.45   12.51
  15   1  -7   90.62    6.90
  15   1  -7   90.31   11.26
   1 -16  -7   86.46    9.83
   1 -16  -7   90.61    6.13
 -16  15  -7   98.21   12.03
 -16  15  -7   78.18    5.03
   1 -16  -4   58.86    7.93
   1 -16  -4   46.59    7.30
 -16  15  -4   51.50    7.45
  15   1  -4   62.97    7.99
  15   1  -4   57.59    5.82
   1 -16  -4   55.31    4.76
   1 -16  -1   75.80    7.80
   1 -16  -1   63.79    6.66
 -16  15  -1   83.48    7.29
  15   1  -1   64.67    6.22
   1 -16   2    8.29    3.46
 -16  15   2    6.46    2.26
   1 -16   2    5.10    2.61
  15   1   2    4.40    2.14
   1 -16   5    0.50    2.41
   2 -17 -11  261.46   18.29
  15   2 -11  291.27   23.45
   2 -17 -11  309.78   24.23
 -17  15 -11  331.95   25.63
  15   2  -8  479.82   15.69
   2 -17  -8  563.54   24.11
   2 -17  -8  516.00   26.16
 -17  15  -8  505.48   26.84
  15   2  -8  463.65   25.09
   2 -17  -8  503.27   15.18
   2 -17  -5  718.97   25.45
   2 -17  -5  760.80   27.33
 -17  15  -5  687.03   26.51
  15   2  -5  696.85   25.67
  15   2  -5  682.89   18.42
   2 -17  -5  723.92   16.66
 -17  15  -5  662.38   16.39
   2 -17  -2  740.19   18.98
   2 -17  -2  742.17   22.53
 -17  15  -2  793.42   23.35
  15   2  -2  755.47   21.52
   2 -17   1  905.04   24.15
  15   2   1  917.22   17.80
 -17  15   1  934.19   18.89
   2 -17   1  940.73   20.26
   2 -17   4   94.00    7.52
   2 -17   4  109.31    5.72
   2 -17   7  877.19   16.61
   3 -18  -9   93.59   11.20
   3 -18  -9   73.67   12.58
  15   3  -9   90.70   13.26
 -18  15  -9   82.73   13.66
   3 -18  -6  300.65   18.62
 -18  15  -6  268.74   18.04
  15   3  -6  253.09   12.06
  15   3  -6  315.25   18.84
 -18  15  -6  289.49   11.44
   3 -18  -6  271.39   11.32
   3 -18  -6  271.22   16.66
 -18  15  -3  244.36   11.78
   3 -18  -3  265.20   15.14
   3 -18  -3  202.20   13.50
 -18  15  -3  240.43   14.34
  15   3  -3  225.55   13.11
  15   3  -3  197.81   11.35
   3 -18  -3  223.13   10.66
   3 -18   0  286.86   14.61
   3 -18   0  254.88   11.75
 -18  15   0  278.22   11.86
  15   3   0  263.76   10.88
   3 -18   3  386.19   15.38
   3 -18   3  428.49   11.38
 -18  15   3  398.34    9.09
  15   3   3  410.50    9.49
   3 -18   6   12.05    3.42
   4 -19 -10    7.27    9.43
   4 -19 -10    7.10    6.81
 -19  15 -10    4.29    8.48
  15   4 -10   -2.42    7.94
 -19  15  -7    3.85    5.88
  15   4  -7    3.40    3.70
   4 -19  -7    0.23    5.86
   4 -19  -7    6.37    5.62
  15   4  -7   -1.75    6.51
   4 -19  -7   -1.26    2.93
 -19  15  -7    4.48    3.52
   4 -19  -4    4.06    3.34
 -19  15  -4    5.23    3.91
  15   4  -4    1.78    3.33
   4 -19  -4    1.54    4.49
   4 -19  -4    0.65    4.77
 -19  15  -4    2.95    5.95
  15   4  -4    1.34    4.25
   4 -19  -1   17.45    4.34
 -19  15  -1   14.96    4.46
  15   4  -1   25.68    4.60
   4 -19  -1   17.72    5.28
   4 -19  -1   15.80    4.21
   4 -19   2   57.80    7.03
   4 -19   2   59.57    5.15
  15   4   2   56.47    4.24
 -19  15   2   62.29    4.65
   4 -19   5  171.31    9.60
   5 -20  -8  161.46   14.42
   5 -20  -8  142.10   15.34
  15   5  -8  157.37   11.02
 -20  15  -8  160.11   16.32
  15   5  -8  151.80   15.48
 -20  15  -8  165.02    9.62
   5 -20  -8  143.40    9.77
   5 -20  -5  489.00   22.43
   5 -20  -5  493.38   23.33
 -20  15  -5  522.04   24.25
  15   5  -5  521.13   22.99
  15   5  -5  491.54   18.23
 -20  15  -5  481.99   16.66
   5 -20  -5  470.54   16.02
   5 -20  -2  437.78   16.88
 -20  15  -2  435.39   17.57
   5 -20  -2  420.32   18.03
 -20  15  -2  434.64   18.33
  15   5  -2  449.54   17.41
  15   5  -2  478.33   19.37
   5 -20  -2  472.88   20.41
   5 -20   1  722.74   23.35
   5 -20   1  756.11   18.91
 -20  15   1  705.89   17.26
  15   5   1  724.46   15.83
   5 -20   4  174.57   10.88
   5 -20   4  151.60    5.61
   5 -20   7  835.86   18.20
   6 -21  -9  155.24   14.87
   6 -21  -9  158.30   17.24
 -21  15  -9  147.31   17.02
  15   6  -9  150.07   16.53
   6 -21  -6  200.73   15.38
  15   6  -6  169.39   11.53
  15   6  -6  221.71   16.89
   6 -21  -6  174.03   15.78
 -21  15  -6  188.50   11.08
 -21  15  -6  182.63   16.10
   6 -21  -6  177.33   10.52
   6 -21  -3  286.31   16.73
 -21  15  -3  298.81   16.69
  15   6  -3  262.99   14.72
  15   6  -3  273.68   14.78
   6 -21  -3  253.67   15.32
 -21  15  -3  259.04   13.72
   6 -21  -3  277.06   13.55
   6 -21   0  327.88   16.53
   6 -21   0  342.26   14.34
 -21  15   0  321.18   13.49
  15   6   0  321.25   12.27
   6 -21   3  325.90   15.16
 -21  15   3  286.08    6.94
   6 -21   3  323.15    9.79
   6 -21   6  194.32   10.34
   7 -22 -10   13.98    7.80
   7 -22 -10    6.46    8.47
 -22  15 -10   21.87   10.13
  15   7 -10   11.47    9.77
   7 -22  -7   37.44   10.06
  15   7  -7   45.43    7.46
   7 -22  -7   37.76    9.22
 -22  15  -7   47.59   10.01
  15   7  -7   58.14   10.61
   7 -22  -7   41.90    6.53
 -22  15  -7   33.15    5.75
   7 -22  -4   18.35    4.62
 -22  15  -4   27.28    5.90
   7 -22  -4   20.84    6.72
   7 -22  -4   22.85    6.90
 -22  15  -4   28.79    7.32
  15   7  -4   15.19    6.27
  15   7  -4   22.45    5.87
   7 -22  -1   13.47    5.05
   7 -22  -1   16.77    5.07
 -22  15  -1   13.48    5.22
  15   7  -1    9.27    3.45
   7 -22  -1   18.42    5.23
   7 -22   2  427.97   13.22
   7 -22   2  404.66   17.95
  15   7   2  403.44    9.92
 -22  15   2  426.19   11.65
   7 -22   5   60.73    6.83
   8 -23  -8  116.06   13.17
   8 -23  -8  136.86   16.05
  15   8  -8  133.00   15.54
  15   8  -8  124.83   10.95
   8 -23  -8  134.44   10.75
 -23  15  -8  143.91   16.78
   8 -23  -5  298.58   19.35
   8 -23  -5  315.44   19.23
 -23  15  -5  331.15   20.56
  15   8  -5  294.23   18.60
  15   8  -5  327.08   16.78
 -23  15  -5  321.02   15.75
   8 -23  -5  276.56   14.23
   8 -23  -2   90.25    9.28
   8 -23  -2   62.01    8.79
   8 -23  -2   90.92    9.55
  15   8  -2   70.64    9.39
 -23  15  -2   78.78    8.91
  15   8  -2   78.03    8.16
 -23  15  -2   72.09    9.11
   8 -23   1  827.36   26.67
   8 -23   1  768.71   20.22
 -23  15   1  799.50   19.58
  15   8   1  815.30   16.98
   8 -23   4  235.37    5.34
   8 -23   4  304.15   15.02
   8 -23   7  245.35   11.37
   9 -24  -9  114.89   14.06
   9 -24  -9  141.66   17.37
 -24  15  -9  123.84   17.38
  15   9  -9  132.91   16.82
   9 -24  -6  226.95   17.42
   9 -24  -6  200.60   17.43
  15   9  -6  222.34   17.34
  15   9  -6  178.56   13.16
 -24  15  -6  220.70   13.75
 -24  15  -6  213.76   17.95
   9 -24  -6  192.52   12.43
   9 -24  -3  361.72   20.29
   9 -24  -3  414.72   20.52
 -24  15  -3  407.28   20.48
  15   9  -3  408.29   19.83
  15   9  -3  423.10   19.37
 -24  15  -3  399.42   18.91
   9 -24  -3  406.75   18.13
   9 -24   0   61.20    8.87
   9 -24   0   67.76    8.89
 -24  15   0   83.85    8.02
  15   9   0   56.14    5.62
   9 -24   0   79.51    7.78
   9 -24   3  424.37   18.70
 -24  15   3  404.00    8.14
   9 -24   3  399.56   10.99
   9 -24   6  232.52   12.47
  10 -25  -7   49.23   11.06
  15  10  -7   32.28    7.31
 -25  15  -7   18.47    8.23
  15  10  -7   30.20    9.46
  10 -25  -7   40.99    8.89
 -25  15  -7   31.39    7.13
  10 -25  -7   29.16    6.43
  10 -25  -4  144.60   13.59
  10 -25  -4  132.68   13.00
 -25  15  -4  131.80   12.98
  15  10  -4  141.89   12.72
 -25  15  -4  130.09   11.52
  15  10  -4  155.67   13.28
  10 -25  -4  107.67   10.53
 -25  15  -1   87.97   10.70
  10 -25  -1  108.28   10.92
  10 -25  -1  108.81   11.35
  10 -25  -1  105.30    9.87
  15  10  -1   91.20    8.22
 -25  15  -1   87.38    9.05
  10 -25   2    6.04    5.14
  10 -25   2    2.21    2.70
  15  10   2    8.87    2.07
 -25  15   2    7.12    2.80
  10 -25   5  156.83   11.33
  11 -26  -8   55.38   10.22
  11 -26  -8   66.20   12.69
  15  11  -8   65.24    9.85
  15  11  -8   76.28   12.68
  11 -26  -8   75.93    9.30
  11 -26  -5  130.42   13.70
  11 -26  -5  124.61   13.88
 -26  15  -5  102.82   12.89
  15  11  -5  116.46   12.78
  15  11  -5  112.06   11.92
 -26  15  -5  130.27   11.91
  11 -26  -5  116.82   10.68
  15  11  -2   75.62   10.28
  11 -26  -2   93.26   10.83
  11 -26  -2   82.41    9.69
 -26  15  -2   56.86    8.56
  15  11  -2   78.46    9.12
 -26  15  -2   58.40    8.74
  11 -26  -2   71.58    9.30
  11 -26   1  402.45   20.04
  11 -26   1  384.64   15.37
 -26  15   1  363.80   14.30
  15  11   1  341.84   11.82
  11 -26   4   48.58    7.55
  11 -26   7  162.39   10.81
  12 -27  -9  216.23   21.63
 -27  15  -9  183.93   20.72
  15  12  -9  187.38   20.39
  12 -27  -9  181.26   18.21
  12 -27  -6  186.22   16.90
  12 -27  -6  283.93   21.09
  15  12  -6  240.74   19.10
 -27  15  -6  218.13   19.28
  15  12  -6  226.04   16.70
 -27  15  -6  232.02   15.52
  12 -27  -6  238.24   15.67
  12 -27  -3  679.95   27.52
 -27  15  -3  685.03   27.55
  15  12  -3  659.53   27.33
  15  12  -3  679.83   25.52
 -27  15  -3  668.65   26.66
  12 -27  -3  607.43   24.30
  12 -27   0   77.35   10.23
 -27  15   0   69.87   11.11
  12 -27   0   80.33   10.39
  12 -27   0   76.32    8.61
 -27  15   0   82.72    8.53
  15  12   0   77.90    6.99
  12 -27   3  393.80   19.46
  12 -27   3  388.92   11.34
 -27  15   3  368.09    8.40
  12 -27   6   98.28    9.43
  13 -28  -7   37.23   10.63
  13 -28  -7   15.51    9.23
 -28  15  -7   21.51    9.24
  15  13  -7   31.14    9.51
  15  13  -7   32.44    8.29
 -28  15  -7   31.44    7.62
  13 -28  -7   16.43    6.38
  13 -28  -4    0.96    5.01
 -28  15  -4   22.54    6.97
  15  13  -4   15.61    7.42
  13 -28  -4   12.50    6.97
  13 -28  -4   21.05    7.93
 -28  15  -4   14.77    7.69
  15  13  -4   21.17    6.89
  13 -28  -1   81.34   10.82
  13 -28  -1  107.18   12.22
  13 -28  -1   96.22   10.20
 -28  15  -1  133.21   11.83
  15  13  -1  133.46   10.51
  15  13  -1   92.83   12.09
 -28  15  -1  100.20   12.32
  13 -28   2   11.58    5.69
  13 -28   2    1.60    3.30
 -28  15   2    6.12    3.47
  15  13   2    4.51    1.74
  13 -28   5   39.85    7.33
  14 -29  -8   -0.97    8.67
 -29  15  -8   15.15   10.78
  15  14  -8   12.00    7.77
  15  14  -8    1.38    7.82
  14 -29  -8    0.92    7.28
  14 -29  -8   14.81    7.53
  14 -29  -5   40.63    9.68
  14 -29  -5   54.13   10.64
  15  14  -5   55.86    9.58
 -29  15  -5   49.15   11.06
  15  14  -5   63.26   10.80
 -29  15  -5   53.63    9.04
  14 -29  -5   43.09    8.49
 -29  15  -2    7.07    6.77
  14 -29  -2   -5.45    5.27
  15  14  -2    8.34    7.38
 -29  15  -2   -1.04    5.05
  15  14  -2    4.83    5.13
  14 -29  -2    4.97    6.04
  14 -29  -2   -2.43    5.33
  14 -29   1   75.41   10.51
  14 -29   1   61.40    7.23
 -29  15   1   59.80    7.06
  15  14   1   63.33    5.73
  14 -29   4    2.24    5.64
  15 -30  -6  185.42   18.09
  15 -30  -6  216.63   19.89
  15  15  -6  203.54   18.32
 -30  15  -6  220.47   20.47
  15  15  -6  184.42   16.86
 -30  15  -6  194.73   16.04
  15 -30  -6  177.70   15.10
  15 -30  -3  363.33   23.04
  15 -30  -3  350.37   21.28
 -30  15  -3  351.67   21.23
  15  15  -3  376.08   20.02
  15  15  -3  322.30   21.10
 -30  15  -3  374.98   22.15
  15 -30  -3  356.31   21.25
 -30  15   0   39.11    7.17
 -30  15   0   34.44   10.07
  15 -30   0   29.06    8.54
  15 -30   0   34.68    8.97
  15 -30   0   37.67    7.13
  15  15   0   31.26    5.69
  15 -30   3  397.73   21.18
  15 -30   6  119.22   11.69
  16 -31  -7   18.13    9.55
  16 -31  -7    0.99    9.51
  15  16  -7    9.74    9.87
 -31  15  -7   -0.84    9.09
  15  16  -7    0.55    7.35
 -31  15  -7   10.38    7.54
  16 -31  -7   -1.31    6.21
  16 -31  -4   54.47   10.90
  16 -31  -4   78.72   12.01
  15  16  -4   52.48   10.89
 -31  15  -4   81.19   12.02
  15  16  -4   77.73   11.19
 -31  15  -4   65.82   10.87
  16 -31  -4   90.48   11.89
 -31  15  -1   33.30    9.97
  16 -31  -1   31.61    7.98
 -31  15  -1   17.89    6.67
  16 -31  -1   12.04    5.91
  15  16  -1   19.34    6.00
  15  16  -1   13.93    8.19
  16 -31  -1   18.24    7.85
  16 -31   2   98.12   12.02
  16 -31   2   95.41    7.99
  16 -31   5   17.81    6.67
  14  16  -5    0.15    6.66
  16 -30  -5    6.75    7.48
  16 -30  -5   -1.66    7.00
 -30  14  -5    6.28    7.20
  14  16  -5    4.87    7.40
 -30  14  -5   -5.79    7.54
 -30  14  -5   -6.77    6.42
  16 -30  -5    1.16    6.20
 -30  14  -2   40.20    9.38
  16 -30  -2   25.96    7.38
  16 -30  -2   22.97    8.26
  16 -30  -2   16.33    7.16
  14  16  -2   11.25    7.51
 -30  14  -2    5.83    5.84
  14  16  -2   13.35    5.40
 -30  14  -2   17.79    7.43
  16 -30   1    5.34    6.28
  16 -30   1    7.25    5.96
  16 -30   1    8.14    4.45
 -30  14   1    0.50    3.97
  14  16   1    3.16    3.18
  16 -30   4   50.79    8.75
  16 -29  -6  670.09   31.82
  16 -29  -6  668.84   32.94
 -29  13  -6  725.24   34.78
  13  16  -6  681.28   29.83
  13  16  -6  721.75   32.71
 -29  13  -6  681.21   28.30
 -29  13  -6  690.99   30.04
  16 -29  -6  625.57   26.74
  16 -29  -3   89.46   12.41
  16 -29  -3   77.72   10.81
 -29  13  -3   96.72   12.13
 -29  13  -3   80.68   11.80
  13  16  -3   75.30   10.07
 -29  13  -3   83.46   11.67
  16 -29  -3   56.94    9.45
  13  16  -3   57.05   10.28
  16 -29   0  595.59   27.74
  16 -29   0  568.05   26.31
  16 -29   0  519.74   20.88
 -29  13   0  553.75   21.42
  13  16   0  586.06   19.03
 -29  13   0  604.13   28.06
  13  16   0  516.73   27.84
 -29  13   0  542.60   27.20
  16 -29   3   15.29    3.34
  16 -29   3   14.98    5.94
  16 -29   6  531.95   22.03
  16 -28  -7   24.28   10.12
  16 -28  -7   13.89    8.26
 -28  12  -7   30.69    8.16
  12  16  -7   10.51    7.95
 -28  12  -7   14.22   10.77
 -28  12  -7   17.68    7.24
  16 -28  -7   32.90    7.98
  12  16  -7   26.01    8.24
  16 -28  -4   46.67    9.81
  16 -28  -4   49.21    9.99
 -28  12  -4   60.05   10.96
 -28  12  -4   50.52    9.60
  12  16  -4   56.32    9.56
  12  16  -4   62.16   10.22
  16 -28  -4   52.06    8.80
 -28  12  -4   50.25    8.67
 -28  12  -1   25.20    7.47
  16 -28  -1   14.13    6.89
  16 -28  -1   26.65    7.61
  16 -28  -1   11.21    5.22
 -28  12  -1   15.71    5.98
 -28  12  -1   36.02    8.14
  12  16  -1   23.26    5.74
  12  16  -1   32.03    9.16
  16 -28   2   -0.02    3.23
  16 -28   2    8.81    6.05
 -28  12   2    5.33    3.45
  12  16   2    2.16    1.54
  16 -28   5    6.84    5.33
  16 -27  -8   33.07   10.59
  16 -27  -8   27.99    9.25
 -27  11  -8   28.14   10.96
 -27  11  -8   30.44    8.34
  11  16  -8   37.09   11.61
  11  16  -8   42.24    9.68
 -27  11  -8   33.92    7.81
  16 -27  -8   42.49    8.52
  16 -27  -5   20.24    8.68
  16 -27  -5   12.02    7.69
 -27  11  -5   13.03    7.75
 -27  11  -5    7.34    6.88
  11  16  -5   21.51    7.83
 -27  11  -5   13.71    6.09
  11  16  -5   20.98    7.43
  16 -27  -5   18.05    6.19
  11  16  -2  122.11   13.34
  16 -27  -2  111.33   12.90
  16 -27  -2  132.39   12.60
 -27  11  -2  107.46   12.10
 -27  11  -2  131.80   12.49
  11  16  -2  139.82   11.77
 -27  11  -2   99.29   11.65
  16 -27  -2  112.17   12.23
 -27  11   1   46.78    9.31
  16 -27   1   45.35    9.28
  16 -27   1   60.70    7.17
 -27  11   1   44.35    8.95
 -27  11   1   59.64    7.07
  16 -27   1   73.07    9.88
  11  16   1   65.06    5.97
  16 -27   4   89.75    9.88
  16 -26  -9   60.25   11.12
  16 -26  -9   51.30   12.71
 -26  10  -9   49.03   12.77
  10  16  -9   46.59   10.07
  10  16  -9   40.36   12.55
 -26  10  -9   50.43    9.20
  16 -26  -9   52.55    9.74
  16 -26  -6  434.35   24.68
  16 -26  -6  528.75   28.46
  10  16  -6  505.92   24.32
 -26  10  -6  431.50   26.48
 -26  10  -6  452.55   23.02
  10  16  -6  440.72   25.37
 -26  10  -6  454.80   22.18
  16 -26  -6  490.47   22.79
  16 -26  -3  144.04   13.69
 -26  10  -3  122.85   12.96
 -26  10  -3  132.30   12.93
  10  16  -3  143.92   12.65
  10  16  -3  159.86   14.20
 -26  10  -3  129.86   12.37
  16 -26  -3  132.70   12.33
  16 -26   0  776.52   24.39
 -26  10   0  722.56   23.70
 -26  10   0  790.17   29.80
  10  16   0  756.62   21.16
  10  16   0  726.19   29.83
 -26  10   0  697.14   28.89
  16 -26   0  692.05   27.72
 -26  10   3   33.83    3.91
  16 -26   3   37.27    4.26
  16 -26   6  651.23   22.57
  16 -25  -7   18.35    7.10
  16 -25  -7   38.83    9.53
   9  16  -7   23.94    7.95
 -25   9  -7   28.80    7.88
   9  16  -7   25.17    9.35
 -25   9  -7   33.85   10.50
 -25   9  -7   46.53    8.25
  16 -25  -7   23.19    6.75
  16 -25  -4   65.15   10.36
 -25   9  -4   80.59   11.16
   9  16  -4   84.05   10.79
 -25   9  -4   74.32    9.93
   9  16  -4   84.97   10.55
 -25   9  -4   74.29    9.72
  16 -25  -4   61.49    9.14
   9  16  -1  101.45   11.53
  16 -25  -1  108.33   10.42
 -25   9  -1  103.67   10.24
 -25   9  -1  118.28   11.92
   9  16  -1   84.39    8.72
 -25   9  -1  106.04   11.59
  16 -25  -1   95.33   10.82
  16 -25   2  225.21   17.05
 -25   9   2  261.29   11.84
 -25   9   2  291.80   18.47
   9  16   2  257.93    8.58
 -25   9   2  244.82   11.34
   9  16   2  243.20    8.21
  16 -25   2  247.86   11.31
  16 -25   2  236.17   11.59
 -25   9   2  242.04   18.18
  16 -25   5    0.85    3.83
  16 -24  -8  108.79   13.72
 -24   8  -8   84.14   11.82
   8  16  -8  109.48   15.27
 -24   8  -8  109.94   11.84
  16 -24  -8  107.00   15.18
   8  16  -8  117.76   12.73
 -24   8  -8  101.77   15.15
  16 -24  -8  119.24   12.24
 -24   8  -5   28.16    8.42
 -24   8  -5   31.59    7.67
   8  16  -5   44.22    9.39
   8  16  -5   29.18    7.17
 -24   8  -5   41.90    7.82
  16 -24  -5   22.68    6.20
 -24   8  -2   48.26    8.48
   8  16  -2   41.11    8.18
 -24   8  -2   57.75    8.75
  16 -24  -2   50.29    7.64
   8  16   1   33.45    7.44
 -24   8   1   14.94    6.39
  16 -24   1   33.47    7.86
  16 -24   1   24.24    5.41
  16 -24   1   36.52    5.52
 -24   8   1   27.54    6.71
   8  16   1   33.67    4.51
 -24   8   1   26.20    5.64
   8  16   1   35.38    4.61
 -24   8   4  146.73    4.60
 -24   8   4  141.05    4.37
  16 -24   7    6.74    4.41
  16 -23  -9   -4.46    9.15
  16 -23  -9   26.31    8.72
 -23   7  -9   29.67   11.67
   7  16  -9   18.62   10.45
 -23   7  -9   20.74    7.54
 -23   7  -9    9.38    6.65
  16 -23  -9   25.77    7.45
   7  16  -9   10.22    7.20
 -23   7  -6  476.83   26.69
 -23   7  -6  516.04   23.11
 -23   7  -6  550.49   22.74
   7  16  -6  495.82   22.82
  16 -23  -6  476.29   21.52
 -23   7  -3   11.97    4.67
 -23   7  -3   18.27    5.94
   7  16  -3   18.67    6.27
  16 -23  -3   11.82    5.34
   7  16   0  867.91   22.51
   7  16   0 1030.60   33.09
 -23   7   0  964.08   30.81
 -23   7   0 1027.77   32.28
  16 -23   0  868.68   29.15
 -23   7   3   22.93    8.01
  16 -23   3    4.07    6.00
  16 -23   3   16.98    3.30
 -23   7   3   18.01    6.10
  16 -23   3   15.74    3.27
 -23   7   3   13.83    3.14
  16 -23   6  521.27   18.98
  16 -22 -10  228.25   21.89
  16 -22 -10  202.39   17.32
 -22   6 -10  232.13   22.91
 -22   6 -10  228.00   16.77
   6  16 -10  203.89   16.83
   6  16 -10  268.68   24.23
  16 -22 -10  228.66   17.74
 -22   6  -7   70.79   12.42
 -22   6  -7   34.69    7.48
 -22   6  -7   61.86    8.67
  16 -22  -7   48.89    8.93
  16 -22  -7   33.05    7.80
   6  16  -7   51.04    8.55
 -22   6  -4  374.50   19.43
  16 -22  -4  374.74   14.64
 -22   6  -4  381.74   18.63
  16 -22  -4  373.94   18.27
   6  16  -4  421.23   20.28
 -22   6  -1   13.21    6.42
   6  16  -1    4.86    5.13
 -22   6  -1   13.43    6.26
  16 -22  -1    5.34    4.85
  16 -22   2  769.88   28.55
 -22   6   2  677.88   17.86
 -22   6   2  705.03   26.13
   6  16   2  769.44   29.43
  16 -22   2  766.54   18.90
   6  16   2  719.50   14.42
 -22   6   2  739.23   28.37
 -21   5  -8  103.57   14.98
 -21   5  -8  132.21   11.89
   5  16  -8  114.19   11.95
   5  16  -8  132.57   15.82
 -21   5  -8  103.93   11.31
  16 -21  -8   96.74   11.14
  16 -21  -8  127.50   13.09
   5  16  -5   10.09    5.00
 -21   5  -5   11.74    5.51
 -21   5  -5   10.17    5.57
  16 -21  -5    1.26    4.55
  16 -21  -5    4.70    3.40
   5  16  -2  557.85   22.54
 -21   5  -2  607.63   23.49
  16 -21  -2  478.39   17.07
 -21   5  -2  549.58   21.93
  16 -21  -2  524.68   20.92
   5  16   1   55.34    8.94
 -21   5   1   57.87    8.65
 -21   5   1   57.81    6.61
 -21   5   1   59.05    8.64
  16 -21   1   45.40    6.36
   5  16   1   47.53    5.10
  16 -21   1   55.28    8.35
  16 -21   4   84.61    4.19
  16 -21   4   82.37    3.92
 -21   5   4   76.37    4.60
 -20   4  -9   14.10    5.89
   4  16  -9   18.28    9.73
 -20   4  -9   12.00    5.77
   4  16  -9    6.39    6.20
 -20   4  -9   22.51   10.67
  16 -20  -9    9.43    6.82
  16 -20  -9    4.70    5.32
 -20   4  -6  590.47   23.25
   4  16  -6  574.87   23.48
 -20   4  -6  628.33   23.59
  16 -20  -6  536.61   22.15
   4  16  -3   45.45    5.97
 -20   4  -3   65.03    8.56
  16 -20  -3   61.73    6.14
 -20   4  -3   56.49    6.07
 -20   4  -3   72.36    8.70
  16 -20  -3   41.23    6.96
   4  16  -3   58.05    8.70
 -20   4   0  298.88   16.43
   4  16   0  294.25   16.78
 -20   4   0  288.59   16.25
  16 -20   0  298.54   16.32
   4  16   0  301.43   12.85
 -20   4   3    9.46    6.08
  16 -20   3    3.90    5.19
 -20   4   3   11.37    4.94
  16 -20   3    5.10    2.29
   4  16   3    5.81    1.76
 -20   4   3    5.28    2.75
  16 -19 -10  726.41   36.30
  16 -19 -10  720.37   29.68
   3  16 -10  706.71   36.12
 -19   3 -10  643.85   35.18
   3  16 -10  649.40   28.35
 -19   3 -10  649.81   27.11
  16 -19 -10  632.02   27.90
 -19   3  -7    6.88    4.75
 -19   3  -7   11.61    5.80
   3  16  -7    9.92    5.88
  16 -19  -7   14.27    5.76
   3  16  -4 1007.12   22.40
 -19   3  -4 1060.48   30.04
  16 -19  -4 1040.83   20.39
 -19   3  -4 1100.70   29.85
   3  16  -4 1085.96   30.43
 -19   3  -4 1008.03   21.01
  16 -19  -4 1097.19   29.57
  16 -19  -1   26.02    4.94
 -19   3  -1   17.16    4.10
 -19   3  -1   29.49    6.44
 -19   3  -1   38.41    6.66
   3  16  -1   26.47    5.71
  16 -19  -1   24.69    5.84
 -19   3   2 1843.88   28.66
 -19   3   2 1791.24   38.17
   3  16   2 1840.01   41.79
  16 -19   2 1783.42   27.56
   3  16   2 1758.90   23.19
 -19   3   2 1879.19   41.69
  16 -19   2 1802.23   40.25
 -19   3   5   15.48    2.54
 -19   3   5   17.14    5.37
  16 -18 -11   45.61   12.85
 -18   2 -11   32.46   12.80
   2  16 -11   54.43   13.29
 -18   2 -11   31.67    8.82
   2  16 -11   21.58    8.09
  16 -18 -11   28.13    8.95
  16 -18 -11   29.53    7.82
 -18   2  -8  149.96   16.48
 -18   2  -8  146.72   11.87
   2  16  -8  168.96   13.89
 -18   2  -8  161.69   13.14
  16 -18  -8  170.27   13.71
   2  16  -5  138.11    7.93
 -18   2  -5  160.00   11.92
   2  16  -5  129.80   11.45
 -18   2  -5  160.25   11.96
  16 -18  -5  147.32    6.87
 -18   2  -5  136.54    7.41
   2  16  -5  134.25    9.36
  16 -18  -5  167.55   12.37
   2  16  -2  334.69   13.63
 -18   2  -2  370.44   17.49
  16 -18  -2  350.06   13.04
 -18   2  -2  325.26   12.28
 -18   2  -2  352.15   16.64
   2  16  -2  312.11   15.84
  16 -18  -2  353.12   16.33
 -18   2   1  117.37    8.44
   2  16   1  114.72   10.80
 -18   2   1  123.68   10.95
  16 -18   1  130.20    8.64
 -18   2   1  140.59   10.96
   2  16   1  125.55    7.42
  16 -18   1  117.88   10.45
 -18   2   4   72.73    9.76
  16 -18   4   92.48   11.04
 -18   2   4   86.11    9.29
   2  16   4   88.46    4.53
  16 -18   4   83.14    4.77
 -18   2   4   92.26    5.85
 -17   1  -9   14.71    7.29
 -17   1  -9   19.03    5.96
   1  16  -9   18.24    6.84
 -17   1  -9   10.86    6.02
  16 -17  -9   13.66    5.78
 -17   1  -6   19.53    5.56
  16 -17  -6   16.95    2.24
   1  16  -6   32.84    6.81
 -17   1  -6   40.02    6.64
 -17   1  -6   16.68    3.21
  16 -17  -6   38.88    7.26
   1  16  -6   22.81    3.41
   1  16  -3  212.22    9.94
 -17   1  -3  201.40   13.01
  16 -17  -3  209.57    8.88
   1  16  -3  233.62   13.92
 -17   1  -3  203.37   12.90
 -17   1  -3  212.80    8.94
  16 -17  -3  197.41   12.30
  16 -17   0  141.44    9.56
 -17   1   0  139.13    9.86
 -17   1   0  123.06   10.13
   1  16   0  124.83   10.75
 -17   1   0  130.98    8.95
 -17   1   0  115.40   10.05
  16 -17   0  132.01   10.03
  16 -17   0  142.03    9.69
   1  16   0  131.61    8.57
  16 -17   3  321.23   17.34
 -17   1   3  326.51   15.91
   1  16   3  344.12   18.31
  16 -17   3  346.54   10.99
   1  16   3  301.64    9.43
 -17   1   3  303.61   10.99
 -17   1   3  329.02   17.40
 -17   1   6   89.69    9.16
 -17   1   6   76.56    5.48
  16 -17   6   87.61    7.65
   0  16 -10  592.05   27.52
  16 -16 -10  660.21   26.55
 -16   0 -10  606.98   33.38
 -16   0 -10  638.40   24.02
 -16   0 -10  598.79   26.23
  16 -16 -10  670.18   28.63
 -16   0  -7   16.34    5.98
   0  16  -7   14.35    5.64
 -16   0  -7    8.06    5.03
  16 -16  -7   11.66    5.65
   0  16  -4 1691.14   36.37
  16 -16  -4 1655.10   19.84
   0  16  -4 1708.49   24.04
 -16   0  -4 1668.73   35.59
 -16   0  -4 1666.90   35.40
 -16   0  -4 1645.21   21.25
  16 -16  -4 1662.13   35.21
   0  16  -1    9.15    4.00
   0  16  -1    8.86    3.76
   0  16  -1    8.49    4.93
 -16   0  -1    3.31    4.03
  16 -16  -1    8.64    3.38
 -16   0  -1    9.24    3.00
 -16   0  -1    8.90    4.64
  16 -16  -1   13.74    4.41
 -16   0   2 2978.29   45.99
   0  16   2 3080.06   49.71
  16 -16   2 3000.15   35.28
   0  16   2 3107.90   32.28
 -16   0   2 3062.99   49.44
 -16   0   2 3058.36   37.00
  16 -16   2 3100.45   48.87
   0  16   5   11.41    2.71
  16 -16   5    7.58    2.13
  16 -16   5    6.61    3.82
 -16   0   5    5.37    3.76
 -16   0   5    8.27    3.05
  16 -15 -11    0.99    5.15
 -15  -1 -11   -8.52    9.94
 -15  -1 -11    6.13    6.56
  16 -15 -11    2.54    6.80
  -1  16 -11   -4.79    6.71
  -1  16  -8   -8.46    6.63
 -15  -1  -8   -1.88    4.60
 -15  -1  -8   -0.01    4.60
 -15  -1  -8    3.97    2.80
  16 -15  -8    2.68    5.64
  -1  16  -5    1.35    1.64
  -1  16  -5    1.43    4.31
 -15  -1  -5   -2.31    3.84
 -15  -1  -5    4.24    3.99
 -15  -1  -5    2.90    1.58
  16 -15  -5   -1.70    4.45
  -1  16  -2    7.06    2.96
  16 -15  -2    6.25    2.56
 -15  -1  -2   10.28    2.72
 -15  -1  -2    5.04    3.50
  16 -15  -2    5.23    3.76
  -1  16  -2    4.94    3.86
 -15  -1  -2    5.80    4.02
  16 -15   1   83.47    7.87
 -15  -1   1   66.82    7.57
  -1  16   1   70.90    8.09
 -15  -1   1   79.19    6.97
 -15  -1   1   66.58    6.83
 -15  -1   1   91.83    8.78
  16 -15   1   76.50    6.56
  -1  16   1   91.09    6.41
  16 -15   1   83.38    8.45
  16 -15   4   53.08    7.87
  16 -15   4   43.86    4.24
  -1  16   4   43.51    4.13
 -15  -1   4   49.93    7.03
 -15  -1   4   40.32    4.61
 -15  -1   4   44.64    7.40
 -15  -1   7   76.73    6.86
  16 -15   7   79.25    6.76
 -14  -2  -9   78.50    9.30
 -14  -2  -9   67.67    9.89
  -2  16  -9   78.99   10.85
  -2  16  -6  140.07   11.82
 -14  -2  -6  154.15   11.40
 -14  -2  -6  161.17   12.07
 -14  -2  -6  128.42    4.88
  16 -14  -6  161.05   12.68
  -2  16  -3   54.63    4.58
  16 -14  -3   56.32    3.77
  -2  16  -3   41.96    6.53
 -14  -2  -3   61.48    7.40
 -14  -2  -3   62.87    7.55
 -14  -2  -3   64.01    4.02
  16 -14  -3   54.89    7.35
  -2  16   0  259.25   12.05
  16 -14   0  244.01   11.51
 -14  -2   0  258.83   11.17
 -14  -2   0  257.50   13.45
 -14  -2   0  245.99   12.98
 -14  -2   0  231.75   12.13
  16 -14   0  228.45   11.80
  16 -14   0  247.99   13.10
  -2  16   0  257.58   11.39
  -2  16   0  263.96   13.44
 -14  -2   3  145.75   10.32
  16 -14   3  159.77    8.02
 -14  -2   3  162.49    8.57
  -2  16   3  125.37   10.76
  -2  16   3  165.79    7.84
 -14  -2   3  176.42   12.17
  16 -14   3  183.30   12.17
  16 -14   6  135.92    7.04
  16 -14   6  125.21    8.62
 -14  -2   6  138.01    8.60
 -14  -2   6  155.57   10.43
  -2  16   6  121.65    7.79
 -13  -3 -10  620.39   32.41
 -13  -3 -10  636.48   23.62
 -13  -3 -10  638.27   27.37
  16 -13 -10  661.77   29.09
  -3  16 -10  604.70   28.17
  16 -13  -7    7.28    5.66
  -3  16  -7    8.61    5.84
 -13  -3  -7    3.88    4.69
 -13  -3  -7    6.39    1.66
 -13  -3  -7    3.57    1.40
 -13  -3  -7    8.94    4.66
  -3  16  -4 2370.13   21.10
 -13  -3  -4 2430.47   41.61
 -13  -3  -4 2411.87   41.42
  16 -13  -4 2458.28   41.81
  -3  16  -4 2480.04   43.10
  16 -13  -1   63.66    5.44
 -13  -3  -1   62.02    7.06
 -13  -3  -1   69.45    5.31
  -3  16  -1   74.63    7.72
 -13  -3  -1   71.39    7.38
  -3  16  -1   70.48    6.01
  16 -13  -1   66.37    7.35
  -3  16  -1   57.67    6.62
 -13  -3   2 1661.11   27.66
  16 -13   2 1587.03   26.19
 -13  -3   2 1601.74   33.30
  -3  16   2 1656.69   25.10
  16 -13   2 1655.19   33.43
 -13  -3   5  140.28   11.74
  16 -13   5  156.50    7.84
  16 -13   5  125.19    8.73
 -13  -3   5  140.15    9.83
  -3  16   5  156.75    8.50
 -13  -3   5  152.47    8.94
  -4  16 -11    1.28    7.76
 -12  -4 -11   11.41    9.15
 -12  -4 -11   17.52    8.55
  16 -12 -11    3.59    6.82
 -12  -4  -8  100.54   11.16
 -12  -4  -8   77.19    4.25
  16 -12  -8   71.06    9.36
  -4  16  -8   80.26   10.46
 -12  -4  -8   94.95    9.66
  -4  16  -5   28.52    6.42
 -12  -4  -5   21.70    5.56
  16 -12  -5   28.32    5.86
 -12  -4  -5   19.56    5.33
  -4  16  -2  351.37   15.38
 -12  -4  -2  348.09   15.51
 -12  -4  -2  326.86   14.70
  16 -12  -2  325.01   14.55
 -12  -4   1   21.84    4.28
  -4  16   1   23.31    5.26
  16 -12   1   32.30    4.69
 -12  -4   1   26.33    4.35
 -12  -4   1   28.77    5.25
  -4  16   1   26.43    4.24
  16 -12   1   26.96    5.29
  16 -12   4  106.47    9.76
  16 -12   4  105.18    8.17
 -12  -4   4  154.33    9.88
  16 -12   4  132.04    7.63
  -4  16   4  138.70    8.05
  -4  16   4  109.55    9.83
 -12  -4   4  116.51    7.80
 -12  -4   4  129.83   10.32
  16 -12   7  198.12    9.95
  16 -12   7  174.16    9.71
 -12  -4   7  195.46   11.84
  -4  16   7  199.45   11.57
 -12  -4   7  211.10   11.24
 -11  -5  -9   87.22    9.44
 -11  -5  -9   75.53    9.98
  16 -11  -9   63.72   10.04
  -5  16  -9   63.57   10.12
 -11  -5  -6  450.54   18.61
 -11  -5  -6  492.33   20.69
  16 -11  -6  479.67   20.49
  -5  16  -6  516.72   21.83
 -11  -5  -3   -1.67    3.98
 -11  -5  -3    2.59    3.20
  16 -11  -3    7.94    4.20
 -11  -5   0  627.38   18.93
 -11  -5   0  632.37   19.78
 -11  -5   0  604.08   19.26
  -5  16   0  630.75   19.20
  16 -11   0  630.93   18.78
  16 -11   0  595.86   18.58
  -5  16   0  644.02   17.99
 -11  -5   3  150.02    8.99
  -5  16   3  123.12    9.54
 -11  -5   3  141.35    9.40
  16 -11   3  128.86    9.02
  16 -11   3  133.10    7.78
  -5  16   3  139.55    8.13
 -11  -5   3  162.52   10.93
  16 -11   3  135.86   10.11
  16 -11   6  157.82    8.97
  16 -11   6  136.24    8.95
 -11  -5   6  144.57    9.30
 -11  -5   6  151.45   10.05
  -5  16   6  126.04    9.11
 -10  -6 -10  734.19   25.54
 -10  -6 -10  744.03   30.41
  16 -10 -10  723.11   30.62
  -6  16 -10  714.86   30.68
  -6  16  -7   31.87    7.25
 -10  -6  -7   29.74    6.30
 -10  -6  -7   11.44    5.88
  16 -10  -7   24.91    6.44
 -10  -6  -4 1717.08   34.46
 -10  -6  -4 1639.85   34.37
  16 -10  -4 1672.11   34.31
  -6  16  -4 1764.34   36.20
 -10  -6  -1  421.48   16.53
 -10  -6  -1  439.96   16.22
  16 -10  -1  453.31   16.24
  -6  16  -1  428.41   15.58
  -6  16   2 2467.86   37.38
 -10  -6   2 2437.50   37.00
 -10  -6   2 2317.02   33.80
  16 -10   2 2409.86   33.20
 -10  -6   2 2420.25   37.82
  -6  16   2 2401.60   32.31
  16 -10   2 2416.10   37.41
 -10  -6   5   23.58    5.32
  16 -10   5   19.68    4.38
  16 -10   5   27.12    4.57
 -10  -6   5   30.01    4.87
  -6  16   5   13.07    3.54
 -10  -6   5   27.57    5.18
  -9  -7 -11   14.65    7.18
  16  -9 -11   36.21    9.80
  -7  16 -11   33.56   10.03
  -9  -7  -8  214.34   13.77
  -9  -7  -8  184.88   14.45
  16  -9  -8  179.84   14.28
  -7  16  -8  213.42   16.27
  -9  -7  -5  151.05   10.90
  -9  -7  -5  143.78   11.27
  16  -9  -5  147.36   11.40
  -7  16  -5  127.71   10.74
  -7  16  -2  861.34   23.14
  -9  -7  -2  818.39   22.71
  -9  -7  -2  847.83   22.79
  16  -9  -2  890.73   22.87
  -9  -7   1  427.35   16.01
  -9  -7   1  448.85   15.92
  16  -9   1  454.63   15.10
  -9  -7   1  428.58   15.07
  -7  16   1  442.07   15.38
  -7  16   1  437.11   14.35
  16  -9   1  480.36   16.21
  16  -9   4 1229.82   28.59
  16  -9   4 1149.77   25.59
  -9  -7   4 1276.73   25.74
  16  -9   4 1242.65   24.37
  -7  16   4 1290.31   28.95
  -7  16   4 1195.82   24.87
  -9  -7   4 1170.59   25.41
  -9  -7   4 1251.94   28.67
  -9  -7   7   13.39    3.58
  16  -9   7   12.35    4.08
  -8  -8  -9   51.39    9.31
  16  -8  -9   56.73    9.86
  -8  -8  -9   38.20    6.76
  -8  -8  -6  419.64   18.06
  -8  -8  -6  388.98   18.97
  16  -8  -6  400.66   19.23
  -8  16  -6  438.08   20.37
  -8  -8  -3   44.64    6.34
  -8  -8  -3   32.15    5.47
  16  -8  -3   31.53    5.58
  -8  16  -3   36.57    6.28
  -8  -8   0   17.09    4.61
  -8  -8   0   19.59    4.58
  -8  -8   0   14.69    4.06
  -8  16   0    7.96    3.70
  16  -8   0   13.11    4.02
  16  -8   0   16.26    4.34
  -8  16   0   18.45    3.92
  16  -8   3   19.79    4.50
  -8  16   3   23.06    4.50
  -8  -8   3   12.83    3.93
  -8  -8   3   14.90    4.07
  16  -8   3   15.56    3.72
  -8  16   3   21.34    4.22
  -8  -8   3   22.18    4.40
  -8  -8   6  460.40   14.65
  -7  -9 -10  203.36   16.93
  16  -7 -10  153.38   15.79
  -9  16 -10  180.81   16.98
  -7  -9 -10  213.38   14.55
  -7  -9  -7   29.99    7.49
  -7  -9  -7   31.62    5.97
  16  -7  -7   39.32    7.55
  -9  16  -7   30.02    7.76
  -7  -9  -4 1191.40   28.98
  -7  -9  -4 1179.50   29.58
  16  -7  -4 1237.01   29.60
  -9  16  -4 1226.08   30.60
  -9  16  -1  589.28   18.06
  -7  -9  -1  574.73   19.05
  -7  -9  -1  607.35   18.52
  -7  -9   2  654.47   19.03
  -7  -9   2  687.94   19.46
  -7  -9   2  714.50   18.86
  16  -7   2  688.34   18.93
  -9  16   2  733.08   19.20
  16  -7   2  710.10   18.82
  -9  16   2  704.23   18.48
  -7  -9   5  161.41    8.90
  -7  -9   5  151.63    9.96
  -6 -10 -11   26.86    7.01
  -6 -10 -11   35.16    9.54
  16  -6 -11   42.59   10.53
 -10  16 -11   43.02   10.69
  -6 -10  -8  904.74   27.88
  -6 -10  -8  934.24   32.14
  16  -6  -8  926.52   32.50
 -10  16  -8  913.89   33.01
  -6 -10  -5    8.22    4.71
  -6 -10  -5    5.07    4.23
  16  -6  -5   15.25    5.10
 -10  16  -5   21.57    6.02
  -6 -10  -2 2379.24   39.16
  -6 -10  -2 2381.00   38.01
  16  -6  -2 2374.46   36.73
 -10  16  -2 2429.32   38.58
 -10  16   1  517.90   15.43
  -6 -10   1  441.06   14.82
  16  -6   1  476.12   16.22
  -6 -10   1  507.95   16.95
 -10  16   1  456.79   15.38
  16  -6   1  511.71   15.37
 -10  16   4 1797.37   30.66
  16  -6   4 1785.36   31.54
  -6 -10   4 1859.61   30.04
  -6 -10   4 1775.73   31.22
  -6 -10   7    8.60    2.87
 -11  16  -9   55.29    9.92
  -5 -11  -9   72.38   11.34
  16  -5  -9   55.22    9.81
  -5 -11  -9   48.40    7.79
  -5 -11  -6  110.97   11.32
  16  -5  -6   79.26    9.71
 -11  16  -6   90.45   10.24
  -5 -11  -6   95.11    9.41
  -5 -11  -3  116.99    9.52
  16  -5  -3  136.91    9.77
 -11  16  -3  121.28    9.80
  -5 -11  -3  114.48    9.61
 -11  16   0  834.58   20.19
  -5 -11   0  862.27   21.10
  -5 -11   0  831.35   22.33
  16  -5   0  800.07   19.43
  -5 -11   3   31.82    4.76
 -11  16   3   34.40    4.66
  -5 -11   3   21.40    4.02
  16  -5   3   36.23    5.26
  -5 -11   6  497.35   14.34
  -4 -12 -10   36.44    7.59
  -4 -12 -10   52.49   10.19
  16  -4 -10   52.89   10.38
 -12  16 -10   70.56   12.04
  -4 -12  -7  215.66   16.07
 -12  16  -7  187.02   14.93
  16  -4  -7  260.09   16.77
  -4 -12  -7  202.09   13.74
  -4 -12  -4  123.47   10.45
  16  -4  -4  108.57    9.46
 -12  16  -4  108.87    9.99
  -4 -12  -4  124.60   10.01
 -12  16  -1    2.12    3.02
  -4 -12  -1    3.30    3.34
  -4 -12  -1   -1.05    3.85
  16  -4  -1    3.51    2.93
  -4 -12   2  326.74   12.20
  -4 -12   2  338.56   13.75
 -12  16   2  320.43   11.49
  16  -4   2  326.94   11.94
  -4 -12   5   42.41    4.93
  -4 -12   5   32.24    5.05
  -4 -12   8   97.82    4.94
  -3 -13 -11   11.98    6.64
  -3 -13 -11   13.36    7.85
  16  -3 -11   14.91    9.62
 -13  16 -11   11.02    8.04
  -3 -13  -8 1537.57   42.53
  16  -3  -8 1431.09   41.14
 -13  16  -8 1464.11   42.50
  -3 -13  -8 1537.30   37.56
  -3 -13  -8 1385.66   17.97
  -3 -13  -5   86.08    9.02
  -3 -13  -5   92.18   10.01
 -13  16  -5   96.32   10.25
  16  -3  -5   96.49    9.89
  -3 -13  -2 1829.30   35.28
  16  -3  -2 1808.18   32.36
  -3 -13  -2 1827.88   33.78
  -3 -13   1   49.62    6.13
 -13  16   1   48.68    5.09
  -3 -13   1   43.15    4.91
  16  -3   1   43.97    4.88
  16  -3   4 2641.05   34.15
  -3 -13   4 2588.05   35.32
  -3 -13   4 2589.21   34.03
 -13  16   4 2612.55   31.65
  -3 -13   7   34.94    3.97
  -2 -14  -9   34.51    8.98
  16  -2  -9   28.45    8.53
 -14  16  -9   32.90    9.32
  -2 -14  -9   26.67    7.02
  -2 -14  -6   78.15    8.94
  -2 -14  -6   77.57    9.60
 -14  16  -6   88.74   10.72
  16  -2  -6  102.60   11.21
  16  -2  -6   93.48    5.33
  -2 -14  -6   86.40    4.30
  -2 -14  -3  199.42   12.57
  -2 -14  -3  183.16   12.19
 -14  16  -3  192.02   12.19
  16  -2  -3  220.71   12.51
  -2 -14   0  248.11   12.93
  -2 -14   0  291.84   12.44
  16  -2   0  274.45   11.39
 -14  16   0  284.60   11.68
 -14  16   3   66.10    5.07
  -2 -14   3   74.87    6.77
  -2 -14   3   74.13    5.85
  16  -2   3   62.36    5.44
  -2 -14   6  131.42    7.69
  -1 -15 -10   53.70   11.20
  16  -1 -10   50.04   10.63
 -15  16 -10   63.79   11.59
  -1 -15 -10   44.12    8.58
  -1 -15  -7   90.49   10.05
  -1 -15  -7  101.33   11.71
 -15  16  -7   81.47   11.12
  16  -1  -7  103.98   12.06
  16  -1  -7   86.95    5.80
  -1 -15  -7   92.38    5.33
  -1 -15  -4   18.81    2.90
  -1 -15  -4   26.31    6.22
  -1 -15  -4   18.84    5.67
  16  -1  -4   22.10    5.87
 -15  16  -4   22.11    5.56
  -1 -15  -1   60.95    7.42
  -1 -15  -1   76.03    6.99
  16  -1  -1   63.00    6.13
 -15  16  -1   72.70    6.87
  -1 -15   2   13.49    4.19
  -1 -15   2   17.69    3.60
 -15  16   2   10.95    2.88
  16  -1   2    7.21    2.46
  -1 -15   5    9.75    3.08
  -1 -15   5    7.67    2.90
   0 -16 -11    3.59    5.84
   0 -16 -11   13.23    8.82
  16   0 -11    7.73    8.77
 -16  16 -11    8.77    7.78
   0 -16  -8  565.88   24.22
  16   0  -8  588.08   15.43
 -16  16  -8  533.49   27.15
   0 -16  -8  584.51   14.35
   0 -16  -8  544.50   26.79
   0 -16  -5    9.81    2.39
   0 -16  -5    6.83    5.74
   0 -16  -5    4.72    3.98
  16   0  -5    4.81    3.07
 -16  16  -5    3.83    4.71
  16   0  -5    9.44    5.20
   0 -16  -2 3249.85   48.90
   0 -16  -2 3215.46   46.17
 -16  16  -2 3159.27   45.89
  16   0  -2 3193.46   43.62
   0 -16   1    8.24    4.18
 -16  16   1    5.50    2.69
   0 -16   1    3.34    2.67
  16   0   1    8.29    3.15
 -16  16   4 1511.75   19.81
  16   0   4 1505.34   22.42
   0 -16   4 1450.59   27.54
   0 -16   4 1489.20   22.95
   0 -16   7    9.76    2.63
   1 -17  -9   30.14    7.68
   1 -17  -9   38.62    9.47
  16   1  -9   46.62   10.81
 -17  16  -9   20.29    9.06
 -17  16  -6   45.93    4.43
   1 -17  -6   63.33    8.54
   1 -17  -6   73.85    9.99
  16   1  -6   54.42    8.87
 -17  16  -6   57.98    9.71
  16   1  -6   56.89    5.63
   1 -17  -6   65.30    5.31
   1 -17  -3  368.03   12.54
   1 -17  -3  349.04   17.15
   1 -17  -3  396.05   18.03
 -17  16  -3  375.83   17.55
  16   1  -3  382.59   16.66
   1 -17   0  174.77   11.62
  16   1   0  155.36    8.65
 -17  16   0  158.27    9.16
   1 -17   0  175.12    9.97
   1 -17   3  162.24    7.87
   1 -17   3  155.32    9.91
 -17  16   3  167.38    7.01
  16   1   3  166.12    7.20
   1 -17   6   14.58    3.61
   2 -18 -10   33.76   10.13
  16   2 -10   43.28   11.94
 -18  16 -10   30.54   10.81
   2 -18 -10   31.76    8.23
 -18  16  -7    3.75    2.60
  16   2  -7    5.79    5.56
   2 -18  -7    2.48    4.97
   2 -18  -7    7.94    7.09
  16   2  -7    6.40    3.81
 -18  16  -7    5.34    6.53
   2 -18  -7    2.76    2.69
   2 -18  -4   62.89    8.73
   2 -18  -4   48.72    7.95
 -18  16  -4   50.44    8.67
  16   2  -4   70.02    8.35
   2 -18  -4   55.25    5.28
  16   2  -4   61.07    6.55
   2 -18  -1   85.29    8.80
   2 -18  -1   88.15    8.06
 -18  16  -1   82.38    7.66
  16   2  -1   84.39    7.36
 -18  16   2  363.69   10.82
   2 -18   2  337.99   14.95
   2 -18   2  332.90   11.66
  16   2   2  348.41   10.63
   2 -18   5  150.02    6.09
   2 -18   5  165.74    9.47
   3 -19 -11   -1.45    8.16
  16   3 -11   15.07   10.49
 -19  16 -11   13.06    8.21
   3 -19 -11   10.16    7.47
   3 -19  -8  953.28   32.71
  16   3  -8 1011.68   24.32
 -19  16  -8 1046.30   38.87
  16   3  -8 1011.96   37.22
   3 -19  -8  981.92   22.00
 -19  16  -5    4.53    3.21
  16   3  -5    8.57    4.00
   3 -19  -5   10.44    5.08
   3 -19  -5    5.28    6.50
 -19  16  -5   13.98    6.74
  16   3  -5    3.46    4.75
   3 -19  -5    6.85    3.06
   3 -19  -2 1848.80   32.41
   3 -19  -2 1890.27   37.12
 -19  16  -2 1912.55   37.04
   3 -19  -2 1936.85   40.28
 -19  16   1    1.58    2.86
   3 -19   1    6.75    4.40
   3 -19   1    7.44    3.65
  16   3   1    3.77    2.33
   3 -19   4 1079.67   25.28
   3 -19   4 1057.83   17.08
   3 -19   7   25.59    4.02
   4 -20  -9   30.59    8.01
   4 -20  -9   42.63   10.85
  16   4  -9   38.24   10.33
 -20  16  -9   37.21   10.17
   4 -20  -6  266.18   17.00
 -20  16  -6  261.52   18.56
   4 -20  -6  267.49   18.49
  16   4  -6  220.94   16.44
  16   4  -6  274.52   13.63
   4 -20  -6  252.34   11.56
 -20  16  -6  257.63   11.95
   4 -20  -3    2.74    2.95
 -20  16  -3    2.88    4.09
   4 -20  -3    8.81    5.92
   4 -20  -3    1.47    4.16
 -20  16  -3    5.79    4.57
  16   4  -3   -2.26    4.43
  16   4  -3    2.61    4.05
   4 -20   0  304.03   15.79
 -20  16   0  271.06   12.39
  16   4   0  275.71   11.50
   4 -20   0  280.52   13.01
   4 -20   3   74.00    7.65
   4 -20   3   80.30    5.41
 -20  16   3   77.31    4.29
  16   4   3   89.22    4.60
   4 -20   6  597.00   17.63
   5 -21 -10   18.87    8.52
   5 -21 -10   48.36   10.06
 -21  16 -10   30.04   10.46
  16   5 -10   33.11   11.55
   5 -21  -7    3.61    7.24
   5 -21  -7   21.47    6.75
  16   5  -7    6.51    4.55
 -21  16  -7   11.07    7.83
  16   5  -7   14.06    7.18
   5 -21  -7    6.48    4.17
 -21  16  -7    7.58    4.00
   5 -21  -4  113.67   11.57
   5 -21  -4   89.07   10.39
 -21  16  -4  103.41   11.10
  16   5  -4   91.91    8.95
  16   5  -4   88.61    9.60
   5 -21  -4   92.84    7.93
 -21  16  -4  101.87    8.65
   5 -21  -1   30.57    6.57
   5 -21  -1   20.90    4.50
  16   5  -1   33.18    5.27
 -21  16  -1   30.53    5.76
   5 -21   2  458.85   18.65
   5 -21   2  488.85   14.19
  16   5   2  478.25   11.72
 -21  16   2  493.50   12.60
   5 -21   5   13.97    4.41
   6 -22  -8  646.43   28.48
 -22  16  -8  725.69   34.22
  16   6  -8  686.57   23.12
  16   6  -8  704.52   32.23
   6 -22  -8  684.24   20.99
 -22  16  -5   15.95    4.84
   6 -22  -5   15.42    7.49
 -22  16  -5   29.57    7.77
  16   6  -5   18.68    6.91
  16   6  -5    7.72    4.82
   6 -22  -5   15.06    5.05
   6 -22  -2  764.84   23.45
 -22  16  -2  747.37   24.41
   6 -22  -2  742.69   26.74
   6 -22  -2  720.28   24.25
 -22  16  -2  706.33   24.24
  16   6  -2  735.04   22.66
   6 -22   1   18.31    6.07
   6 -22   1   23.66    4.51
  16   6   1   21.37    3.62
 -22  16   1   24.13    4.16
   6 -22   4  369.92   16.29
   6 -22   4  331.51    8.31
   6 -22   7  106.10    7.67
   7 -23  -9   33.69   10.90
 -23  16  -9   48.65   12.16
  16   7  -9   49.72   11.73
   7 -23  -9   39.91    9.41
   7 -23  -6  435.08   24.12
   7 -23  -6  432.92   23.01
 -23  16  -6  502.57   26.58
  16   7  -6  497.98   24.89
  16   7  -6  473.06   19.93
 -23  16  -6  427.53   17.54
   7 -23  -6  442.31   17.47
 -23  16  -3   10.75    4.44
   7 -23  -3   10.34    4.56
   7 -23  -3    2.07    4.76
   7 -23  -3    7.32    5.29
 -23  16  -3   17.90    6.60
  16   7  -3    4.96    4.87
  16   7  -3    5.39    5.25
   7 -23   0  863.16   27.97
   7 -23   0  948.38   24.52
 -23  16   0  925.02   23.64
  16   7   0  815.16   20.13
 -23  16   3   23.13    2.38
   7 -23   3   28.10    5.74
   7 -23   3   23.32    3.42
   7 -23   6  499.30   17.61
   8 -24  -7    7.91    7.67
  16   8  -7   26.30    9.33
 -24  16  -7    9.98    7.71
   8 -24  -7   25.94    7.98
  16   8  -7   22.07    6.81
   8 -24  -7   26.60    5.83
 -24  16  -7   20.87    5.53
   8 -24  -4  294.51   18.88
   8 -24  -4  288.44   18.37
 -24  16  -4  277.31   18.05
  16   8  -4  298.03   16.89
  16   8  -4  284.39   17.36
 -24  16  -4  281.50   15.75
   8 -24  -4  293.45   15.10
   8 -24  -1   19.80    6.17
 -24  16  -1   29.00    6.44
  16   8  -1   32.38    5.38
   8 -24  -1   23.59    6.76
   8 -24  -1   23.83    5.96
   8 -24   2   46.50    7.44
   8 -24   2   63.70    5.75
  16   8   2   55.21    4.07
 -24  16   2   59.25    5.02
   8 -24   5   30.53    5.88
   9 -25  -8  131.00   14.53
   9 -25  -8  130.12   15.99
 -25  16  -8  123.38   16.33
  16   9  -8  113.19   11.56
  16   9  -8  153.24   17.00
   9 -25  -8  106.44   10.25
  16   9  -5   48.65    8.58
   9 -25  -5   62.08    9.89
   9 -25  -5   50.03    9.31
 -25  16  -5   53.73   10.39
  16   9  -5   69.22    9.97
 -25  16  -5   46.84    7.55
   9 -25  -5   57.65    7.44
 -25  16  -2  284.49   17.00
   9 -25  -2  263.77   15.72
   9 -25  -2  322.42   18.85
   9 -25  -2  304.66   17.03
 -25  16  -2  314.22   17.08
  16   9  -2  311.03   15.58
  16   9  -2  298.50   18.29
   9 -25   1  172.60   10.32
 -25  16   1  148.55    9.22
  16   9   1  155.89    7.97
   9 -25   4  133.12   10.83
   9 -25   4  105.62    3.81
   9 -25   7   14.88    4.70
  10 -26  -9    9.23    7.58
 -26  16  -9   -0.34    8.66
  16  10  -9   19.56   10.33
  10 -26  -9    6.29    9.62
  10 -26  -6  496.63   26.07
 -26  16  -6  455.38   26.19
  10 -26  -6  504.95   27.36
  16  10  -6  533.57   26.81
  16  10  -6  525.54   23.57
 -26  16  -6  523.91   21.84
  10 -26  -6  491.45   20.63
 -26  16  -3   17.89    6.39
  10 -26  -3   32.72    6.79
  10 -26  -3   40.18    8.12
  10 -26  -3   21.13    6.90
 -26  16  -3   28.34    7.56
  16  10  -3   28.82    7.21
  16  10  -3   25.24    6.26
  10 -26   0  604.43   24.99
 -26  16   0  614.82   20.52
  10 -26   0  635.99   21.64
  16  10   0  612.28   18.14
  10 -26   3  147.80   12.04
 -26  16   3  140.08    5.18
  10 -26   3  141.74    7.14
  10 -26   6  409.08   17.46
  11 -27  -7    5.72    7.97
  11 -27  -7   14.57    7.55
 -27  16  -7    5.73    7.86
  16  11  -7    1.06    6.77
  16  11  -7    7.30    5.96
  11 -27  -7    6.21    5.19
 -27  16  -7   -1.60    6.15
  11 -27  -4  127.06   13.85
  11 -27  -4  112.08   12.60
 -27  16  -4  115.78   12.78
  16  11  -4   95.54   11.33
  16  11  -4  101.59   11.42
 -27  16  -4  127.97   12.28
  11 -27  -4  110.15   10.96
 -27  16  -1   65.21    9.93
  11 -27  -1   62.48    9.69
  11 -27  -1   55.28    9.20
  11 -27  -1   79.60    9.24
 -27  16  -1   58.38    8.18
  16  11  -1   48.05    6.97
  11 -27   2   82.54    7.02
  11 -27   2   73.35    9.53
 -27  16   2   89.29    6.33
  16  11   2   82.45    4.58
  11 -27   5   13.00    5.60
  12 -28  -8   25.25    9.26
  12 -28  -8   20.47    9.73
 -28  16  -8   18.37   10.43
  16  12  -8   33.43   10.76
  16  12  -8   10.27    7.46
  12 -28  -5    6.91    5.74
 -28  16  -5   18.90    6.63
  12 -28  -5   11.45    7.21
  12 -28  -5   30.60    9.57
 -28  16  -5    8.45    7.40
  16  12  -5   22.48    7.37
  16  12  -5   14.33    7.68
 -28  16  -2    6.04    5.30
  12 -28  -2   15.97    6.50
  12 -28  -2    6.69    5.35
  12 -28  -2    7.34    5.90
 -28  16  -2   20.17    6.64
  16  12  -2    4.67    4.39
  16  12  -2    7.88    7.25
  12 -28   1   69.66    7.60
 -28  16   1   50.04    6.45
  16  12   1   57.10    5.32
  12 -28   1   72.08   10.04
  12 -28   4   26.14    6.41
 -29  16  -6  419.08   26.74
  13 -29  -6  402.08   25.16
  13 -29  -6  492.36   28.29
  16  13  -6  479.23   26.33
 -29  16  -6  456.11   22.58
  16  13  -6  480.37   24.40
  13 -29  -6  463.85   22.14
 -29  16  -3    3.83    6.41
  13 -29  -3    4.77    5.48
  13 -29  -3   15.47    6.94
 -29  16  -3    3.04    6.53
  16  13  -3   13.20    6.13
  16  13  -3   16.31    7.83
  13 -29  -3    3.45    5.72
  13 -29   0  556.76   26.80
  13 -29   0  642.37   27.48
  13 -29   0  575.26   21.56
  16  13   0  545.18   17.91
 -29  16   0  611.48   21.99
  13 -29   3   52.25    8.72
  13 -29   3   45.70    4.64
  13 -29   6  625.95   23.52
  16  14  -7   40.95   10.45
  14 -30  -7   61.83   11.97
  14 -30  -7   58.67   13.15
 -30  16  -7   45.48   12.15
  16  14  -7   55.27   11.48
  14 -30  -7   44.79    8.79
 -30  16  -7   48.47    9.26
  14 -30  -4   30.95    8.31
 -30  16  -4   15.28    7.26
  14 -30  -4   28.40    9.51
  14 -30  -4    1.39    6.65
  16  14  -4   15.66    7.22
 -30  16  -4   22.83    8.62
  16  14  -4   19.62    7.32
 -30  16  -1   12.40    6.99
  14 -30  -1   22.21    7.94
  14 -30  -1   30.72    9.12
  16  14  -1   10.90    4.90
 -30  16  -1   11.70    5.93
  14 -30  -1    7.02    5.40
  14 -30   2    2.08    3.24
  14 -30   2    0.95    5.37
 -30  16   2    2.24    3.10
  14 -30   5   -5.90    5.57
  15 -31  -5   55.14    9.67
 -31  16  -5   34.58    8.48
  16  15  -5   39.65    9.82
  15 -31  -5   37.99   10.67
  15 -31  -5   34.63   10.08
 -31  16  -5   38.65   10.62
  16  15  -5   44.62    9.84
  15 -31  -2   89.25   11.93
  15 -31  -2  127.98   14.51
  15 -31  -2   98.25   11.69
 -31  16  -2  125.82   13.42
  16  15  -2  101.07   13.72
  16  15  -2  118.84   11.25
 -31  16  -2   87.33   12.01
  15 -31   1    6.55    4.72
  15 -31   1   10.93    6.52
 -31  16   1    4.60    4.22
  15 -31   4   79.33   10.62
  16  16  -6  353.47   23.62
  16 -32  -6  431.35   27.52
 -32  16  -6  393.19   26.87
  16  16  -6  394.08   25.36
  16 -32  -6  389.12   26.39
 -32  16  -6  356.06   22.18
  16 -32  -6  388.60   22.55
 -32  16  -3   42.65   10.33
  16 -32  -3   33.29    9.20
  16 -32  -3   10.25    7.62
  16 -32  -3   24.58    8.55
 -32  16  -3   17.17    7.88
  16  16  -3   19.36    6.89
  16  16  -3   24.73    9.03
  16 -32   0  570.19   28.91
  16 -32   0  615.39   28.68
  16 -32   0  576.36   22.96
 -32  16   0  604.24   23.04
  16  16   0  592.59   19.25
  16 -32   3   -0.21    5.51
  16 -32   6  272.46   17.23
  17 -33  -4   29.14   10.10
  17 -33  -4   38.99    9.97
 -33  16  -4   35.43   10.02
  17 -33  -4   24.84    9.41
 -33  16  -4   40.19   10.65
  16  17  -4   46.27   11.13
  16  17  -4   26.58    8.47
 -33  16  -1   40.75   10.92
  17 -33  -1    8.08    6.71
  17 -33  -1   25.28    8.69
 -33  16  -1   16.22    7.18
  16  17  -1   23.72    6.17
  17 -33  -1   18.78    6.67
  17 -33   2   38.49    9.45
  17 -33   5   -7.24    6.22
 -32  15  -5   17.61    7.54
  17 -32  -5   30.53    8.84
  17 -32  -5   12.48    8.18
  17 -32  -5   23.00    8.72
 -32  15  -5   26.83   10.07
  15  17  -5   21.17    8.81
  15  17  -5   25.45    9.49
 -32  15  -2   60.07   11.12
  17 -32  -2   46.62   10.12
  15  17  -2   28.88    9.75
  17 -32  -2   24.73    7.79
 -32  15  -2   64.22   10.93
  17 -32  -2   57.63   10.82
  15  17  -2   71.73    9.46
  17 -32   1   12.85    7.62
  17 -32   1   11.35    4.87
 -32  15   1    9.13    4.75
  17 -32   4   23.35    7.00
  17 -31  -6  113.58   15.31
  17 -31  -6  102.73   14.79
 -31  14  -6   76.46   12.85
 -31  14  -6  113.76   13.78
  14  17  -6  122.12   15.01
  14  17  -6   92.52   13.74
 -31  14  -6  117.05   13.62
  17 -31  -6  111.00   13.12
 -31  14  -3  455.13   24.55
  17 -31  -3  401.05   23.36
  14  17  -3  479.30   26.56
 -31  14  -3  489.99   26.76
  14  17  -3  465.86   22.66
  17 -31  -3  449.33   26.02
 -31  14  -3  405.70   23.75
  17 -31  -3  482.87   24.82
 -31  14   0  185.63   17.62
  17 -31   0  206.18   17.68
  17 -31   0  201.97   17.44
  17 -31   0  200.40   14.16
  14  17   0  158.49   10.60
 -31  14   0  197.11   13.82
  17 -31   3  335.14   19.94
  17 -31   6   95.30   10.95
  17 -30  -7   20.12   10.03
  17 -30  -7   33.01   11.05
  13  17  -7   22.46    8.47
 -30  13  -7   20.02    8.15
 -30  13  -7   34.61   12.35
  13  17  -7   14.37   10.02
 -30  13  -7   27.97    8.48
  17 -30  -7   28.81    8.26
  17 -30  -4   24.81    8.28
  17 -30  -4    3.03    7.01
  17 -30  -4    4.10    7.13
  13  17  -4   14.21    7.55
 -30  13  -4   -2.53    7.25
 -30  13  -4    5.53    6.23
  13  17  -4    6.09    6.02
 -30  13  -4   12.44    7.55
 -30  13  -1    8.98    7.71
  17 -30  -1   17.84    7.80
  17 -30  -1    9.00    6.26
 -30  13  -1    7.27    5.56
 -30  13  -1    8.90    6.19
  13  17  -1    6.24    5.01
  17 -30  -1   10.12    5.77
  13  17  -1    8.57    8.82
  17 -30   2  -11.05    6.48
  17 -30   2   -2.49    3.51
 -30  13   2    6.57    3.86
  17 -30   5    9.21    5.57
  17 -29  -8   -2.81    9.55
 -29  12  -8    8.68    9.92
 -29  12  -8   -3.03    7.29
  12  17  -8   16.01   10.62
  17 -29  -8    2.42    7.04
 -29  12  -8    5.13    6.77
  12  17  -8    7.73    7.66
  17 -29  -8   12.83    7.09
  17 -29  -5   93.77   13.08
  17 -29  -5   83.79   13.42
 -29  12  -5   78.55   12.96
 -29  12  -5   81.41   11.32
  12  17  -5   68.79   10.89
  12  17  -5   81.39   12.23
 -29  12  -5   84.32   11.32
  17 -29  -5   91.82   11.43
  17 -29  -2  144.99   14.70
  17 -29  -2  139.62   13.36
  12  17  -2  120.28   13.75
 -29  12  -2  152.02   15.30
  12  17  -2  152.42   12.41
 -29  12  -2  144.07   14.02
 -29  12  -2  127.30   13.85
  17 -29  -2  141.80   13.73
 -29  12   1  116.08   14.68
  17 -29   1  123.66   13.98
  17 -29   1  111.37   12.38
 -29  12   1  106.50    9.37
  12  17   1  109.73    7.60
 -29  12   1   93.11   12.70
  17 -29   1   88.89    8.70
  17 -29   4   77.92    9.86
  17 -28  -6  151.56   16.27
  17 -28  -6  141.70   16.51
 -28  11  -6  160.59   17.49
 -28  11  -6  170.88   15.47
  11  17  -6  159.42   16.57
 -28  11  -6  159.22   14.54
  11  17  -6  140.52   14.44
  17 -28  -6  143.43   13.49
  17 -28  -3  225.57   17.49
  17 -28  -3  281.48   19.14
 -28  11  -3  283.49   19.19
 -28  11  -3  280.78   19.24
  11  17  -3  274.03   17.47
  11  17  -3  297.34   20.03
 -28  11  -3  299.62   19.02
  17 -28  -3  276.49   18.25
  17 -28   0  221.01   17.83
  17 -28   0  244.92   14.58
 -28  11   0  241.77   14.73
  11  17   0  227.23   18.44
 -28  11   0  231.63   17.62
  11  17   0  239.06   12.62
 -28  11   0  233.68   18.16
  17 -28   3  441.73   12.91
 -28  11   3  454.09   12.52
  17 -28   6   55.95    8.04
  10  17  -7  103.54   12.86
  17 -27  -7   82.04   12.54
  17 -27  -7   99.26   14.91
 -27  10  -7   87.52   14.33
 -27  10  -7   89.52   11.76
  10  17  -7   99.04   14.59
 -27  10  -7   93.66   11.41
  17 -27  -7  105.35   12.11
  17 -27  -4   32.38    8.26
  17 -27  -4   16.22    7.05
 -27  10  -4   31.18    8.69
  10  17  -4   32.05    7.61
 -27  10  -4   37.41    8.89
  10  17  -4   27.52    7.35
 -27  10  -4   27.74    7.47
  17 -27  -4   36.10    7.87
  17 -27  -1  154.69   12.55
 -27  10  -1  141.12   12.17
  10  17  -1  143.02   14.15
 -27  10  -1  150.73   14.20
  10  17  -1  162.92   11.48
 -27  10  -1  160.51   14.59
  17 -27  -1  142.03   13.68
 -27  10   2  100.15   12.98
  17 -27   2  134.33   14.24
  17 -27   2  106.17    8.18
 -27  10   2  103.99    8.20
 -27  10   2   96.11   11.94
  10  17   2   99.76    5.58
  17 -27   5   41.38    7.48
  17 -26  -8   17.07    8.01
  17 -26  -8   15.86    9.82
   9  17  -8   34.82    9.13
 -26   9  -8   13.34    7.30
   9  17  -8   30.01   10.80
 -26   9  -8   33.94    8.05
  17 -26  -8   23.06    7.26
 -26   9  -8   30.58   11.26
  17 -26  -5   96.80   13.06
 -26   9  -5  102.60   13.58
   9  17  -5  111.67   12.41
 -26   9  -5   88.13   11.02
   9  17  -5  105.95   12.92
 -26   9  -5  128.63   13.09
  17 -26  -5  100.84   11.44
  17 -26  -5  109.73   13.35
 -26   9  -2  164.76   13.77
   9  17  -2  133.56   11.45
 -26   9  -2  153.35   13.91
   9  17  -2  171.26   15.24
 -26   9  -2  165.07   14.28
  17 -26  -2  125.28   12.14
   9  17   1   21.25    4.52
 -26   9   1   39.94    8.69
  17 -26   1   38.18    8.72
 -26   9   1   16.40    4.83
 -26   9   1   27.10    7.76
   9  17   1   31.99    9.12
   9  17   1   23.98    4.33
  17 -26   1   17.73    4.93
  17 -26   7   54.73    7.01
  17 -25  -9  331.66   22.53
 -25   8  -9  347.06   27.38
   8  17  -9  318.44   25.28
  17 -25  -9  338.57   26.28
 -25   8  -9  319.31   19.73
   8  17  -9  301.97   20.60
  17 -25  -9  317.57   19.96
  17 -25  -6   99.94   12.49
  17 -25  -6   61.45   11.65
 -25   8  -6   60.23    9.71
   8  17  -6   58.30   11.11
 -25   8  -6   75.55   10.17
 -25   8  -6   89.65   13.46
  17 -25  -6   90.69   10.80
   8  17  -6   84.20   11.10
 -25   8  -3  261.54   17.34
 -25   8  -3  245.97   16.60
  17 -25  -3  256.45   16.41
 -25   8  -3  257.09   17.80
   8  17  -3  252.94   17.16
   8  17   0  204.46   11.84
   8  17   0  248.06   17.63
 -25   8   0  235.80   16.76
 -25   8   0  227.43   16.66
  17 -25   0  222.53   16.02
 -25   8   3  400.05   23.80
  17 -25   3  373.87   22.76
 -25   8   3  397.96   12.75
  17 -25   3  410.75   12.47
 -25   8   3  427.91   22.07
 -25   8   3  367.30   11.57
  17 -25   3  345.67   11.49
  17 -25   6   97.74    9.27
  17 -24  -7  158.55   16.92
  17 -24  -7  143.05   14.96
 -24   7  -7  146.70   16.83
 -24   7  -7  159.71   13.77
   7  17  -7  152.92   16.93
 -24   7  -7  170.75   14.05
   7  17  -7  150.69   14.20
  17 -24  -7  135.09   12.79
   7  17  -4   97.07   11.37
 -24   7  -4   69.67    9.73
 -24   7  -4   82.43   10.03
  17 -24  -4   79.11    9.85
 -24   7  -1  314.29   18.50
   7  17  -1  326.09   19.37
 -24   7  -1  289.41   17.87
  17 -24  -1  350.71   18.71
  17 -24   2  169.71   14.79
 -24   7   2  133.05    8.83
 -24   7   2  142.54   12.86
   7  17   2  157.84    7.43
   7  17   2  128.59   13.75
   7  17   2  135.32    6.69
  17 -24   2  152.53    9.39
 -24   7   2  164.93   14.94
  17 -23  -8   39.49    9.63
 -23   6  -8    9.02    9.11
  17 -23  -8   28.68   10.54
 -23   6  -8   24.61    6.90
   6  17  -8   29.25   10.14
 -23   6  -8   25.47    7.50
  17 -23  -8   24.12    7.28
   6  17  -8   22.51    7.35
   6  17  -5   30.43    6.84
 -23   6  -5   31.28    7.40
 -23   6  -5   35.04    7.28
  17 -23  -5   32.46    7.08
   6  17  -2   13.39    5.49
 -23   6  -2   12.64    5.76
 -23   6  -2   16.22    6.68
  17 -23  -2    1.85    4.20
 -23   6   1    7.42    6.62
  17 -23   1    4.74    4.56
  17 -23   1    5.83    5.36
 -23   6   1    8.42    4.69
   6  17   1    2.48    5.29
 -23   6   1    7.71    5.33
   6  17   1    6.88    3.22
 -23   6   4   71.16    4.52
  17 -23   4   77.08    4.03
 -23   6   4   84.07   10.28
  17 -23   4   70.75    3.78
  17 -23   7   36.77    5.96
  17 -22  -9   77.77   13.57
  17 -22  -9   78.38   11.60
 -22   5  -9   71.49   14.71
 -22   5  -9   84.91   10.42
   5  17  -9   77.11   11.07
   5  17  -9   97.90   15.67
 -22   5  -9   76.92   10.32
  17 -22  -9   83.41   11.15
   5  17  -6    6.35    6.17
 -22   5  -6    5.40    5.07
 -22   5  -6    1.91    5.05
  17 -22  -6    4.28    5.37
   5  17  -3  269.40   16.48
 -22   5  -3  279.96   16.87
  17 -22  -3  255.94   12.54
 -22   5  -3  294.25   16.72
  17 -22  -3  262.64   15.64
 -22   5   0   45.98    8.00
 -22   5   0   40.77    7.56
   5  17   0   67.84    9.61
  17 -22   0   55.49    8.59
   5  17   0   56.85    6.77
  17 -22   3  203.24   15.89
 -22   5   3  192.65   14.22
 -22   5   3  179.01    8.60
  17 -22   3  175.66    8.13
   5  17   3  172.99    6.03
 -22   5   3  218.85   16.64
  17 -21 -10  146.50   18.14
  17 -21 -10  132.33   14.41
 -21   4 -10  178.79   20.12
   4  17 -10  155.16   15.30
   4  17 -10  118.95   17.15
 -21   4 -10  164.90   14.75
  17 -21 -10  160.01   15.08
 -21   4  -7  426.76   26.18
 -21   4  -7  444.80   21.11
   4  17  -7  394.36   20.95
 -21   4  -7  424.36   20.72
  17 -21  -7  436.49   21.31
   4  17  -4  210.51   11.59
 -21   4  -4  248.66   15.72
  17 -21  -4  228.57   10.86
 -21   4  -4  261.84   15.80
 -21   4  -4  228.29   11.34
   4  17  -4  274.42   16.56
  17 -21  -4  250.11   15.08
   4  17  -1  894.22   28.76
 -21   4  -1  833.86   27.56
 -21   4  -1  825.78   27.44
  17 -21  -1  811.37   26.80
 -21   4   2  354.99   18.34
 -21   4   2  337.69   13.27
  17 -21   2  350.62   13.34
   4  17   2  367.82   11.06
   4  17   2  356.10   19.98
 -21   4   2  407.26   20.86
  17 -21   2  399.51   20.50
 -21   4   5  463.12   21.23
 -21   4   5  368.96    8.98
   3  17  -8   69.95   10.06
 -20   3  -8   70.89   10.12
 -20   3  -8   74.33    9.43
  17 -20  -8   77.21   10.44
 -20   3  -8   68.38   12.67
   3  17  -5   30.49    4.91
 -20   3  -5   45.33    7.59
  17 -20  -5   29.30    4.11
 -20   3  -5   45.85    7.92
 -20   3  -5   25.01    4.20
  17 -20  -5   32.73    6.67
   3  17  -5   35.24    7.49
 -20   3  -2  106.60   10.45
  17 -20  -2  121.62    8.82
 -20   3  -2  113.52    8.19
 -20   3  -2   90.05    9.62
  17 -20  -2  101.20    9.76
   3  17  -2  122.19   11.14
 -20   3   1  100.60   10.14
 -20   3   1   89.41    8.09
 -20   3   1   93.54   10.54
  17 -20   1   77.97    7.32
   3  17   1   73.17    6.19
  17 -20   1   92.41    9.86
   3  17   1   80.68   10.15
 -20   3   4   83.24    5.59
 -20   3   4   91.81   11.54
 -20   3   4   83.31    9.63
  17 -20   4   83.71    4.80
   3  17   4   75.92    3.87
  17 -19  -9   13.53    5.75
 -19   2  -9   11.05    5.28
   2  17  -9   14.14    6.24
 -19   2  -9   19.46    6.72
  17 -19  -9   18.12    7.29
 -19   2  -9    9.49    7.90
 -19   2  -6   27.02    6.43
 -19   2  -6   20.06    5.77
   2  17  -6   24.67    6.98
  17 -19  -6   26.37    7.11
 -19   2  -3  478.73   20.65
  17 -19  -3  454.47   14.40
 -19   2  -3  472.68   14.60
 -19   2  -3  487.45   20.09
   2  17  -3  484.63   20.72
  17 -19  -3  543.80   20.92
   2  17  -3  477.16   16.00
   2  17   0    1.59    3.20
 -19   2   0   -1.41    3.74
 -19   2   0    4.51    4.53
   2  17   0    1.16    4.95
  17 -19   0   -0.01    4.15
  17 -19   3  251.94   16.23
 -19   2   3  217.11   13.80
 -19   2   3  247.79   10.25
  17 -19   3  217.04    9.29
   2  17   3  259.68   16.88
   2  17   3  240.20    8.34
 -19   2   3  245.70   16.34
 -19   2   6   91.22    5.30
 -19   2   6  114.24   10.61
  17 -18 -10  132.59   13.31
 -18   1 -10  122.71   16.98
   1  17 -10  124.34   13.88
 -18   1 -10   99.32   10.85
 -18   1 -10  118.37   12.80
  17 -18 -10  115.37   13.31
   1  17  -7 1205.14   35.05
 -18   1  -7 1186.03   32.85
 -18   1  -7 1194.20   33.58
  17 -18  -7 1241.79   34.53
   1  17  -4  383.92   18.51
 -18   1  -4  337.16   17.14
   1  17  -4  316.56   12.03
 -18   1  -4  370.37   11.54
  17 -18  -4  366.35   11.08
  17 -18  -4  353.43   17.42
 -18   1  -4  408.74   18.75
   1  17  -1  696.28   23.83
   1  17  -1  622.22   19.61
  17 -18  -1  665.42   19.26
 -18   1  -1  651.68   22.95
 -18   1  -1  646.62   18.24
 -18   1  -1  651.06   22.88
  17 -18  -1  614.34   21.56
 -18   1   2  674.65   23.30
   1  17   2  697.61   25.55
  17 -18   2  688.59   17.70
   1  17   2  648.16   15.30
 -18   1   2  677.46   24.90
 -18   1   2  655.56   17.89
  17 -18   2  733.81   25.41
  17 -18   5  655.08   12.00
   1  17   5  680.13   13.28
 -18   1   5  662.93   15.19
  17 -17 -11    1.95    6.11
   0  17 -11    5.01    7.27
 -17   0 -11    4.19    9.12
   0  17 -11   11.93   10.45
 -17   0 -11    7.15    6.92
  17 -17 -11    3.18    7.09
 -17   0  -8   60.45    8.45
   0  17  -8   48.24    8.50
 -17   0  -8   63.04    9.26
  17 -17  -8   62.46    9.61
 -17   0  -5    9.07    4.66
  17 -17  -5    5.50    1.57
 -17   0  -5    1.37    4.48
   0  17  -5    4.19    4.49
 -17   0  -5    3.42    2.10
  17 -17  -5    1.07    4.41
   0  17  -5    2.21    2.44
   0  17  -2  148.40    9.02
  17 -17  -2  141.75    8.16
 -17   0  -2  149.57   11.36
 -17   0  -2  162.68    8.33
 -17   0  -2  169.53   11.66
   0  17  -2  155.79   11.42
  17 -17  -2  180.78   12.04
 -17   0   1   -1.55    3.80
   0  17   1   -0.66    4.04
 -17   0   1    0.66    3.21
 -17   0   1    7.08    5.13
  17 -17   1   -3.40    3.28
   0  17   1    2.01    2.56
  17 -17   1    0.12    4.34
 -17   0   4   17.66    6.54
  17 -17   4   31.10    3.88
 -17   0   4   14.86    4.26
   0  17   4   19.97    3.13
 -17   0   4   20.21    3.82
 -16  -1  -9   43.54    7.56
  -1  17  -9   22.88    6.78
 -16  -1  -9   35.87    8.23
  17 -16  -9   31.46    7.71
  -1  17  -6   14.38    2.16
 -16  -1  -6   17.46    5.37
  -1  17  -6   14.14    5.87
 -16  -1  -6   15.42    2.40
  17 -16  -6   19.91    5.93
  17 -16  -3  158.98    7.13
 -16  -1  -3  162.04   11.74
  -1  17  -3  153.15    8.16
  -1  17  -3  165.29   11.83
 -16  -1  -3  127.28   10.22
 -16  -1  -3  155.99    7.10
  17 -16  -3  150.18   10.93
  -1  17   0  179.09   11.87
  -1  17   0  170.32   10.81
  17 -16   0  161.59   10.33
 -16  -1   0  163.26   11.51
 -16  -1   0  153.77    9.39
 -16  -1   0  119.73    9.85
  17 -16   0  168.90   10.66
  17 -16   0  159.91   11.29
  -1  17   0  161.49    9.57
  17 -16   3  394.50   18.85
 -16  -1   3  378.04   13.28
 -16  -1   3  317.98   15.54
  17 -16   3  383.67   12.47
  -1  17   3  360.46   11.39
  -1  17   3  406.08   19.14
 -16  -1   3  350.25   17.81
  17 -16   6   56.79    4.37
 -16  -1   6   63.24    6.07
 -16  -1   6   52.15    6.79
  -1  17   6   64.33    5.56
  -2  17 -10   86.04   12.37
 -15  -2 -10   66.20   12.61
 -15  -2 -10   55.99    8.42
 -15  -2 -10   47.14    9.15
  17 -15 -10   63.84   10.99
  -2  17  -7  893.23   29.89
 -15  -2  -7  848.52   27.04
 -15  -2  -7  834.18   28.11
  17 -15  -7  883.39   29.38
  -2  17  -4  120.10   10.40
 -15  -2  -4  133.43   10.74
 -15  -2  -4  119.22   10.19
 -15  -2  -4  107.02    4.73
  -2  17  -4  118.58    5.95
  17 -15  -4  116.32   10.03
  -2  17  -1 1061.88   23.15
 -15  -2  -1 1081.83   27.96
 -15  -2  -1 1081.24   21.07
 -15  -2  -1 1044.86   27.28
  -2  17  -1 1062.54   27.67
  17 -15  -1 1100.49   27.35
  17 -15  -1 1049.42   21.91
  17 -15   2  691.90   17.68
 -15  -2   2  721.98   18.86
  -2  17   2  728.35   16.90
 -15  -2   2  716.70   23.80
  -2  17   2  664.91   22.97
  17 -15   2  705.63   23.50
  17 -15   5  728.30   15.88
 -15  -2   5  771.09   23.46
  -2  17   5  790.85   17.72
 -15  -2   5  749.32   18.84
  -3  17 -11    7.15    7.17
 -14  -3 -11   35.04   12.05
 -14  -3 -11   13.63    7.45
  17 -14 -11   18.63    8.88
 -14  -3  -8   94.83   10.26
 -14  -3  -8   90.87   10.25
  17 -14  -8   94.25   11.26
  -3  17  -8  110.28   11.77
 -14  -3  -5    7.12    4.49
 -14  -3  -5    4.46    4.36
  -3  17  -5    7.43    4.78
  17 -14  -5   11.70    4.79
  -3  17  -2   66.55    5.60
 -14  -3  -2   68.97    7.96
  -3  17  -2   48.30    6.97
 -14  -3  -2   78.08    4.98
 -14  -3  -2   66.20    7.50
  17 -14  -2   67.01    7.50
 -14  -3   1  290.67   12.97
 -14  -3   1  308.18   14.77
 -14  -3   1  288.53   14.54
  17 -14   1  292.40   12.67
  -3  17   1  320.25   15.19
  -3  17   1  292.62   11.66
  17 -14   1  334.09   15.40
  17 -14   4   45.81    7.41
 -14  -3   4   67.49    7.33
  17 -14   4   53.67    5.08
  -3  17   4   49.37    5.24
 -14  -3   4   62.20    8.48
  -3  17   4   63.40    8.63
 -14  -3   4   48.61    5.37
  17 -14   7    0.72    2.81
 -14  -3   7   14.09    4.58
 -13  -4  -9   50.28    7.44
 -13  -4  -9   67.98    9.76
  17 -13  -9   36.14    8.56
  -4  17  -9   42.11    8.98
  -4  17  -6  146.27   12.39
 -13  -4  -6  163.48   12.01
 -13  -4  -6  160.37   12.47
  17 -13  -6  168.89   12.75
  -4  17  -3  114.51    9.88
 -13  -4  -3   91.23    8.89
 -13  -4  -3  100.66    9.23
  17 -13  -3  104.89    9.35
 -13  -4   0  273.12   13.66
 -13  -4   0  265.67   13.75
  -4  17   0  272.87   13.58
  17 -13   0  272.50   13.13
  17 -13   0  277.43   13.70
  -4  17   0  305.18   12.80
 -13  -4   3  278.65   12.09
  -4  17   3  281.84   15.10
 -13  -4   3  281.37   13.67
  17 -13   3  291.51   11.42
  -4  17   3  291.80   11.36
 -13  -4   3  274.90   14.94
  17 -13   3  303.08   15.41
  17 -13   6  105.10    8.36
  17 -13   6   97.10    7.00
 -13  -4   6  104.66    8.58
 -13  -4   6   97.08    8.11
  -4  17   6  115.00    8.41
 -12  -5 -10   84.93   11.36
  17 -12 -10   89.13   12.29
 -12  -5 -10   71.05    9.27
  -5  17 -10   77.83   12.03
 -12  -5  -7  524.66   21.16
  17 -12  -7  562.69   23.88
  -5  17  -7  587.90   24.71
  -5  17  -4  257.97   14.66
 -12  -5  -4  252.72   14.03
 -12  -5  -4  255.12   14.28
  17 -12  -4  275.29   14.76
 -12  -5  -1 1323.79   30.02
  -5  17  -1 1321.79   29.00
 -12  -5  -1 1333.99   29.26
  17 -12  -1 1285.34   28.14
 -12  -5   2  393.86   15.91
  -5  17   2  388.25   16.33
 -12  -5   2  378.70   14.13
  17 -12   2  348.18   13.03
 -12  -5   2  317.18   15.12
  -5  17   2  363.15   12.77
  17 -12   2  402.67   16.71
  17 -12   5 1255.93   23.98
 -12  -5   5 1296.55   28.03
  -5  17   5 1245.13   25.21
 -12  -5   5 1200.77   26.00
 -12  -5   5 1290.03   33.11
 -11  -6 -11   62.20   13.27
 -11  -6 -11   76.70   11.34
  17 -11 -11   82.65   12.11
  -6  17 -11   94.92   13.74
  -6  17  -8    0.35    5.19
 -11  -6  -8    4.52    4.43
 -11  -6  -8   -9.03    6.57
  17 -11  -8   -0.45    5.43
 -11  -6  -5  310.64   15.92
 -11  -6  -5  284.59   15.01
  17 -11  -5  323.68   16.61
  -6  17  -5  313.12   16.63
  -6  17  -2   33.22    5.72
 -11  -6  -2   28.23    5.56
 -11  -6  -2   35.63    6.40
  17 -11  -2   32.07    5.57
 -11  -6   1 1207.96   27.72
 -11  -6   1 1189.63   27.18
  17 -11   1 1225.46   25.45
 -11  -6   1 1187.35   25.77
  -6  17   1 1118.45   23.11
  17 -11   1 1244.19   27.28
  -6  17   1 1192.08   26.79
  17 -11   4  119.16   10.16
 -11  -6   4   96.03    7.83
  17 -11   4  101.58    7.28
  -6  17   4   98.92    9.23
  -6  17   4   95.49    7.42
 -11  -6   4  103.63    8.08
 -11  -6   4  110.95    9.82
  17 -11   7  259.50   12.82
 -11  -6   7  279.77   12.53
  -7  17  -9   53.64    9.37
 -10  -7  -9   73.15    9.66
 -10  -7  -9   54.18    9.20
  17 -10  -9   49.06    9.38
 -10  -7  -6  106.59   10.53
 -10  -7  -6  123.84   10.65
  17 -10  -6  105.06   10.48
  -7  17  -6  105.24   10.62
  -7  17  -3  112.82    9.75
 -10  -7  -3   99.04    9.08
 -10  -7  -3  104.29    9.20
  17 -10  -3  106.04    8.85
  -7  17   0   44.67    5.80
 -10  -7   0   43.00    5.77
  17 -10   0   41.53    5.63
  -7  17   0   48.69    5.85
 -10  -7   0   57.93    7.05
 -10  -7   3  117.62    8.41
  17 -10   3  125.23    8.20
  -7  17   3  120.92    8.06
 -10  -7   3  141.67    9.57
 -10  -7   3  125.02    9.67
  -7  17   3  125.55    9.45
  17 -10   3  143.19   10.12
  17 -10   6   45.94    5.84
 -10  -7   6   61.00    6.39
  -9  -8 -10   56.59    8.83
  -9  -8 -10   64.16   10.71
  17  -9 -10   31.55    9.30
  -8  17 -10   67.22   11.28
  17  -9  -7  533.19   23.62
  -9  -8  -7  488.53   22.34
  -8  17  -7  550.93   24.30
  -9  -8  -7  529.47   21.45
  -9  -8  -4  109.03    9.63
  -9  -8  -4  102.98    9.70
  17  -9  -4   83.10    8.82
  -8  17  -4  100.70    9.58
  -8  17  -1 1313.20   27.91
  -9  -8  -1 1283.01   28.95
  -9  -8  -1 1296.61   27.99
  17  -9  -1 1244.64   26.81
  -8  17   2  515.32   17.06
  -9  -8   2  519.96   17.60
  17  -9   2  560.49   17.25
  -9  -8   2  570.14   18.34
  -8  17   2  512.68   15.93
  17  -9   2  525.30   17.56
  -9  -8   5 1255.64   25.78
  -9  -8   5 1313.84   30.87
  -9  -8   8  133.96    7.98
  -8  -9 -11  279.84   17.23
  -8  -9 -11  300.95   21.68
  17  -8 -11  308.15   22.28
  -9  17 -11  284.34   21.82
  -8  -9  -8  117.70   12.46
  -8  -9  -8  111.32   10.64
  17  -8  -8  103.36   12.03
  -9  17  -8  113.00   12.69
  -8  -9  -5 1222.27   30.87
  -8  -9  -5 1308.98   33.25
  17  -8  -5 1310.46   32.90
  -9  17  -5 1271.82   33.24
  -9  17  -2  667.06   21.01
  -8  -9  -2  692.35   21.73
  -8  -9  -2  687.43   21.18
  17  -8  -2  666.73   20.29
  -8  -9   1 1306.69   27.01
  -9  17   1 1345.43   26.45
  -9  17   1 1257.27   25.53
  17  -8   1 1366.88   26.81
  -8  -9   1 1359.45   28.57
  17  -8   4  202.63   11.81
  17  -8   4  175.85   10.38
  -8  -9   4  168.94    9.89
  -8  -9   4  176.22   11.01
  -9  17   4  169.11   10.58
  -8  -9   7  465.35   14.64
  -7 -10  -9  160.57   14.96
  -7 -10  -9  157.68   12.71
  17  -7  -9  147.93   14.36
 -10  17  -9  156.63   15.51
  -7 -10  -6  116.62   11.24
  -7 -10  -6  127.64   10.92
  17  -7  -6  103.80   10.64
 -10  17  -6   92.67   10.73
  -7 -10  -3  283.27   14.43
  -7 -10  -3  284.80   14.74
  17  -7  -3  252.68   13.41
 -10  17  -3  305.14   15.10
  -7 -10   0   76.04    7.66
 -10  17   0   78.70    7.01
  -7 -10   0   58.16    6.30
  17  -7   0   72.85    6.75
  -7 -10   3  111.79    8.44
 -10  17   3  120.94    8.35
  -7 -10   3  113.58    8.29
  17  -7   3  111.82    8.18
  -7 -10   6  139.63    8.37
  -6 -11 -10   18.61    6.54
  -6 -11 -10   17.15    8.32
  17  -6 -10   11.86    7.81
 -11  17 -10    7.89    6.79
  -6 -11  -7  317.04   17.05
  -6 -11  -7  302.47   18.19
  17  -6  -7  312.05   18.35
 -11  17  -7  311.69   19.05
  -6 -11  -4  160.27   11.58
  -6 -11  -4  167.75   12.13
  17  -6  -4  155.62   11.37
 -11  17  -4  194.06   13.18
 -11  17  -1 1494.45   29.35
  -6 -11  -1 1476.86   31.30
  -6 -11  -1 1485.32   29.72
  17  -6  -1 1496.43   28.62
  -6 -11   2   65.09    6.64
  -6 -11   2   48.94    5.73
 -11  17   2   51.47    5.40
  17  -6   2   54.74    5.88
  -6 -11   5  246.01   11.30
  -6 -11   5  228.55   11.97
  -6 -11   8    4.68    2.26
  -5 -12 -11  326.61   19.37
  -5 -12 -11  323.70   23.02
  17  -5 -11  323.39   23.64
 -12  17 -11  352.08   24.77
  -5 -12  -8  389.50   19.36
  -5 -12  -8  380.82   21.99
  17  -5  -8  357.18   21.03
 -12  17  -8  380.14   22.25
  -5 -12  -5 1712.22   37.16
  -5 -12  -5 1666.12   38.26
  17  -5  -5 1678.38   37.42
 -12  17  -5 1674.35   38.90
  -5 -12  -2  301.04   14.79
  -5 -12  -2  310.37   14.39
  17  -5  -2  311.13   14.09
 -12  17  -2  289.26   13.90
 -12  17   1 1033.18   22.02
  -5 -12   1  992.94   22.46
  17  -5   1 1012.93   21.92
  17  -5   4  448.37   15.62
  -5 -12   4  421.26   14.96
 -12  17   4  448.93   14.97
  -5 -12   4  411.50   14.86
  -5 -12   7  395.10   12.62
  -4 -13  -9   65.65    9.25
  -4 -13  -9   60.36   10.58
  17  -4  -9   72.71   11.70
 -13  17  -9   44.05    9.19
  -4 -13  -6  106.76   10.54
  -4 -13  -6  115.92   11.47
 -13  17  -6   81.67   10.01
  17  -4  -6  122.17   11.93
  -4 -13  -3  264.47   14.34
  -4 -13  -3  281.53   14.69
  17  -4  -3  227.20   12.91
 -13  17  -3  241.69   13.57
 -13  17   0  278.50   12.00
  -4 -13   0  271.56   13.52
  -4 -13   0  261.66   12.25
  17  -4   0  258.87   11.62
 -13  17   3  100.55    6.93
  -4 -13   3   96.02    7.84
  -4 -13   3  111.72    7.72
  17  -4   3  105.86    7.50
  -4 -13   6  163.43    8.72
  -3 -14 -10   36.76    9.64
  17  -3 -10   48.51   10.69
  -3 -14 -10   54.84    9.13
 -14  17 -10   45.06   11.26
  -3 -14  -7   25.69    6.10
  17  -3  -7   26.74    8.07
 -14  17  -7    9.53    5.40
  -3 -14  -7   14.63    1.78
  -3 -14  -4   24.75    5.64
  -3 -14  -4   28.15    6.40
  17  -3  -4   18.13    5.51
 -14  17  -4   25.73    6.02
  -3 -14  -1  210.26   12.48
  -3 -14  -1  175.84   10.68
  17  -3  -1  188.34   10.28
 -14  17  -1  213.49   11.39
  -3 -14   2   98.70    8.15
  -3 -14   2   83.08    6.66
 -14  17   2   87.65    6.36
  17  -3   2   85.77    6.39
  -3 -14   5   18.44    3.86
  -3 -14   5   27.26    4.59
  -3 -14   8   45.66    3.75
  -2 -15 -11  378.60   21.63
  -2 -15 -11  320.15   23.90
 -15  17 -11  344.27   25.11
  17  -2 -11  365.76   25.81
  -2 -15  -8  359.24   21.71
 -15  17  -8  300.38   20.78
  17  -2  -8  320.40   20.76
  -2 -15  -8  294.37   17.51
  -2 -15  -5  763.71   12.24
  -2 -15  -5  862.04   28.85
  -2 -15  -5  840.75   27.20
 -15  17  -5  849.58   28.89
  17  -2  -5  837.04   27.45
  -2 -15  -2  680.78   22.64
  -2 -15  -2  691.85   21.68
  17  -2  -2  688.37   20.50
 -15  17  -2  688.00   21.65
 -15  17   1  640.37   16.97
  -2 -15   1  661.50   18.07
  17  -2   1  677.27   17.23
  -2 -15   1  670.87   20.63
  17  -2   4  182.35    9.09
 -15  17   4  177.81    8.19
  -2 -15   4  172.78    9.09
  -2 -15   4  173.08    9.99
  -2 -15   7  750.58   16.67
  -1 -16  -9   14.64    6.29
  -1 -16  -9    1.12    6.33
  17  -1  -9   23.79    8.60
 -16  17  -9   16.07    8.09
  17  -1  -6   92.05    6.24
  -1 -16  -6   95.07   10.74
 -16  17  -6   91.45   11.22
  -1 -16  -6  103.90   10.65
  17  -1  -6   91.12   11.19
  -1 -16  -6   97.95    5.26
  -1 -16  -3  304.86   15.70
  -1 -16  -3  305.14   16.18
 -16  17  -3  286.38   15.24
  17  -1  -3  292.50   14.96
  -1 -16   0  147.15   10.65
  -1 -16   0  145.26    9.21
  17  -1   0  110.53    7.65
 -16  17   0  121.27    8.34
  -1 -16   3  227.11   11.98
  -1 -16   3  214.85    9.63
  17  -1   3  241.07    9.85
 -16  17   3  218.60    8.88
  -1 -16   6   29.55    4.46
   0 -17 -10   78.33   10.90
 -17  17 -10   77.44   14.12
  17   0 -10   81.65   13.61
   0 -17 -10   88.54   13.63
   0 -17  -7   -0.26    5.55
   0 -17  -7    8.18    5.97
  17   0  -7    5.57    5.74
 -17  17  -7   10.19    6.67
  17   0  -7    0.77    2.73
   0 -17  -7    4.86    2.40
   0 -17  -4   25.62    3.67
   0 -17  -4   20.04    5.63
   0 -17  -4   20.33    6.31
  17   0  -4   34.31    6.79
 -17  17  -4   28.92    6.70
   0 -17  -1   -4.09    3.71
   0 -17  -1   -0.56    3.46
  17   0  -1   -6.00    3.48
 -17  17  -1    2.45    3.77
   0 -17   2  174.17   10.92
 -17  17   2  176.06    8.15
   0 -17   2  167.27    8.82
  17   0   2  185.19    8.45
   0 -17   5    5.84    3.00
   0 -17   5    2.09    2.80
   1 -18 -11  209.10   20.22
   1 -18 -11  223.00   17.72
 -18  17 -11  223.08   21.59
  17   1 -11  209.66   20.90
   1 -18  -8   17.84    6.08
   1 -18  -8   33.44    9.01
  17   1  -8   16.88    8.33
 -18  17  -8   29.08    8.78
  17   1  -8   23.81    4.61
  17   1  -5  801.13   20.45
   1 -18  -5  780.44   27.29
   1 -18  -5  842.02   29.39
 -18  17  -5  844.74   29.75
  17   1  -5  831.00   28.45
   1 -18  -5  771.45   17.07
   1 -18  -2  576.13   20.59
   1 -18  -2  555.52   22.05
 -18  17  -2  562.64   20.24
  17   1  -2  556.23   19.05
   1 -18   1  655.52   21.62
   1 -18   1  674.20   18.29
  17   1   1  641.13   16.17
 -18  17   1  662.90   16.99
  17   1   4  433.30   11.69
   1 -18   4  449.55   16.23
   1 -18   4  461.55   13.00
 -18  17   4  454.70   10.26
   1 -18   7  913.66   19.08
   2 -19  -9   96.17   11.85
 -19  17  -9  105.38   14.93
   2 -19  -9   95.36   13.51
  17   2  -9  108.45   14.29
   2 -19  -6  111.62   11.67
   2 -19  -6  120.64   13.19
  17   2  -6  127.86    8.94
 -19  17  -6   95.39   11.58
  17   2  -6  123.43   12.40
   2 -19  -6  125.15    7.58
   2 -19  -3  320.69   12.94
   2 -19  -3  343.76   17.83
   2 -19  -3  325.40   16.95
 -19  17  -3  336.17   17.19
  17   2  -3  381.90   17.46
  17   2   0    5.04    2.92
   2 -19   0    0.83    3.50
 -19  17   0    4.44    2.96
   2 -19   0    3.32    3.31
   2 -19   3  463.52   13.28
 -19  17   3  463.53   11.35
  17   2   3  461.36   11.76
   2 -19   3  455.96   17.48
   2 -19   6   76.53    6.73
   3 -20 -10   56.64   10.98
  17   3 -10   82.97   13.48
 -20  17 -10   61.43   13.01
   3 -20 -10   62.77   10.46
   3 -20  -7   26.66    7.25
  17   3  -7   24.13    5.22
   3 -20  -7   14.63    7.33
 -20  17  -7   27.63    8.68
  17   3  -7   32.46    8.57
   3 -20  -7   20.29    4.30
 -20  17  -7   32.04    4.65
   3 -20  -4   97.03   10.53
   3 -20  -4   89.41   10.12
  17   3  -4   98.28    8.99
 -20  17  -4  105.58   11.09
  17   3  -4   91.48    9.93
   3 -20  -4  101.82    7.57
   3 -20  -1   45.22    7.22
   3 -20  -1   56.19    7.14
 -20  17  -1   57.73    6.73
  17   3  -1   53.10    6.35
 -20  17   2  105.81    6.38
   3 -20   2  103.28    9.27
  17   3   2  107.25    6.43
   3 -20   2  105.89    7.12
   3 -20   5    7.35    1.69
   3 -20   5   10.05    3.94
   4 -21  -8  219.86   17.35
   4 -21  -8  235.42   19.44
 -21  17  -8  222.95   19.40
  17   4  -8  244.48   19.33
  17   4  -8  225.75   12.78
   4 -21  -5  584.72   25.07
   4 -21  -5  567.70   25.51
 -21  17  -5  625.53   26.61
  17   4  -5  550.63   19.51
  17   4  -5  561.90   24.09
   4 -21  -5  611.18   18.27
 -21  17  -5  591.02   18.62
   4 -21  -2  325.02   15.00
   4 -21  -2  321.83   16.50
  17   4  -2  335.84   15.52
   4 -21  -2  369.12   18.72
 -21  17  -2  348.44   17.04
   4 -21   1  999.31   28.32
   4 -21   1  999.20   22.89
  17   4   1  982.58   19.56
 -21  17   1  970.97   21.08
   4 -21   4  270.09   13.89
   4 -21   4  283.94    9.11
   4 -21   7  327.20   12.52
   5 -22  -9  188.80   16.38
   5 -22  -9  185.29   18.77
 -22  17  -9  240.38   21.89
  17   5  -9  193.46   19.15
   5 -22  -6   98.14   12.25
  17   5  -6   74.49    8.16
   5 -22  -6   83.89   10.48
 -22  17  -6   91.85   12.37
  17   5  -6  101.97   12.05
   5 -22  -6   90.33    7.99
 -22  17  -6   81.25    7.64
   5 -22  -3  161.33   10.72
   5 -22  -3  142.83   12.58
   5 -22  -3  147.27   12.17
 -22  17  -3  169.47   13.23
  17   5  -3  183.86   12.89
  17   5  -3  151.25   11.66
   5 -22   0   47.52    7.88
   5 -22   0   67.31    7.44
 -22  17   0   50.85    6.14
  17   5   0   56.52    5.91
   5 -22   3  189.76   12.29
   5 -22   3  190.72    8.39
 -22  17   3  190.31    6.70
  17   5   3  174.83    6.07
   5 -22   6   11.84    4.01
   6 -23 -10   45.60   10.37
   6 -23 -10   39.19   11.62
 -23  17 -10   51.35   12.29
  17   6 -10   49.06   12.74
 -23  17  -7    5.62    4.47
  17   6  -7    5.39    4.87
   6 -23  -7   16.43    7.89
   6 -23  -7   15.76    7.57
 -23  17  -7    4.05    6.77
  17   6  -7    8.00    6.95
   6 -23  -7    8.52    4.01
   6 -23  -4  126.96   12.82
 -23  17  -4  123.49   12.19
  17   6  -4  102.47   10.62
   6 -23  -4  103.58   11.74
  17   6  -4  110.16   10.39
   6 -23  -4  109.89    9.12
 -23  17  -4  100.32    9.47
   6 -23  -1    2.79    4.75
   6 -23  -1    5.70    4.15
  17   6  -1   10.58    3.90
 -23  17  -1    5.99    4.31
   6 -23   2   40.15    7.51
   6 -23   2   32.96    4.45
  17   6   2   28.97    3.43
 -23  17   2   29.18    3.88
   6 -23   5   25.91    5.38
 -24  17  -8  179.74   18.41
   7 -24  -8  190.18   17.09
   7 -24  -8  139.82   15.94
  17   7  -8  156.14   16.47
  17   7  -8  175.30   12.95
   7 -24  -5  472.47   24.11
   7 -24  -5  450.66   23.68
  17   7  -5  440.89   19.68
 -24  17  -5  471.17   24.59
  17   7  -5  501.73   23.79
 -24  17  -5  477.72   19.30
   7 -24  -5  434.11   17.64
   7 -24  -2  130.07   10.86
   7 -24  -2  135.74   12.54
   7 -24  -2  142.04   11.79
 -24  17  -2  119.83   10.99
  17   7  -2  134.05   10.57
   7 -24   1  442.70   20.34
   7 -24   1  482.16   16.51
 -24  17   1  445.61   15.09
  17   7   1  459.45   13.55
   7 -24   4  119.80   10.11
   7 -24   4  108.71    5.04
   7 -24   7   98.51    8.18
   8 -25  -9  238.01   19.07
 -25  17  -9  264.90   23.44
   8 -25  -9  290.06   23.88
  17   8  -6   54.44    8.40
   8 -25  -6   41.96    9.26
   8 -25  -6   47.91   10.58
 -25  17  -6   54.08   10.88
  17   8  -6   63.79   10.35
 -25  17  -6   53.80    7.98
   8 -25  -6   57.70    7.80
   8 -25  -3  448.45   19.38
 -25  17  -3  436.26   20.04
   8 -25  -3  453.08   23.24
   8 -25  -3  414.27   20.92
 -25  17  -3  416.61   21.10
  17   8  -3  410.04   20.60
  17   8  -3  392.84   19.01
   8 -25   0  339.02   18.71
   8 -25   0  288.64   14.66
 -25  17   0  341.71   15.08
  17   8   0  316.92   13.15
   8 -25   3  247.15   14.96
 -25  17   3  224.54    6.80
   8 -25   3  234.40    9.31
   8 -25   6  148.38   10.71
 -26  17  -7   29.70    6.69
  17   9  -7   42.08    8.05
   9 -26  -7   25.08    8.15
   9 -26  -7   31.43    9.43
 -26  17  -7   21.25    9.11
  17   9  -7   42.98   10.48
   9 -26  -7   33.07    6.61
   9 -26  -4   52.24    9.36
 -26  17  -4   38.83    9.00
  17   9  -4   49.46    8.64
  17   9  -4   67.46    9.78
   9 -26  -4   46.38    8.99
 -26  17  -4   64.28    8.78
   9 -26  -4   57.19    8.33
   9 -26  -1   24.00    6.71
   9 -26  -1   25.10    6.57
 -26  17  -1   39.37    6.81
  17   9  -1   33.42    6.07
   9 -26   2  221.78   15.17
   9 -26   2  209.97   10.38
  17   9   2  229.05    7.97
   9 -26   5   63.12    8.03
  10 -27  -8   11.61    7.98
  10 -27  -8   37.07   11.48
 -27  17  -8   22.67   10.36
  17  10  -8   26.65   10.05
  17  10  -8   15.02    7.40
  10 -27  -5   63.98   10.93
  10 -27  -5   77.51   11.66
  17  10  -5   67.85    9.98
 -27  17  -5   80.75   12.12
  17  10  -5   74.18   10.74
 -27  17  -5   75.18    9.22
  10 -27  -5   57.78    8.31
  10 -27  -2   99.58   10.91
 -27  17  -2  121.73   12.40
  10 -27  -2   98.96   10.77
 -27  17  -2  106.38   11.23
  10 -27  -2   99.17   11.57
  17  10  -2  116.49   10.57
  10 -27   1  138.91   12.63
  10 -27   1  129.52    9.56
 -27  17   1  132.48    9.07
  17  10   1  127.46    7.65
  10 -27   4   49.21    7.74
  11 -28  -6   21.83    6.32
 -28  17  -6   20.91    6.77
  11 -28  -6   38.00   10.16
 -28  17  -6   31.40   10.10
  17  11  -6   17.55    8.20
  17  11  -6   20.23    7.30
  11 -28  -6   31.20    9.71
  11 -28  -3  493.06   22.27
  11 -28  -3  442.01   23.92
  11 -28  -3  477.98   23.50
  17  11  -3  480.86   24.34
 -28  17  -3  503.58   24.20
  17  11  -3  479.30   21.73
 -28  17  -3  497.55   23.62
  11 -28   0  261.26   17.59
  11 -28   0  273.83   14.84
  17  11   0  273.54   12.74
 -28  17   0  273.06   14.44
  11 -28   3  312.87   18.24
  11 -28   3  290.15   10.42
  11 -28   6  195.51   13.24
  12 -29  -7   16.46    8.17
  12 -29  -7   35.63   10.66
  17  12  -7   26.10    8.19
 -29  17  -7   24.69   10.74
  17  12  -7   12.02    8.80
  12 -29  -7   21.31    6.93
  12 -29  -4   52.42   10.78
  12 -29  -4   87.07   12.18
 -29  17  -4   71.59   11.55
  17  12  -4   62.27    9.79
  17  12  -4   71.75   10.60
 -29  17  -4   83.80   11.05
  12 -29  -4   66.53    9.53
  12 -29  -1  110.81   12.56
  12 -29  -1  138.64   13.91
  12 -29  -1  120.02   11.26
 -29  17  -1  145.07   12.32
  17  12  -1   98.89    9.32
  12 -29   2  143.28   13.09
  12 -29   2  151.03    9.33
 -29  17   2  167.24    8.73
  12 -29   5   85.16    9.98
  13 -30  -5   19.82    7.30
 -30  17  -5   18.33    7.11
  13 -30  -5   23.64    8.66
  13 -30  -5   22.82    8.28
  17  13  -5   12.57    6.99
 -30  17  -5   19.16    7.94
  17  13  -5   13.42    7.16
 -30  17  -2   13.21    6.91
  13 -30  -2    5.92    6.54
  13 -30  -2    6.14    5.93
  17  13  -2   10.36    7.45
 -30  17  -2   -4.68    5.82
  17  13  -2   -2.89    4.53
  13 -30  -2    4.84    5.35
  13 -30   1    4.59    6.62
  13 -30   1   -0.63    4.25
 -30  17   1    0.87    3.46
  17  13   1    2.87    2.89
  13 -30   4   16.34    6.62
  14 -31  -6  109.43   14.57
  17  14  -6   86.65   12.90
  14 -31  -6   76.25   13.11
  17  14  -6   96.47   13.58
 -31  17  -6  107.70   15.08
 -31  17  -6   72.23   10.80
  14 -31  -6   70.62   11.07
  14 -31  -3  396.54   22.40
  14 -31  -3  390.27   24.14
  17  14  -3  382.94   24.07
 -31  17  -3  417.49   23.29
  14 -31  -3  408.15   22.80
  17  14  -3  386.38   20.57
 -31  17  -3  388.39   22.97
  14 -31   0  204.67   16.68
  14 -31   0  193.87   13.58
 -31  17   0  173.48   12.43
  17  14   0  200.26   11.34
  14 -31   3  414.30   22.15
  14 -31   6  121.04   11.97
 -32  17  -4   45.05    9.42
  15 -32  -4   39.88    9.15
  15 -32  -4   54.74   11.39
  15 -32  -4   34.53    9.83
 -32  17  -4   28.03    9.51
  17  15  -4   43.40    9.26
  17  15  -4   46.11   10.13
  15 -32  -1   45.63   10.10
 -32  17  -1   34.64   10.26
  15 -32  -1   26.83    8.86
  15 -32  -1   31.83    7.21
 -32  17  -1   34.13    7.76
  17  15  -1   21.22    5.63
  15 -32   2   77.37   11.02
  15 -32   5   13.12    6.99
  16 -33  -5    7.47    6.74
 -33  17  -5   16.52    7.67
  16 -33  -5   13.16    8.26
  16 -33  -5   12.48    8.82
  17  16  -5   -1.07    8.11
 -33  17  -5    8.26    9.06
  17  16  -5    0.42    7.09
 -33  17  -2   23.98    9.28
  16 -33  -2   41.25    9.86
  16 -33  -2   32.56    9.23
  17  16  -2   37.27   10.41
  16 -33  -2   18.97    7.32
 -33  17  -2   18.84    7.66
  17  16  -2   28.94    6.98
  16 -33   1    6.62    7.20
  16 -33   1   20.38    5.62
  16 -33   4   43.90    9.05
  17 -34  -3  302.55   21.56
  17 -34  -3  349.35   24.29
  17 -34  -3  318.63   21.70
 -34  17  -3  294.43   20.66
  17  17  -3  296.93   22.89
  17  17  -3  269.86   18.12
 -34  17  -3  295.30   22.04
  17 -34   0  140.03   15.27
 -34  17   0  147.41   12.72
  17 -34   0  160.38   13.11
  17 -34   3  317.05   20.94
 -35  17  -4   23.35    8.55
  18 -35  -4   39.12   10.74
  18 -35  -4   18.16    9.29
  18 -35  -4   10.91    8.98
 -35  17  -4    5.76    8.67
  17  18  -4   28.25    9.14
  17  18  -4   10.56    9.20
  18 -35  -1   63.55   12.89
 -35  17  -1   75.83   13.25
  18 -35  -1   65.26   12.38
  18 -35  -1   64.43   10.27
 -35  17  -1   47.14   10.03
  18 -35   2    3.60    6.48
  18 -34  -5    8.57    8.72
 -34  16  -5   16.61    8.46
  18 -34  -5   14.11    8.52
  18 -34  -5    1.21    7.67
  16  18  -5   -1.97    8.22
 -34  16  -5   -0.34    8.75
  16  18  -5    4.96    7.18
 -34  16  -2   40.30   10.78
  18 -34  -2   43.82   10.85
  16  18  -2   45.99   11.41
  18 -34  -2   39.40   10.44
  18 -34  -2   47.24    9.79
 -34  16  -2   48.35    9.91
  16  18  -2   47.63    8.24
  18 -34   1    9.45    5.35
  18 -34   1    8.69    7.29
  18 -34   4  109.34   12.73
  18 -33  -6   40.47    9.69
  18 -33  -6   66.28   13.76
  18 -33  -6   53.96   12.74
 -33  15  -6   71.91   14.17
  15  18  -6   40.72   11.32
  15  18  -6   51.30   11.72
 -33  15  -6   52.29   10.98
  18 -33  -3  345.37   23.88
  18 -33  -3  367.01   23.06
 -33  15  -3  323.85   21.83
  15  18  -3  348.87   20.64
  15  18  -3  313.39   23.38
 -33  15  -3  405.74   25.20
  18 -33  -3  323.40   22.42
 -33  15   0  112.80   15.38
  18 -33   0   99.97   13.77
  18 -33   0  111.69   13.69
  18 -33   0  118.95   11.44
 -33  15   0  116.97   11.61
  18 -33   3  174.78   16.31
 -32  14  -4   25.81    8.71
  18 -32  -4   27.54    8.33
  14  18  -4   24.19    8.46
  18 -32  -4   33.52    9.76
  18 -32  -4   27.32    9.17
 -32  14  -4   17.00    8.11
 -32  14  -4   37.34    9.87
  14  18  -4   18.08    7.68
 -32  14  -1   23.97    9.32
  18 -32  -1   16.81    8.40
  18 -32  -1   15.80    7.74
  18 -32  -1   12.36    6.70
 -32  14  -1   22.68    6.88
 -32  14  -1   21.04    8.82
  14  18  -1   24.15    5.74
  14  18  -1   23.63    9.41
  18 -32   2   41.36    9.51
  18 -32   5   27.86    7.75
  18 -31  -5   33.96    9.99
 -31  13  -5   19.04    8.09
 -31  13  -5   13.76    7.27
  18 -31  -5   12.86    8.58
  13  18  -5   10.08    7.40
  13  18  -5    9.73    7.35
 -31  13  -5   31.87    8.95
  18 -31  -5   17.45    7.93
  18 -31  -2  110.65   13.93
  18 -31  -2   91.25   11.55
 -31  13  -2   95.05   11.64
 -31  13  -2   92.52   13.00
  13  18  -2  101.73   10.73
  13  18  -2  116.74   14.51
 -31  13  -2   90.58   12.79
  18 -31  -2   96.23   12.58
 -31  13   1  110.80   14.65
  18 -31   1   87.31   13.35
 -31  13   1  109.01    9.66
  18 -31   1  123.73   13.64
  18 -31   1  115.52   10.17
  18 -31   4  115.78   12.57
  18 -30  -6  114.89   14.84
  18 -30  -6  158.60   17.68
 -30  12  -6  131.86   16.24
  12  18  -6  151.12   16.24
 -30  12  -6  117.14   14.14
  12  18  -6  146.18   16.48
 -30  12  -6  138.06   14.76
  18 -30  -6  136.09   13.97
  12  18  -3  359.07   23.01
  18 -30  -3  375.83   23.20
  18 -30  -3  362.84   21.69
 -30  12  -3  359.97   21.94
 -30  12  -3  396.53   23.76
  12  18  -3  402.23   21.18
 -30  12  -3  388.39   22.75
  18 -30  -3  393.82   22.32
  18 -30   0  150.22   15.46
  18 -30   0  166.90   15.28
  18 -30   0  147.74   12.21
 -30  12   0  148.75   12.22
  12  18   0  153.85   10.59
  12  18   0  169.97   17.42
 -30  12   0  189.18   17.07
 -30  12   0  141.23   15.26
  18 -30   3  548.60   25.03
  18 -30   6  100.95   11.01
  18 -29  -7   14.43    8.30
  18 -29  -7   29.76   11.30
 -29  11  -7   16.53    7.50
  11  18  -7   29.00   10.53
 -29  11  -7   37.15   12.01
 -29  11  -7   28.91    8.44
  11  18  -7   28.96    8.91
  18 -29  -7   24.84    8.20
  18 -29  -4   74.18   11.80
  18 -29  -4   41.58    9.43
 -29  11  -4   55.20   10.62
 -29  11  -4   63.81   10.14
  11  18  -4   50.76    9.62
  11  18  -4   44.58    9.84
 -29  11  -4   56.67   10.23
  18 -29  -4   44.06    9.06
 -29  11  -1   36.11    9.13
  18 -29  -1   37.05    8.81
 -29  11  -1   55.85    9.16
  18 -29  -1   37.60    7.26
 -29  11  -1   62.25   10.35
  11  18  -1   27.27    8.36
  11  18  -1   37.64    6.71
 -29  11   2   15.05    8.19
  18 -29   2   17.91    8.51
  18 -29   2    6.65    5.28
  18 -29   2   14.30    4.76
 -29  11   2   12.74    4.33
 -29  11   2   18.27    7.99
  18 -29   5   -0.28    5.12
  18 -28  -8    3.14    7.99
 -28  10  -8   15.35   11.24
 -28  10  -8   24.18    8.16
  10  18  -8   13.88   10.33
  10  18  -8   16.72    8.85
  18 -28  -8   15.97    9.02
 -28  10  -8   11.02    6.88
  18 -28  -8    8.04    6.94
  18 -28  -5  155.69   15.87
  18 -28  -5  150.48   16.10
 -28  10  -5  149.00   16.05
  10  18  -5  146.50   14.51
 -28  10  -5  147.98   14.53
  10  18  -5  169.88   15.90
 -28  10  -5  161.06   14.70
  18 -28  -5  149.64   14.22
  18 -28  -2   39.97    8.94
 -28  10  -2   22.92    7.40
 -28  10  -2    6.43    6.96
  10  18  -2   22.38    6.37
  10  18  -2   18.81    8.28
 -28  10  -2   12.57    7.40
  18 -28  -2   25.90    6.97
  18 -28   1  147.25   15.02
  18 -28   1  130.17   10.16
 -28  10   1  148.84   11.17
 -28  10   1  151.34   14.32
  10  18   1  132.85    8.47
  10  18   1  112.25   14.13
 -28  10   1  131.36   14.08
  18 -28   4    6.99    4.89
   9  18  -6  112.57   12.77
  18 -27  -6  116.20   14.32
  18 -27  -6  124.21   15.74
 -27   9  -6  120.60   15.40
 -27   9  -6  116.48   13.13
   9  18  -6  121.72   14.80
 -27   9  -6  106.55   11.93
  18 -27  -6  106.96   12.04
 -27   9  -3  158.73   14.83
 -27   9  -3  149.22   14.54
   9  18  -3  181.08   14.71
   9  18  -3  193.43   16.30
 -27   9  -3  125.83   13.28
  18 -27  -3  164.28   14.05
  18 -27   0  135.26   11.30
 -27   9   0  117.77   10.95
   9  18   0  139.22    9.97
 -27   9   0  127.91   13.26
   9  18   0  122.21   13.78
 -27   9   0  134.08   13.72
  18 -27   0  158.81   14.76
 -27   9   3  369.40   24.03
  18 -27   3  382.63   12.51
 -27   9   3  372.44   12.58
 -27   9   3  376.11   22.46
  18 -27   6  230.20   14.34
  18 -26  -7  100.65   13.81
  18 -26  -7  109.52   14.56
 -26   8  -7   68.23   13.53
 -26   8  -7   84.80   11.23
   8  18  -7   83.77   13.04
 -26   8  -7   71.40   10.35
  18 -26  -7   72.47   10.34
   8  18  -7   83.34   11.71
   8  18  -4   50.80    9.57
 -26   8  -4   42.91    9.55
 -26   8  -4   57.17    9.32
 -26   8  -4   58.53    9.64
  18 -26  -4   48.60    8.30
 -26   8  -1   99.57   12.08
 -26   8  -1   94.81   11.50
  18 -26  -1   96.78   11.24
   8  18  -1   78.72   11.46
  18 -26   2  167.25   15.72
 -26   8   2  157.56   10.03
  18 -26   2  179.55   10.43
 -26   8   2  171.16   14.82
   8  18   2  170.99    7.83
 -26   8   2  182.73   16.12
  18 -25  -8  115.33   15.63
  18 -25  -8   85.25   12.60
 -25   7  -8   79.25   13.53
 -25   7  -8   98.84   11.63
   7  18  -8   74.64   13.77
 -25   7  -8  100.47   11.96
   7  18  -8   75.78   11.37
  18 -25  -8   99.73   11.98
 -25   7  -5  338.49   22.14
 -25   7  -5  261.89   17.54
 -25   7  -5  269.61   17.09
  18 -25  -5  290.56   17.66
   7  18  -5  309.46   19.36
   7  18  -2   43.03    8.91
 -25   7  -2   29.93    7.70
 -25   7  -2   28.38    7.25
  18 -25  -2   15.87    6.48
 -25   7   1   78.16   10.55
   7  18   1   51.31   10.42
 -25   7   1   66.31   10.22
   7  18   1   70.46    6.47
  18 -25   1   91.52   11.45
 -25   7   4   62.80    4.54
  18 -25   4   63.43    3.81
  18 -25   7   81.65    8.33
  18 -24  -9   96.71   16.41
  18 -24  -9   91.37   13.31
 -24   6  -9   82.41   15.94
   6  18  -9  104.80   15.74
   6  18  -9   86.92   12.22
 -24   6  -9   94.64   11.75
 -24   6  -9   82.35   12.51
  18 -24  -9  101.18   12.39
 -24   6  -6  311.10   22.56
 -24   6  -6  357.61   20.15
 -24   6  -6  312.61   18.51
   6  18  -6  318.93   19.56
  18 -24  -6  323.30   18.69
 -24   6  -3  216.72   15.42
   6  18  -3  203.88   15.38
  18 -24  -3  233.97   15.68
 -24   6  -3  218.86   15.89
   6  18   0  254.43   17.33
 -24   6   0  281.21   17.67
 -24   6   0  278.22   18.15
  18 -24   0  258.69   17.11
  18 -24   3  383.54   22.46
 -24   6   3  368.33   20.44
   6  18   3  364.82    8.59
 -24   6   3  347.07   12.13
  18 -24   3  341.29   11.73
   6  18   3  337.52    7.90
 -24   6   3  335.06   21.68
  18 -23 -10   60.98   11.08
  18 -23 -10   52.32   12.98
 -23   5 -10   67.57   14.53
   5  18 -10   85.21   16.11
 -23   5 -10   52.29   10.11
  18 -23 -10   41.45    9.13
   5  18 -10   59.31   11.08
 -23   5  -7  276.83   21.86
 -23   5  -7  287.12   18.22
 -23   5  -7  260.51   17.34
   5  18  -7  272.53   18.12
  18 -23  -7  283.51   17.86
 -23   5  -4   17.35    6.23
   5  18  -4   11.78    6.95
 -23   5  -4   16.81    5.90
  18 -23  -4    6.01    5.25
 -23   5  -1  516.19   23.08
   5  18  -1  529.30   23.72
 -23   5  -1  488.77   22.56
  18 -23  -1  473.97   21.80
  18 -23   2  130.35   12.87
 -23   5   2  154.14    9.47
 -23   5   2  153.85   13.27
  18 -23   2  134.03    9.04
   5  18   2  161.75   14.61
   5  18   2  157.04    7.74
 -23   5   2  153.00   14.17
 -23   5   5  334.24   19.72
 -22   4  -8   55.98   11.72
 -22   4  -8   38.04    7.77
 -22   4  -8   34.51    7.88
  18 -22  -8   41.31    8.65
   4  18  -8   38.48    8.96
 -22   4  -5  133.74   12.19
 -22   4  -5  133.74   12.26
   4  18  -5  123.22   11.98
  18 -22  -5  127.94   11.48
 -22   4  -2   69.40    9.86
 -22   4  -2   66.99    8.98
   4  18  -2   55.79    8.70
  18 -22  -2   49.50    8.22
   4  18   1  147.78   13.51
 -22   4   1  147.35   12.85
 -22   4   1  140.79   12.59
  18 -22   1  134.92    9.79
   4  18   1  136.90    8.51
  18 -22   1  150.00   12.96
 -22   4   4    4.59    5.12
 -22   4   4   10.12    3.07
 -22   4   4    6.12    4.76
  18 -22   4    8.15    2.19
   4  18   4    3.45    1.00
  18 -21  -9   32.85    8.53
 -21   3  -9   41.11   11.94
 -21   3  -9   32.25    7.76
 -21   3  -9   31.91    7.86
   3  18  -9   32.03    8.62
  18 -21  -9   29.08    7.78
 -21   3  -6  508.50   22.75
   3  18  -6  501.59   23.25
 -21   3  -6  524.43   22.79
  18 -21  -6  479.08   22.02
 -21   3  -3  172.23   13.21
  18 -21  -3  167.24    9.83
 -21   3  -3  166.99    9.81
 -21   3  -3  188.55   13.48
  18 -21  -3  199.92   13.99
   3  18  -3  195.00   14.40
 -21   3   0  113.65   11.05
   3  18   0  119.50   11.78
 -21   3   0  107.44   10.74
  18 -21   0  135.32   11.58
   3  18   0  109.39    8.78
  18 -21   3   96.33   11.43
 -21   3   3  103.06   10.80
 -21   3   3   87.21    6.77
  18 -21   3   82.35    6.07
   3  18   3   75.74    4.89
   3  18   3   94.59   11.70
 -21   3   3   88.89   11.32
 -21   3   6   63.49    9.01
  18 -20 -10  153.19   15.09
 -20   2 -10  114.97   17.42
   2  18 -10  140.62   14.97
   2  18 -10  139.90   17.92
 -20   2 -10  129.28   13.53
  18 -20 -10  118.50   13.30
 -20   2  -7  732.34   27.01
   2  18  -7  679.02   27.34
 -20   2  -7  724.13   27.12
  18 -20  -7  695.18   26.74
   2  18  -4  161.48   10.00
 -20   2  -4  180.45   13.71
  18 -20  -4  181.50    8.89
 -20   2  -4  198.94   14.07
   2  18  -4  221.40   15.01
 -20   2  -4  166.61    8.94
  18 -20  -4  225.33   14.53
   2  18  -1 1356.67   35.19
  18 -20  -1 1250.38   28.24
 -20   2  -1 1293.78   34.04
 -20   2  -1 1194.05   26.77
 -20   2  -1 1388.78   34.83
  18 -20  -1 1274.61   33.02
 -20   2   2  221.08   14.63
   2  18   2  223.71   15.84
  18 -20   2  232.25   10.93
   2  18   2  203.11    8.86
 -20   2   2  248.44   16.15
 -20   2   2  204.28   10.76
  18 -20   2  250.87   16.11
  18 -20   5  542.95   10.20
 -20   2   5  572.34   13.85
 -19   1  -8    3.60    4.84
   1  18  -8    6.96    6.43
 -19   1  -8    9.04    5.91
  18 -19  -8    7.13    6.46
   1  18  -5   65.18    5.80
  18 -19  -5   46.91    4.00
 -19   1  -5   63.64    8.68
   1  18  -5   74.59    9.50
 -19   1  -5   47.21    7.56
 -19   1  -5   58.93    4.98
  18 -19  -5   68.88    8.72
   1  18  -2    3.56    4.07
 -19   1  -2    1.54    4.53
  18 -19  -2    7.36    3.46
 -19   1  -2    7.84    3.80
 -19   1  -2    5.77    4.83
  18 -19  -2    5.93    5.05
   1  18  -2    3.65    3.69
 -19   1   1   42.08    6.82
 -19   1   1   42.52    6.18
 -19   1   1   59.60    8.80
  18 -19   1   40.58    6.01
   1  18   1   49.38    5.59
   1  18   1   49.74    7.65
  18 -19   1   61.40    8.58
 -19   1   4    3.30    2.81
 -19   1   4    9.11    6.08
  18 -19   4   11.37    6.10
 -19   1   4   -0.74    4.09
  18 -19   4    6.07    2.80
   1  18   4    2.21    2.12
 -18   0  -9   -0.54    5.24
   0  18  -9   10.84    7.68
 -18   0  -9    0.29    6.13
  18 -18  -9   -5.38    6.10
   0  18  -6   66.66    9.22
 -18   0  -6   63.63    9.06
 -18   0  -6   58.67    8.48
   0  18  -3   -3.66    2.93
  18 -18  -3    2.04    2.69
 -18   0  -3    2.38    5.17
 -18   0  -3    2.73    2.55
 -18   0  -3   -1.11    4.53
  18 -18  -3    5.91    5.25
   0  18  -3    1.61    4.46
  18 -18   0  240.03   12.87
   0  18   0  260.90   15.10
 -18   0   0  270.98   15.37
 -18   0   0  245.58   12.35
 -18   0   0  239.28   14.42
  18 -18   0  257.96   14.91
   0  18   0  255.42   12.27
 -18   0   3   -0.48    4.82
  18 -18   3    0.77    5.09
 -18   0   3   -0.57    3.78
  18 -18   3    3.46    2.83
 -18   0   3    0.94    2.76
   0  18   3   -0.53    2.31
   0  18   3   -1.15    4.70
  18 -18   6  282.54    7.85
 -18   0   6  305.53   11.47
   0  18   6  306.71   10.21
 -17  -1 -10  233.52   21.80
  -1  18 -10  238.04   18.74
 -17  -1 -10  218.80   15.34
 -17  -1 -10  200.83   17.04
  18 -17 -10  197.10   17.10
 -17  -1  -7  937.66   29.42
 -17  -1  -7  929.40   30.24
  18 -17  -7  920.95   30.44
  -1  18  -7  900.42   30.82
  18 -17  -4  466.22   10.43
  -1  18  -4  477.04   13.37
  -1  18  -4  511.04   21.54
 -17  -1  -4  469.63   20.36
 -17  -1  -4  478.26   19.97
 -17  -1  -4  477.66   11.46
  18 -17  -4  470.61   20.33
  -1  18  -1  709.06   20.76
  18 -17  -1  723.26   19.55
 -17  -1  -1  757.26   24.69
 -17  -1  -1  730.13   18.84
 -17  -1  -1  733.89   23.79
  18 -17  -1  747.89   23.80
  -1  18  -1  704.88   23.77
 -17  -1   2  559.37   21.10
  18 -17   2  480.95   15.59
 -17  -1   2  507.27   16.58
  -1  18   2  511.45   14.73
 -17  -1   2  541.03   21.99
  -1  18   2  547.25   22.26
  18 -17   2  541.24   21.77
  18 -17   5  799.49   15.97
 -17  -1   5  804.27   25.31
  -1  18   5  776.30   16.88
 -17  -1   5  796.58   18.97
 -16  -2 -11   18.54   10.98
  -2  18 -11   47.25   10.68
 -16  -2 -11   27.23    8.92
  18 -16 -11   32.19    9.52
  18 -16 -11   28.15    7.77
  -2  18  -8  112.94   12.56
 -16  -2  -8  141.05   12.25
 -16  -2  -8  121.21   12.32
  18 -16  -8  151.04   13.54
  -2  18  -5  164.12    6.27
  -2  18  -5  169.93   13.16
 -16  -2  -5  167.37   12.55
 -16  -2  -5  141.67   11.70
 -16  -2  -5  149.48    5.16
  18 -16  -5  177.16   13.12
  -2  18  -2  330.79   12.85
  18 -16  -2  368.02   12.14
 -16  -2  -2  342.27   16.76
 -16  -2  -2  348.29   11.35
  -2  18  -2  366.90   17.29
 -16  -2  -2  336.19   16.26
  18 -16  -2  322.89   15.68
 -16  -2   1   96.96    9.33
  -2  18   1  101.24    9.49
 -16  -2   1   96.85    8.11
 -16  -2   1  102.32    8.68
 -16  -2   1   88.83    9.30
  18 -16   1   92.41    7.89
  -2  18   1  108.07    7.67
  18 -16   1   90.27    9.05
 -16  -2   4   61.18    6.16
  18 -16   4   79.03    9.77
 -16  -2   4   72.42    7.85
  18 -16   4   73.46    5.82
  -2  18   4   69.66    5.79
 -16  -2   4   75.33    9.78
 -16  -2   7   11.36    4.84
  -3  18  -9   56.10   10.18
 -15  -3  -9   49.79    8.22
 -15  -3  -9   51.05    9.36
  18 -15  -9   43.20    9.50
 -15  -3  -6    4.27    4.20
  -3  18  -6    8.52    5.23
 -15  -3  -6    7.96    5.41
  18 -15  -6    6.88    5.32
  -3  18  -3  422.04   12.26
 -15  -3  -3  403.26   18.03
  -3  18  -3  402.71   18.11
 -15  -3  -3  410.06    9.80
 -15  -3  -3  404.45   17.89
  18 -15  -3  416.92   17.62
 -15  -3   0  247.56   14.00
 -15  -3   0  236.94   11.34
 -15  -3   0  226.40   13.24
  18 -15   0  264.80   14.19
  -3  18   0  243.54   12.00
  -3  18   0  250.37   13.86
 -15  -3   3  220.99   10.89
 -15  -3   3  265.38   14.10
  18 -15   3  241.54   10.54
  -3  18   3  225.20   14.33
  -3  18   3  218.43    9.89
 -15  -3   3  235.02   14.35
  18 -15   3  241.59   14.76
  18 -15   6  224.93    9.62
 -15  -3   6  248.30   13.87
 -15  -3   6  243.07   11.95
  -3  18   6  229.73   11.09
 -14  -4 -10  239.78   15.82
 -14  -4 -10  258.10   18.41
  18 -14 -10  257.54   19.39
  -4  18 -10  263.89   19.74
  -4  18  -7  523.82   23.52
 -14  -4  -7  534.83   22.09
 -14  -4  -7  560.10   23.54
  18 -14  -7  548.38   23.67
  -4  18  -4 1010.67   28.99
 -14  -4  -4 1018.94   28.72
 -14  -4  -4 1023.75   28.67
  18 -14  -4 1072.13   29.07
 -14  -4  -1 1034.88   27.63
 -14  -4  -1  984.69   26.70
  -4  18  -1  994.99   26.63
  18 -14  -1 1015.31   26.38
 -14  -4   2  416.85   17.04
 -14  -4   2  398.74   14.92
  -4  18   2  414.77   17.70
  18 -14   2  413.77   14.51
 -14  -4   2  410.23   17.79
  -4  18   2  400.39   13.63
  18 -14   2  387.57   17.16
  18 -14   5  830.05   18.93
  -4  18   5  804.59   20.07
 -14  -4   5  768.55   20.86
 -14  -4   5  814.93   27.94
 -13  -5 -11    8.54    9.28
  -5  18 -11   29.91    9.75
 -13  -5 -11   13.70    7.52
  18 -13 -11   16.05    8.65
 -13  -5  -8  385.96   19.11
 -13  -5  -8  374.18   20.55
  18 -13  -8  390.21   21.64
  -5  18  -8  365.65   21.26
  -5  18  -5    2.83    4.20
 -13  -5  -5   -0.92    3.91
 -13  -5  -5    1.47    3.80
  18 -13  -5   -2.01    4.26
 -13  -5  -2  188.51   12.03
  -5  18  -2  208.86   12.73
 -13  -5  -2  191.49   12.27
  18 -13  -2  187.27   11.72
 -13  -5   1 1044.07   26.74
 -13  -5   1  967.56   26.04
  18 -13   1 1031.45   24.02
  -5  18   1 1001.95   22.37
  18 -13   1 1041.96   26.45
  18 -13   4  226.71   14.25
 -13  -5   4  263.11   13.45
  18 -13   4  238.10   10.84
  -5  18   4  241.85   14.66
  -5  18   4  242.80   11.21
 -13  -5   4  239.89   14.55
 -13  -5   4  226.03   11.60
 -13  -5   7  263.35   13.09
 -12  -6  -9  225.37   15.12
 -12  -6  -9  238.12   17.21
  18 -12  -9  229.34   17.56
  -6  18  -9  220.72   17.41
 -12  -6  -6   60.27    8.25
 -12  -6  -6   50.25    8.17
  18 -12  -6   49.63    7.55
  -6  18  -6   47.79    8.57
  -6  18  -3  482.45   19.25
 -12  -6  -3  500.87   19.62
 -12  -6  -3  485.33   19.29
  18 -12  -3  451.52   18.32
  -6  18   0   22.74    4.77
 -12  -6   0   28.76    5.60
 -12  -6   0   32.45    5.90
  18 -12   0   16.24    4.72
  -6  18   3  750.09   23.37
 -12  -6   3  645.09   19.32
 -12  -6   3  716.21   21.65
  18 -12   3  695.20   18.74
  -6  18   3  686.79   18.59
 -12  -6   3  668.94   22.48
  18 -12   3  687.98   22.69
  18 -12   6    7.71    3.70
 -12  -6   6   15.12    4.52
 -11  -7 -10  218.27   15.33
 -11  -7 -10  233.20   17.94
  18 -11 -10  214.84   17.73
  -7  18 -10  206.41   17.91
 -11  -7  -7  253.26   15.42
 -11  -7  -7  210.04   15.20
  18 -11  -7  218.60   15.62
  -7  18  -7  207.54   15.59
  -7  18  -4  863.94   26.64
 -11  -7  -4  842.92   25.64
 -11  -7  -4  873.38   26.36
  18 -11  -4  856.39   26.01
  -7  18  -1 1457.66   30.87
 -11  -7  -1 1541.45   31.66
  18 -11  -1 1470.03   30.45
  -7  18   2  707.41   21.34
 -11  -7   2  700.85   21.30
  18 -11   2  679.43   19.13
 -11  -7   2  672.26   21.25
  -7  18   2  636.68   17.94
  18 -11   2  685.00   21.25
 -11  -7   5 1679.09   31.73
 -11  -7   5 1694.58   37.06
 -11  -7   8  139.55    8.98
  -8  18 -11   57.44   11.84
 -10  -8 -11   79.42   12.80
  18 -10 -11   51.89   10.62
 -10  -8  -8  147.30   13.57
 -10  -8  -8  124.59   11.65
  18 -10  -8  146.63   13.77
  -8  18  -8  131.53   13.47
 -10  -8  -5  403.39   18.87
 -10  -8  -5  414.50   18.60
  18 -10  -5  359.48   17.82
  -8  18  -5  390.92   19.01
  -8  18  -2  257.14   13.51
 -10  -8  -2  296.67   15.02
 -10  -8  -2  281.75   14.18
  18 -10  -2  271.94   13.76
 -10  -8   1  805.01   22.96
 -10  -8   1  797.72   22.41
  -8  18   1  788.24   21.80
  18 -10   1  821.59   22.31
  18 -10   4  490.40   19.14
 -10  -8   4  504.46   17.54
  18 -10   4  499.12   16.83
 -10  -8   4  469.15   18.59
  -8  18   4  483.65   18.72
 -10  -8   7  290.04   12.64
  -9  -9  -9  210.45   14.90
  -9  -9  -9  208.45   16.74
  18  -9  -9  183.09   16.06
  -9  18  -9  220.75   17.33
  -9  18  -6   17.53    5.36
  -9  -9  -6   21.68    6.21
  -9  -9  -6   33.74    7.68
  18  -9  -6   42.83    7.96
  -9  -9  -3  403.31   17.57
  -9  -9  -3  370.96   16.58
  18  -9  -3  417.91   17.33
  -9  18  -3  400.67   17.44
  -9  -9   0   24.10    5.31
  -9  -9   0   19.16    4.70
  -9  18   0   16.90    4.45
  18  -9   0   15.39    4.37
  -9  -9   3  321.14   14.24
  -9  18   3  317.95   14.52
  -9  -9   3  331.82   14.82
  18  -9   3  335.04   14.72
  -9  -9   6    7.61    3.30
  -8 -10 -10  120.18   11.98
  -8 -10 -10  122.55   14.24
  18  -8 -10  141.10   15.35
 -10  18 -10  100.55   13.09
  -8 -10  -7  283.40   16.52
  -8 -10  -7  301.70   18.58
  18  -8  -7  322.05   18.99
 -10  18  -7  283.90   18.10
  -8 -10  -4  501.73   20.09
  -8 -10  -4  550.04   21.29
  18  -8  -4  524.82   20.42
 -10  18  -4  546.18   21.37
 -10  18  -1  789.53   22.36
  -8 -10  -1  749.17   22.86
  -8 -10  -1  726.15   21.73
  18  -8  -1  744.59   21.10
  -8 -10   2  124.89    9.17
  -8 -10   2  114.45    8.59
  18  -8   2  112.63    8.60
 -10  18   2  125.30    8.59
  -8 -10   5  373.70   14.49
  -8 -10   5  351.70   16.00
  -8 -10   8  155.57    8.36
  -7 -11 -11  160.12   14.04
  -7 -11 -11  162.88   16.76
  18  -7 -11  141.74   16.20
 -11  18 -11  170.29   18.21
  -7 -11  -8  261.08   16.19
  -7 -11  -8  257.07   17.86
  18  -7  -8  233.75   17.02
 -11  18  -8  260.32   18.90
  -7 -11  -5 1514.41   36.77
  -7 -11  -5 1553.85   35.81
  -7 -11  -2  721.32   22.98
  -7 -11  -2  709.02   22.05
  18  -7  -2  685.76   21.00
 -11  18  -2  657.64   21.36
  -7 -11   1 1440.24   30.34
 -11  18   1 1290.10   26.16
  -7 -11   1 1301.09   27.29
  18  -7   1 1387.05   27.21
  18  -7   4  601.47   19.44
  -7 -11   4  620.33   18.89
 -11  18   4  591.78   18.87
  -7 -11   4  620.43   19.61
  -7 -11   7  301.92   12.14
  -6 -12  -9   43.18    7.85
  -6 -12  -9   12.24    7.35
  18  -6  -9   22.84    7.91
 -12  18  -9   27.23    8.30
  -6 -12  -6    5.34    4.56
  -6 -12  -6   21.40    6.35
  18  -6  -6    8.64    6.02
 -12  18  -6    5.79    5.11
  -6 -12  -3  789.77   24.69
  -6 -12  -3  772.65   24.03
  18  -6  -3  729.38   23.00
 -12  18  -3  746.41   23.76
 -12  18   0   16.49    3.86
  -6 -12   0   17.90    4.23
  18  -6   0   20.58    4.35
  -6 -12   0   19.30    4.65
  -6 -12   3  498.09   17.16
 -12  18   3  538.02   16.77
  -6 -12   3  500.95   16.68
  18  -6   3  488.76   16.42
  -6 -12   6   22.36    4.40
  -5 -13 -10   46.84    8.71
  -5 -13 -10   15.88    8.60
  18  -5 -10   44.10   10.52
 -13  18 -10   51.30   10.97
  -5 -13  -7  322.23   17.89
  -5 -13  -7  316.80   19.00
  18  -5  -7  286.28   18.39
 -13  18  -7  356.74   20.78
  -5 -13  -4  248.54   14.65
  -5 -13  -4  288.15   15.92
  18  -5  -4  286.38   15.56
 -13  18  -4  258.43   15.37
  -5 -13  -1 1127.96   28.25
  -5 -13  -1 1130.61   26.51
  18  -5  -1 1082.70   25.01
 -13  18  -1 1136.25   26.29
  -5 -13   2  241.22   12.46
  -5 -13   2  232.84   11.31
 -13  18   2  234.24   10.77
  18  -5   2  230.34   10.87
  -5 -13   5    8.80    3.77
  -5 -13   5    6.69    3.41
  -5 -13   8  377.78   11.57
  -4 -14 -11  293.17   18.86
  -4 -14 -11  259.57   21.26
  18  -4 -11  294.00   23.41
 -14  18 -11  247.61   21.71
  -4 -14  -8  379.04   20.03
  -4 -14  -8  354.59   21.86
 -14  18  -8  365.79   22.30
  18  -4  -8  364.35   21.90
  -4 -14  -5  799.97   26.64
  -4 -14  -5  732.97   26.54
  18  -4  -5  834.45   27.30
 -14  18  -5  828.51   28.26
  -4 -14  -2  510.88   19.80
  -4 -14  -2  466.21   18.15
  18  -4  -2  501.94   18.20
 -14  18  -2  526.12   18.95
  -4 -14   1  920.39   24.55
 -14  18   1  931.59   21.23
  -4 -14   1  950.85   22.45
  18  -4   1  944.46   21.49
  -4 -14   4  748.16   20.63
 -14  18   4  758.51   18.65
  -4 -14   4  727.02   19.57
  18  -4   4  743.70   19.98
  -4 -14   7  644.81   16.56
  -3 -15  -9  107.70   11.63
  -3 -15  -9  103.22   13.02
 -15  18  -9   97.76   13.71
  18  -3  -9  103.26   13.53
  -3 -15  -6  347.17   18.17
  -3 -15  -6  313.18   18.84
 -15  18  -6  350.22   19.99
  18  -3  -6  368.79   20.06
  -3 -15  -3  263.56   15.02
  -3 -15  -3  276.42   15.08
  18  -3  -3  275.43   14.53
 -15  18  -3  313.98   16.23
 -15  18   0  317.28   13.37
  -3 -15   0  312.28   15.03
  -3 -15   0  314.64   13.69
  18  -3   0  343.18   13.32
 -15  18   3  428.15   13.64
  -3 -15   3  442.64   16.53
  -3 -15   3  395.56   13.90
  18  -3   3  421.69   14.07
  -3 -15   6   31.96    4.79
  -2 -16 -10   30.92    8.45
  -2 -16 -10   50.56   11.46
  18  -2 -10   54.16   11.72
 -16  18 -10   35.97    9.72
  -2 -16  -7    7.67    1.76
  -2 -16  -7    9.97    5.29
  -2 -16  -7    8.94    5.93
  18  -2  -7    8.26    7.21
 -16  18  -7    4.18    6.12
  -2 -16  -4   65.53    8.49
  -2 -16  -4   56.62    8.12
 -16  18  -4   80.31    9.67
  18  -2  -4   58.23    7.97
  -2 -16  -1  133.45   10.55
  -2 -16  -1  119.18    9.28
  18  -2  -1  125.40    8.71
 -16  18  -1  128.82    9.39
  -2 -16   2  330.55   14.85
 -16  18   2  326.86   11.79
  -2 -16   2  324.53   12.65
  18  -2   2  347.13   12.22
  -2 -16   5  165.03    9.78
  -2 -16   5  163.32    9.16
  -1 -17 -11  124.13   13.60
  -1 -17 -11  156.94   17.58
 -17  18 -11  145.07   17.92
  18  -1 -11  119.96   17.21
  -1 -17  -8  104.55   11.51
 -17  18  -8  130.09   14.63
  18  -1  -8  123.36   13.89
  -1 -17  -8  125.48   14.33
  -1 -17  -5  650.49   13.43
  -1 -17  -5  701.64   26.68
 -17  18  -5  705.52   27.17
  18  -1  -5  693.08   25.88
  -1 -17  -5  663.54   25.29
  -1 -17  -2  694.86   24.09
  -1 -17  -2  706.31   22.88
  18  -1  -2  740.68   22.02
 -17  18  -2  703.18   22.65
 -17  18   1  639.26   17.35
  -1 -17   1  593.02   20.58
  -1 -17   1  613.32   18.09
  18  -1   1  623.60   16.82
  18  -1   4  315.99   11.51
 -17  18   4  331.69   10.71
  -1 -17   4  328.10   12.35
  -1 -17   7 1217.82   22.73
   0 -18  -9    0.54    5.51
   0 -18  -9    8.19    7.93
  18   0  -9   -7.73    7.13
 -18  18  -9   -4.92    7.85
   0 -18  -6  353.91   19.26
   0 -18  -6  339.90   20.13
  18   0  -6  340.88   12.75
 -18  18  -6  378.28   21.32
  18   0  -6  390.03   21.01
   0 -18  -6  352.82   10.77
   0 -18  -3   -1.85    4.18
   0 -18  -3   -3.66    4.49
  18   0  -3    0.25    4.40
 -18  18  -3   -1.35    4.52
   0 -18   0  239.82   13.96
   0 -18   0  222.24   11.71
  18   0   0  196.83   10.32
 -18  18   0  228.97   11.59
   0 -18   3    2.61    3.80
 -18  18   3    3.38    2.71
   0 -18   3    1.82    2.47
  18   0   3    4.45    2.59
   0 -18   6  107.19    7.98
   1 -19 -10   25.14    9.05
   1 -19 -10   28.76    9.27
  18   1 -10   49.59   11.76
 -19  18 -10   26.98   10.86
   1 -19  -7    8.45    3.01
   1 -19  -7   17.82    6.65
   1 -19  -7    7.12    5.83
  18   1  -7    8.77    3.89
  18   1  -7   25.12    7.55
 -19  18  -7    7.44    7.03
   1 -19  -4    5.08    2.83
   1 -19  -4    2.27    5.45
   1 -19  -4    1.62    5.17
  18   1  -4    3.70    4.65
 -19  18  -4   12.42    6.09
   1 -19  -1   84.46    9.20
   1 -19  -1   97.02    8.89
  18   1  -1   78.36    7.50
 -19  18  -1   95.33    8.47
   1 -19   2   -0.10    3.49
   1 -19   2    2.33    2.84
 -19  18   2   10.60    3.17
  18   1   2    8.84    3.01
   1 -19   5   51.29    6.09
   1 -19   5   48.89    4.56
   2 -20  -8  448.32   23.62
   2 -20  -8  413.20   25.09
 -20  18  -8  430.85   25.86
  18   2  -8  406.97   24.30
   2 -20  -5  539.39   23.99
   2 -20  -5  615.46   26.18
 -20  18  -5  456.10   23.10
  18   2  -5  494.25   17.49
  18   2  -5  566.34   24.20
   2 -20  -5  572.86   16.24
   2 -20  -2  270.88   16.27
   2 -20  -2  283.32   15.11
 -20  18  -2  299.92   15.44
  18   2  -2  278.85   14.12
   2 -20   1 1412.55   33.42
   2 -20   1 1443.99   27.74
  18   2   1 1415.89   24.56
 -20  18   1 1450.72   26.03
  18   2   4  105.51    5.74
   2 -20   4  115.10    9.05
 -20  18   4   95.72    4.61
   2 -20   4  107.23    6.61
   2 -20   7  822.08   19.73
   3 -21  -9  109.34   13.13
 -21  18  -9   92.46   14.02
  18   3  -9   97.22   14.58
   3 -21  -9   88.87   13.33
   3 -21  -6  131.46   12.81
   3 -21  -6  101.19   12.21
 -21  18  -6  117.96   13.11
  18   3  -6   87.32    8.23
  18   3  -6  113.92   12.60
   3 -21  -6   93.42    7.36
   3 -21  -3   79.85    7.58
   3 -21  -3   71.64    9.56
   3 -21  -3   82.16    9.97
 -21  18  -3   89.32    9.76
  18   3  -3   82.19    9.03
   3 -21   0  110.69   10.40
   3 -21   0  138.54    9.74
  18   3   0  117.60    8.27
 -21  18   0  128.31    9.16
   3 -21   3  151.22    7.93
 -21  18   3  161.40    7.00
  18   3   3  152.75    6.90
   3 -21   6  533.69   17.93
   4 -22 -10   17.55    8.16
   4 -22 -10   12.93    9.72
  18   4 -10   21.63   10.93
 -22  18 -10    6.44    9.90
  18   4  -7   75.36    8.12
   4 -22  -7   75.13   11.12
   4 -22  -7   61.87   11.14
 -22  18  -7   85.41   13.09
  18   4  -7   70.60   11.36
   4 -22  -7   68.55    6.98
   4 -22  -4   10.52    3.82
   4 -22  -4   15.30    6.26
   4 -22  -4   15.93    6.64
  18   4  -4   15.58    5.40
 -22  18  -4   15.79    6.74
  18   4  -4    8.15    4.63
   4 -22  -1  129.31   11.49
   4 -22  -1   93.97    8.92
 -22  18  -1  104.92    9.39
  18   4  -1  116.98    8.91
 -22  18   2  119.79    6.96
   4 -22   2  102.31    9.60
  18   4   2  118.99    6.65
   4 -22   5   98.44    8.53
   5 -23  -8   57.39   10.30
   5 -23  -8   70.06   12.51
  18   5  -8   75.39   12.90
 -23  18  -8   51.09   10.53
 -23  18  -5  363.55   15.91
   5 -23  -5  324.55   19.73
 -23  18  -5  361.39   20.93
  18   5  -5  378.78   20.53
   5 -23  -5  366.31   21.30
  18   5  -5  320.17   16.34
   5 -23  -5  343.78   15.16
   5 -23  -2  230.38   15.86
   5 -23  -2  219.83   14.23
 -23  18  -2  229.79   14.35
  18   5  -2  263.49   14.22
   5 -23   1  553.27   22.28
   5 -23   1  557.99   17.91
  18   5   1  594.85   15.86
 -23  18   1  516.93   15.99
   5 -23   4    5.94    3.97
   5 -23   4    6.31    2.25
   5 -23   7  264.73   12.45
   6 -24  -9  160.34   16.26
   6 -24  -9  175.01   18.79
 -24  18  -9  140.47   17.33
  18   6  -9  163.82   18.22
   6 -24  -6  230.23   17.89
   6 -24  -6  246.03   19.07
  18   6  -6  237.90   14.55
 -24  18  -6  270.65   20.17
  18   6  -6  240.77   18.11
   6 -24  -6  261.84   13.45
 -24  18  -6  210.42   12.75
   6 -24  -3  352.00   16.42
   6 -24  -3  376.05   20.91
   6 -24  -3  327.06   18.34
 -24  18  -3  354.09   19.19
  18   6  -3  352.09   17.85
   6 -24   0  291.96   17.22
   6 -24   0  275.91   14.09
 -24  18   0  306.67   14.33
  18   6   0  278.89   12.50
 -24  18   3  229.45    7.64
   6 -24   3  249.97    9.89
  18   6   3  226.37    6.58
   6 -24   6  258.49   13.40
   7 -25  -7   56.15   10.89
  18   7  -7   66.45    8.92
   7 -25  -7   85.32   12.48
 -25  18  -7   75.69   12.66
  18   7  -7   74.48   12.13
   7 -25  -7   74.86    8.34
   7 -25  -4   35.82    6.52
 -25  18  -4   14.31    5.40
   7 -25  -4   41.13    8.67
  18   7  -4   40.38    7.96
 -25  18  -4   22.66    7.42
  18   7  -4   17.62    6.38
   7 -25  -4   34.77    7.81
   7 -25  -1  110.00    9.95
 -25  18  -1  128.51   10.58
  18   7  -1  115.04    9.32
   7 -25  -1  138.49   12.91
   7 -25   2   26.88    6.99
  18   7   2   22.09    3.32
   7 -25   2   29.02    4.78
 -25  18   2   30.47    4.15
   7 -25   5  281.56   15.22
   8 -26  -8   35.25    9.81
   8 -26  -8   30.10   10.56
 -26  18  -8    3.91    7.72
  18   8  -8   12.07    8.45
   8 -26  -5  131.18   14.43
   8 -26  -5  137.38   14.25
 -26  18  -5  121.32   13.94
  18   8  -5  128.04   13.38
  18   8  -5  156.27   13.05
   8 -26  -5  144.62   11.47
 -26  18  -5  150.65   12.21
   8 -26  -2  201.26   14.30
   8 -26  -2  200.76   15.99
   8 -26  -2  151.20   12.68
 -26  18  -2  175.24   13.78
  18   8  -2  197.47   12.93
   8 -26   1  109.41   11.26
   8 -26   1  110.86    8.78
 -26  18   1  123.98    8.67
  18   8   1  128.67    7.77
   8 -26   4   38.91    6.96
   8 -26   4   37.42    3.25
   9 -27  -6  249.11   19.63
   9 -27  -6  284.80   21.32
  18   9  -6  271.14   17.29
 -27  18  -6  282.73   20.89
  18   9  -6  281.48   20.17
 -27  18  -6  251.54   15.54
   9 -27  -6  276.21   15.89
   9 -27  -3  305.45   17.20
 -27  18  -3  355.89   19.46
   9 -27  -3  346.10   20.92
   9 -27  -3  359.72   20.19
 -27  18  -3  384.12   20.97
  18   9  -3  338.96   18.19
  18   9  -3  331.42   19.62
   9 -27   0  136.11   13.13
   9 -27   0  171.02   11.65
 -27  18   0  164.37   11.12
  18   9   0  165.89    9.93
   9 -27   3  164.29   13.28
 -27  18   3  143.60    5.64
   9 -27   3  153.87    7.98
   9 -27   6   48.27    7.18
  18  10  -7   82.35   11.02
  10 -28  -7   62.73   11.96
 -28  18  -7   93.07   14.53
  18  10  -7   72.38   12.87
  10 -28  -7   79.09    9.73
  10 -28  -4    9.10    5.86
 -28  18  -4    4.27    5.33
  18  10  -4    5.63    5.75
  10 -28  -4    7.02    7.02
  10 -28  -4   14.61    7.67
 -28  18  -4   15.82    7.34
  18  10  -4    6.58    6.31
  10 -28  -1  163.23   14.34
  10 -28  -1  204.61   15.94
  10 -28  -1  181.10   13.33
 -28  18  -1  176.29   13.14
  18  10  -1  194.48   12.28
  10 -28   2   44.14    8.73
  10 -28   2   43.57    5.64
  18  10   2   48.22    4.04
 -28  18   2   43.80    4.87
  10 -28   5  124.09   11.17
  11 -29  -8  100.84   15.17
  11 -29  -8   74.44   14.25
 -29  18  -8  103.30   16.08
  18  11  -8   95.26   14.83
  11 -29  -5    4.24    5.45
 -29  18  -5   -1.03    5.67
  11 -29  -5   -6.95    7.64
  11 -29  -5    1.71    6.74
 -29  18  -5    5.71    7.22
  18  11  -5    4.86    6.22
  18  11  -5   -4.40    6.46
  11 -29  -2   20.35    7.69
  11 -29  -2   20.01    7.76
  11 -29  -2   21.35    6.84
 -29  18  -2   27.88    7.28
  18  11  -2   15.15    5.26
  11 -29   1    0.71    5.15
  11 -29   1   12.44    4.54
  18  11   1   15.31    3.81
 -29  18   1   10.99    4.21
  11 -29   4   46.53    8.16
  12 -30  -6  117.82   15.51
  12 -30  -6  134.08   16.25
 -30  18  -6  114.02   15.70
  18  12  -6  110.07   13.43
  18  12  -6  129.84   15.05
 -30  18  -6  140.13   13.42
  12 -30  -6   90.74   11.01
 -30  18  -3  461.36   24.23
  12 -30  -3  450.66   22.85
  12 -30  -3  477.40   26.36
  12 -30  -3  522.14   25.31
 -30  18  -3  565.18   26.30
  18  12  -3  538.16   23.77
  18  12  -3  510.07   26.43
  12 -30   0  132.00   13.66
  12 -30   0  144.63   11.67
  18  12   0  129.06    9.32
 -30  18   0  122.64   10.56
  12 -30   3  341.87   20.06
  12 -30   6   69.08    8.68
  18  13  -7   13.01    8.52
  13 -31  -7   -2.48    8.53
  13 -31  -7    5.36    9.26
 -31  18  -7    7.71    9.23
  18  13  -7    5.31    8.23
  13 -31  -4  130.05   14.71
  18  13  -4  101.16   13.04
  13 -31  -4  118.34   13.90
 -31  18  -4  110.32   13.65
  18  13  -4  103.78   12.35
 -31  18  -4   95.32   12.58
  13 -31  -4  106.93   12.23
  13 -31  -1  111.49   13.13
  13 -31  -1  111.29   13.48
 -31  18  -1  112.93   11.79
  18  13  -1  102.99    9.64
  13 -31  -1   96.17   10.81
  13 -31   2   97.79   11.76
  13 -31   2   97.73    8.27
  13 -31   5   13.97    6.71
  14 -32  -5   13.11    7.51
 -32  18  -5   30.48    8.99
  14 -32  -5   26.93    9.17
  14 -32  -5   26.98    9.25
 -32  18  -5   17.62    9.20
  18  14  -5   16.48    7.66
  18  14  -5   -2.00    7.39
  14 -32  -2   18.81    8.05
 -32  18  -2   50.92   10.81
  14 -32  -2   37.26    9.82
  14 -32  -2   54.29    9.61
 -32  18  -2   17.64    7.06
  18  14  -2   27.98    6.92
  14 -32   1   15.33    7.70
  14 -32   1   11.37    4.90
 -32  18   1   10.62    4.67
  14 -32   4   29.85    8.65
  15 -33  -6   49.51   10.03
 -33  18  -6   47.00   10.33
  15 -33  -6   47.49   11.42
  15 -33  -6   63.13   13.00
  18  15  -6   39.47   11.30
 -33  18  -6   53.06   12.30
  18  15  -6   41.60   11.00
 -33  18  -3  212.70   18.41
  15 -33  -3  187.11   17.28
  15 -33  -3  192.43   18.57
  15 -33  -3  154.08   15.51
 -33  18  -3  165.81   15.99
  18  15  -3  187.61   15.01
  18  15  -3  224.10   20.27
  15 -33   0  111.87   11.14
 -33  18   0  101.07   10.25
  15 -33   3  328.53   21.08
  16 -34  -4  172.37   16.62
  16 -34  -4  143.58   16.56
  16 -34  -4  152.04   16.66
  18  16  -4  159.95   17.56
 -34  18  -4  149.06   16.72
  18  16  -4  135.35   14.30
 -34  18  -4  147.02   16.02
  16 -34  -1    6.29    8.33
  16 -34  -1   14.85    8.78
  16 -34  -1   -4.26    5.96
 -34  18  -1    1.74    6.18
  18  16  -1   -2.84    4.95
  16 -34   2   84.22   12.16
  16 -34   5   -0.77    6.49
 -35  18  -2    0.43    7.22
  17 -35  -2   -2.81    7.00
  17 -35  -2   18.31    9.22
  17 -35  -2   11.10    7.28
  18  17  -2    0.31    5.83
 -35  18  -2    8.68    7.41
  17 -35   1   16.69    8.47
  17 -35   4   11.67    7.41
 -36  18  -3   99.28   14.34
  18 -36  -3  104.48   14.75
  18  18  -3   79.56   14.96
  18 -36  -3  112.61   15.45
  18 -36  -3   69.98   12.35
 -36  18  -3  117.56   14.85
  18  18  -3  110.96   12.74
  18 -36   0   95.26   14.48
  18 -36   0   71.36    9.93
  18 -36   3  106.69   13.92
  19 -37  -1   52.00   12.38
  19 -37  -1   38.65   10.60
  19 -37  -1   53.01    9.92
 -36  17  -2   72.99   13.55
  19 -36  -2   72.73   13.41
  19 -36  -2   78.60   13.63
  19 -36  -2   61.34   10.85
 -36  17  -2   57.03   11.03
  19 -36   1   27.90    9.38
 -35  16  -3   -0.66    7.86
  19 -35  -3    3.38    7.87
  19 -35  -3   -7.58    8.49
  16  19  -3    9.82    8.69
 -35  16  -3   -1.04    7.40
  16  19  -3   12.68    7.15
  19 -35  -3   10.39    8.73
  19 -35   0  409.05   27.31
  19 -35   0  391.05   25.04
  19 -35   0  349.28   19.15
 -35  16   0  392.42   19.80
  19 -35   3   13.01    7.97
 -34  15  -4   39.68   10.90
  19 -34  -4   51.02   10.53
  19 -34  -4   73.97   13.54
  19 -34  -4   53.99   11.60
  15  19  -4   25.34   10.09
 -34  15  -4   64.19   12.41
  15  19  -4   32.59    9.10
 -34  15  -1   35.41   10.62
  19 -34  -1   24.03    9.59
  19 -34  -1   23.97    8.69
  19 -34  -1   16.54    6.92
  15  19  -1    8.53    9.16
 -34  15  -1   16.85    6.78
  15  19  -1   16.17    6.17
  19 -34   2   45.67   10.14
  19 -34   5   24.61    8.18
  19 -33  -5   20.23    9.00
  19 -33  -5   21.92    9.53
  19 -33  -5    9.87    8.54
 -33  14  -5   20.18   10.02
 -33  14  -5   29.27    9.76
  14  19  -5   10.70    9.75
  14  19  -5   11.44    8.17
 -33  14  -5   14.22    8.36
 -33  14  -2   36.52    9.89
  19 -33  -2   34.16   10.27
  19 -33  -2   17.58    7.66
  19 -33  -2   29.32    7.92
 -33  14  -2   35.89    9.10
 -33  14  -2   31.93    9.39
  14  19  -2   34.24    7.59
  14  19  -2   21.32    9.46
  19 -33   1  113.54   14.98
  19 -33   1  113.37   14.28
  19 -33   1  101.57   10.03
 -33  14   1   92.76    9.64
  19 -33   4   54.86    9.92
  19 -32  -6  330.60   24.64
  19 -32  -6  357.33   25.69
 -32  13  -6  347.06   25.89
 -32  13  -6  308.69   22.17
  13  19  -6  361.00   24.67
  13  19  -6  282.41   22.50
 -32  13  -6  325.95   22.02
  19 -32  -6  249.11   19.10
 -32  13  -3   29.10    9.03
  19 -32  -3   24.16    8.38
  19 -32  -3   42.36    9.53
 -32  13  -3   26.81    8.35
 -32  13  -3   37.03   10.56
  13  19  -3   37.90    8.43
  13  19  -3   23.52    8.87
  19 -32  -3   65.27   11.42
  19 -32   0  499.05   28.00
  19 -32   0  504.95   26.51
  19 -32   0  487.81   21.82
 -32  13   0  539.13   22.81
 -32  13   0  526.52   28.18
  13  19   0  539.11   19.32
  13  19   0  542.00   30.64
 -32  13   0  530.68   29.14
  19 -32   3    4.53    6.28
  19 -32   6  324.40   19.19
  19 -31  -7   34.20   11.39
  19 -31  -7   23.29   10.57
  12  19  -7   25.83    9.56
 -31  12  -7   14.23   10.36
 -31  12  -7   25.45    8.13
  12  19  -7   32.99   11.21
 -31  12  -7   46.90   10.65
  19 -31  -7   20.52    8.25
  19 -31  -4   25.84    8.80
  12  19  -4    8.07    6.83
  19 -31  -4   20.98    9.10
 -31  12  -4   24.80    9.53
 -31  12  -4   10.92    7.04
  12  19  -4   21.21    8.80
 -31  12  -4    9.18    6.77
  19 -31  -4   31.38    8.63
  19 -31  -1   47.97   10.03
  19 -31  -1   58.40    9.21
 -31  12  -1   43.25    8.21
 -31  12  -1   47.25   10.18
  12  19  -1   49.35    8.02
  12  19  -1   49.59   10.83
 -31  12  -1   62.07   11.59
  19 -31  -1   66.94   11.31
  19 -31   2   77.14   11.58
  19 -31   2   71.49    7.54
 -31  12   2   76.77    7.75
  19 -31   5   -0.15    5.61
  19 -30  -5   16.48    8.34
  19 -30  -5   21.62    9.17
  11  19  -5   41.67    9.39
 -30  11  -5   19.64    7.72
  11  19  -5   24.80    8.52
 -30  11  -5   25.87    8.92
 -30  11  -5   43.12   10.81
  19 -30  -5   26.45    7.14
  19 -30  -2   51.97    9.50
  19 -30  -2   86.98   12.06
  11  19  -2   53.61   10.93
 -30  11  -2   54.96    9.51
 -30  11  -2   66.07   11.23
  11  19  -2   65.23    9.12
  19 -30  -2   50.80    9.33
 -30  11  -2   60.83   10.46
  19 -30   1   38.66    9.44
  19 -30   1   70.58    8.17
 -30  11   1   71.07    8.60
 -30  11   1   77.06   11.43
  11  19   1   68.35    6.62
 -30  11   1   82.17   12.28
  19 -30   4   72.91   10.15
 -29  10  -6  450.25   24.85
  19 -29  -6  505.81   28.09
  19 -29  -6  450.31   27.85
 -29  10  -6  497.53   29.76
  10  19  -6  474.67   25.92
  10  19  -6  447.00   27.04
 -29  10  -6  405.99   23.28
  19 -29  -6  478.37   24.53
  19 -29  -3   73.33   11.13
 -29  10  -3   77.97   11.39
 -29  10  -3   77.06   10.82
  10  19  -3   51.70    9.54
  10  19  -3   87.52   12.74
 -29  10  -3   69.50   11.15
  19 -29  -3   69.89   10.67
  19 -29   0  644.83   24.06
 -29  10   0  640.81   24.06
 -29  10   0  624.85   28.93
  10  19   0  644.65   21.00
  10  19   0  628.67   30.45
 -29  10   0  625.72   29.91
  19 -29   0  604.22   28.69
  19 -29   3   44.97    4.87
 -29  10   3   55.84   10.17
  19 -29   6  340.94   18.39
  19 -28  -7   16.69    7.88
  19 -28  -7   17.19    8.58
 -28   9  -7   -4.18    8.22
 -28   9  -7   14.42    7.29
   9  19  -7   -2.43    8.59
   9  19  -7    4.84    7.42
 -28   9  -7   21.44    7.67
  19 -28  -7   28.14    8.21
  19 -28  -4  132.42   14.61
 -28   9  -4  156.49   15.75
   9  19  -4  131.95   14.23
 -28   9  -4  160.24   15.05
   9  19  -4  142.07   14.20
 -28   9  -4  118.13   13.07
  19 -28  -4  146.34   13.82
  19 -28  -1  164.32   13.46
 -28   9  -1  155.99   13.43
   9  19  -1  157.33   15.50
 -28   9  -1  158.66   15.45
   9  19  -1  170.39   12.39
 -28   9  -1  154.45   14.88
  19 -28  -1  138.49   13.96
 -28   9   2   54.41   10.23
  19 -28   2   54.13   10.56
  19 -28   2   50.40    6.42
 -28   9   2   36.75    6.00
 -28   9   2   47.72    9.89
   9  19   2   44.56    4.42
  19 -28   5    5.47    4.89
  19 -27  -8   63.04   13.24
  19 -27  -8   36.04    9.73
 -27   8  -8   41.02   12.56
   8  19  -8   35.90    9.57
 -27   8  -8   29.42    8.77
   8  19  -8   21.10   10.77
 -27   8  -8   40.65    9.71
  19 -27  -8   63.49   10.36
 -27   8  -5  142.91   15.88
   8  19  -5  145.07   14.73
 -27   8  -5   97.30   12.11
   8  19  -5  129.17   14.14
 -27   8  -5  144.54   13.88
  19 -27  -5  117.58   12.11
 -27   8  -2  183.50   15.47
 -27   8  -2  172.60   15.14
  19 -27  -2  169.72   14.31
  19 -27   1   84.52   12.19
  19 -27   1   64.16    7.64
   8  19   1   69.58   11.23
 -27   8   1   62.49    9.82
   8  19   1   86.92    7.48
 -27   8   1   65.25   11.14
 -27   8   4   87.95   12.03
  19 -27   7  144.52   11.36
  19 -26  -9   15.43    8.62
  19 -26  -9   31.53   11.85
   7  19  -9   17.16    8.58
 -26   7  -9   34.49   12.65
 -26   7  -9   23.23    8.02
   7  19  -9   45.59   12.87
 -26   7  -9   44.66    9.76
  19 -26  -9   43.39    9.69
 -26   7  -6  615.69   31.86
 -26   7  -6  598.22   26.89
   7  19  -6  578.22   29.35
 -26   7  -6  542.60   24.97
  19 -26  -6  559.98   25.11
   7  19  -6  608.01   27.62
   7  19  -3   13.67    6.76
 -26   7  -3   18.63    7.19
  19 -26  -3   -0.13    5.51
   7  19   0  418.96   23.24
 -26   7   0  417.69   22.62
 -26   7   0  420.35   22.75
  19 -26   0  425.82   22.56
 -26   7   3   68.19   11.43
  19 -26   3   91.61   12.67
  19 -26   3   80.07    6.51
 -26   7   3   82.47   10.89
   7  19   3   67.56    3.47
 -25   6  -7   24.25    9.91
 -25   6  -7   28.29    7.43
 -25   6  -7   36.07    8.69
  19 -25  -7   21.12    7.71
   6  19  -7   26.14    8.55
   6  19  -4  131.62   13.50
 -25   6  -4  137.89   13.60
 -25   6  -4  127.25   12.42
  19 -25  -4  139.25   12.82
 -25   6  -1    5.46    5.35
   6  19  -1   19.14    6.73
 -25   6  -1    5.04    5.57
  19 -25  -1    3.75    5.71
  19 -25   2  296.97   19.77
 -25   6   2  318.61   19.48
   6  19   2  319.82   21.39
   6  19   2  271.69   10.04
 -25   6   2  286.07   19.67
 -25   6   5    5.07    6.11
  19 -24  -8   92.41   12.83
 -24   5  -8   81.08   15.05
 -24   5  -8   82.47   11.06
 -24   5  -8   93.14   11.41
   5  19  -8   93.88   12.54
  19 -24  -8   87.64   11.72
 -24   5  -5  131.67   13.02
 -24   5  -5  144.46   13.04
   5  19  -5  112.70   12.21
  19 -24  -5  124.91   12.27
   5  19  -2  391.45   21.08
 -24   5  -2  395.65   21.03
 -24   5  -2  358.08   19.83
  19 -24  -2  367.48   19.43
   5  19   1  234.56   17.41
 -24   5   1  265.88   17.42
 -24   5   1  211.47   16.09
   5  19   1  200.37   10.42
  19 -24   1  227.12   16.39
 -24   5   4   41.40    9.15
  19 -24   4   31.24    3.51
 -24   5   4   42.98    8.33
  19 -23  -9   14.72    8.40
 -23   4  -9   26.13   11.47
 -23   4  -9   28.02    7.63
   4  19  -9   38.88   11.98
 -23   4  -9   22.45    7.33
  19 -23  -9   18.40    7.76
   4  19  -9   12.74    7.84
 -23   4  -6  239.57   16.77
 -23   4  -6  262.29   17.41
   4  19  -6  236.41   16.84
  19 -23  -6  239.50   16.14
 -23   4  -3   28.35    7.56
  19 -23  -3   19.91    5.14
   4  19  -3   39.07    8.27
 -23   4  -3   23.10    6.59
  19 -23  -3   15.31    6.13
   4  19   0  493.63   23.74
 -23   4   0  494.54   23.23
  19 -23   0  476.65   21.98
 -23   4   3   -1.35    6.05
  19 -23   3   17.90    7.23
 -23   4   3    4.88    5.26
  19 -23   3    3.15    3.07
   4  19   3    3.51    2.33
   4  19   3   -4.51    6.56
 -23   4   3    3.42    3.25
  19 -22 -10  318.98   21.86
  19 -22 -10  294.72   25.33
 -22   3 -10  291.59   25.48
   3  19 -10  310.14   21.59
   3  19 -10  248.04   23.55
 -22   3 -10  291.70   19.61
  19 -22 -10  285.90   20.14
 -22   3  -7   -0.94    5.03
 -22   3  -7    1.74    5.21
  19 -22  -7   -6.06    5.33
   3  19  -7   -1.29    5.76
 -22   3  -4  283.45   17.66
  19 -22  -4  272.21   11.98
 -22   3  -4  246.68   11.60
 -22   3  -4  299.93   17.46
   3  19  -4  295.43   17.68
  19 -22  -4  290.81   16.99
   3  19  -1   16.90    6.85
 -22   3  -1    3.66    4.99
 -22   3  -1   12.77    5.98
  19 -22  -1   11.71    5.81
 -22   3   2  673.19   19.59
 -22   3   2  809.80   28.36
   3  19   2  760.70   29.69
  19 -22   2  727.90   20.09
   3  19   2  733.06   17.20
 -22   3   2  857.04   30.69
  19 -22   2  752.31   28.62
 -22   3   5    1.01    4.81
 -21   2  -8  242.43   16.91
   2  19  -8  213.85   16.68
 -21   2  -8  200.22   15.85
  19 -21  -8  241.04   17.21
 -21   2  -5   65.60    9.04
   2  19  -5   68.13    9.70
 -21   2  -5   76.58    9.71
  19 -21  -5   79.93    9.84
 -21   2  -2   30.93    7.09
  19 -21  -2   29.41    5.48
   2  19  -2   41.30    8.15
 -21   2  -2   27.71    5.17
 -21   2  -2   24.78    6.55
  19 -21  -2   30.07    7.04
 -21   2   1  105.23   11.07
 -21   2   1   72.97   10.19
   2  19   1   85.52   10.41
   2  19   1   78.63    6.92
  19 -21   1   71.91    9.31
  19 -21   4  123.73   13.22
 -21   2   4  111.13    7.23
 -21   2   4  131.53   12.09
  19 -21   4  115.01    6.56
   2  19   4  119.58    5.77
 -21   2   4  139.40   13.59
 -20   1  -9   34.05   11.12
 -20   1  -9   36.36    7.90
 -20   1  -9   35.21    8.30
   1  19  -9   38.24    9.52
  19 -20  -9   40.25    9.26
 -20   1  -6  158.68   13.11
   1  19  -6  153.28   13.50
 -20   1  -6  183.79   14.39
  19 -20  -6  199.51   14.89
   1  19  -3   29.05    6.73
   1  19  -3   20.12    4.68
 -20   1  -3   33.44    7.30
  19 -20  -3   30.33    4.70
 -20   1  -3   35.47    4.92
 -20   1  -3   31.55    7.12
  19 -20  -3   36.71    7.35
 -20   1   0  164.53   13.19
   1  19   0  146.51   12.54
 -20   1   0  166.63   13.01
  19 -20   0  150.95   12.37
 -20   1   3   45.48    8.39
  19 -20   3   37.79    7.86
   1  19   3   55.69    9.35
 -20   1   3   50.42    7.78
 -20   1   3   33.95    4.94
  19 -20   3   48.44    5.13
   1  19   3   49.89    4.75
 -20   1   6  112.78   10.81
  19 -19 -10  327.90   21.19
 -19   0 -10  347.29   27.10
   0  19 -10  377.89   23.49
 -19   0 -10  329.33   19.51
 -19   0 -10  343.10   21.44
  19 -19 -10  315.25   21.16
 -19   0  -7   16.31    6.37
 -19   0  -7   14.03    6.75
  19 -19  -7   17.96    6.43
   0  19  -4  789.21   19.01
  19 -19  -4  771.03   15.63
 -19   0  -4  808.57   27.34
   0  19  -4  831.66   28.09
 -19   0  -4  801.66   26.99
 -19   0  -4  792.15   16.62
  19 -19  -1    6.35    3.93
 -19   0  -1   11.43    5.69
   0  19  -1    3.50    4.29
 -19   0  -1    3.94    3.26
 -19   0  -1   13.15    5.06
  19 -19  -1    2.30    4.97
   0  19   2 1030.50   31.78
 -19   0   2 1083.94   31.11
   0  19   2  978.79   20.42
 -19   0   2 1065.78   32.18
 -19   0   2  948.12   23.21
  19 -19   2 1093.80   32.26
 -19   0   5   -3.03    6.29
  19 -19   5    0.75    2.12
 -19   0   5    4.07    4.34
   0  19   5    0.78    2.49
 -19   0   5   -2.05    3.26
 -18  -1  -8    1.70    4.75
  -1  19  -8   11.52    7.00
 -18  -1  -8    3.43    5.20
  19 -18  -8    3.20    5.67
  -1  19  -5   51.81    4.73
 -18  -1  -5   70.71    9.18
  -1  19  -5   70.21    9.22
 -18  -1  -5   62.31    8.53
 -18  -1  -5   59.35    4.17
  19 -18  -5   55.76    8.18
  -1  19  -2   13.35    5.43
  -1  19  -2    8.86    3.82
  19 -18  -2   11.06    3.64
 -18  -1  -2    7.11    5.00
 -18  -1  -2    3.29    2.65
 -18  -1  -2    3.45    4.56
  19 -18  -2   10.46    5.28
 -18  -1   1   51.60    7.94
  -1  19   1   50.54    7.90
 -18  -1   1   60.94    8.51
  -1  19   1   52.50    5.78
  19 -18   1   59.22    8.18
 -18  -1   4    8.21    6.05
  19 -18   4    2.90    5.19
 -18  -1   4    4.23    3.47
 -18  -1   4    4.87    4.18
  19 -18   4    2.89    2.85
  -1  19   4    0.57    2.52
 -18  -1   7    3.80    4.16
 -17  -2  -9   25.12    7.23
  -2  19  -9   35.94    9.36
 -17  -2  -9   31.60    7.80
  19 -17  -9   21.66    7.77
  -2  19  -6   75.88   10.01
 -17  -2  -6   55.97    8.19
 -17  -2  -6   68.17    9.22
  19 -17  -6   59.21    8.72
  19 -17  -3  480.66   12.58
  -2  19  -3  462.73   14.45
 -17  -2  -3  491.67   20.91
  -2  19  -3  488.34   20.66
 -17  -2  -3  504.90   12.65
 -17  -2  -3  481.14   20.20
  19 -17  -3  513.16   20.74
  19 -17   0    1.74    3.58
 -17  -2   0    6.38    5.30
 -17  -2   0   -2.02    3.27
  -2  19   0    7.37    4.70
 -17  -2   0    3.60    4.27
  19 -17   0    5.91    4.58
 -17  -2   3  307.60   13.20
 -17  -2   3  378.54   17.69
  19 -17   3  334.56   12.67
  -2  19   3  341.80   18.45
  -2  19   3  345.54   12.27
 -17  -2   3  388.92   19.61
  19 -17   3  337.95   18.37
  19 -17   6   88.74    6.04
 -17  -2   6  102.94    9.78
  -2  19   6   84.55    6.82
  -3  19 -10  674.15   30.77
 -16  -3 -10  648.02   26.10
 -16  -3 -10  714.30   30.59
  19 -16 -10  672.89   30.49
 -16  -3  -7   31.65    6.87
  -3  19  -7   39.87    8.31
 -16  -3  -7   23.58    6.70
  19 -16  -7   30.16    7.72
  -3  19  -4 1196.05   32.58
 -16  -3  -4 1113.32   31.47
 -16  -3  -4 1198.32   32.04
  19 -16  -4 1136.57   31.00
  -3  19  -1   19.49    5.46
 -16  -3  -1    7.57    4.83
 -16  -3  -1    7.22    3.17
 -16  -3  -1    9.93    5.05
  19 -16  -1    6.66    4.63
 -16  -3   2 1936.99   38.73
  19 -16   2 1843.76   31.07
  -3  19   2 1993.39   40.90
 -16  -3   2 1895.80   39.83
  -3  19   2 1804.60   29.03
  19 -16   2 1897.88   39.69
 -16  -3   5    1.96    4.98
  19 -16   5    3.34    2.85
 -16  -3   5    1.59    3.82
  -3  19   5    3.35    3.19
 -16  -3   5   12.49    4.45
 -15  -4 -11   39.27   13.24
 -15  -4 -11   30.89    9.20
  19 -15 -11    3.03    7.48
  -4  19 -11   33.04   10.40
  -4  19  -8   23.68    7.54
 -15  -4  -8   41.89    7.72
 -15  -4  -8   42.51    8.22
  19 -15  -8   32.77    7.74
  -4  19  -5  157.78   12.81
 -15  -4  -5  174.58   12.84
 -15  -4  -5  161.39   12.61
  19 -15  -5  150.42   12.19
 -15  -4  -2   54.20    7.52
  -4  19  -2   56.38    7.38
 -15  -4  -2   72.94    8.39
  19 -15  -2   84.82    8.63
 -15  -4   1   28.94    5.74
 -15  -4   1   40.02    6.92
  -4  19   1   24.39    5.80
  -4  19   1   37.34    5.37
  19 -15   1   31.38    6.03
 -15  -4   4    2.67    4.61
  19 -15   4    0.15    4.70
 -15  -4   4    0.87    3.45
 -15  -4   4   -0.46    3.54
  19 -15   4    6.22    3.16
  -4  19   4    4.19    4.90
  -4  19   4   -0.26    2.93
 -15  -4   7    5.26    4.01
 -14  -5  -9   59.93    8.89
 -14  -5  -9   70.57   10.55
  19 -14  -9   74.77   11.07
  -5  19  -9   64.18   10.60
  -5  19  -6  125.57   11.91
 -14  -5  -6  126.01   11.39
 -14  -5  -6  109.51   10.82
  19 -14  -6  107.60   10.90
  -5  19  -3  347.27   17.07
 -14  -5  -3  332.44   16.94
 -14  -5  -3  357.57   17.07
  19 -14  -3  369.61   17.26
 -14  -5   0  112.23    9.89
 -14  -5   0  113.20    9.52
  -5  19   0  136.06   10.59
  19 -14   0  127.42    9.98
  -5  19   3  131.12   11.07
 -14  -5   3  123.42    9.94
  19 -14   3  136.95    8.71
  -5  19   3  117.92    8.08
 -14  -5   3  154.20   11.74
  19 -14   3  117.48   10.57
  19 -14   6  142.64    8.92
 -14  -5   6  156.32   10.93
 -13  -6 -10  395.21   20.73
 -13  -6 -10  336.05   21.57
  19 -13 -10  409.81   24.43
  -6  19 -10  417.29   24.59
 -13  -6  -7  153.50   12.46
 -13  -6  -7  169.57   13.92
  19 -13  -7  140.83   12.81
  -6  19  -7  186.49   15.19
  -6  19  -4 1912.92   40.58
 -13  -6  -4 1935.63   39.89
  19 -13  -4 1994.93   40.20
  -6  19  -1  223.80   13.05
  19 -13  -1  246.92   13.36
 -13  -6   2 1891.45   36.39
  -6  19   2 1770.97   35.75
  19 -13   2 1714.16   30.79
 -13  -6   2 1828.33   36.63
  -6  19   2 1765.23   29.97
  19 -13   2 1830.26   36.74
 -13  -6   5   34.92    7.41
 -13  -6   5   39.92    5.93
  19 -13   5   31.71    5.11
 -13  -6   8  592.89   19.35
  -7  19 -11    6.13    8.42
 -12  -7 -11   16.35    8.64
  19 -12 -11   16.17    8.98
 -12  -7  -8  174.76   13.48
 -12  -7  -8  191.55   15.40
  19 -12  -8  165.27   14.78
  -7  19  -8  173.81   15.76
 -12  -7  -5   61.00    8.03
 -12  -7  -5   56.11    8.44
  19 -12  -5   54.89    8.02
  -7  19  -5   53.67    8.45
  -7  19  -2  346.96   16.37
 -12  -7  -2  331.40   16.32
 -12  -7  -2  364.20   16.66
  19 -12  -2  351.12   15.87
 -12  -7   1  112.58    9.63
 -12  -7   1   89.89    8.43
  19 -12   1   98.89    8.89
  -7  19   1  115.00    9.32
  19 -12   4  182.51   12.53
 -12  -7   4  194.70   11.76
  19 -12   4  153.75    9.79
 -12  -7   4  196.06   13.15
  -7  19   4  171.82   12.43
 -12  -7   7  264.23   12.98
 -11  -8  -9  258.18   16.68
 -11  -8  -9  269.70   18.94
  19 -11  -9  290.65   20.08
  -8  19  -9  230.75   18.25
 -11  -8  -6  102.16   10.09
 -11  -8  -6  103.72   10.89
  19 -11  -6  103.78   10.33
  -8  19  -6   96.53   10.98
  -8  19  -3  299.34   15.67
 -11  -8  -3  293.62   15.38
  19 -11  -3  268.67   14.46
 -11  -8   0  435.03   17.90
  -8  19   0  453.43   17.41
 -11  -8   0  424.68   17.10
  19 -11   0  429.40   16.94
 -11  -8   3  285.68   13.86
  -8  19   3  315.30   15.43
 -11  -8   3  306.84   15.22
  19 -11   3  327.47   15.71
 -11  -8   6  189.72   11.19
 -10  -9 -10  290.98   18.13
 -10  -9 -10  322.42   21.37
  19 -10 -10  269.34   20.10
  -9  19 -10  300.20   22.07
 -10  -9  -7  276.14   16.48
  19 -10  -7  259.39   17.14
  -9  19  -7  259.84   17.18
 -10  -9  -4  955.18   28.06
 -10  -9  -4  987.34   28.91
  19 -10  -4  918.59   27.26
  -9  19  -1  237.45   12.93
 -10  -9  -1  253.45   14.16
 -10  -9  -1  271.23   13.90
  19 -10  -1  221.14   12.11
  -9  19   2 1119.76   26.68
 -10  -9   2 1074.35   26.72
 -10  -9   2 1088.19   26.66
  19 -10   2 1142.22   27.15
  19 -10   5  168.34   12.11
 -10  -9   5  175.38   10.68
 -10  -9   5  158.82   11.73
 -10  -9   8  383.06   14.28
 -10  19 -11   62.86   12.77
  -9 -10 -11   36.80    8.34
  -9 -10 -11   51.30   10.80
  19  -9 -11   46.22   10.38
  -9 -10  -8  386.72   19.79
  -9 -10  -8  416.70   22.58
  19  -9  -8  357.89   21.20
 -10  19  -8  412.78   22.86
  -9 -10  -5  183.67   13.18
  19  -9  -5  176.01   13.09
 -10  19  -5  210.96   14.61
 -10  19  -2 1129.58   28.36
  -9 -10  -2 1139.71   29.43
  -9 -10  -2 1146.43   28.60
  19  -9  -2 1108.70   27.30
  -9 -10   1  334.53   15.42
  -9 -10   1  366.79   15.49
 -10  19   1  350.36   14.55
  19  -9   1  337.00   14.48
  -9 -10   4 1008.04   25.05
 -10  19   4  928.72   25.22
  -9 -10   4  982.81   26.29
  19  -9   4  981.95   26.43
  -9 -10   7  125.08    8.68
  -8 -11  -9  114.81   11.89
  -8 -11  -9  123.58   13.86
  19  -8  -9  115.51   13.43
 -11  19  -9  142.37   15.28
  -8 -11  -6  321.04   17.33
  -8 -11  -6  350.83   18.97
  19  -8  -6  288.41   17.44
 -11  19  -6  319.34   18.77
  -8 -11  -3  212.73   13.43
  -8 -11  -3  185.08   12.40
  19  -8  -3  200.81   12.64
 -11  19  -3  189.26   12.63
  -8 -11   0  400.41   16.93
 -11  19   0  414.74   16.07
  -8 -11   0  399.74   16.12
  19  -8   0  391.93   15.59
  -8 -11   3  350.57   15.12
 -11  19   3  340.63   14.58
  -8 -11   3  347.05   15.00
  19  -8   3  355.56   15.15
  -8 -11   6   78.22    7.15
  -7 -12 -10   95.57   11.31
  -7 -12 -10   84.12   12.44
  19  -7 -10  130.54   15.16
 -12  19 -10  100.54   14.06
  -7 -12  -7  170.35   14.36
  19  -7  -7  150.84   14.35
  -7 -12  -7  151.78   12.75
  -7 -12  -4  218.81   14.10
  -7 -12  -4  251.36   15.04
  19  -7  -4  215.51   13.79
 -12  19  -4  198.23   13.42
 -12  19  -1   93.10    8.32
  -7 -12  -1   94.49    8.86
  -7 -12  -1   98.56    8.66
  19  -7  -1  104.13    8.42
  -7 -12   2  339.16   15.10
  -7 -12   2  345.78   14.58
 -12  19   2  343.79   14.02
  19  -7   2  363.90   14.65
  -7 -12   5   29.90    5.46
  -7 -12   5   51.66    6.24
  -7 -12   8  209.50    9.65
  -6 -13 -11    4.10    6.38
  -6 -13 -11    5.37    8.00
  19  -6 -11    9.33    8.44
 -13  19 -11    5.85    7.58
  -6 -13  -8  641.99   25.95
  -6 -13  -8  660.78   28.92
  19  -6  -8  651.14   28.35
 -13  19  -8  664.31   29.92
  -6 -13  -5   87.83    9.81
  -6 -13  -5   69.09    9.23
  19  -6  -5   80.87    9.32
 -13  19  -5   76.32    9.71
  -6 -13  -2 1967.52   39.28
  -6 -13  -2 1884.14   36.50
  19  -6  -2 1874.13   35.34
 -13  19  -2 1876.64   36.57
  -6 -13   1  125.92    9.65
 -13  19   1  143.67    9.36
  -6 -13   1  127.35    9.05
  19  -6   1  128.35    8.60
 -13  19   4 1807.58   31.88
  -6 -13   4 1826.60   33.14
  -6 -13   4 1876.32   33.79
  19  -6   4 1833.50   33.25
  -6 -13   7   71.32    6.46
  -5 -14  -9  100.02   11.56
  -5 -14  -9   88.16   12.34
  19  -5  -9   93.87   12.53
 -14  19  -9   97.47   13.01
  -5 -14  -6  208.02   14.61
  -5 -14  -6  265.96   17.44
  19  -5  -6  232.84   16.11
 -14  19  -6  231.68   16.66
  -5 -14  -3  173.55   12.48
  -5 -14  -3  192.54   12.95
  19  -5  -3  185.13   12.23
 -14  19  -3  171.14   12.12
 -14  19   0  111.61    8.53
  -5 -14   0   94.98    8.86
  -5 -14   0  100.12    8.48
  19  -5   0  100.78    8.04
 -14  19   3  401.14   14.45
  -5 -14   3  376.68   15.59
  -5 -14   3  425.63   15.46
  19  -5   3  399.38   14.80
  -5 -14   6  144.02    9.31
  -4 -15 -10   -0.94    5.78
  -4 -15 -10   -6.87    7.27
  19  -4 -10   -3.02    7.61
 -15  19 -10    7.80    8.09
  -4 -15  -7   10.83    5.97
  -4 -15  -7   19.34    7.78
  19  -4  -7    9.12    5.94
 -15  19  -7    7.16    6.55
  -4 -15  -4    1.42    4.15
  -4 -15  -4   -1.93    4.58
  19  -4  -4    1.97    4.29
 -15  19  -4    0.85    4.83
  -4 -15  -1   45.80    7.10
  -4 -15  -1   42.38    5.91
  19  -4  -1   56.49    6.68
 -15  19  -1   43.40    6.00
  -4 -15   2  106.82    9.11
  -4 -15   2  108.97    8.13
 -15  19   2   95.40    7.24
  19  -4   2   81.39    6.82
  -4 -15   5  198.23   10.89
  -4 -15   5  176.57   10.26
  -4 -15   8   60.96    5.18
  -3 -16 -11    6.95    8.49
  -3 -16 -11   11.36    7.47
  19  -3 -11    6.91   10.16
 -16  19 -11   17.43    9.70
  -3 -16  -8  859.01   30.70
  -3 -16  -8  957.23   35.63
 -16  19  -8  910.74   35.34
  -3 -16  -5   12.31    5.02
  -3 -16  -5   22.05    7.00
  19  -3  -5   14.53    6.21
 -16  19  -5    7.65    5.78
  -3 -16  -2 1733.69   35.97
  19  -3  -2 1710.17   34.06
 -16  19  -2 1743.26   35.38
  -3 -16   1   27.02    5.63
  -3 -16   1   28.84    4.88
 -16  19   1   25.52    4.48
  19  -3   1   27.52    4.47
 -16  19   4 1073.91   21.67
  -3 -16   4 1010.16   24.96
  -3 -16   4 1006.27   23.42
  19  -3   4 1011.02   23.06
  -3 -16   7    5.32    3.32
  -2 -17  -9   97.96   11.92
  -2 -17  -9  104.99   14.41
 -17  19  -9   86.67   12.97
  19  -2  -9  115.48   14.63
  -2 -17  -6  120.56   11.99
  -2 -17  -6  113.03   12.40
 -17  19  -6  105.96   12.34
  19  -2  -6  105.54   11.70
  -2 -17  -3  212.73   14.18
  -2 -17  -3  230.46   14.31
  19  -2  -3  211.99   13.13
 -17  19  -3  213.80   13.71
 -17  19   0   -3.05    3.00
  -2 -17   0    4.13    3.39
  19  -2   0   -0.16    2.76
  -2 -17   3  463.06   17.80
  -2 -17   3  428.46   14.82
  19  -2   3  413.47   14.03
 -17  19   3  449.95   13.93
  -2 -17   6   27.67    4.59
  -1 -18 -10   45.94    9.77
  -1 -18 -10   29.49    9.58
  19  -1 -10   57.85   12.52
 -18  19 -10   38.77   11.30
  -1 -18  -7   22.45    8.15
  -1 -18  -7    1.13    5.15
  19  -1  -7    0.04    6.70
 -18  19  -7   15.92    7.69
  -1 -18  -4    9.65    5.50
  -1 -18  -4    0.44    4.75
  19  -1  -4   -1.36    4.87
 -18  19  -4    0.33    5.05
  -1 -18  -1   79.46    9.18
  -1 -18  -1   63.74    7.38
  19  -1  -1   65.60    7.03
 -18  19  -1   63.64    7.48
  -1 -18   2    9.47    4.10
  -1 -18   2    8.26    3.45
 -18  19   2    6.71    2.92
  19  -1   2    5.91    2.88
  -1 -18   5   39.81    5.71
  -1 -18   5   47.65    5.38
   0 -19  -8  733.30   29.56
   0 -19  -8  652.73   30.46
 -19  19  -8  688.45   32.16
  19   0  -8  693.50   30.86
   0 -19  -5    2.27    5.70
   0 -19  -5    3.77    5.65
  19   0  -5    7.06    5.51
 -19  19  -5    5.40    5.14
   0 -19  -2 1156.81   32.50
   0 -19  -2 1192.61   30.42
  19   0  -2 1154.49   28.21
 -19  19  -2 1180.98   30.02
 -19  19   1    7.53    3.31
   0 -19   1    5.60    3.45
  19   0   1    0.04    3.13
  19   0   4  733.37   16.89
 -19  19   4  708.03   14.99
   0 -19   4  752.94   22.32
   0 -19   4  711.69   17.63
   0 -19   7   13.61    3.77
   1 -20  -9   17.71    7.86
   1 -20  -9    4.69    6.94
  19   1  -9   16.38    7.40
 -20  19  -9   30.22   10.70
   1 -20  -6  115.02    7.04
   1 -20  -6  118.76   12.24
   1 -20  -6  119.98   13.15
 -20  19  -6  130.66   13.52
  19   1  -6  122.56   12.63
   1 -20  -3   98.54   10.68
   1 -20  -3  108.38   10.32
 -20  19  -3  105.30   10.56
  19   1  -3   81.84    8.97
   1 -20   0  100.87   10.05
   1 -20   0  109.19    8.85
  19   1   0  107.79    8.02
 -20  19   0  103.80    8.28
   1 -20   3   10.46    4.36
   1 -20   3   26.61    4.04
 -20  19   3   32.99    4.25
  19   1   3   17.44    3.21
   1 -20   6  227.14   11.81
   2 -21 -10   55.30   10.77
   2 -21 -10   48.04   11.18
  19   2 -10   42.71   11.09
 -21  19 -10   49.64   13.11
   2 -21  -7   50.01    9.03
   2 -21  -7   72.82   11.97
 -21  19  -7   66.97   11.60
  19   2  -7   64.22   10.83
  19   2  -7   50.65    6.56
   2 -21  -4  126.82    8.61
   2 -21  -4  128.89   12.39
 -21  19  -4  116.54   11.60
  19   2  -4  129.95   12.00
   2 -21  -4  116.19   11.73
   2 -21  -1  120.77   11.39
   2 -21  -1  115.85    9.81
  19   2  -1  107.34    8.56
 -21  19  -1  114.24    9.69
   2 -21   2   45.68    7.06
 -21  19   2   44.54    4.86
   2 -21   2   47.46    5.64
  19   2   2   52.85    5.06
   2 -21   5   86.96    7.95
   2 -21   5   69.51    5.15
   3 -22  -8  358.52   22.07
 -22  19  -8  377.77   25.05
  19   3  -8  416.63   25.42
   3 -22  -5   14.21    4.41
   3 -22  -5   12.10    6.07
  19   3  -5   19.04    6.92
 -22  19  -5   10.07    6.07
   3 -22  -2  870.20   29.46
   3 -22  -2  839.49   26.53
 -22  19  -2  842.43   26.36
  19   3  -2  820.22   24.53
   3 -22   1   39.73    6.96
   3 -22   1   24.95    4.77
  19   3   1   25.30    4.21
 -22  19   1   33.25    4.96
   3 -22   4  305.63   15.24
   3 -22   4  309.05   10.85
   3 -22   7   12.55    4.26
   4 -23  -9    0.02    6.85
   4 -23  -9    4.76    8.00
  19   4  -9    7.55    8.05
 -23  19  -9   10.12    9.47
   4 -23  -6  335.04   20.78
   4 -23  -6  329.76   21.14
 -23  19  -6  319.12   21.25
  19   4  -6  280.10   19.11
   4 -23  -6  330.10   14.05
  19   4  -6  303.49   15.56
   4 -23  -3    3.50    3.63
   4 -23  -3    0.55    5.01
   4 -23  -3    3.34    5.24
  19   4  -3    7.95    4.80
 -23  19  -3    9.14    6.00
   4 -23   0  569.60   23.61
   4 -23   0  561.13   19.66
  19   4   0  537.35   17.34
 -23  19   0  524.95   18.40
   4 -23   3   54.42    7.65
   4 -23   3   43.31    4.90
 -23  19   3   45.17    4.13
  19   4   3   42.21    3.87
   4 -23   6  376.24   16.15
   5 -24  -7  200.61   17.22
   5 -24  -7  229.51   19.25
 -24  19  -7  195.38   18.37
  19   5  -7  179.25   12.85
  19   5  -7  210.82   17.92
   5 -24  -4   23.08    5.53
   5 -24  -4   32.01    8.31
 -24  19  -4   28.67    7.63
  19   5  -4   32.55    7.47
   5 -24  -4   33.15    8.48
   5 -24  -1  162.76   13.57
   5 -24  -1  143.98   11.17
 -24  19  -1  154.98   11.23
  19   5  -1  169.56   11.06
 -24  19   2  407.33   13.04
   5 -24   2  403.14   19.07
   5 -24   2  399.00   14.31
  19   5   2  437.92   12.56
   5 -24   5  162.17   11.52
   6 -25  -8  276.93   20.58
   6 -25  -8  288.94   22.68
 -25  19  -8  296.79   23.45
  19   6  -8  305.75   22.93
   6 -25  -5   18.58    5.55
   6 -25  -5   24.87    8.62
   6 -25  -5   19.72    7.53
  19   6  -5   16.80    5.69
 -25  19  -5   21.95    7.41
  19   6  -5   12.86    6.90
   6 -25  -2  287.47   18.28
   6 -25  -2  337.87   17.91
 -25  19  -2  303.91   16.98
  19   6  -2  326.08   16.51
   6 -25   1    3.01    3.53
  19   6   1    5.58    3.16
   6 -25   1    9.89    5.40
 -25  19   1    9.44    3.67
   6 -25   4  199.86   13.19
   6 -25   4  197.33    7.89
   6 -25   7   27.08    5.49
   7 -26  -9   39.71   12.22
   7 -26  -9   18.47    8.31
 -26  19  -9   36.48   12.04
  19   7  -9   25.54   11.19
 -26  19  -6  306.86   16.00
   7 -26  -6  320.32   21.39
   7 -26  -6  328.37   22.16
 -26  19  -6  348.91   22.87
  19   7  -6  348.75   21.92
  19   7  -6  294.02   17.38
   7 -26  -6  324.98   16.06
   7 -26  -3  141.26   11.55
   7 -26  -3  121.92   13.19
   7 -26  -3  125.29   12.46
 -26  19  -3  145.74   13.10
  19   7  -3  112.64   11.22
   7 -26   0  382.12   20.48
   7 -26   0  418.27   17.69
 -26  19   0  419.00   17.12
  19   7   0  408.55   15.36
 -26  19   3   26.93    3.07
   7 -26   3   31.05    4.30
  19   7   3   29.20    2.40
   7 -26   6  511.75   19.73
   8 -27  -7  150.23   16.20
   8 -27  -7  126.54   15.98
 -27  19  -7  143.85   16.93
  19   8  -7  123.11   12.22
  19   8  -7  132.07   15.47
   8 -27  -4  154.15   12.20
   8 -27  -4  176.54   15.93
   8 -27  -4  149.96   14.23
 -27  19  -4  157.58   14.67
  19   8  -4  139.62   13.26
  19   8  -4  131.75   12.88
   8 -27  -1  133.42   13.75
   8 -27  -1  109.79   10.66
 -27  19  -1  132.22   11.08
  19   8  -1  132.85   10.07
   8 -27   2  218.64   15.43
   8 -27   2  206.00   10.77
  19   8   2  204.95    8.24
 -27  19   2  217.42    9.62
   8 -27   5  157.37   12.06
   9 -28  -8   91.45   13.86
   9 -28  -8   64.86   13.01
  19   9  -8  105.34   15.16
 -28  19  -8   66.35   14.13
   9 -28  -5   -1.02    4.60
 -28  19  -5    5.52    5.56
  19   9  -5   17.34    7.60
   9 -28  -5    3.80    6.85
   9 -28  -5   -9.86    8.14
 -28  19  -5   10.38    7.50
  19   9  -5   11.64    6.81
   9 -28  -2   34.66    7.62
   9 -28  -2   60.24   10.28
 -28  19  -2   51.70    8.50
  19   9  -2   45.37    7.37
   9 -28   1  176.27   11.30
 -28  19   1  191.97   11.10
  19   9   1  185.39    9.39
   9 -28   4  174.23   13.41
  10 -29  -6  299.48   21.68
  10 -29  -6  298.02   22.25
 -29  19  -6  320.54   23.65
  19  10  -6  290.17   21.03
  19  10  -6  272.89   18.45
  10 -29  -6  293.01   17.27
 -29  19  -6  268.51   16.96
  10 -29  -3   48.24    8.98
  10 -29  -3   51.96   10.28
  10 -29  -3   53.49    9.45
 -29  19  -3   53.07    9.59
  19  10  -3   44.45    8.39
  10 -29   0  629.58   27.64
  10 -29   0  631.13   22.83
 -29  19   0  641.37   22.27
  19  10   0  635.56   19.40
  10 -29   3  114.61   11.84
  10 -29   3  131.77    7.70
  10 -29   6  402.92   18.96
  11 -30  -7   78.90   13.27
  11 -30  -7   87.14   14.65
  19  11  -7   69.80   11.42
 -30  19  -7   65.09   12.92
  19  11  -7   82.48   13.33
  11 -30  -4  169.39   14.14
 -30  19  -4  159.90   14.50
  11 -30  -4  149.38   15.51
 -30  19  -4  180.34   16.54
  19  11  -4  191.79   15.62
  19  11  -4  188.21   16.76
  11 -30  -4  196.22   16.84
  11 -30  -1  104.46   12.72
  11 -30  -1   85.96   10.11
 -30  19  -1   66.83    8.72
  19  11  -1   81.66    8.66
  11 -30   2   51.26    9.04
  11 -30   2   65.37    7.04
 -30  19   2   53.76    5.49
  11 -30   5   38.69    8.42
  12 -31  -5   12.97    6.51
 -31  19  -5   11.33    7.01
  19  12  -5   11.31    7.43
  12 -31  -5   17.10    9.35
  12 -31  -5   18.54    8.67
 -31  19  -5   14.35    8.40
  19  12  -5   13.65    7.46
  12 -31  -2   61.45   10.28
  12 -31  -2   64.10   10.96
  12 -31  -2   71.54   10.06
 -31  19  -2   61.07    9.61
  19  12  -2   69.99    8.97
  12 -31   1   29.08    7.93
  12 -31   1   40.12    6.89
 -31  19   1   30.17    5.88
  12 -31   4   13.34    5.94
  13 -32  -6  342.86   24.65
  13 -32  -6  292.83   23.24
 -32  19  -6  335.58   24.84
  19  13  -6  277.94   21.41
  19  13  -6  275.60   21.01
  13 -32  -6  280.21   18.81
  13 -32  -3   -3.07    6.07
 -32  19  -3    2.77    6.38
  13 -32  -3    9.37    7.95
  13 -32  -3    2.52    6.22
 -32  19  -3    5.95    7.07
  19  13  -3    5.31    5.88
  13 -32   0  463.56   25.39
  13 -32   0  461.58   20.49
 -32  19   0  459.43   19.66
  19  13   0  437.99   16.52
  13 -32   3   37.24    8.27
  13 -32   6  269.58   17.27
  14 -33  -4   88.94   12.18
 -33  19  -4   93.20   13.19
  14 -33  -4   83.76   14.12
  14 -33  -4  108.62   14.04
 -33  19  -4   81.01   12.67
  19  14  -4   62.81   10.84
  19  14  -4   93.88   13.48
  14 -33  -1  120.04   14.14
  14 -33  -1   95.69   11.55
 -33  19  -1  129.67   12.15
  19  14  -1  106.80   10.20
  14 -33   2   23.48    8.09
  14 -33   5   25.22    7.68
 -34  19  -5   25.56   10.37
  15 -34  -5   31.93    9.17
  15 -34  -5   56.54   12.32
  15 -34  -5   61.91   12.41
  19  15  -5   38.71   11.47
 -34  19  -5   50.32   12.07
  19  15  -5   41.35    9.86
  15 -34  -2   39.66    9.46
  15 -34  -2   27.82    9.75
  15 -34  -2   34.81    8.64
 -34  19  -2   36.02    8.92
  19  15  -2   33.36    7.56
  15 -34   1   23.80    8.44
  15 -34   1    7.05    4.98
  15 -34   4   32.70    8.75
  16 -35  -3   36.45   10.37
 -35  19  -3   62.14   12.33
  16 -35  -3   73.16   13.26
  16 -35  -3   39.62    9.64
 -35  19  -3   67.64   12.20
  19  16  -3   35.23    8.17
  16 -35   0  346.16   23.19
  16 -35   0  379.82   19.59
  16 -35   3    2.26    6.82
  17 -36  -1   39.95   10.22
  17 -36  -1   25.40    8.94
 -36  19  -1   31.36    8.36
  17 -36   2  112.48   14.04
  18 -37  -2   58.39   12.56
  18 -37  -2   38.66   10.22
 -37  19  -2   56.95   10.94
  18 -37   1   45.79   11.20
  20 -37   0   27.37   10.63
 -36  16  -1    6.47    7.81
  20 -36  -1    8.41    8.66
  20 -36  -1    3.74    8.15
  20 -36  -1    5.81    6.40
 -36  16  -1    2.81    6.36
  20 -36   2   29.23    8.81
 -35  15  -2   27.30   10.89
  20 -35  -2   14.33    9.52
  20 -35  -2   14.26    8.67
  20 -35  -2   -2.76    7.76
 -35  15  -2   -0.84    6.68
  15  20  -2   -3.06    8.90
  15  20  -2    5.98    5.70
  20 -35   1   96.72   13.36
  20 -35   4   34.51    8.93
  20 -34  -3  188.47   18.67
  20 -34  -3  155.90   16.32
 -34  14  -3  139.44   15.98
 -34  14  -3  157.22   17.26
  14  20  -3  130.73   13.72
  14  20  -3  136.29   16.76
 -34  14  -3  149.54   17.00
  20 -34  -3  146.04   16.02
 -34  14   0   95.56   14.61
  20 -34   0  175.90   18.32
  20 -34   0  146.50   15.78
  20 -34   0  107.20   11.40
 -34  14   0  129.84   12.25
  20 -34   3  214.41   17.70
  20 -33  -4   17.87    8.79
  20 -33  -4   17.53    8.78
  20 -33  -4   29.47    9.19
 -33  13  -4   22.61    9.75
 -33  13  -4   18.31    8.94
  13  20  -4   18.92    7.91
  13  20  -4   14.94    9.05
 -33  13  -4   25.49    9.51
 -33  13  -1   44.01   10.77
  20 -33  -1   45.82   10.58
  20 -33  -1   33.49    8.30
  20 -33  -1   34.95    8.36
 -33  13  -1   39.18    8.30
  13  20  -1   41.30   11.35
 -33  13  -1   34.47    9.83
  13  20  -1   26.49    6.70
  20 -33   2   38.59    8.90
  20 -33   5    5.21    6.80
  20 -32  -5   59.54   12.26
  20 -32  -5   39.85   10.47
 -32  12  -5   22.11    9.67
 -32  12  -5   30.69    9.56
  12  20  -5   25.88    9.75
  12  20  -5   25.58    9.68
 -32  12  -5   28.04    8.56
  20 -32  -5   27.09    8.53
  20 -32  -2  141.94   15.96
  20 -32  -2  143.43   14.50
 -32  12  -2  169.55   15.67
 -32  12  -2  146.62   15.82
  12  20  -2  159.14   17.24
  12  20  -2  143.21   12.79
 -32  12  -2  164.95   16.84
  20 -32  -2  141.41   15.32
 -32  12   1   40.17   10.87
  20 -32   1   13.15    7.75
  20 -32   1   32.98    8.52
  20 -32   1   33.40    6.72
 -32  12   1   31.24    6.68
 -32  12   1   23.36    8.35
  20 -32   4  121.50   12.94
  20 -31  -6  136.80   16.97
  20 -31  -6  111.68   16.26
 -31  11  -6  125.62   17.41
  11  20  -6  112.00   15.05
 -31  11  -6  129.20   15.10
  11  20  -6  107.89   14.68
 -31  11  -6  112.15   14.34
  20 -31  -6  105.45   13.44
  20 -31  -3  267.03   20.47
  20 -31  -3  227.15   18.18
 -31  11  -3  212.99   18.01
 -31  11  -3  254.38   19.54
  11  20  -3  229.87   17.03
 -31  11  -3  270.69   20.47
  20 -31  -3  225.07   17.94
  11  20  -3  225.59   19.23
  20 -31   0  181.57   17.38
  20 -31   0  224.44   15.21
 -31  11   0  212.48   15.31
  11  20   0  224.74   20.37
 -31  11   0  204.70   18.24
  11  20   0  204.71   12.50
 -31  11   0  230.19   19.87
  20 -31   3  379.12   21.88
  20 -31   6  110.80   11.64
  20 -30  -7   14.77    9.28
  20 -30  -7   18.46   10.12
 -30  10  -7   15.50    9.89
 -30  10  -7   16.83    8.50
  10  20  -7   19.11   10.41
 -30  10  -7   12.35    7.75
  10  20  -7    6.38    7.69
  20 -30  -7   39.97    9.21
  20 -30  -4   27.91    8.86
  20 -30  -4   23.93    8.76
 -30  10  -4   21.32    9.42
 -30  10  -4   -3.87    6.85
  10  20  -4   21.73    7.62
  10  20  -4   27.99    9.44
 -30  10  -4   30.15    8.50
  20 -30  -4   17.71    8.03
 -30  10  -1   33.94    9.80
  20 -30  -1   40.58    9.80
  20 -30  -1   36.49    8.22
 -30  10  -1   34.21    7.87
  10  20  -1   35.88    9.84
 -30  10  -1   52.19   10.18
  10  20  -1   34.62    7.19
 -30  10   2   48.83   10.79
  20 -30   2   48.56   10.75
  20 -30   2   42.42    6.38
 -30  10   2   42.88    6.49
 -30  10   2   68.18   11.64
  20 -30   5    3.62    5.64
  20 -29  -8   65.15   12.94
  20 -29  -8   51.78   14.16
 -29   9  -8   61.64   14.03
 -29   9  -8   44.49   10.09
   9  20  -8   93.56   15.86
   9  20  -8   46.20   10.69
 -29   9  -8   54.51   10.14
  20 -29  -8   52.70   10.98
  20 -29  -5  133.38   15.58
  20 -29  -5  119.30   15.15
 -29   9  -5   99.19   14.54
   9  20  -5   96.03   13.52
 -29   9  -5   97.04   13.12
   9  20  -5   95.61   13.53
 -29   9  -5   81.62   11.30
  20 -29  -5   80.97   11.56
  20 -29  -2  185.47   15.25
 -29   9  -2  154.12   14.62
 -29   9  -2  163.01   15.81
   9  20  -2  174.00   13.72
 -29   9  -2  144.88   14.81
   9  20  -2  156.52   16.18
  20 -29  -2  170.66   15.21
  20 -29   1   76.73   12.02
  20 -29   1   70.62    8.21
 -29   9   1   69.72    8.50
 -29   9   1   65.97   10.93
   9  20   1   69.54   12.05
   9  20   1   72.13    6.94
 -29   9   1   75.95   12.23
   8  20  -6  129.52   14.15
  20 -28  -6  164.46   16.71
  20 -28  -6  116.60   15.59
 -28   8  -6  144.86   17.64
 -28   8  -6  109.10   13.14
   8  20  -6   81.04   12.73
 -28   8  -6  142.17   14.67
  20 -28  -6  154.23   14.55
 -28   8  -3  364.22   22.13
 -28   8  -3  413.44   23.33
   8  20  -3  403.51   23.42
 -28   8  -3  331.63   20.86
  20 -28  -3  348.89   20.80
 -28   8   0   67.45   10.41
   8  20   0   95.26   12.75
   8  20   0   84.93    8.53
 -28   8   0  107.33   12.99
  20 -28   0   82.15   11.88
 -28   8   3  156.97   16.40
  20 -28   3  167.85   17.40
 -28   8   3  134.51    8.64
  20 -28   3  162.17    9.12
 -28   8   3  161.30   15.81
  20 -28   6   47.25    8.06
  20 -27  -7   88.73   12.69
 -27   7  -7   96.30   15.19
  20 -27  -7   66.30   13.27
 -27   7  -7   78.67   11.21
   7  20  -7   76.69   13.41
 -27   7  -7   73.00   10.90
  20 -27  -7   74.78   11.17
   7  20  -7   91.64   12.75
 -27   7  -4   12.06    6.34
 -27   7  -4   35.76    8.60
   7  20  -4   38.91    8.90
  20 -27  -4   32.76    8.22
 -27   7  -1  154.07   14.54
 -27   7  -1  144.34   14.34
   7  20  -1  146.03   15.04
  20 -27  -1  162.35   14.47
 -27   7   2   45.94   10.08
  20 -27   2   50.07    9.35
   7  20   2   50.81   10.48
 -27   7   2   31.22    7.82
   7  20   2   52.31    5.26
  20 -26  -8   47.92   12.32
 -26   6  -8   58.89   13.91
  20 -26  -8   44.47   10.57
 -26   6  -8   47.56    9.66
   6  20  -8   49.34   11.20
 -26   6  -8   45.34    9.68
   6  20  -8   85.95   12.67
  20 -26  -8   56.86   10.40
 -26   6  -5   64.87   10.57
 -26   6  -5   85.87   11.12
  20 -26  -5   80.80   10.78
   6  20  -5   89.58   12.06
 -26   6  -2  365.76   21.13
   6  20  -2  388.45   22.59
 -26   6  -2  344.31   20.52
  20 -26  -2  370.62   20.72
 -26   6   1   46.77    9.74
  20 -26   1   64.80    9.97
 -26   6   1   80.76   11.19
   6  20   1   49.89    9.85
  20 -26   4  151.59    6.85
 -26   6   4  183.02   15.62
  20 -26   7   34.74    6.89
   5  20  -9   71.52   11.78
  20 -25  -9  103.70   16.74
  20 -25  -9  115.96   14.83
 -25   5  -9  107.81   17.46
 -25   5  -9   86.42   11.78
   5  20  -9   97.49   16.28
 -25   5  -9  112.70   13.24
  20 -25  -9  110.95   13.77
   5  20  -6    9.78    6.32
 -25   5  -6    0.16    5.36
 -25   5  -6    4.52    5.84
  20 -25  -6    1.26    5.85
   5  20  -3  306.38   19.31
 -25   5  -3  300.38   18.95
 -25   5  -3  325.34   19.19
  20 -25  -3  274.50   17.69
 -25   5   0   96.82   11.70
 -25   5   0  110.24   11.91
   5  20   0   87.13   11.75
  20 -25   0  106.42   12.04
  20 -25   3  295.87   20.60
 -25   5   3  244.31   17.27
 -25   5   3  281.66   20.19
 -24   4  -7  251.10   21.80
 -24   4  -7  250.62   17.75
 -24   4  -7  288.75   18.80
   4  20  -7  282.72   19.54
  20 -24  -7  251.91   17.61
 -24   4  -4  151.11   13.80
 -24   4  -4  158.61   13.57
  20 -24  -4  169.54   13.96
   4  20  -4  161.46   14.31
 -24   4  -1  287.37   18.03
   4  20  -1  307.37   19.11
 -24   4  -1  277.83   17.83
  20 -24  -1  271.71   17.26
 -24   4   2   88.57   10.85
   4  20   2   75.00    6.24
   4  20   2   93.64   12.05
 -24   4   2   88.94   11.37
  20 -24   2   79.55   10.78
 -24   4   5  318.09   19.45
 -23   3  -8   92.64   15.24
 -23   3  -8   87.62   11.30
   3  20  -8  113.21   13.10
 -23   3  -8   91.02   11.80
  20 -23  -8   96.67   12.44
 -23   3  -5   30.51    7.05
 -23   3  -5   51.79    8.71
   3  20  -5   53.17    9.62
  20 -23  -5   59.51    9.28
   3  20  -2  474.32   22.81
 -23   3  -2  454.47   22.14
 -23   3  -2  467.85   22.30
  20 -23  -2  462.28   21.59
  20 -23   1   18.70    6.51
 -23   3   1   14.73    6.26
   3  20   1   12.72    6.95
   3  20   1   12.88    4.03
 -23   3   1    8.86    5.60
 -23   3   4   42.95    9.43
  20 -23   4   40.90    9.56
 -22   2  -9  118.58   17.41
 -22   2  -9  123.17   12.82
   2  20  -9  108.18   13.90
 -22   2  -9   88.08   12.10
  20 -22  -9  123.54   13.96
 -22   2  -6  135.04   13.09
   2  20  -6  106.52   12.12
 -22   2  -6  129.88   12.65
  20 -22  -6  126.14   12.44
  20 -22  -3   94.49    8.06
 -22   2  -3   96.34   11.01
 -22   2  -3   92.88    7.88
 -22   2  -3   91.23   10.25
  20 -22  -3   98.56   10.65
   2  20  -3   99.50   11.35
 -22   2   0   37.70    7.61
   2  20   0   23.12    6.88
 -22   2   0   22.57    6.32
  20 -22   0   35.17    7.50
  20 -22   3  124.56   13.08
 -22   2   3  104.11   10.99
 -22   2   3  103.37    7.92
   2  20   3  108.75   12.53
  20 -22   3  100.25    7.45
   2  20   3   99.24    6.50
 -22   2   6   38.94    7.95
  20 -21 -10   29.08    9.00
 -21   1 -10   30.13   11.49
 -21   1 -10   36.43    9.24
   1  20 -10   27.19    9.16
  20 -21 -10   40.58    9.88
 -21   1  -7  431.26   21.77
   1  20  -7  459.51   23.76
 -21   1  -7  464.72   22.97
  20 -21  -7  500.27   23.72
   1  20  -4   97.38    8.08
  20 -21  -4   97.11    6.90
 -21   1  -4  132.51   12.34
 -21   1  -4   96.43    7.05
 -21   1  -4   96.44   10.52
   1  20  -4   91.37   10.60
  20 -21  -4  106.83   10.98
   1  20  -1 1029.01   32.00
 -21   1  -1  978.85   30.84
 -21   1  -1  973.78   30.65
  20 -21  -1 1027.30   31.07
   1  20   2  151.25   13.64
 -21   1   2  125.56   11.37
  20 -21   2  113.23    8.58
   1  20   2  123.93    7.78
 -21   1   2  143.62   13.58
  20 -21   2  167.80   14.07
 -21   1   5  601.83   28.17
 -21   1   5  602.07   24.60
   0  20  -8  234.77   17.71
 -20   0  -8  219.70   16.01
 -20   0  -8  229.86   16.72
  20 -20  -8  184.56   15.55
 -20   0  -5    2.43    5.44
 -20   0  -5    2.68    4.96
   0  20  -5   17.71    7.24
  20 -20  -5    2.45    4.89
  20 -20  -2   77.53    7.34
 -20   0  -2   86.63    9.57
 -20   0  -2   71.80    6.78
 -20   0  -2   78.73    9.59
  20 -20  -2  101.06   10.40
   0  20  -2   87.03   10.14
 -20   0   1    0.05    4.14
   0  20   1    4.89    5.27
 -20   0   1    2.41    4.75
   0  20   1    6.28    3.87
  20 -20   1    1.57    4.94
  20 -20   4  170.47   14.92
 -20   0   4  144.65    8.97
 -20   0   4  157.95   12.84
  20 -20   4  172.30    8.66
   0  20   4  168.45    8.08
 -20   0   4  174.98   15.12
 -20   0   7   -1.43    4.88
 -19  -1  -9   38.74    8.25
  -1  20  -9   43.63    9.55
 -19  -1  -9   42.17    9.30
  20 -19  -9   22.88    7.83
  -1  20  -6  226.06   16.06
 -19  -1  -6  168.43   13.65
 -19  -1  -6  207.39   15.10
  20 -19  -6  212.83   15.40
  -1  20  -3   42.23    7.44
  -1  20  -3   33.57    5.21
  20 -19  -3   37.22    4.75
 -19  -1  -3   37.22    7.43
 -19  -1  -3   33.87    4.44
 -19  -1  -3   23.16    6.51
  20 -19  -3   36.58    7.12
 -19  -1   0   98.40   10.41
 -19  -1   0   77.60    8.98
  -1  20   0  113.57   11.03
  20 -19   0  105.26   10.44
 -19  -1   3   83.37    7.44
 -19  -1   3   94.33   10.14
  20 -19   3   73.74    6.72
  -1  20   3  112.26   11.77
  -1  20   3   80.47    6.36
 -19  -1   3   78.54   10.11
  20 -19   3   94.87   10.94
 -19  -1   6  113.21   10.80
 -18  -2 -10   66.63   13.78
 -18  -2 -10   55.19    9.42
  -2  20 -10   49.69   11.70
 -18  -2 -10   51.65   10.49
  20 -18 -10   59.37   11.40
  -2  20  -7  897.83   32.19
 -18  -2  -7  824.28   29.30
 -18  -2  -7  856.67   30.38
  20 -18  -7  855.80   30.61
  -2  20  -4  189.13    8.84
 -18  -2  -4  167.14   13.24
  -2  20  -4  167.63   13.31
 -18  -2  -4  155.88    6.53
 -18  -2  -4  181.44   13.42
  20 -18  -4  161.31   12.71
  -2  20  -1 1360.02   29.71
  20 -18  -1 1420.26   28.69
 -18  -2  -1 1537.22   36.82
 -18  -2  -1 1353.01   26.56
 -18  -2  -1 1509.30   35.96
  20 -18  -1 1507.85   35.44
  -2  20  -1 1434.81   35.37
 -18  -2   2  300.47   16.48
  20 -18   2  257.88   12.27
  -2  20   2  255.69   11.80
 -18  -2   2  325.57   17.83
  -2  20   2  284.29   17.22
  20 -18   2  326.62   17.84
  20 -18   5  537.48   15.09
 -18  -2   5  579.71   22.55
  -2  20   5  534.47   15.39
 -18  -2   5  529.32   17.13
  -3  20  -8   87.64   11.48
 -17  -3  -8   92.90   10.61
 -17  -3  -8   81.03   11.05
  20 -17  -8   58.17    9.66
 -17  -3  -5   30.26    7.23
  -3  20  -5   32.26    7.68
 -17  -3  -5   29.88    6.99
  20 -17  -5   14.40    5.54
 -17  -3  -2  134.66   11.50
 -17  -3  -2  136.86    7.50
 -17  -3  -2  100.10   10.03
  -3  20  -2   87.54    9.78
  20 -17  -2  109.05   10.16
  -3  20   1   58.96    8.15
 -17  -3   1   46.63    7.51
 -17  -3   1   38.87    6.90
  20 -17   1   47.63    7.60
  20 -17   4   90.33   10.51
 -17  -3   4   69.41    7.06
 -17  -3   4   87.13    9.17
  20 -17   4   76.21    6.58
  -3  20   4   78.24   10.17
  -3  20   4   78.68    6.70
 -17  -3   4   87.68   10.86
 -17  -3   7   25.22    6.05
 -16  -4  -9    9.30    6.57
  -4  20  -9   13.64    6.50
 -16  -4  -9   18.44    7.46
  20 -16  -9   20.85    7.46
  -4  20  -6  581.22   24.98
 -16  -4  -6  545.25   23.18
 -16  -4  -6  514.49   22.75
  20 -16  -6  528.83   23.32
 -16  -4  -3   99.88    9.96
  -4  20  -3  108.60   10.54
 -16  -4  -3   97.81    9.87
  20 -16  -3   95.56    9.51
 -16  -4   0  317.43   16.56
 -16  -4   0  285.17   15.59
  20 -16   0  281.60   15.16
  -4  20   0  262.42   14.97
  20 -16   3   -3.24    4.50
  -4  20   3    4.57    4.64
 -16  -4   3    8.64    4.82
  20 -16   3    3.55    3.44
  -4  20   3    3.79    3.23
 -16  -4   3    9.60    5.37
 -16  -4   6  273.75   15.05
  -5  20 -10   65.46   11.47
 -15  -5 -10   51.16    9.21
 -15  -5 -10   49.28    9.99
  20 -15 -10   56.65   10.71
  -5  20  -7  848.32   31.05
 -15  -5  -7  878.02   29.65
 -15  -5  -7  839.01   29.87
  20 -15  -7  911.03   31.79
  -5  20  -4  162.07   12.68
 -15  -5  -4  136.77   11.76
 -15  -5  -4  137.38   11.71
  20 -15  -4  146.29   11.98
 -15  -5  -1  718.20   24.32
 -15  -5  -1  692.95   23.53
  -5  20  -1  672.40   23.18
  20 -15  -1  704.95   23.51
 -15  -5   2  478.48   19.46
  -5  20   2  522.62   20.90
 -15  -5   2  430.04   19.39
  -5  20   2  472.17   15.98
  20 -15   2  476.37   20.10
  20 -15   5  500.59   23.10
 -15  -5   5  485.59   19.45
  20 -15   5  460.75   15.48
  -5  20   5  456.34   16.18
 -15  -5   5  469.81   22.38
 -15  -5   8  104.33    9.45
  -6  20 -11   37.74   10.50
 -14  -6 -11   46.62   10.26
  20 -14 -11   26.22    9.18
 -14  -6  -8   53.57    8.66
 -14  -6  -8   57.99    9.64
  20 -14  -8   46.47    9.64
  -6  20  -8   70.15   10.46
  -6  20  -5  122.79   11.95
 -14  -6  -5  130.33   11.44
 -14  -6  -5  129.17   11.70
  20 -14  -5  115.37   10.92
 -14  -6  -2   51.45    7.54
  -6  20  -2   52.28    7.61
 -14  -6  -2   39.66    6.65
  20 -14  -2   59.26    7.71
  -6  20   1  208.81   13.08
 -14  -6   1  218.62   13.50
 -14  -6   1  198.13   12.74
  20 -14   1  203.24   12.63
  20 -14   4  184.50   13.41
  -6  20   4  183.58   13.29
 -14  -6   4  164.86   11.51
 -14  -6   4  168.63   13.14
 -14  -6   7   93.13    8.90
  -7  20  -9    0.54    6.40
 -13  -7  -9    1.09    5.88
 -13  -7  -9    8.30    6.62
  20 -13  -9   -3.56    6.69
  -7  20  -6   93.00   10.94
 -13  -7  -6   74.39    9.47
 -13  -7  -6   82.85   10.37
  20 -13  -6   73.90    9.75
  -7  20  -3  190.85   13.49
 -13  -7  -3  179.26   12.95
 -13  -7  -3  191.02   13.00
  20 -13  -3  179.77   12.57
 -13  -7   0  523.75   20.05
 -13  -7   0  504.93   19.59
  -7  20   0  534.01   19.97
  20 -13   0  524.28   19.53
  20 -13   3   20.75    5.15
  -7  20   3   28.46    6.21
 -13  -7   3   29.12    6.20
 -13  -7   3   28.40    6.39
 -13  -7   6  240.16   13.11
 -12  -8 -10   36.78    8.02
 -12  -8 -10   34.34    9.46
  20 -12 -10   57.87   11.54
 -12  -8  -7  644.58   25.39
 -12  -8  -7  715.50   28.07
  20 -12  -7  645.66   26.85
  -8  20  -7  652.36   27.47
 -12  -8  -4  163.05   12.67
 -12  -8  -4  183.63   13.11
  20 -12  -4  168.89   12.37
 -12  -8  -1 1193.92   30.57
  -8  20  -1 1113.44   28.54
 -12  -8  -1 1222.92   29.99
  20 -12  -1 1205.53   29.01
  -8  20   2  349.09   16.12
 -12  -8   2  398.05   17.24
 -12  -8   2  360.30   16.53
  20 -12   2  361.13   16.44
  20 -12   5  762.22   26.63
 -12  -8   5  770.33   23.12
 -12  -8   5  716.75   25.53
 -12  -8   8   38.72    5.67
 -11  -9 -11  144.51   15.90
  20 -11 -11  108.91   14.70
  -9  20 -11  147.90   16.80
  -9  20  -8   26.14    8.54
 -11  -9  -8   36.57    8.29
 -11  -9  -8   35.93    8.66
  20 -11  -8   24.90    7.60
 -11  -9  -5  429.82   20.01
 -11  -9  -5  479.24   21.61
  20 -11  -5  460.97   20.86
  -9  20  -5  474.50   21.60
  -9  20  -2  104.61    9.62
 -11  -9  -2   88.72    9.39
 -11  -9  -2  117.48   10.19
  20 -11  -2  115.42    9.70
 -11  -9   1  933.10   26.22
 -11  -9   1  958.36   26.11
  -9  20   1  948.25   25.36
  20 -11   1  891.83   24.49
 -11  -9   4   48.69    6.70
  -9  20   4   67.16    8.08
 -11  -9   4   56.77    7.68
  20 -11   4   51.79    7.99
 -11  -9   7  126.50    9.45
 -10  20  -9   21.35    8.21
 -10 -10  -9    8.20    6.17
  20 -10  -9   29.09    8.84
 -10 -10  -9   19.75    6.75
 -10 -10  -6  154.69   12.82
 -10 -10  -6  163.10   13.64
  20 -10  -6  175.06   13.93
 -10  20  -6  172.19   14.28
 -10 -10  -3   27.66    6.55
 -10  20  -3   22.11    5.99
 -10 -10  -3   25.57    5.81
  20 -10  -3   22.64    5.98
 -10 -10   0  334.34   16.23
 -10  20   0  312.45   14.75
 -10 -10   0  330.20   15.39
  20 -10   0  318.67   14.80
  20 -10   3   27.54    5.64
 -10 -10   3   22.74    5.25
 -10  20   3   22.04    5.14
 -10 -10   3   30.15    5.90
 -10 -10   6  167.00   13.02
 -10 -10   6  149.73   10.07
 -11  20 -10   52.10   11.07
  -9 -11 -10   49.54    8.88
  -9 -11 -10   41.84    9.77
  20  -9 -10   49.05   10.41
  -9 -11  -7  140.82   12.44
  -9 -11  -7  145.91   13.81
  20  -9  -7  141.78   13.49
 -11  20  -7  142.37   13.71
  -9 -11  -4   70.97    9.02
  -9 -11  -4   84.56    9.75
  20  -9  -4   94.42    9.47
 -11  20  -4   91.34    9.92
  -9 -11  -1  935.17   26.87
 -11  20  -1  961.43   25.80
  -9 -11  -1  907.82   25.38
  20  -9  -1  959.37   25.21
  -9 -11   2  138.83   10.27
  -9 -11   2  144.24   10.10
  20  -9   2  136.55   10.29
 -11  20   2  142.34    9.86
  20  -9   5  461.53   19.56
  -9 -11   5  445.51   16.94
  -9 -11   5  445.12   19.07
  -9 -11   8   29.99    4.88
  -8 -12 -11  154.25   14.53
  20  -8 -11  145.26   17.01
  -8 -12 -11  149.94   16.61
 -12  20 -11  167.47   18.88
  -8 -12  -8   22.03    6.30
  -8 -12  -8   19.32    7.67
  20  -8  -8    2.07    7.34
 -12  20  -8   15.98    7.95
  -8 -12  -5  746.17   26.44
  -8 -12  -5  802.97   27.97
  20  -8  -5  827.48   27.91
 -12  20  -5  802.75   28.26
 -12  20  -2  324.20   16.02
  -8 -12  -2  303.07   16.08
  -8 -12  -2  324.87   15.99
  20  -8  -2  324.08   15.27
  -8 -12   1  976.61   26.76
 -12  20   1  996.38   24.54
  -8 -12   1  981.08   25.06
  20  -8   1  961.15   24.25
  -8 -12   4  191.01   11.54
 -12  20   4  190.93   11.50
  -8 -12   4  201.67   12.26
  20  -8   4  204.86   12.32
  -8 -12   7  823.73   21.59
  -7 -13  -9   -4.25    5.48
  -7 -13  -9    4.64    6.83
  20  -7  -9   -0.12    6.69
 -13  20  -9    6.82    6.26
  -7 -13  -6  218.74   15.19
  -7 -13  -6  229.77   16.17
  20  -7  -6  215.10   15.41
 -13  20  -6  215.24   16.16
 -13  20  -3   36.98    6.78
  -7 -13  -3   27.41    5.85
  20  -7  -3   23.51    5.79
  -7 -13  -3   26.53    6.21
  -7 -13   0  498.68   19.53
 -13  20   0  503.18   17.89
  -7 -13   0  514.79   18.54
  20  -7   0  531.74   18.13
  -7 -13   3  104.62    8.97
 -13  20   3  107.97    8.44
  -7 -13   3   98.01    8.33
  20  -7   3   98.97    8.41
  -7 -13   6  139.21   10.57
  -7 -13   6  152.78    9.85
  -6 -14 -10   10.34    6.79
  -6 -14 -10    3.03    7.97
  20  -6 -10    4.88    7.08
 -14  20 -10    7.49    7.45
  -6 -14  -7  161.73   14.89
  -6 -14  -7  148.90   13.24
 -14  20  -7  173.09   15.59
  -6 -14  -4  199.73   14.29
  20  -6  -4  210.25   13.95
  -6 -14  -4  187.47   13.46
 -14  20  -4  181.39   13.17
 -14  20  -1  300.26   14.47
  -6 -14  -1  286.39   15.57
  -6 -14  -1  294.66   14.56
  20  -6  -1  309.86   14.31
 -14  20   2   25.53    4.65
  -6 -14   2   36.77    6.08
  -6 -14   2   42.67    6.16
  20  -6   2   32.66    5.19
  20  -6   5  184.30   11.66
  -6 -14   5  209.54   11.69
  -6 -14   5  187.48   11.64
  -6 -14   8   21.47    4.19
  -5 -15  -8  130.74   12.92
  -5 -15  -8  103.41   13.02
  20  -5  -8  107.82   12.69
 -15  20  -8   99.35   13.30
  -5 -15  -5  505.61   22.29
  -5 -15  -5  543.02   23.63
  20  -5  -5  569.77   23.54
 -15  20  -5  558.29   24.13
  -5 -15  -2  425.97   18.99
  -5 -15  -2  399.28   17.69
  20  -5  -2  420.65   17.33
 -15  20  -2  409.61   17.82
  -5 -15   1  909.95   25.87
 -15  20   1  868.47   22.05
  -5 -15   1  866.86   23.05
  20  -5   1  851.19   21.85
  -5 -15   4  253.72   13.04
  -5 -15   4  241.10   12.50
  20  -5   4  237.88   12.28
  -5 -15   7  762.77   19.70
  -4 -16  -9   39.11    8.77
  -4 -16  -9   19.32    8.12
  20  -4  -9   38.44   10.28
 -16  20  -9   41.90   11.11
  -4 -16  -6  323.91   18.66
  -4 -16  -6  402.10   21.66
  20  -4  -6  345.82   19.59
 -16  20  -6  347.74   20.44
  -4 -16  -3    8.96    4.82
  20  -4  -3   12.38    4.62
  -4 -16  -3   16.72    5.86
 -16  20  -3   19.42    5.61
 -16  20   0  281.85   13.36
  -4 -16   0  283.08   13.91
  -4 -16   0  310.17   15.84
  20  -4   0  293.99   13.27
 -16  20   3   53.24    5.77
  -4 -16   3   45.41    6.39
  -4 -16   3   49.44    5.92
  20  -4   3   54.76    6.28
  -4 -16   6  620.35   18.90
  -3 -17 -10   88.76   12.00
  -3 -17 -10  101.59   14.93
  20  -3 -10  101.96   14.46
 -17  20 -10   80.32   13.41
  -3 -17  -7   17.71    6.23
  -3 -17  -7   22.28    8.29
  20  -3  -7   10.32    6.45
 -17  20  -7   33.21    8.32
  -3 -17  -4   87.54    9.90
  -3 -17  -4   76.12    9.29
  20  -3  -4   76.63    9.07
 -17  20  -4  100.77   10.70
  -3 -17  -1   89.40    9.27
  -3 -17  -1  103.43    9.00
  20  -3  -1  100.26    8.37
 -17  20  -1  100.55    8.66
  -3 -17   2  105.40    9.41
 -17  20   2  102.22    7.45
  -3 -17   2  101.67    7.94
  20  -3   2   93.00    7.24
  -3 -17   5   28.62    5.24
  -3 -17   5   21.34    4.66
  -2 -18  -8  244.60   19.24
  -2 -18  -8  254.20   18.09
 -18  20  -8  265.43   20.33
  20  -2  -8  313.49   21.51
  -2 -18  -5  586.65   25.03
  -2 -18  -5  581.80   25.07
 -18  20  -5  569.28   25.12
  20  -2  -5  587.84   24.29
  -2 -18  -2  209.62   14.38
  -2 -18  -2  229.70   13.73
  20  -2  -2  200.44   12.19
 -18  20  -2  223.59   13.59
 -18  20   1 1289.31   26.21
  -2 -18   1 1260.98   27.13
  -2 -18   1 1243.82   31.24
  20  -2   1 1310.78   25.90
  -2 -18   4  147.40   10.44
  -2 -18   4  141.51    8.94
 -18  20   4  145.30    8.28
  20  -2   4  171.58    9.52
  -2 -18   7  664.45   18.58
  -1 -19  -9   14.18    6.91
  -1 -19  -9   23.24    9.52
  20  -1  -9    7.76    8.22
 -19  20  -9   23.45    9.37
  -1 -19  -6  117.79   12.48
  -1 -19  -6  132.65   13.78
 -19  20  -6  115.31   12.96
  20  -1  -6  148.64   13.91
  -1 -19  -3   46.75    8.12
  -1 -19  -3   46.74    7.43
  20  -1  -3   42.58    7.55
 -19  20  -3   46.09    7.56
  -1 -19   0  143.21   11.55
  -1 -19   0  143.50   10.09
  20  -1   0  128.82    9.06
 -19  20   0  149.41    9.78
 -19  20   3   14.67    3.37
  -1 -19   3   15.90    3.89
  20  -1   3   14.79    3.67
  -1 -19   6  188.11   11.05
   0 -20 -10  287.43   20.49
   0 -20 -10  253.51   21.90
 -20  20 -10  320.68   25.37
  20   0 -10  306.03   23.65
   0 -20  -7    5.21    6.49
   0 -20  -7    1.33    6.58
  20   0  -7    3.86    6.03
 -20  20  -7   -6.16    6.40
   0 -20  -4  130.01   12.52
 -20  20  -4  147.70   13.10
  20   0  -4  122.86   11.74
   0 -20  -4  125.72   12.14
   0 -20  -1    4.81    5.15
   0 -20  -1    0.06    4.01
  20   0  -1    6.02    3.79
 -20  20  -1    8.38    4.25
   0 -20   2  125.93   10.36
 -20  20   2  140.05    8.34
   0 -20   2  136.46    8.97
  20   0   2  132.60    8.21
   0 -20   5    3.75    3.66
   0 -20   5    3.79    2.97
   1 -21  -8  144.96   14.89
   1 -21  -8  158.99   17.05
 -21  20  -8  143.77   15.91
  20   1  -8  143.03   15.43
   1 -21  -5  629.40   26.86
   1 -21  -5  646.82   27.17
 -21  20  -5  631.61   27.02
  20   1  -5  637.65   26.16
   1 -21  -2   82.91   10.03
   1 -21  -2   65.75    8.27
 -21  20  -2   81.38    8.79
  20   1  -2   83.50    8.53
 -21  20   1  934.06   22.20
   1 -21   1  936.26   28.14
   1 -21   1  900.05   23.22
  20   1   1  938.75   21.65
  20   1   4  177.69    8.33
 -21  20   4  188.82    7.57
   1 -21   4  174.54   11.50
   1 -21   4  187.41    9.38
   1 -21   7  378.49   14.58
   2 -22  -9   83.29   12.33
   2 -22  -9   89.15   14.54
  20   2  -9   84.33   13.13
 -22  20  -9   81.86   13.59
   2 -22  -6   21.61    4.41
   2 -22  -6   19.69    7.80
   2 -22  -6   20.76    7.27
  20   2  -6   19.37    7.06
 -22  20  -6   15.62    7.31
   2 -22  -3  154.60   13.68
   2 -22  -3  149.37   12.64
 -22  20  -3  171.05   13.50
  20   2  -3  158.02   12.31
   2 -22   0   37.33    7.67
   2 -22   0   34.08    5.73
  20   2   0   32.18    5.03
 -22  20   0   31.91    5.44
   2 -22   3  157.24   11.80
   2 -22   3  143.39    8.44
 -22  20   3  142.23    7.50
  20   2   3  153.07    7.84
   2 -22   6   86.84    8.26
   3 -23  -7   -5.58    6.69
   3 -23  -7    2.90    6.42
  20   3  -7    2.60    5.90
 -23  20  -7   -8.60    6.88
   3 -23  -4   56.48    9.85
   3 -23  -4   44.80    8.67
  20   3  -4   59.92    8.91
 -23  20  -4   35.87    8.54
   3 -23  -1   28.50    6.69
   3 -23  -1   45.34    7.19
  20   3  -1   26.97    5.26
 -23  20  -1   40.78    6.49
   3 -23   2  453.50   20.18
 -23  20   2  474.94   14.33
   3 -23   2  442.56   15.47
  20   3   2  466.28   13.99
   3 -23   5    9.78    2.69
   3 -23   5    2.97    3.72
   4 -24  -8   85.92   12.51
   4 -24  -8   98.08   14.20
  20   4  -8   97.65   13.81
 -24  20  -8   80.78   13.70
   4 -24  -5  320.53   14.45
   4 -24  -5  319.48   20.27
   4 -24  -5  329.30   20.53
 -24  20  -5  351.14   21.38
  20   4  -5  347.78   20.26
   4 -24  -2   49.65    8.54
 -24  20  -2   56.66    8.18
  20   4  -2   59.24    7.57
   4 -24   1  211.78   14.51
   4 -24   1  213.12   11.90
  20   4   1  210.71   10.19
 -24  20   1  214.17   10.99
   4 -24   4  221.84   13.94
   4 -24   4  181.34    8.48
   4 -24   7  194.36   11.36
   5 -25  -9  168.94   17.40
   5 -25  -9  155.45   18.12
 -25  20  -9  179.13   20.16
  20   5  -9  173.94   18.41
   5 -25  -6   60.44   10.31
   5 -25  -6   81.54   12.87
 -25  20  -6   80.91   12.06
  20   5  -6   80.97    9.62
  20   5  -6   49.22    9.14
   5 -25  -6   73.44    7.91
   5 -25  -3  303.81   19.48
   5 -25  -3  307.77   18.19
 -25  20  -3  299.74   18.16
  20   5  -3  308.03   17.20
   5 -25   0  132.61   12.57
  20   5   0  124.77    8.99
 -25  20   0  103.54    8.86
   5 -25   0  118.78    9.79
   5 -25   3  205.41   14.11
   5 -25   3  230.50   10.46
 -25  20   3  220.78    8.33
  20   5   3  198.51    7.51
   5 -25   6   24.17    6.22
   6 -26  -7   24.90    8.59
   6 -26  -7   32.22    9.85
  20   6  -7   43.78   10.29
   6 -26  -4  169.70   12.36
   6 -26  -4  203.91   16.83
   6 -26  -4  225.53   16.96
 -26  20  -4  207.55   16.32
  20   6  -4  206.04   14.96
   6 -26  -1   44.37    8.21
   6 -26  -1   35.98    6.82
  20   6  -1   46.08    6.52
 -26  20  -1   25.04    6.21
 -26  20   2  335.90   12.26
   6 -26   2  363.66   19.25
   6 -26   2  356.79   14.23
  20   6   2  371.22   11.88
   6 -26   5   55.74    8.00
   7 -27  -8   17.43    8.71
   7 -27  -8   15.58    8.52
 -27  20  -8    4.34    8.79
  20   7  -8   17.25    9.93
   7 -27  -5  131.93   11.01
   7 -27  -5  132.81   14.73
   7 -27  -5  174.94   16.06
 -27  20  -5  135.20   14.70
  20   7  -5  157.17   14.78
  20   7  -5  145.82   13.14
   7 -27  -2   49.39    9.22
   7 -27  -2   38.92    7.59
 -27  20  -2   55.07    8.60
  20   7  -2   48.54    7.39
   7 -27   1  211.07   15.46
   7 -27   1  188.22   11.64
  20   7   1  194.12    9.74
 -27  20   1  185.73   10.72
   7 -27   4   51.97    8.21
   8 -28  -6   20.12    6.48
   8 -28  -6   44.18    9.52
   8 -28  -6   32.00   10.21
  20   8  -6   39.23    8.48
 -28  20  -6   25.13    8.80
  20   8  -6   11.99    7.63
   8 -28  -3  195.40   14.69
   8 -28  -3  207.58   17.31
   8 -28  -3  210.28   16.09
 -28  20  -3  192.25   15.34
  20   8  -3  194.29   14.47
   8 -28   0  100.80   11.73
   8 -28   0  109.21   10.09
 -28  20   0  103.81    9.32
  20   8   0   97.94    8.31
   8 -28   3  388.81   20.14
   8 -28   3  328.21   12.18
   8 -28   6  152.25   12.00
   9 -29  -7   62.05   12.12
   9 -29  -7   40.53   10.71
 -29  20  -7   60.03   12.81
  20   9  -7   57.34   12.42
   9 -29  -4  320.61   17.98
   9 -29  -4  334.30   22.50
   9 -29  -4  316.99   20.70
 -29  20  -4  340.46   21.51
  20   9  -4  316.92   19.39
   9 -29  -1   70.54   10.72
   9 -29  -1   53.15    8.60
 -29  20  -1   58.34    8.50
  20   9  -1   63.35    7.70
   9 -29   2  164.83   14.75
   9 -29   2  156.82    9.78
 -29  20   2  162.48    8.79
   9 -29   5   75.34    9.83
  20  10  -5   -0.70    6.49
  10 -30  -5    6.99    5.67
 -30  20  -5    3.40    5.55
  10 -30  -5   17.21    7.45
  10 -30  -5    5.43    7.52
 -30  20  -5   11.79    8.40
  20  10  -5   -0.85    6.49
  10 -30  -2   45.46   10.20
  10 -30  -2   54.22    9.28
 -30  20  -2   51.64    9.00
  20  10  -2   37.88    7.28
  10 -30   1   51.87    9.62
  10 -30   1   39.40    6.53
  20  10   1   43.87    5.07
 -30  20   1   51.59    6.87
  10 -30   4    3.84    5.74
  11 -31  -6   51.78   11.57
  20  11  -6   76.59   11.88
  11 -31  -6   69.54   11.99
  20  11  -6   82.35   12.54
 -31  20  -6   73.54   13.88
  11 -31  -3  350.64   20.93
  11 -31  -3  329.47   22.73
  11 -31  -3  326.17   20.69
 -31  20  -3  363.16   21.95
  20  11  -3  333.25   19.14
  11 -31   0  185.32   16.81
  11 -31   0  159.66   12.50
 -31  20   0  178.83   12.48
  20  11   0  164.21   10.44
  11 -31   3  183.48   15.19
  11 -31   6  123.63   11.75
  12 -32  -4  188.56   15.73
  12 -32  -4  199.73   18.94
  12 -32  -4  175.07   16.82
 -32  20  -4  186.40   17.12
  20  12  -4  187.40   16.09
  12 -32  -1   26.85    8.28
  12 -32  -1   26.03    7.23
  20  12  -1   35.91    6.60
 -32  20  -1   38.22    8.12
  12 -32   2  176.64   16.15
  12 -32   5   23.44    7.23
  20  13  -5    9.46    8.25
  13 -33  -5    1.04    6.72
 -33  20  -5    3.48    7.04
  13 -33  -5  -11.95    8.71
  13 -33  -5    7.56    8.19
 -33  20  -5    1.06    8.13
  20  13  -5   -3.98    7.46
  13 -33  -2   69.04   11.47
  13 -33  -2   40.96   10.11
  13 -33  -2   56.25   10.10
  20  13  -2   57.36    8.93
 -33  20  -2   44.25    9.15
  13 -33   1   24.44    8.13
  13 -33   1   29.38    6.28
  13 -33   4    7.00    6.15
  14 -34  -3  216.55   18.37
  14 -34  -3  224.46   20.26
 -34  20  -3  224.41   17.68
  20  14  -3  223.96   16.67
  14 -34  -3  249.56   19.05
  14 -34   0   77.22   12.47
  14 -34   0   85.98   10.08
 -34  20   0   74.14    9.40
  14 -34   3  208.16   17.57
  15 -35  -4   20.03    8.68
 -35  20  -4   35.24   10.30
  15 -35  -4   27.30   11.09
  15 -35  -4   44.65   11.13
 -35  20  -4   26.79    9.35
  20  15  -4   25.42    8.38
  15 -35  -1   66.22   12.50
  15 -35  -1   55.77    9.79
 -35  20  -1   53.17    9.35
  15 -35   2    4.96    6.34
  16 -36  -2   26.04    9.52
  16 -36  -2   44.40   11.04
  16 -36  -2   27.92    8.64
 -36  20  -2   26.28    8.46
  16 -36   1    3.89    7.61
  17 -37   0   48.64   11.78
  21 -37   1   21.26    9.27
  21 -36  -3  129.75   17.45
  21 -36  -3  143.31   16.24
 -36  15  -3  165.63   17.25
  15  21  -3  151.39   15.11
 -36  15  -3  137.07   17.03
  15  21  -3  100.04   16.19
  21 -36  -3  134.99   16.93
 -36  15   0   42.07   11.83
  21 -36   0   49.80   12.47
  21 -36   0   58.40   11.66
  21 -36   0   51.45    9.15
  21 -36   3  146.36   16.04
 -35  14  -4   16.85    9.62
  21 -35  -4   28.74   10.10
  21 -35  -4   29.64   10.29
  21 -35  -4   23.30   10.05
  14  21  -4    4.94    8.73
 -35  14  -4   44.42   11.51
 -35  14  -4   31.45   10.65
  14  21  -4   31.63    9.70
 -35  14  -1   48.75   12.02
  21 -35  -1   61.34   12.93
  21 -35  -1   44.34   10.59
  21 -35  -1   58.25   10.20
  14  21  -1   66.01   14.55
 -35  14  -1   42.95    8.78
 -35  14  -1   54.46   11.17
  21 -35   2    2.22    7.19
  21 -34  -5   27.87    9.42
  21 -34  -5   26.63   10.59
  21 -34  -5   19.88    9.25
 -34  13  -5   29.80   11.29
  13  21  -5   26.04    9.78
 -34  13  -5   10.31    7.63
  13  21  -5   17.65    9.13
 -34  13  -5   32.79   10.05
  21 -34  -2  102.10   13.99
  21 -34  -2  105.88   13.54
 -34  13  -2  104.59   13.22
 -34  13  -2   96.72   13.54
  13  21  -2  105.29   11.72
  13  21  -2  107.86   15.30
 -34  13  -2  130.10   15.87
  21 -34  -2  130.57   15.90
 -34  13   1   29.26   11.31
  21 -34   1   43.76   11.62
  21 -34   1   24.53    8.71
  21 -34   1   25.38    6.97
  21 -34   4   59.43   10.51
  21 -33  -3  384.41   25.52
  21 -33  -3  324.10   21.94
 -33  12  -3  351.09   22.96
  12  21  -3  325.91   23.91
 -33  12  -3  359.06   24.52
  12  21  -3  335.76   21.00
 -33  12  -3  358.62   24.24
  21 -33  -3  370.81   23.68
  21 -33   0   82.93   13.00
  21 -33   0   76.51   11.94
  21 -33   0   76.60   10.33
  12  21   0   72.24   14.58
 -33  12   0   50.15    8.64
 -33  12   0   87.57   13.02
 -33  12   0   73.85   13.40
  21 -33   3  245.69   18.95
  11  21  -4   38.50   11.45
  21 -32  -4   28.96   10.28
  21 -32  -4   34.38   10.14
 -32  11  -4   45.69   11.21
 -32  11  -4   38.64   10.22
  11  21  -4   32.59    9.71
 -32  11  -4   51.72   10.70
  21 -32  -4   55.77   10.97
 -32  11  -1   63.72   12.08
  21 -32  -1   49.98    9.29
 -32  11  -1   47.86    9.35
 -32  11  -1   67.47   11.66
  11  21  -1   51.77    8.28
  11  21  -1   59.49   12.07
  21 -32  -1   64.43   11.83
 -32  11   2   90.13   15.25
  21 -32   2  108.39   15.46
  21 -32   2  128.06   13.94
 -32  11   2   67.10   11.92
  21 -32   5   22.80    7.76
  21 -31  -5   95.22   14.14
  21 -31  -5  119.39   15.62
 -31  10  -5   91.50   13.94
 -31  10  -5  116.72   14.38
  10  21  -5  108.42   14.24
  10  21  -5  133.62   15.26
 -31  10  -5  103.77   13.44
  21 -31  -5  113.03   13.56
  21 -31  -2   36.41    9.69
  21 -31  -2   22.55    7.80
 -31  10  -2   14.83    7.69
  10  21  -2   19.58    7.22
 -31  10  -2   13.73    6.98
  10  21  -2   33.83   10.60
 -31  10  -2   34.85    9.78
  21 -31   1   86.20   13.21
  21 -31   1   77.51    8.93
 -31  10   1   70.37    9.09
 -31  10   1   74.57   11.92
  10  21   1   74.68    7.28
  10  21   1   84.24   14.19
 -31  10   1   90.89   14.35
  21 -31   4  123.14   13.12
  21 -30  -6   52.47   12.25
  21 -30  -6   35.90   10.65
 -30   9  -6   47.47   12.88
 -30   9  -6   38.40    9.79
   9  21  -6   53.24   12.52
 -30   9  -6   54.57   11.10
  21 -30  -6   57.49   10.60
   9  21  -6   57.10   11.59
  21 -30  -3  407.32   23.71
 -30   9  -3  349.93   22.41
 -30   9  -3  426.89   24.54
   9  21  -3  377.94   21.29
   9  21  -3  343.57   23.22
 -30   9  -3  334.92   21.95
  21 -30  -3  350.10   22.03
  21 -30   0  127.68   11.90
 -30   9   0  117.56   11.79
 -30   9   0  188.01   17.42
   9  21   0  137.94   10.54
   9  21   0  164.61   17.23
 -30   9   0  137.57   15.48
  21 -30   0  151.66   15.94
 -30   9   3  333.02   24.52
 -30   9   3  342.89   22.71
  21 -30   6   81.10   10.58
  21 -29  -7    0.39    7.80
  21 -29  -7    4.63    9.06
 -29   8  -7   -0.59    9.52
 -29   8  -7   18.07    8.27
   8  21  -7  -11.16    8.89
   8  21  -7   17.35    8.55
 -29   8  -7    9.23    7.41
  21 -29  -7    4.08    6.75
   8  21  -4   42.44    9.81
 -29   8  -4   50.48   10.55
 -29   8  -4   47.10    9.73
   8  21  -4   28.27    8.39
 -29   8  -4   49.69   10.01
  21 -29  -4   50.38   10.58
  21 -29  -1   45.84    9.74
 -29   8  -1   35.97    8.55
   8  21  -1   21.16    7.76
 -29   8  -1   23.99    7.57
  21 -29   2  122.28   14.83
 -29   8   2  124.72   10.08
  21 -29   2  148.15   10.50
 -29   8   2  144.38   15.09
 -29   8   2  141.79   15.56
  21 -28  -8    7.14    7.86
  21 -28  -8    6.84   10.54
 -28   7  -8   23.61   11.64
   7  21  -8   26.12    9.35
 -28   7  -8    7.34    6.66
   7  21  -8   15.74   10.03
 -28   7  -8   21.11    8.34
  21 -28  -8   16.22    7.60
 -28   7  -5  232.27   20.35
   7  21  -5  225.12   17.83
 -28   7  -5  205.51   17.29
 -28   7  -5  224.78   17.54
  21 -28  -5  255.20   18.55
 -28   7  -2    9.82    6.81
   7  21  -2    5.64    7.03
 -28   7  -2   13.10    7.11
  21 -28  -2   -3.82    7.28
 -28   7   1  281.55   19.93
   7  21   1  241.75   19.53
 -28   7   1  271.83   20.40
  21 -28   1  247.08   19.20
 -28   7   4   31.34    8.62
 -27   6  -6  159.88   17.53
 -27   6  -6  152.53   14.91
 -27   6  -6  144.55   14.41
  21 -27  -6  143.12   14.33
   6  21  -6  136.72   15.33
   6  21  -3  128.23   14.01
 -27   6  -3  172.04   15.58
 -27   6  -3  155.51   14.46
  21 -27  -3  139.11   13.45
   6  21   0  121.22   14.58
 -27   6   0  126.19   13.45
 -27   6   0  128.55   14.42
  21 -27   3   81.74   12.79
 -27   6   3  107.89   12.81
 -27   6   3  109.46   13.80
 -26   5  -7   49.94   12.40
   5  21  -7   48.29   10.35
 -26   5  -7   50.47    9.82
 -26   5  -7   53.03    9.65
  21 -26  -7   54.59   10.20
   5  21  -4   70.21   10.75
 -26   5  -4   43.60    9.17
 -26   5  -4   68.76   10.76
  21 -26  -4   48.78    8.94
 -26   5  -1   64.28   10.22
   5  21  -1   76.27   11.20
 -26   5  -1   94.75   11.62
  21 -26  -1   63.32    9.97
  21 -26   2   46.80    9.88
   5  21   2   41.20   10.28
 -26   5   2   31.87    8.21
 -26   5   2   48.33   11.19
 -26   5   5  239.58   17.88
   4  21  -8   16.47    7.65
 -25   4  -8   16.34    9.93
 -25   4  -8    7.15    6.00
 -25   4  -8   33.26    8.94
  21 -25  -8   20.34    8.41
 -25   4  -5  298.60   19.25
 -25   4  -5  260.09   17.77
  21 -25  -5  319.49   19.45
   4  21  -5  316.37   20.40
   4  21  -2   30.22    7.95
 -25   4  -2   27.38    8.06
 -25   4  -2   17.32    6.55
  21 -25  -2   20.08    7.01
   4  21   1  382.95   22.99
 -25   4   1  410.84   22.19
 -25   4   1  410.29   22.93
  21 -25   1  369.29   21.53
 -25   4   4   75.74   11.64
  21 -25   4   89.87   13.34
 -25   4   4   88.50   11.48
  21 -24  -9   11.16    8.85
 -24   3  -9   14.53    9.40
 -24   3  -9   27.69    8.12
 -24   3  -9   32.10    8.97
  21 -24  -9   28.94    9.08
   3  21  -9   32.42   10.09
 -24   3  -6   97.75   12.18
 -24   3  -6  110.94   12.02
   3  21  -6  128.68   13.66
  21 -24  -6  123.20   12.88
 -24   3  -3   25.01    7.02
   3  21  -3   23.21    7.49
 -24   3  -3   34.62    7.69
  21 -24  -3   33.66    8.04
 -24   3   0  519.23   24.17
   3  21   0  522.04   25.07
 -24   3   0  494.60   23.95
  21 -24   0  482.16   23.28
  21 -24   3   97.73   12.56
 -24   3   3  117.41   12.80
   3  21   3  118.82   13.90
 -24   3   3  113.88   13.45
 -24   3   6   79.02   10.61
 -23   2  -7  250.31   17.86
   2  21  -7  218.26   17.99
 -23   2  -7  247.23   18.01
  21 -23  -7  263.88   18.11
 -23   2  -4  151.78   14.15
 -23   2  -4  178.56   14.39
   2  21  -4  192.36   15.31
  21 -23  -4  211.72   15.57
   2  21  -1  513.51   24.08
 -23   2  -1  508.67   23.72
 -23   2  -1  471.07   22.76
  21 -23  -1  533.61   23.88
 -23   2   2  157.57   13.65
   2  21   2  165.62   14.66
   2  21   2  167.22    9.21
 -23   2   2  155.89   14.58
  21 -23   2  149.44   13.84
 -23   2   5  387.60   20.76
 -22   1  -8    2.05    5.41
 -22   1  -8   25.64    8.04
   1  21  -8   16.21    7.54
  21 -22  -8   14.56    6.53
 -22   1  -5  282.82   18.31
 -22   1  -5  270.67   17.52
   1  21  -5  315.14   19.36
  21 -22  -5  273.19   17.36
  21 -22  -2   76.19    7.96
 -22   1  -2  108.57   11.39
 -22   1  -2   76.21    7.66
 -22   1  -2   85.87   10.14
  21 -22  -2   96.68   10.65
   1  21  -2  109.51   11.58
 -22   1   1  289.17   17.71
 -22   1   1  231.14   16.76
   1  21   1  235.77   16.75
  21 -22   1  291.55   17.87
 -22   1   4   17.71    8.05
  21 -22   4    5.32    6.53
 -22   1   4   11.98    6.28
 -21   0  -9    2.26    5.93
 -21   0  -9    8.05    7.11
   0  21  -9   -3.46    6.93
  21 -21  -9    6.79    6.31
 -21   0  -6  416.94   21.68
   0  21  -6  446.13   22.88
 -21   0  -6  443.81   22.39
  21 -21  -6  433.72   21.95
   0  21  -3    4.36    4.31
   0  21  -3    4.95    5.99
  21 -21  -3    7.51    3.81
 -21   0  -3   -2.82    4.55
 -21   0  -3    0.82    3.09
 -21   0  -3    9.22    5.34
  21 -21  -3   -0.98    5.45
   0  21   0  398.03   20.39
 -21   0   0  389.35   19.89
 -21   0   0  387.23   20.11
  21 -21   0  339.67   18.69
 -21   0   3    1.59    6.01
  21 -21   3    1.38    5.28
 -21   0   3   -0.26    5.10
  21 -21   3    7.26    3.99
   0  21   3    1.08    2.89
   0  21   3   -2.28    5.59
 -21   0   6  130.88   11.99
 -20  -1 -10   84.65   16.26
  -1  21 -10   91.81   13.53
 -20  -1 -10   76.09   11.25
 -20  -1 -10   70.55   11.77
  21 -20 -10  110.94   13.79
 -20  -1  -7  423.65   21.72
 -20  -1  -7  423.76   22.28
  21 -20  -7  431.89   22.69
  -1  21  -7  400.48   22.18
  -1  21  -4  157.62    9.16
 -20  -1  -4  164.18   13.37
  -1  21  -4  171.87   13.92
 -20  -1  -4  159.68    7.66
 -20  -1  -4  187.88   14.18
  21 -20  -4  165.12   13.25
  -1  21  -1 1030.14   31.68
  21 -20  -1  928.68   24.97
 -20  -1  -1 1093.79   32.61
 -20  -1  -1  906.34   23.64
 -20  -1  -1 1033.57   31.48
  21 -20  -1 1009.44   30.64
  -1  21   2   65.77    9.36
 -20  -1   2   86.11   10.15
  -1  21   2   53.31    6.18
 -20  -1   2   75.02   10.38
  21 -20   2   63.46    9.43
 -20  -1   5  581.99   27.61
 -20  -1   5  633.25   24.94
  -2  21  -8  131.04   13.78
 -19  -2  -8  107.79   12.42
 -19  -2  -8  147.24   14.13
  21 -19  -8  139.87   14.03
 -19  -2  -5   52.90    8.45
 -19  -2  -5   60.13    8.84
  -2  21  -5   50.12    8.79
  21 -19  -5   51.63    8.03
  21 -19  -2   39.96    5.61
  -2  21  -2   19.99    4.94
  -2  21  -2   38.64    7.80
 -19  -2  -2   32.67    7.41
 -19  -2  -2   25.13    4.50
 -19  -2  -2   22.33    6.11
  21 -19  -2   35.56    7.34
 -19  -2   1  129.08   11.60
  -2  21   1  120.06   11.70
 -19  -2   1  112.30   11.13
  21 -19   1  122.17   12.02
  21 -19   4  168.50   14.69
 -19  -2   4  108.81    8.70
 -19  -2   4  147.92   12.47
  21 -19   4  111.48    8.02
  -2  21   4  125.03    8.15
  -2  21   4  151.04   14.19
 -19  -2   4  148.23   14.09
 -19  -2   7   45.75    7.87
 -18  -3  -9   24.83    7.21
  -3  21  -9   23.62    8.54
 -18  -3  -9   20.96    7.60
  21 -18  -9   19.37    7.82
  -3  21  -6  518.66   24.21
 -18  -3  -6  603.46   25.15
 -18  -3  -6  564.28   24.69
  21 -18  -6  546.08   24.27
 -18  -3  -3  140.71   12.47
 -18  -3  -3  136.21    6.88
  -3  21  -3  138.32   12.10
 -18  -3  -3  140.82   11.91
  21 -18  -3  138.54   11.84
  -3  21   0  128.68   11.93
 -18  -3   0  154.58   12.41
 -18  -3   0  131.41   11.65
  21 -18   0  164.57   12.53
 -18  -3   3   68.38    8.65
  -3  21   3   70.95    9.62
  21 -18   3   54.05    6.26
  -3  21   3   46.35    5.62
 -18  -3   3   39.01    7.51
  21 -18   3   75.84    9.81
 -18  -3   6  116.26   11.14
  -4  21 -10  220.17   18.96
 -17  -4 -10  205.59   16.34
 -17  -4 -10  229.17   18.66
  21 -17 -10  196.91   17.90
  -4  21  -7  357.15   20.92
 -17  -4  -7  362.61   20.07
 -17  -4  -7  365.86   20.77
  21 -17  -7  330.90   19.69
 -17  -4  -4  263.03   16.54
  -4  21  -4  286.10   17.07
 -17  -4  -4  270.13   16.48
  21 -17  -4  227.07   14.80
 -17  -4  -1  974.04   29.56
 -17  -4  -1  884.35   28.05
  -4  21  -1  922.69   28.43
  21 -17  -1  973.22   28.63
 -17  -4   2  363.42   17.97
  -4  21   2  362.83   19.27
 -17  -4   2  387.41   19.06
  21 -17   2  378.68   18.87
  21 -17   5  593.35   26.02
  21 -17   5  498.32   16.02
 -17  -4   5  548.50   21.88
  -4  21   5  513.48   16.74
 -17  -4   5  577.20   25.92
 -17  -4   8  188.99   13.12
  -5  21  -8   83.25   11.37
 -16  -5  -8   93.84   11.81
 -16  -5  -8  100.81   11.32
  21 -16  -8   85.88   11.63
 -16  -5  -5   12.58    5.56
  -5  21  -5   13.25    5.15
 -16  -5  -5   21.26    6.24
  21 -16  -5   21.53    6.55
 -16  -5  -2  569.88   22.81
  -5  21  -2  574.84   22.50
 -16  -5  -2  521.71   21.39
  21 -16  -2  549.41   21.64
 -16  -5   1   44.45    7.16
 -16  -5   1   33.67    6.49
  -5  21   1   33.63    6.65
  21 -16   1   29.18    5.81
  21 -16   4   63.98    9.36
  -5  21   4   76.28    9.83
 -16  -5   4   95.33    9.79
  21 -16   4   59.80    6.53
  -5  21   4   64.67    6.85
 -16  -5   4   69.50    9.64
 -16  -5   7    2.70    4.41
  -6  21  -9  111.04   13.41
 -15  -6  -9  126.92   12.98
 -15  -6  -9  115.23   13.26
  21 -15  -9  109.02   13.66
  -6  21  -6  133.83   13.03
 -15  -6  -6  184.17   14.12
 -15  -6  -6  156.15   13.61
  21 -15  -6  151.96   13.45
 -15  -6  -3  323.99   17.59
  -6  21  -3  332.40   17.66
 -15  -6  -3  354.52   17.91
  21 -15  -3  335.35   17.30
 -15  -6   0  334.38   17.08
 -15  -6   0  329.26   16.66
  -6  21   0  322.52   16.31
  21 -15   0  313.39   16.05
  -6  21   3  270.77   16.32
 -15  -6   3  249.12   14.33
 -15  -6   3  253.58   15.80
  21 -15   3  266.99   15.81
 -15  -6   6  192.30   15.99
 -15  -6   6  203.88   13.18
 -14  -7 -10   89.36   11.41
 -14  -7 -10   96.40   13.24
  21 -14 -10   85.41   12.89
  -7  21 -10   89.16   13.43
  -7  21  -7  238.46   17.46
 -14  -7  -7  219.25   15.45
 -14  -7  -7  218.73   16.10
  21 -14  -7  184.22   15.09
  -7  21  -4  307.56   17.28
 -14  -7  -4  263.89   15.96
 -14  -7  -4  290.45   16.70
  21 -14  -4  309.21   17.33
 -14  -7  -1  775.57   25.96
  -7  21  -1  797.74   25.20
 -14  -7  -1  821.23   25.84
  21 -14  -1  824.08   25.46
 -14  -7   2  392.51   17.96
  -7  21   2  364.89   17.59
 -14  -7   2  375.74   17.77
  21 -14   2  390.13   17.88
  21 -14   5  483.92   22.35
 -14  -7   5  469.50   19.21
 -14  -7   5  500.27   22.48
 -14  -7   8  265.40   14.03
 -13  -8  -8  170.48   14.11
 -13  -8  -8  188.93   16.09
  21 -13  -8  167.84   15.28
  -8  21  -8  171.50   15.59
  -8  21  -5  153.13   13.26
 -13  -8  -5  137.56   12.24
 -13  -8  -5  140.69   12.37
  21 -13  -5  159.26   13.04
  -8  21  -2  939.43   27.69
 -13  -8  -2  990.97   29.26
  21 -13  -2  969.81   27.34
 -13  -8   1   69.53    8.08
 -13  -8   1   72.31    8.27
  21 -13   1   53.11    7.47
  -8  21   1   78.78    8.48
  21 -13   4  175.09   13.16
 -13  -8   4  175.83   11.79
  -8  21   4  144.50   11.85
 -13  -8   4  159.03   12.62
 -13  -8   7  166.90   11.33
 -12  -9  -9  232.83   16.69
 -12  -9  -9  237.79   18.47
  21 -12  -9  227.42   18.38
  -9  21  -9  225.36   18.91
 -12  -9  -6  107.27   11.35
 -12  -9  -6   99.47   11.11
  21 -12  -6   90.62   10.81
  -9  21  -3  408.04   18.97
 -12  -9  -3  480.23   20.80
 -12  -9  -3  393.99   18.36
  21 -12  -3  482.34   20.22
 -12  -9   0  142.42   11.20
  -9  21   0  150.59   11.18
 -12  -9   0  154.94   11.30
 -12  -9   3  445.02   18.36
  -9  21   3  454.97   19.20
 -12  -9   3  417.95   18.68
  21 -12   3  417.10   18.48
 -12  -9   6   63.75    8.98
 -12  -9   6   83.15    8.23
 -10  21 -10   63.18   11.85
 -11 -10 -10   43.16    9.08
 -11 -10 -10   53.83   10.78
  21 -11 -10   70.50   12.66
 -11 -10  -7   98.87   12.11
  21 -11  -7  121.80   13.07
 -11 -10  -7  109.32   11.57
 -10  21  -7   99.48   11.76
 -10  21  -4  274.62   16.27
 -11 -10  -4  235.09   15.12
 -11 -10  -4  241.99   15.32
  21 -11  -4  231.26   14.80
 -11 -10  -1  576.23   21.83
 -10  21  -1  616.75   21.71
 -11 -10  -1  593.33   21.25
  21 -11  -1  557.59   20.12
 -10  21   2  422.01   17.63
 -11 -10   2  365.14   16.78
 -11 -10   2  383.74   16.98
  21 -11   2  361.33   16.34
  21 -11   5  376.94   18.57
 -11 -10   5  399.40   16.90
 -11 -10   5  404.89   19.22
 -11 -10   8  271.81   13.33
 -10 -11  -8  362.39   20.48
 -10 -11  -8  337.42   21.25
  21 -10  -8  324.80   20.81
 -11  21  -8  361.84   22.49
 -10 -11  -5  307.29   17.52
 -10 -11  -5  312.89   18.11
  21 -10  -5  301.28   17.29
 -11  21  -5  266.19   16.76
 -11  21  -2  301.29   15.68
 -10 -11  -2  291.90   16.02
 -10 -11  -2  289.06   15.60
  21 -10  -2  336.95   16.25
 -10 -11   1  462.19   19.16
 -10 -11   1  497.37   18.91
 -11  21   1  452.38   17.71
  21 -10   1  481.92   18.21
 -10 -11   4  241.43   13.48
 -10 -11   4  246.05   14.30
 -11  21   4  257.82   14.18
  21 -10   4  269.83   15.10
 -10 -11   7  116.83    9.21
  -9 -12  -9  299.40   19.00
  -9 -12  -9  256.88   19.43
  21  -9  -9  275.92   20.36
 -12  21  -9  261.48   20.35
  -9 -12  -6   31.99    7.49
  -9 -12  -6   69.02    9.92
  21  -9  -6   42.61    7.77
 -12  21  -6   59.42    9.51
  -9 -12  -3  522.08   21.59
  -9 -12  -3  547.96   21.75
  21  -9  -3  542.07   20.98
 -12  21  -3  548.67   21.71
  -9 -12   0   89.05    9.19
 -12  21   0   94.85    8.80
  -9 -12   0  100.93    8.91
  21  -9   0   86.22    8.29
  -9 -12   3  603.58   21.00
 -12  21   3  630.20   20.86
  -9 -12   3  605.71   20.95
  21  -9   3  630.77   21.22
  -9 -12   6  105.43   10.25
  -9 -12   6  107.18    8.88
  -8 -13 -10   93.69   11.70
  -8 -13 -10   79.91   12.76
  21  -8 -10   77.29   13.08
 -13  21 -10   72.54   12.85
  -8 -13  -7  219.02   15.69
  -8 -13  -7  176.50   14.93
  21  -8  -7  198.74   15.83
 -13  21  -7  211.64   16.83
  -8 -13  -4  160.03   12.90
  -8 -13  -4  140.53   12.20
  21  -8  -4  150.02   12.05
 -13  21  -4  166.07   13.28
 -13  21  -1   98.35    9.08
  -8 -13  -1  111.20   10.46
  -8 -13  -1  119.88    9.94
  21  -8  -1  108.30    9.19
  -8 -13   2  881.25   25.68
  -8 -13   2  899.69   24.80
  21  -8   2  959.61   24.84
 -13  21   2  927.59   24.22
  21  -8   5  165.40   11.86
  -8 -13   5  164.87   10.89
  -8 -13   5  166.05   11.75
  -8 -13   8  151.33    9.39
  -7 -14  -8  368.64   20.72
  -7 -14  -8  362.61   22.21
  21  -7  -8  358.43   22.42
 -14  21  -8  391.95   23.87
  -7 -14  -5  378.00   19.54
  -7 -14  -5  407.55   20.50
  21  -7  -5  432.29   21.05
 -14  21  -5  466.39   22.15
  -7 -14  -2  384.85   18.58
  -7 -14  -2  394.48   17.88
  21  -7  -2  383.66   17.21
 -14  21  -2  396.12   17.85
  -7 -14   1  704.05   23.27
 -14  21   1  760.96   21.62
  -7 -14   1  752.29   22.29
  21  -7   1  734.88   21.53
 -14  21   4  224.27   12.51
  -7 -14   4  267.83   13.82
  -7 -14   4  226.64   12.93
  21  -7   4  247.77   13.58
  -7 -14   7  280.19   12.90
  -6 -15  -9  184.65   15.81
  -6 -15  -9  208.98   18.61
  21  -6  -9  222.42   18.62
 -15  21  -9  185.71   18.25
  -6 -15  -6  158.34   13.55
  -6 -15  -6  135.31   13.16
  21  -6  -6  147.17   13.47
 -15  21  -6  121.95   12.62
  -6 -15  -3  216.80   14.68
  -6 -15  -3  217.13   14.00
  21  -6  -3  228.57   14.08
 -15  21   0  366.11   15.64
  -6 -15   0  348.58   17.14
  -6 -15   0  369.97   16.20
  21  -6   0  345.54   14.80
 -15  21   3  224.47   11.81
  -6 -15   3  225.71   13.16
  -6 -15   3  265.08   13.21
  21  -6   3  251.03   12.90
  -6 -15   6  162.98   11.30
  -6 -15   6  162.65   10.50
  -5 -16 -10   41.38    9.63
  -5 -16 -10   39.61   10.95
  21  -5 -10   28.54    9.09
 -16  21 -10   17.51    8.93
  -5 -16  -7   -0.75    5.61
  -5 -16  -7   19.77    7.48
  21  -5  -7    1.98    6.46
 -16  21  -7    3.22    6.01
  -5 -16  -4   98.82   10.59
  -5 -16  -4  117.66   11.56
  21  -5  -4   92.25    9.98
 -16  21  -4   96.20   10.42
 -16  21  -1   44.75    6.31
  -5 -16  -1   39.91    7.34
  -5 -16  -1   45.06    6.76
  21  -5  -1   47.32    6.29
  -5 -16   2  498.38   19.49
  -5 -16   2  511.01   17.78
 -16  21   2  495.39   16.73
  21  -5   2  493.88   17.12
  21  -5   5    1.33    3.60
  -5 -16   5    3.54    3.74
  -4 -17  -8  271.71   18.41
  -4 -17  -8  266.27   19.96
  21  -4  -8  305.83   20.96
 -17  21  -8  262.86   20.23
  -4 -17  -5  445.97   21.79
  21  -4  -5  494.64   22.70
 -17  21  -5  453.22   22.81
  -4 -17  -2  366.96   18.63
  -4 -17  -2  335.47   16.72
  21  -4  -2  350.68   16.24
 -17  21  -2  378.11   17.46
  -4 -17   1  870.56   26.40
 -17  21   1  884.63   22.66
  -4 -17   1  909.03   24.06
  21  -4   1  906.58   22.82
  -4 -17   4  302.51   14.90
  -4 -17   4  272.04   13.18
 -17  21   4  275.38   12.28
  21  -4   4  278.06   12.91
  -4 -17   7  387.90   15.07
  -3 -18  -9  158.13   15.13
  -3 -18  -9  151.05   16.65
  21  -3  -9  107.34   14.41
 -18  21  -9  111.32   14.40
  -3 -18  -6   77.96   10.48
  -3 -18  -6   82.43   11.12
  21  -3  -6   84.27   10.82
 -18  21  -6   71.01   10.63
  -3 -18  -3  102.59   10.57
  -3 -18  -3   76.78    9.41
  21  -3  -3   92.53    9.80
 -18  21  -3   76.75    9.08
 -18  21   0  110.82    8.92
  -3 -18   0  112.24   10.71
  -3 -18   0  111.76    9.51
  21  -3   0  114.50    8.76
 -18  21   3  203.12   10.33
  -3 -18   3  202.04   12.72
  -3 -18   3  189.17   10.73
  21  -3   3  187.00   10.38
  -3 -18   6  568.22   17.90
  -3 -18   6  541.33   18.65
  -2 -19 -10   24.78    8.77
  -2 -19 -10   46.47   10.88
  21  -2 -10   39.76   10.59
 -19  21 -10   24.22   10.50
  -2 -19  -7   69.22   10.93
  -2 -19  -7   71.77   11.67
  21  -2  -7   67.60   10.92
 -19  21  -7   45.28    9.49
  -2 -19  -4  133.40   12.27
  -2 -19  -4  137.21   12.62
  21  -2  -4  114.90   10.87
 -19  21  -4  103.11   11.07
  -2 -19  -1   97.32   10.19
  -2 -19  -1  116.59   10.01
  21  -2  -1  106.08    8.81
 -19  21  -1   95.24    8.84
  -2 -19   2   44.29    7.00
 -19  21   2   53.45    5.79
  -2 -19   2   45.66    5.82
  21  -2   2   51.69    6.03
  -2 -19   5   83.64    8.21
  -2 -19   5   92.09    7.71
  -1 -20  -8  194.52   16.70
  -1 -20  -8  189.82   17.64
 -20  21  -8  200.64   18.98
  21  -1  -8  206.85   18.42
  -1 -20  -5  572.43   25.25
  -1 -20  -5  532.27   24.76
 -20  21  -5  530.26   25.00
  21  -1  -5  558.68   24.62
  -1 -20  -2  135.40   12.36
  -1 -20  -2  133.04   11.35
  21  -1  -2  118.64   10.03
 -20  21  -2  129.50   11.23
 -20  21   1  861.68   22.09
  -1 -20   1  833.04   26.66
  -1 -20   1  854.65   23.24
  21  -1   1  841.41   21.34
  -1 -20   4  122.75   10.20
  -1 -20   4  111.38    8.18
 -20  21   4  109.63    7.02
  21  -1   4  121.35    8.02
  -1 -20   7  420.42   15.87
   0 -21  -9   -3.29    6.54
   0 -21  -9   -9.39    9.07
  21   0  -9   -0.52    8.38
 -21  21  -9   -8.33    8.19
   0 -21  -6   96.56   11.72
   0 -21  -6  132.87   14.07
 -21  21  -6  137.05   14.66
  21   0  -6  144.43   14.02
   0 -21  -3   -4.18    4.67
   0 -21  -3   -1.30    4.72
  21   0  -3   -2.57    4.84
 -21  21  -3   -0.87    4.55
   0 -21   0  382.01   19.17
   0 -21   0  406.98   17.14
  21   0   0  354.14   14.62
 -21  21   0  378.22   15.80
   0 -21   3    9.80    4.55
 -21  21   3    4.24    3.11
   0 -21   3    2.25    2.83
  21   0   3    3.70    3.21
   0 -21   6  344.86   15.48
   1 -22  -7  232.17   17.61
   1 -22  -7  200.27   17.74
 -22  21  -7  242.12   19.57
  21   1  -7  251.89   19.18
   1 -22  -4    2.79    5.20
   1 -22  -4   -0.26    5.47
  21   1  -4    5.50    5.11
 -22  21  -4    1.62    5.34
   1 -22  -1  334.75   18.80
   1 -22  -1  327.38   16.35
  21   1  -1  333.26   15.58
 -22  21  -1  342.38   16.27
   1 -22   2   99.98    9.89
 -22  21   2  119.99    7.89
   1 -22   2  110.59    8.34
  21   1   2  124.89    7.95
   1 -22   5  256.45   14.10
   1 -22   5  223.45    9.84
   2 -23  -8   46.15   10.07
   2 -23  -8   50.83   11.43
  21   2  -8   58.46   11.39
 -23  21  -8   47.06   11.32
   2 -23  -5  326.34   20.47
   2 -23  -5  279.88   19.08
 -23  21  -5  295.43   19.72
   2 -23  -2  204.25   15.30
   2 -23  -2  217.32   14.74
 -23  21  -2  214.82   14.39
  21   2  -2  198.57   12.93
 -23  21   1  417.69   15.50
   2 -23   1  399.02   19.64
   2 -23   1  408.86   16.43
  21   2   1  389.32   14.44
  21   2   4  131.42    6.92
 -23  21   4  130.67    6.03
   2 -23   7  340.65   14.94
   3 -24  -9   72.24   12.21
   3 -24  -9   76.77   14.17
 -24  21  -9   83.42   14.45
  21   3  -9   97.01   15.19
   3 -24  -6   87.73   12.18
   3 -24  -6   87.76   12.30
 -24  21  -6   88.16   12.74
  21   3  -6   88.59   12.14
   3 -24  -3  108.80   12.26
   3 -24  -3   97.90   11.33
 -24  21  -3   96.13   10.84
  21   3  -3   86.38    9.65
   3 -24   0  488.35   22.73
   3 -24   0  473.00   18.90
  21   3   0  470.62   16.87
 -24  21   0  445.69   17.41
   3 -24   3   42.90    5.32
 -24  21   3   29.63    4.18
  21   3   3   34.45    4.40
   3 -24   3   34.19    6.79
   3 -24   6   76.91    8.18
   4 -25  -7  390.50   24.98
 -25  21  -7  348.53   24.00
   4 -25  -7  360.21   22.90
  21   4  -7  329.02   22.15
   4 -25  -4   66.10   10.43
   4 -25  -4   79.41   10.72
 -25  21  -4   93.71   11.12
  21   4  -4   79.64   10.14
   4 -25  -1  423.34   21.89
   4 -25  -1  422.46   19.07
  21   4  -1  403.85   17.03
 -25  21  -1  374.30   17.73
   4 -25   2   30.43    7.05
 -25  21   2   27.10    4.38
   4 -25   2   23.02    4.68
  21   4   2   19.40    3.73
   4 -25   5  256.96   14.91
   5 -26  -8   92.41   13.77
   5 -26  -8   59.79   12.64
 -26  21  -8   95.93   14.97
  21   5  -8  108.54   15.32
   5 -26  -5  184.33   12.32
   5 -26  -5  232.04   18.37
   5 -26  -5  172.72   16.17
 -26  21  -5  198.93   17.13
  21   5  -5  220.32   17.11
   5 -26  -2   54.49    9.23
   5 -26  -2   57.21    8.82
 -26  21  -2   54.10    8.49
  21   5  -2   54.55    7.53
   5 -26   1   72.75   10.00
   5 -26   1   68.17    7.59
  21   5   1   54.68    5.91
 -26  21   1   58.75    6.68
   5 -26   4   32.63    7.15
   5 -26   4   36.90    4.41
   6 -27  -6   68.43   11.36
   6 -27  -6   58.09   11.44
 -27  21  -6   71.45   12.25
  21   6  -6   63.00   11.00
   6 -27  -3  127.15   13.60
   6 -27  -3  141.55   13.57
 -27  21  -3  119.85   12.38
  21   6  -3  107.84   11.36
   6 -27   0   85.11   10.88
   6 -27   0   62.60    7.97
  21   6   0   67.63    7.11
 -27  21   0   77.17    8.33
   6 -27   3  182.27   14.04
   6 -27   3  147.95    8.74
 -27  21   3  167.32    7.49
   6 -27   6  148.65   11.77
   7 -28  -7  190.71   18.26
   7 -28  -7  186.84   19.26
 -28  21  -7  188.24   18.77
  21   7  -7  171.30   17.43
   7 -28  -4   51.28    8.41
   7 -28  -4   53.00    9.93
   7 -28  -4   71.92   10.84
 -28  21  -4   75.48   11.22
  21   7  -4   66.99   10.14
   7 -28  -1  215.70   16.80
   7 -28  -1  203.86   14.20
 -28  21  -1  227.61   14.84
  21   7  -1  228.36   13.25
   7 -28   2   14.05    6.44
 -28  21   2   22.93    4.23
   7 -28   2   19.38    4.76
  21   7   2   13.62    3.42
   7 -28   5  208.22   14.53
   8 -29  -5   -1.42    5.28
   8 -29  -5   -1.40    6.19
   8 -29  -5    6.99    7.52
 -29  21  -5   -2.71    7.12
  21   8  -5   -7.18    5.98
   8 -29  -2  120.87   13.55
   8 -29  -2  150.40   13.55
 -29  21  -2  136.55   12.73
  21   8  -2  133.52   11.49
   8 -29   1   48.73    8.88
   8 -29   1   47.39    6.74
  21   8   1   49.17    5.67
 -29  21   1   46.11    6.35
   8 -29   4   63.68    9.24
   9 -30  -6  141.12   16.52
   9 -30  -6  166.35   17.63
 -30  21  -6  122.81   15.53
  21   9  -6  142.16   15.64
  21   9  -6  140.25   14.00
   9 -30  -3  291.13   21.24
   9 -30  -3  281.90   19.20
 -30  21  -3  309.00   19.80
  21   9  -3  314.27   18.35
   9 -30   0  124.76   13.67
   9 -30   0  122.65   11.13
 -30  21   0  103.56    9.60
  21   9   0  129.55    9.59
   9 -30   3  307.30   19.24
   9 -30   6   19.55    6.21
  10 -31  -7   68.60   13.40
  10 -31  -7   67.75   13.06
 -31  21  -7   61.13   13.59
  21  10  -7   64.25   12.46
  10 -31  -4   78.90   10.60
  10 -31  -4  116.48   14.67
  10 -31  -4  108.62   13.89
 -31  21  -4   94.61   13.01
  21  10  -4   94.28   11.67
  10 -31  -1  101.95   13.14
  10 -31  -1  115.60   11.44
 -31  21  -1  120.30   11.58
  21  10  -1  115.53   10.24
  10 -31   2   43.79    8.84
  10 -31   2   48.69    6.40
  10 -31   5  112.14   12.01
  11 -32  -5   -1.21    6.15
  11 -32  -5   25.63    9.63
  11 -32  -5   15.12    8.87
 -32  21  -5    9.61    8.17
  21  11  -5    7.53    7.63
  11 -32  -2  123.28   15.07
  11 -32  -2  118.63   12.56
 -32  21  -2   99.91   11.82
  21  11  -2  133.62   11.89
  11 -32   1   28.79    8.45
  11 -32   1   22.63    6.19
 -32  21   1   21.58    5.09
  11 -32   4   29.40    7.97
  12 -33  -3  250.70   21.35
  12 -33  -3  247.54   19.00
 -33  21  -3  221.12   17.91
  21  12  -3  244.00   17.16
  12 -33   0   74.38   12.40
  12 -33   0   53.92    8.51
 -33  21   0   55.93    8.06
  12 -33   3  311.84   20.81
  13 -34  -4   89.05   12.64
  13 -34  -4   82.24   13.88
  13 -34  -4   93.58   13.67
 -34  21  -4  122.21   15.26
  21  13  -4  109.86   13.16
  13 -34  -1   62.08   11.72
  13 -34  -1   38.46    8.15
 -34  21  -1   53.76    9.75
  21  13  -1   33.27    7.06
  13 -34   2  140.30   14.97
  13 -34   5    9.07    6.96
  14 -35  -2    9.67    8.44
  14 -35  -2    5.68    6.96
 -35  21  -2    2.48    6.31
  21  14  -2    8.24    5.84
  14 -35   1   19.17    8.19
  14 -35   4   25.33    8.96
  15 -36  -3   68.23   11.81
  15 -36  -3  108.86   16.23
  15 -36  -3   87.39   13.20
 -36  21  -3  118.88   14.27
  21  15  -3   86.89   11.61
  15 -36   0   77.41   13.80
  15 -36   0   54.59    9.34
  15 -36   3  135.95   15.39
  16 -37  -1   31.95   10.28
  16 -37  -1    9.45    6.76
 -37  15  -1   96.24   16.04
  22 -37  -1  104.07   16.29
  22 -37  -1  107.22   15.31
  22 -37  -1   66.73   11.33
  22 -36  -2   91.86   13.93
 -36  14  -2   65.95   12.98
  22 -36  -2   60.13   12.99
  22 -36  -2   50.90   11.10
 -36  14  -2   92.03   13.17
  14  22  -2   80.74   14.79
 -36  14  -2   77.77   13.91
  22 -36   1  131.82   17.77
  22 -36   1  124.05   16.03
 -35  13  -3   34.66   10.52
  22 -35  -3   27.28   10.22
  22 -35  -3   10.61    9.01
  22 -35  -3   29.11    9.68
 -35  13  -3   16.16    9.30
  13  22  -3   28.10   11.31
 -35  13  -3   27.33    9.98
  13  22  -3   20.95    7.92
  22 -35   0  200.54   20.70
  22 -35   0  255.06   21.13
  22 -35   0  222.90   15.95
 -35  13   0  236.98   16.58
 -35  13   0  246.69   21.82
 -35  13   0  274.20   24.00
  22 -35   3   22.77    9.33
  22 -34  -4   -5.21    7.73
  22 -34  -4   15.73   10.11
  22 -34  -4   -6.47    7.57
 -34  12  -4    8.19    8.67
 -34  12  -4    6.03    8.28
  12  22  -4    5.56    8.29
  12  22  -4    4.31    9.43
 -34  12  -4   -0.15    7.98
  22 -34  -1   80.60   13.03
  22 -34  -1   95.29   13.85
  22 -34  -1   98.05   11.90
  12  22  -1   85.34   15.08
 -34  12  -1  107.27   12.57
 -34  12  -1  122.37   15.57
  12  22  -1   90.88   10.12
 -34  12  -1  114.22   14.93
  22 -34   2   36.76    9.72
  22 -34   5   24.00    8.49
  22 -33  -5   23.63    9.03
  22 -33  -5   34.76   11.34
 -33  11  -5   35.93   11.56
 -33  11  -5   39.54   10.13
  11  22  -5   26.20   10.42
  11  22  -5   34.57   10.62
 -33  11  -5   58.01   11.84
  22 -33  -5   36.20   10.13
  22 -33  -2   82.88   13.35
  22 -33  -2   54.99   10.14
 -33  11  -2   64.44   11.23
  11  22  -2   81.05   14.10
 -33  11  -2   69.80   13.23
  11  22  -2   55.64    9.39
 -33  11  -2   74.57   13.14
  22 -33  -2   74.45   12.74
  22 -33   1   76.30   13.23
  22 -33   1   68.04   11.84
  22 -33   1   82.06    9.56
 -33  11   1   62.51    8.74
 -33  11   1   92.47   13.87
 -33  11   1   94.06   14.76
  22 -33   4   20.93    7.61
  22 -32  -6  307.33   24.08
  22 -32  -6  382.25   27.01
 -32  10  -6  302.72   24.79
  10  22  -6  296.61   22.93
 -32  10  -6  270.25   21.70
  10  22  -6  295.10   23.31
 -32  10  -6  326.09   22.82
  22 -32  -6  319.66   22.64
  22 -32  -3   26.27    9.18
  22 -32  -3   27.11    9.06
 -32  10  -3   27.29    9.43
  10  22  -3   49.57   11.80
 -32  10  -3   29.43    9.34
  10  22  -3   39.26    9.32
 -32  10  -3   23.17    9.02
  22 -32   0  300.57   22.87
  10  22   0  258.85   21.78
  22 -32   0  271.48   17.06
 -32  10   0  272.00   17.60
 -32  10   0  281.12   21.46
  10  22   0  277.23   14.84
 -32  10   0  313.88   23.66
 -32  10   3   96.89   14.35
  22 -32   6  210.36   16.24
  22 -31  -4    3.83    7.66
 -31   9  -4    3.00    7.99
 -31   9  -4    7.23    7.01
   9  22  -4   -4.69    7.78
   9  22  -4   15.11    8.47
 -31   9  -4   -1.66    7.31
  22 -31  -4   -7.21    6.40
 -31   9  -1   52.92   11.24
  22 -31  -1   43.58    9.88
  22 -31  -1   38.10    8.43
 -31   9  -1   28.79    7.88
   9  22  -1   47.40   11.26
 -31   9  -1   60.19   11.49
   9  22  -1   74.31    9.69
 -31   9   2    1.72    6.95
  22 -31   2   -0.02    7.16
  22 -31   2    3.59    4.44
 -31   9   2    7.13    4.99
 -31   9   2   -3.79    7.39
  22 -31   5    5.07    6.02
 -30   8  -5  147.98   17.03
   8  22  -5  157.11   16.61
 -30   8  -5  136.13   15.49
   8  22  -5  136.38   15.77
 -30   8  -5  129.73   14.89
  22 -30  -5  130.65   14.72
 -30   8  -2  139.06   14.27
 -30   8  -2  129.09   14.76
 -30   8  -2  126.48   14.64
   8  22  -2  139.20   15.81
  22 -30  -2  107.21   13.29
  22 -30   1  313.67   22.62
 -30   8   1  298.51   16.76
  22 -30   1  305.94   16.55
 -30   8   1  322.95   21.89
   8  22   1  302.78   13.68
   8  22   1  275.82   21.60
 -30   8   1  317.86   22.80
 -30   8   4   41.00    9.69
   7  22  -6  111.19   14.54
 -29   7  -6  156.71   18.22
 -29   7  -6  155.10   15.83
   7  22  -6  140.74   16.57
 -29   7  -6  140.68   15.19
  22 -29  -6  130.01   13.95
   7  22  -3   45.25   10.14
 -29   7  -3   51.34   10.18
 -29   7  -3   52.65    9.90
  22 -29  -3   47.87    9.71
   7  22   0  269.16   20.85
 -29   7   0  212.25   18.20
 -29   7   0  216.97   17.96
  22 -29   0  237.63   19.04
  22 -29   3   84.23   13.04
 -29   7   3   60.06   12.20
 -29   7   3   75.93    7.57
  22 -29   3   64.61    6.72
 -29   7   3   70.74   11.74
 -28   6  -7   71.07   14.62
   6  22  -7   58.90   11.40
 -28   6  -7   59.64   10.93
   6  22  -7   67.35   13.62
 -28   6  -7   66.74   11.11
  22 -28  -7  100.10   12.71
   6  22  -4  100.94   13.05
 -28   6  -4   69.80   11.32
 -28   6  -4   78.33   11.38
  22 -28  -4   66.08   11.07
 -28   6  -1   62.33   10.52
 -28   6  -1   68.49   11.46
   6  22  -1   85.07   11.98
  22 -28  -1   57.34   10.32
  22 -28   2  122.45   14.52
 -28   6   2  106.06   12.81
   6  22   2  108.29   14.33
 -28   6   2  114.92   14.46
 -28   6   5   16.37    6.65
  22 -27  -8  104.70   14.68
 -27   5  -8  117.18   17.74
 -27   5  -8   99.56   13.03
   5  22  -8   84.85   15.00
 -27   5  -8  107.46   13.74
   5  22  -8  108.45   14.49
  22 -27  -8   91.27   12.63
 -27   5  -5  159.57   15.38
 -27   5  -5  191.96   16.13
  22 -27  -5  165.30   15.09
   5  22  -5  171.65   16.43
 -27   5  -2  328.43   20.77
   5  22  -2  308.47   20.85
 -27   5  -2  294.55   19.90
  22 -27  -2  295.70   19.45
 -27   5   1  373.09   22.05
   5  22   1  331.90   22.07
 -27   5   1  384.90   23.48
  22 -27   1  339.62   21.53
 -27   5   4  139.64   16.00
 -27   5   4  165.08   15.45
   4  22  -6   47.27    9.93
 -26   4  -6   44.42    9.43
 -26   4  -6   39.33    8.67
  22 -26  -6   30.74    8.18
   4  22  -3  109.22   13.33
 -26   4  -3  110.38   12.10
 -26   4  -3  123.68   13.39
  22 -26  -3  110.15   12.34
 -26   4   0  492.69   24.66
 -26   4   0  469.51   24.82
   4  22   0  448.29   24.67
  22 -26   0  473.54   24.88
 -26   4   3   62.09   11.19
  22 -26   3   52.02   10.74
   4  22   3   79.94   12.32
 -26   4   3   47.26    9.52
   3  22  -7    1.70    7.24
 -25   3  -7   10.54    6.18
 -25   3  -7   12.38    7.20
  22 -25  -7   13.82    7.65
 -25   3  -4  318.98   20.10
 -25   3  -4  295.40   19.01
  22 -25  -4  282.03   18.35
   3  22  -4  313.97   20.30
   3  22  -1   31.10    8.71
 -25   3  -1   15.71    6.42
 -25   3  -1   28.42    8.15
  22 -25  -1   16.21    6.84
 -25   3   2  138.92   13.45
   3  22   2  127.22   14.06
 -25   3   2  108.42   13.37
  22 -25   2  149.41   14.64
 -25   3   5    1.31    5.16
 -24   2  -8  115.07   13.33
   2  22  -8  158.26   16.22
 -24   2  -8  145.31   15.07
  22 -24  -8  159.82   15.90
 -24   2  -5  243.51   17.87
 -24   2  -5  280.27   18.39
   2  22  -5  298.34   19.64
  22 -24  -5  252.04   17.62
   2  22  -2  144.97   13.86
 -24   2  -2  156.87   14.12
 -24   2  -2  136.24   13.34
  22 -24  -2  117.93   12.15
   2  22   1  458.63   24.07
 -24   2   1  456.23   22.91
 -24   2   1  435.07   23.65
  22 -24   1  426.07   23.03
  22 -24   4   84.41   12.43
 -24   2   4   83.50   11.35
 -24   2   4   72.51   11.59
 -23   1  -9   91.65   15.85
 -23   1  -9   67.73   10.87
   1  22  -9   78.48   12.75
 -23   1  -9   40.10    9.29
  22 -23  -9   74.23   12.37
 -23   1  -6   50.90    9.21
 -23   1  -6   41.47    9.11
  22 -23  -6   43.23    8.37
   1  22  -6   46.29    9.43
 -23   1  -3  128.02   12.78
 -23   1  -3  170.09   14.59
  22 -23  -3  146.71   12.96
   1  22  -3  151.09   13.70
 -23   1   0  265.71   17.53
   1  22   0  254.53   17.52
 -23   1   0  236.33   16.73
  22 -23   0  234.38   16.87
  22 -23   3   65.70   10.77
   1  22   3   86.96   12.07
 -23   1   3  101.46   11.46
 -23   1   3   88.02   12.43
 -23   1   6   74.80   10.15
 -22   0  -7   -4.51    6.49
 -22   0  -7    3.61    5.61
  22 -22  -7    8.87    6.55
 -22   0  -4  564.67   25.41
 -22   0  -4  529.53   23.97
   0  22  -4  524.59   24.71
  22 -22  -4  540.67   24.36
 -22   0  -1    8.58    5.98
 -22   0  -1    8.02    6.23
   0  22  -1    2.59    5.94
  22 -22  -1    2.25    5.12
   0  22   2  255.99   18.12
 -22   0   2  329.18   18.91
   0  22   2  250.78   11.88
 -22   0   2  332.46   20.04
  22 -22   2  300.88   18.95
 -22   0   5    9.32    7.11
 -22   0   5    0.83    5.07
 -21  -1  -8   23.75    7.60
 -21  -1  -8   30.82    7.81
  -1  22  -8   26.69    8.47
  22 -21  -8   23.66    7.42
 -21  -1  -5  195.68   15.21
  -1  22  -5  230.01   16.73
 -21  -1  -5  232.10   16.39
  22 -21  -5  254.19   16.80
  22 -21  -2  107.92    8.73
 -21  -1  -2   97.30   10.68
 -21  -1  -2   82.31    7.61
 -21  -1  -2  111.63   11.36
  22 -21  -2   94.20   10.45
  -1  22  -2  105.88   11.67
 -21  -1   1  295.17   17.79
  -1  22   1  307.67   18.53
 -21  -1   1  302.74   18.52
  22 -21   1  303.24   18.09
 -21  -1   4   10.53    6.88
  22 -21   4   12.23    6.39
 -21  -1   4   16.94    6.71
  -1  22   4   18.86    7.12
 -21  -1   7  219.56   15.51
 -20  -2  -9   66.60   10.50
  -2  22  -9   47.76   10.42
 -20  -2  -9   58.67   10.50
  22 -20  -9   56.98   10.73
 -20  -2  -6   94.87   11.50
  -2  22  -6  103.55   12.30
 -20  -2  -6   97.07   11.57
  22 -20  -6   96.65   11.47
  -2  22  -3  115.42    8.75
 -20  -2  -3  135.04   12.49
 -20  -2  -3  104.44    6.93
 -20  -2  -3  117.89   11.94
  -2  22  -3  146.98   12.78
  22 -20  -3  143.17   12.33
 -20  -2   0   16.55    5.89
 -20  -2   0   30.79    7.57
  -2  22   0   25.64    6.58
  22 -20   0   24.95    7.02
 -20  -2   3  128.80   12.12
  -2  22   3  129.07   13.06
  -2  22   3   99.18    7.82
 -20  -2   3  101.48   11.42
  22 -20   3  133.94   13.22
 -20  -2   6   17.00    6.80
  -3  22 -10  281.04   21.46
 -19  -3 -10  263.31   18.71
 -19  -3 -10  261.58   20.04
  22 -19 -10  275.95   20.97
 -19  -3  -7   10.11    7.35
  -3  22  -7   16.22    7.05
 -19  -3  -7   28.82    8.31
  22 -19  -7   11.04    6.42
 -19  -3  -4  319.45   18.67
  -3  22  -4  287.01   17.75
 -19  -3  -4  304.17   17.80
  22 -19  -4  254.04   16.40
 -19  -3  -1   26.31    6.69
  -3  22  -1   37.97    7.43
 -19  -3  -1   23.12    6.44
  22 -19  -1   22.14    6.01
 -19  -3   2  798.51   27.36
 -19  -3   2  826.36   29.52
  -3  22   2  883.70   30.37
  22 -19   2  787.23   28.45
 -19  -3   5   18.84    8.30
  22 -19   5   12.28    7.51
 -19  -3   5   20.08    6.06
 -18  -4  -8   17.01    6.70
  -4  22  -8   13.47    7.31
 -18  -4  -8   14.76    7.34
  22 -18  -8   20.44    8.06
  -4  22  -5   81.79   10.71
 -18  -4  -5   79.12   10.09
 -18  -4  -5   77.50   10.02
  22 -18  -5   82.74   10.43
 -18  -4  -2  102.78   10.85
 -18  -4  -2   76.71    9.27
  -4  22  -2  115.43   11.37
  22 -18  -2  102.32   10.26
  -4  22   1   81.89   10.00
 -18  -4   1   83.64    9.49
 -18  -4   1   73.25    9.31
  22 -18   1   72.92    8.98
 -18  -4   4   25.28    7.51
  22 -18   4   12.56    6.34
 -18  -4   4   18.52    6.09
  -4  22   4    9.03    5.21
  22 -18   4   10.17    4.23
  -4  22   4   15.86    4.65
 -18  -4   7   54.39    7.87
  -5  22  -9   97.24   13.24
 -17  -5  -9  101.58   11.95
 -17  -5  -9   99.51   13.01
  22 -17  -9  136.33   14.87
 -17  -5  -6    6.20    5.43
  -5  22  -6    6.54    6.29
 -17  -5  -6    2.95    5.59
  22 -17  -6    8.81    5.95
 -17  -5  -3  207.44   14.68
  -5  22  -3  222.52   15.26
 -17  -5  -3  217.28   14.63
  22 -17  -3  240.01   15.55
 -17  -5   0   62.24    8.54
 -17  -5   0   60.16    8.82
  22 -17   0   53.48    7.84
  -5  22   0   68.35    8.67
  -5  22   3  196.53   15.04
 -17  -5   3  209.28   13.81
 -17  -5   3  200.44   14.87
  22 -17   3  186.47   14.07
 -17  -5   6   59.99   10.01
 -17  -5   6   71.80    8.88
  -6  22 -10  209.83   19.07
 -16  -6 -10  226.08   17.21
 -16  -6 -10  242.13   19.43
  22 -16 -10  200.50   18.29
  -6  22  -7   94.71   11.64
 -16  -6  -7  107.84   11.93
 -16  -6  -7  108.82   12.29
  22 -16  -7  107.20   12.33
  -6  22  -4  366.80   19.60
 -16  -6  -4  315.15   18.11
 -16  -6  -4  344.94   18.63
  22 -16  -4  334.58   18.01
  -6  22  -1   17.92    6.28
 -16  -6  -1   12.74    5.63
 -16  -6  -1   21.17    6.05
  22 -16  -1   29.50    6.77
 -16  -6   2  755.54   25.74
  -6  22   2  772.07   26.83
 -16  -6   2  799.08   27.20
  22 -16   2  735.50   25.90
 -16  -6   5   13.87    6.90
  22 -16   5   19.25    6.48
 -16  -6   5    7.11    4.69
 -16  -6   8  747.65   24.82
  -7  22  -8   10.22    7.06
 -15  -7  -8   17.85    7.13
 -15  -7  -8   16.46    7.71
  22 -15  -8   17.81    7.80
  -7  22  -5   72.85    9.79
 -15  -7  -5   82.92    9.93
 -15  -7  -5   79.63   10.27
  22 -15  -5   93.88   10.87
 -15  -7  -2  425.77   19.88
  -7  22  -2  429.17   19.88
 -15  -7  -2  455.22   20.16
  22 -15  -2  455.30   19.76
 -15  -7   1    9.01    5.32
  -7  22   1    2.02    4.10
 -15  -7   1   11.96    5.15
  22 -15   1   20.91    6.15
  22 -15   4   11.17    5.97
 -15  -7   4    5.25    4.26
  -7  22   4   15.40    6.02
 -15  -7   4    9.56    5.76
 -15  -7   7   47.97    7.31
 -14  -8  -9  229.64   17.05
 -14  -8  -9  245.60   19.08
  22 -14  -9  217.91   18.33
  -8  22  -9  238.56   19.71
  -8  22  -6  174.48   14.73
 -14  -8  -6  158.55   13.42
 -14  -8  -6  187.79   14.82
  22 -14  -6  167.21   14.00
  -8  22  -3  444.73   20.41
 -14  -8  -3  409.87   20.03
 -14  -8  -3  377.01   18.88
  22 -14  -3  411.76   19.17
 -14  -8   0  211.62   14.01
 -14  -8   0  175.35   12.68
  -8  22   0  195.85   13.15
  22 -14   0  204.57   13.12
 -14  -8   3  682.24   23.66
 -14  -8   3  713.18   25.34
  -8  22   3  648.26   24.11
  22 -14   3  649.80   24.01
 -14  -8   6    2.92    5.54
 -14  -8   6    8.18    4.20
 -13  -9 -10  210.96   16.76
 -13  -9 -10  266.10   20.59
  22 -13 -10  213.52   18.61
  -9  22 -10  214.12   19.41
 -13  -9  -7  139.18   13.07
 -13  -9  -7  126.55   13.17
  22 -13  -7  131.85   13.57
  -9  22  -7  111.57   12.25
  -9  22  -4  454.29   21.29
 -13  -9  -4  527.75   22.91
 -13  -9  -4  499.72   22.08
  22 -13  -4  437.38   20.27
 -13  -9  -1  155.27   12.20
  -9  22  -1  162.58   11.79
 -13  -9  -1  152.66   11.82
  22 -13  -1  162.03   11.72
  -9  22   2  938.77   27.25
 -13  -9   2  858.53   26.45
 -13  -9   2  876.89   26.78
  22 -13   2  893.64   26.86
 -13  -9   5    4.42    5.30
  22 -13   5   -0.50    4.93
 -13  -9   5    8.85    4.50
 -13  -9   8  367.38   16.37
 -10  22  -8   59.56   10.63
 -12 -10  -8   77.15   10.81
 -12 -10  -8   55.93    9.56
  22 -12  -8   80.95   11.58
 -10  22  -5  279.86   17.64
 -12 -10  -5  259.05   16.39
 -12 -10  -5  235.19   15.76
  22 -12  -5  239.60   15.91
 -10  22  -2  393.31   18.53
 -12 -10  -2  443.93   20.48
 -12 -10  -2  436.97   19.15
 -12 -10   1  189.60   13.07
 -12 -10   1  210.15   13.31
 -10  22   1  188.49   12.25
  22 -12   1  177.04   12.01
 -12 -10   4  207.37   12.94
 -10  22   4  187.57   13.22
 -12 -10   4  220.18   14.52
  22 -12   4  202.33   13.88
 -12 -10   7    3.47    3.84
 -11 -11  -9  476.84   24.28
 -11 -11  -9  481.53   26.22
  22 -11  -9  478.08   26.78
 -11  22  -9  463.12   26.42
 -11 -11  -6  122.99   12.17
 -11 -11  -6  144.72   13.54
  22 -11  -6  115.17   12.02
 -11  22  -6  103.90   12.01
 -11  22  -3  594.19   23.15
 -11 -11  -3  568.14   23.17
 -11 -11  -3  563.84   22.63
  22 -11  -3  564.53   22.07
 -11 -11   0   55.03    7.76
 -11  22   0   47.43    6.86
 -11 -11   0   55.74    7.62
  22 -11   0   71.34    8.08
 -11 -11   3  408.78   18.16
 -11  22   3  463.43   19.05
 -11 -11   3  473.25   19.51
  22 -11   3  419.13   18.54
 -11 -11   6   71.89    9.29
 -11 -11   6   55.44    7.20
 -10 -12 -10   61.97   10.77
 -10 -12 -10   77.00   12.71
  22 -10 -10   80.07   12.90
 -12  22 -10   81.68   13.34
 -12  22  -7   10.36    7.25
 -10 -12  -7    9.17    6.13
 -10 -12  -7    7.45    6.43
  22 -10  -7   15.29    7.38
 -10 -12  -4  184.27   13.96
 -10 -12  -4  182.33   13.85
  22 -10  -4  194.85   13.84
 -12  22  -4  196.92   14.17
 -10 -12  -1  232.83   14.55
 -12  22  -1  231.89   13.70
 -10 -12  -1  214.61   13.53
  22 -10  -1  229.65   13.48
 -10 -12   2  397.35   18.18
 -10 -12   2  450.69   18.41
  22 -10   2  418.73   17.61
 -12  22   2  421.72   17.52
  22 -10   5  189.12   13.45
 -10 -12   5  193.69   12.39
 -10 -12   5  188.00   13.19
 -10 -12   8   75.70    7.63
  -9 -13  -8  373.98   21.25
  -9 -13  -8  347.32   21.75
  22  -9  -8  331.21   21.28
 -13  22  -8  364.57   22.86
 -13  22  -5   17.51    6.60
  -9 -13  -5   -9.65    6.47
  -9 -13  -5    0.50    4.97
  22  -9  -5   10.99    4.92
 -13  22  -2  777.08   25.43
  -9 -13  -2  817.08   27.26
  -9 -13  -2  786.83   25.60
  22  -9  -2  739.95   24.06
  -9 -13   1  172.64   12.27
  -9 -13   1  181.09   11.85
 -13  22   1  157.96   10.94
  22  -9   1  196.57   11.96
 -13  22   4  455.19   18.54
  -9 -13   4  458.97   18.59
  22  -9   4  449.56   19.04
  -9 -13   7  116.89    9.24
  -8 -14  -9  223.49   17.23
  -8 -14  -9  250.17   19.98
  22  -8  -9  232.72   19.31
 -14  22  -9  232.96   20.00
  -8 -14  -6   34.85    7.56
  -8 -14  -6   45.05    8.72
  22  -8  -6   37.56    8.66
 -14  22  -6   58.73   10.13
  -8 -14  -3  536.07   22.62
  -8 -14  -3  560.86   22.47
  22  -8  -3  590.86   22.38
 -14  22  -3  567.60   22.57
  -8 -14   0  229.41   14.24
 -14  22   0  205.61   12.39
  -8 -14   0  203.93   12.70
  22  -8   0  188.43   11.91
  -8 -14   3  431.70   18.41
 -14  22   3  421.64   16.89
  -8 -14   3  415.96   17.20
  22  -8   3  417.49   17.25
  -8 -14   6  114.13    9.40
  -8 -14   6  116.09   10.67
  -7 -15 -10   20.43    7.77
  -7 -15 -10   10.42    8.59
  22  -7 -10    7.55    7.01
 -15  22 -10   10.62    8.70
  -7 -15  -7   74.36   10.72
  -7 -15  -7   74.81   11.12
  22  -7  -7   83.92   11.66
 -15  22  -7   99.15   12.67
 -15  22  -4   30.68    6.86
  -7 -15  -4   23.85    6.34
  -7 -15  -4   28.77    6.76
  22  -7  -4   25.96    7.09
  -7 -15  -1   15.78    5.63
 -15  22  -1    5.33    4.02
  -7 -15  -1   14.71    5.43
  22  -7  -1    8.01    4.30
  -7 -15   2  567.32   21.47
  -7 -15   2  569.72   19.90
 -15  22   2  573.49   19.20
  22  -7   2  540.67   18.96
  22  -7   5   93.96    9.40
  -7 -15   5  105.56    9.22
  -7 -15   5   80.29    8.66
  -6 -16  -8  567.03   26.07
  -6 -16  -8  621.79   29.57
 -16  22  -8  670.93   31.38
  -6 -16  -5   21.92    7.24
  -6 -16  -5   14.17    6.35
  22  -6  -5   16.34    6.25
 -16  22  -5   16.58    6.75
  -6 -16  -2  689.30   25.44
  -6 -16  -2  718.44   24.54
  22  -6  -2  698.86   23.26
 -16  22  -2  701.27   24.08
  -6 -16   1   13.81    5.10
  -6 -16   1    8.54    4.67
 -16  22   1   13.28    4.05
  22  -6   1   10.37    4.13
  -6 -16   4  462.63   18.50
  -6 -16   4  439.44   17.56
 -16  22   4  423.85   16.57
  22  -6   4  410.64   17.12
  -6 -16   7   39.06    6.01
  -5 -17  -9  127.52   13.63
  -5 -17  -9  146.85   16.00
  22  -5  -9  160.55   16.97
 -17  22  -9  127.45   15.69
  -5 -17  -6  176.15   14.64
  -5 -17  -6  130.04   13.23
  22  -5  -6  167.38   14.62
 -17  22  -6  182.20   15.76
  -5 -17  -3  174.99   13.93
  -5 -17  -3  213.01   14.49
  22  -5  -3  185.97   13.28
 -17  22  -3  215.09   14.47
 -17  22   0   59.97    7.05
  -5 -17   0   49.36    7.72
  -5 -17   0   48.70    6.96
  22  -5   0   58.46    7.17
 -17  22   3  203.40   11.14
  -5 -17   3  219.10   13.50
  -5 -17   3  236.71   12.64
  22  -5   3  240.24   12.72
  -5 -17   6    1.43    3.98
  -5 -17   6    9.53    4.06
  -4 -18 -10   24.38    8.55
  -4 -18 -10   22.84   10.71
  22  -4 -10   42.67   11.61
 -18  22 -10   40.95   11.56
  -4 -18  -7   60.18    9.85
  -4 -18  -7   73.75   11.31
  22  -4  -7   73.60   11.36
 -18  22  -7   54.45   10.44
  -4 -18  -4   14.32    6.16
  -4 -18  -4    7.27    5.15
  22  -4  -4    5.69    5.57
 -18  22  -4   -1.95    4.80
  -4 -18  -1  153.42   12.61
  -4 -18  -1  162.10   11.92
  22  -4  -1  151.88   10.76
 -18  22  -1  180.99   12.20
  -4 -18   2   74.13    8.56
  -4 -18   2   51.29    6.29
 -18  22   2   53.62    6.20
  22  -4   2   65.85    6.86
  22  -4   5  131.42    9.52
  -4 -18   5  116.38    9.74
  -3 -19  -8  363.05   22.15
  -3 -19  -8  345.13   23.13
  22  -3  -8  345.39   22.95
 -19  22  -8  380.22   24.84
  -3 -19  -5    1.76    5.26
  -3 -19  -5   15.08    6.72
  22  -3  -5   10.37    6.27
 -19  22  -5    9.71    6.92
  -3 -19  -2  821.39   28.43
  -3 -19  -2  783.39   25.93
  22  -3  -2  792.66   24.81
 -19  22  -2  794.05   25.79
  -3 -19   1    8.56    5.09
 -19  22   1    7.69    4.05
  -3 -19   1   14.22    4.35
  22  -3   1   16.78    4.39
  -3 -19   4  353.96   16.72
  -3 -19   4  349.03   14.82
 -19  22   4  312.30   12.95
  22  -3   4  313.31   13.62
  -3 -19   7    1.57    3.49
  -2 -20  -9   81.82   12.22
  -2 -20  -9   68.86   13.10
 -20  22  -9  102.87   15.15
  22  -2  -9   64.10   12.33
  -2 -20  -6   24.86    7.55
  -2 -20  -6   26.80    7.66
  22  -2  -6   22.11    7.62
 -20  22  -6   28.34    9.07
  -2 -20  -3  146.81   13.29
  -2 -20  -3  144.27   12.38
  22  -2  -3  120.59   10.79
 -20  22  -3  153.21   12.80
  -2 -20   0   41.07    7.52
 -20  22   0   30.22    5.71
  -2 -20   0   35.92    6.06
  22  -2   0   37.70    5.89
  -2 -20   3  132.77   11.03
  -2 -20   3  119.18    8.99
  22  -2   3  127.95    8.79
 -20  22   3  137.67    8.85
  -2 -20   6   77.36    6.94
  -2 -20   6   87.53    8.36
  -1 -21  -7  205.60   16.81
  -1 -21  -7  163.61   16.38
 -21  22  -7  190.23   17.60
  -1 -21  -4   -0.57    5.53
  -1 -21  -4    0.95    5.41
  22  -1  -4   10.90    6.13
 -21  22  -4    7.34    5.92
  -1 -21  -1  279.11   16.93
  -1 -21  -1  275.37   15.24
  22  -1  -1  283.68   14.34
 -21  22  -1  248.42   13.99
  -1 -21   2  102.78   10.22
 -21  22   2  107.30    7.90
  -1 -21   2  101.74    8.40
  22  -1   2  107.99    8.03
  -1 -21   5  278.93   14.78
  -1 -21   5  313.84   13.18
   0 -22  -8  376.57   23.22
 -22  22  -8  401.43   26.20
  22   0  -8  371.81   24.22
   0 -22  -5    4.17    6.22
   0 -22  -5   -1.08    5.87
  22   0  -5    3.77    5.34
 -22  22  -5   -3.27    5.84
   0 -22  -2  282.57   17.76
   0 -22  -2  269.41   16.16
  22   0  -2  265.74   14.88
 -22  22  -2  279.09   15.97
   0 -22   1    6.88    5.30
 -22  22   1    3.62    3.51
   0 -22   1    1.95    3.61
  22   0   1    7.02    3.56
   0 -22   4  567.42   21.82
 -22  22   4  569.41   14.82
  22   0   4  548.68   15.92
   0 -22   7    3.47    3.92
   1 -23  -9   42.98   10.06
   1 -23  -9   36.00   11.25
  22   1  -9   39.51   10.73
 -23  22  -9   37.22   10.81
   1 -23  -6   81.19   11.38
   1 -23  -6  102.07   12.65
  22   1  -6   69.22   11.08
 -23  22  -6   60.46   10.40
   1 -23  -3  101.12   11.90
   1 -23  -3  109.17   11.49
  22   1  -3   84.57   10.20
 -23  22  -3  103.91   11.18
   1 -23   0  241.06   15.99
   1 -23   0  237.96   13.87
  22   1   0  244.72   12.68
 -23  22   0  244.58   13.25
   1 -23   3  157.78   12.48
   1 -23   3  170.47   10.00
 -23  22   3  153.88    8.49
  22   1   3  172.79    9.38
   1 -23   6   40.94    6.67
   2 -24  -7  328.17   21.91
   2 -24  -7  328.76   23.30
 -24  22  -7  264.63   21.30
  22   2  -7  318.94   22.17
   2 -24  -4   92.41   11.57
   2 -24  -4  100.59   11.84
 -24  22  -4  104.76   11.90
  22   2  -4   86.78   10.42
   2 -24  -1  557.12   24.81
   2 -24  -1  607.89   22.85
  22   2  -1  598.30   20.80
 -24  22  -1  582.98   21.76
   2 -24   2  131.78   11.87
 -24  22   2  139.85    8.61
   2 -24   2  129.22    9.22
  22   2   2  105.76    7.65
   2 -24   5  250.97   14.69
   2 -24   5  228.05    9.77
   3 -25  -8  188.69   17.80
   3 -25  -8  216.77   20.77
 -25  22  -8  207.15   19.95
  22   3  -8  166.17   17.57
   3 -25  -5    2.77    6.29
   3 -25  -5   19.80    8.02
  22   3  -5    8.99    6.99
 -25  22  -5   10.72    7.22
   3 -25  -2  160.27   14.49
   3 -25  -2  160.08   13.41
  22   3  -2  170.92   12.62
 -25  22  -2  162.62   13.00
 -25  22   1   55.62    6.54
   3 -25   1   51.19    8.72
   3 -25   1   54.94    6.77
  22   3   1   52.49    6.08
   3 -25   4  288.89   16.77
   3 -25   4  309.68   12.13
   4 -26  -6  142.73   15.32
   4 -26  -6  120.21   14.71
 -26  22  -6  144.25   15.85
  22   4  -6  154.05   15.35
   4 -26  -3   75.10   11.45
   4 -26  -3  112.80   11.95
 -26  22  -3   97.85   11.28
  22   4  -3   85.81    9.84
   4 -26   0  313.76   18.90
   4 -26   0  286.53   15.33
  22   4   0  310.99   14.22
 -26  22   0  303.48   15.04
   4 -26   3   69.39    9.66
   4 -26   3   87.81    7.34
 -26  22   3   85.77    6.20
  22   4   3   90.30    6.04
   4 -26   6   60.96    8.10
   5 -27  -7  205.02   18.70
   5 -27  -7  236.06   20.12
 -27  22  -7  193.93   18.71
  22   5  -7  222.93   18.92
   5 -27  -4  113.31   13.25
   5 -27  -4  151.93   15.01
 -27  22  -4  141.57   14.57
  22   5  -4  121.79   12.46
   5 -27  -1  409.32   22.44
   5 -27  -1  417.97   19.64
  22   5  -1  395.60   17.48
 -27  22  -1  393.68   18.74
   5 -27   2  295.59   18.01
 -27  22   2  266.06   11.60
   5 -27   2  283.03   13.48
  22   5   2  282.79   11.31
   5 -27   5  162.66   12.93
   6 -28  -8   90.98   13.81
   6 -28  -8   51.34   12.60
  22   6  -8   72.44   13.65
 -28  22  -8   71.87   13.94
   6 -28  -5    8.70    5.32
   6 -28  -5   12.91    6.98
   6 -28  -5   29.69    9.47
  22   6  -5   15.48    7.65
 -28  22  -5   10.48    7.63
   6 -28  -2  113.11   11.83
 -28  22  -2  100.12   11.09
  22   6  -2  103.40   10.14
   6 -28   1   53.14    7.27
  22   6   1   52.27    5.95
 -28  22   1   48.77    6.43
   6 -28   4   96.98   10.64
   7 -29  -6  234.33   20.40
   7 -29  -6  192.28   18.34
 -29  22  -6  233.18   19.78
  22   7  -6  251.43   19.67
   7 -29  -3  102.44   13.21
   7 -29  -3   68.13   10.53
 -29  22  -3   77.42   11.61
  22   7  -3   67.79    9.68
   7 -29   0  232.59   17.67
   7 -29   0  235.66   14.66
  22   7   0  231.53   12.63
 -29  22   0  201.43   12.86
   7 -29   3   32.80    7.77
   7 -29   3   30.03    4.87
   7 -29   6  164.30   12.89
   8 -30  -7  102.48   14.41
   8 -30  -7  122.32   16.61
 -30  22  -7  102.97   15.64
  22   8  -7  125.31   15.78
   8 -30  -4   39.63    9.20
   8 -30  -4   25.07    8.62
 -30  22  -4   75.19   11.67
  22   8  -4   71.41   10.87
   8 -30  -1  244.77   18.68
   8 -30  -1  258.42   16.41
 -30  22  -1  244.08   15.49
  22   8  -1  232.02   13.69
   8 -30   2   98.12   12.05
   8 -30   2  126.96    9.56
   8 -30   5  202.09   15.16
   9 -31  -5   13.02    6.71
   9 -31  -5    7.39    8.19
   9 -31  -5   -3.13    7.13
  22   9  -5   -1.19    6.34
 -31  22  -5    0.66    7.24
   9 -31  -2   -3.69    6.50
   9 -31  -2    4.27    5.74
  22   9  -2    5.09    5.36
 -31  22  -2    5.28    6.14
   9 -31   1   70.85   10.96
   9 -31   1   64.99    8.01
 -31  22   1   80.05    8.06
   9 -31   4    8.83    5.47
  10 -32  -6  201.12   19.18
  10 -32  -6  204.19   19.84
 -32  22  -6  213.56   20.30
  22  10  -6  230.51   20.05
  10 -32  -3   70.92   12.37
  10 -32  -3   73.40   11.50
 -32  22  -3   81.76   11.44
  22  10  -3   85.78   10.92
  10 -32   0  218.39   14.64
 -32  22   0  212.59   13.81
  22  10   0  217.76   12.45
  10 -32   3   65.29   10.38
  11 -33  -4   24.26    7.92
  11 -33  -4   36.39   10.40
  11 -33  -4   28.41    9.30
 -33  22  -4   31.40    9.67
  22  11  -4    9.28    7.66
  11 -33  -1  119.48   14.90
  11 -33  -1  115.92   12.11
 -33  22  -1  116.52   11.93
  22  11  -1  109.12   10.03
  11 -33   2   55.77   10.61
  11 -33   5   53.13    9.64
  12 -34  -5   13.34    9.48
  12 -34  -5    0.39    8.35
 -34  22  -5   22.97    9.90
  22  12  -5    6.46    7.73
  12 -34  -2    8.78    8.11
  12 -34  -2    6.86    6.42
  22  12  -2   10.68    5.99
 -34  22  -2   -3.78    6.36
  12 -34   1   71.18   11.75
  12 -34   1   68.64    8.66
  12 -34   4    9.06    7.12
  13 -35  -3   19.65    8.64
  13 -35  -3   10.54    8.32
  22  13  -3    4.68    6.30
 -35  22  -3    3.25    7.34
  13 -35   0  214.26   18.84
  13 -35   0  151.52   13.01
  13 -35   3   45.07   10.09
  14 -36  -1  149.54   16.90
  14 -36  -1  135.21   13.77
 -36  22  -1  129.62   13.16
  14 -36   2   78.15   12.66
  15 -37   1   67.89   12.68
 -37  14   0   81.74   15.74
  23 -37   0   56.13   13.47
  23 -37   0   83.11   13.44
 -36  13  -1    9.32    8.84
  23 -36  -1   17.90    9.92
  23 -36  -1    9.29    8.77
  23 -36  -1    4.98    6.95
 -36  13  -1    3.37    6.99
 -36  13  -1    4.29    8.45
  13  23  -1    7.49   10.73
  23 -36   2   58.12   11.19
 -35  12  -2   69.79   13.42
  23 -35  -2   30.46   10.17
  23 -35  -2   31.91   10.25
  23 -35  -2   47.42   10.19
 -35  12  -2   26.96    8.82
 -35  12  -2   43.09   11.55
  12  23  -2   28.74    8.31
  12  23  -2   37.11   10.82
 -35  12   1   79.20   14.61
  23 -35   1   61.59   12.85
  23 -35   1   57.22   11.59
 -35  12   1   60.14   12.95
  23 -35   4   17.90    7.85
  23 -34  -3  155.38   17.72
  23 -34  -3  117.41   14.98
  11  23  -3   94.85   15.61
 -34  11  -3  126.11   15.49
 -34  11  -3  130.07   15.52
  11  23  -3  134.29   14.50
 -34  11  -3  124.33   15.91
  23 -34  -3  137.36   15.72
 -34  11   0   65.65   13.18
  23 -34   0   54.03   11.37
  23 -34   0   46.46    8.90
 -34  11   0   51.41    9.26
 -34  11   0   49.23   11.50
  11  23   0   79.23   15.08
  23 -34   3   96.75   13.07
  23 -33  -4   25.33    9.82
  23 -33  -4   15.71    9.36
 -33  10  -4    9.80    8.57
 -33  10  -4   36.75   10.67
  10  23  -4   15.83    8.03
  10  23  -4   10.95    9.19
 -33  10  -4   33.10   10.36
  23 -33  -4   28.07    9.54
 -33  10  -1    2.15    8.42
  23 -33  -1   10.44    8.70
  23 -33  -1    6.76    6.67
 -33  10  -1    5.34    6.70
 -33  10  -1   -0.11    7.61
  10  23  -1    2.77    8.71
  10  23  -1   11.51    6.13
 -33  10   2   77.83   14.09
  23 -33   2   83.59   14.04
 -33  10   2   84.45   13.47
  23 -33   5   14.06    7.97
  23 -32  -5   42.78   11.19
  23 -32  -5   32.33   10.88
 -32   9  -5   48.41   12.37
   9  23  -5   40.14   11.27
 -32   9  -5   59.63   11.96
   9  23  -5   35.09   10.54
 -32   9  -5   40.20   10.55
  23 -32  -5   65.73   11.74
   9  23  -2  152.43   17.19
  23 -32  -2  172.13   16.06
 -32   9  -2  159.05   15.75
 -32   9  -2  173.85   17.68
   9  23  -2  177.85   14.92
 -32   9  -2  145.20   16.25
  23 -32  -2  169.74   17.04
  23 -32   1  144.65   16.64
  23 -32   1  109.20   10.85
 -32   9   1  147.02   12.48
 -32   9   1  144.22   16.04
   9  23   1  139.24   17.08
 -32   9   1  131.90   16.82
  23 -31  -6   92.94   15.44
  23 -31  -6   68.70   12.89
 -31   8  -6   68.51   13.92
 -31   8  -6   69.85   12.90
   8  23  -6   75.68   13.73
 -31   8  -6   66.24   12.02
  23 -31  -6   58.93   11.49
   8  23  -6   78.33   13.15
 -31   8  -3  160.24   16.67
 -31   8  -3  153.35   16.73
   8  23  -3  172.14   15.96
   8  23  -3  178.55   18.30
 -31   8  -3  174.40   16.89
  23 -31  -3  164.14   15.78
 -31   8   0   36.12    9.95
  23 -31   0   37.70   10.17
 -31   8   0   39.28    8.45
 -31   8   0   36.17    8.40
   8  23   0   41.87    7.12
   8  23   0   24.52    9.51
 -31   8   3  114.59   15.44
  23 -31   3  129.51   16.48
 -31   8   3  135.38   15.31
  23 -31   6   88.80   11.52
  23 -30  -7   37.01   11.20
  23 -30  -7   27.79   10.16
 -30   7  -7   25.61   11.07
 -30   7  -7   14.57    7.94
   7  23  -7   38.65   12.31
   7  23  -7    4.34    8.54
 -30   7  -7   21.09    8.84
  23 -30  -7   19.89    8.83
 -30   7  -4    3.35    7.67
   7  23  -4   -0.33    7.52
 -30   7  -4   22.38    9.31
 -30   7  -4   24.46    9.24
  23 -30  -4   10.80    6.24
  23 -30  -1   44.64   10.13
 -30   7  -1   35.57   10.01
   7  23  -1   43.79   10.99
 -30   7  -1   43.45    9.88
 -30   7   2   45.74   10.82
  23 -30   2   40.99   11.19
  23 -30   2   37.45    6.66
 -30   7   2   32.26    9.20
   7  23   2   49.77   11.73
 -29   6  -5   28.66   10.62
 -29   6  -5   41.75   10.55
   6  23  -5   32.45    9.59
 -29   6  -5   26.66    7.96
  23 -29  -5   31.79    8.21
 -29   6  -2  462.42   25.65
   6  23  -2  493.64   27.25
 -29   6  -2  448.08   25.46
  23 -29  -2  478.19   25.50
  23 -29   1   60.61   10.85
 -29   6   1   72.34   11.29
   6  23   1   77.75   13.19
 -29   6   1   80.78   13.05
 -29   6   4  218.54   20.44
 -29   6   4  227.61   19.17
 -28   5  -6   20.52   10.31
 -28   5  -6    4.45    6.56
   5  23  -6    7.82    8.19
 -28   5  -6   23.44    8.60
  23 -28  -6   13.90    7.74
   5  23  -3  246.11   19.55
 -28   5  -3  259.04   19.46
 -28   5  -3  232.54   18.29
  23 -28  -3  236.21   18.10
  23 -28   0   42.05    9.75
 -28   5   0   18.23    7.83
   5  23   0   42.79   10.62
 -28   5   0   35.07    8.78
  23 -28   3  177.19   18.02
 -28   5   3  175.68   16.18
 -28   5   3  179.95   18.29
 -27   4  -7   65.06   14.14
   4  23  -7   55.65   11.15
 -27   4  -7   57.03   10.35
 -27   4  -7   61.96   10.99
  23 -27  -7   82.12   11.99
 -27   4  -4   17.16    7.91
   4  23  -4   27.57    8.47
 -27   4  -4   15.17    7.95
  23 -27  -4   20.64    7.38
 -27   4  -1  119.38   13.37
   4  23  -1  131.08   14.37
 -27   4  -1  129.81   14.23
  23 -27  -1  122.64   13.29
   4  23   2   66.98   11.84
  23 -27   2   57.73   10.91
 -27   4   2  100.43   12.25
 -27   4   2   73.93   12.01
 -27   4   5  207.71   17.31
 -26   3  -8  325.32   27.07
 -26   3  -8  244.86   19.02
 -26   3  -8  268.19   20.25
   3  23  -8  297.62   22.08
  23 -26  -8  331.70   22.25
   3  23  -5   20.91    8.28
 -26   3  -5   22.99    7.98
 -26   3  -5   11.00    5.78
  23 -26  -5   13.43    6.73
   3  23  -2  331.74   21.24
 -26   3  -2  360.91   21.34
 -26   3  -2  297.41   19.85
  23 -26  -2  362.89   21.37
   3  23   1   62.25   10.62
 -26   3   1   69.01   10.83
  23 -26   1   80.10   11.92
 -26   3   1   38.07    9.44
 -26   3   4  370.94   24.27
  23 -26   4  437.87   26.46
 -26   3   4  419.93   23.54
 -25   2  -6   67.59   10.67
 -25   2  -6   64.76   10.70
   2  23  -6   70.68   11.52
  23 -25  -6   54.87   10.07
   2  23  -3  230.94   17.45
 -25   2  -3  220.31   17.05
 -25   2  -3  217.16   17.10
  23 -25  -3  196.64   15.80
 -25   2   0   31.49    7.42
   2  23   0   13.59    7.62
 -25   2   0   16.60    7.10
  23 -25   0   15.12    6.29
  23 -25   3  150.32   15.36
 -25   2   3  202.06   16.43
   2  23   3  193.85   17.79
 -25   2   3  208.93   17.88
 -25   2   6   -4.50    6.06
 -24   1  -7  217.24   17.57
   1  23  -7  239.14   18.98
 -24   1  -7  235.74   18.01
  23 -24  -7  214.30   17.35
 -24   1  -4   64.76   10.17
 -24   1  -4   53.01    8.90
   1  23  -4   73.34   11.02
  23 -24  -4   64.09   10.24
   1  23  -1  583.82   26.73
 -24   1  -1  572.98   26.01
 -24   1  -1  587.51   26.47
  23 -24  -1  595.44   26.20
  23 -24   2   41.86    9.48
   1  23   2   48.25   10.00
 -24   1   2   21.58    7.06
 -24   1   2   31.76    8.95
 -24   1   5  436.53   26.56
 -24   1   5  422.65   22.78
 -23   0  -8  388.47   22.87
   0  23  -8  441.46   25.48
 -23   0  -8  414.54   23.77
  23 -23  -8  433.20   24.67
   0  23  -5   -1.42    6.56
 -23   0  -5   -2.20    5.98
 -23   0  -5    4.36    6.31
  23 -23  -5   -7.48    6.74
   0  23  -2  340.02   20.25
 -23   0  -2  314.70   19.53
 -23   0  -2  379.70   20.99
  23 -23  -2  356.54   19.71
  23 -23   1    0.93    5.11
   0  23   1    1.53    5.77
 -23   0   1    2.67    5.31
 -23   0   1    0.49    5.60
  23 -23   4  198.84   17.40
 -23   0   4  174.78   14.91
 -23   0   4  203.41   17.55
 -23   0   7   -2.39    6.82
 -22  -1  -9   42.75    9.27
 -22  -1  -9   36.08    9.36
  -1  23  -9   37.18    9.89
  23 -22  -9   31.09    8.46
 -22  -1  -6   38.92    8.95
 -22  -1  -6   24.94    7.47
  23 -22  -6   36.08    7.99
  -1  23  -6   25.77    8.24
 -22  -1  -3  153.19   14.32
 -22  -1  -3  173.76   14.48
  -1  23  -3  155.72   14.13
  23 -22  -3  156.47   13.58
  -1  23   0  243.63   16.81
 -22  -1   0  252.10   17.35
 -22  -1   0  199.83   15.44
  23 -22   0  242.38   16.56
 -22  -1   3   72.69   10.14
  -1  23   3  106.10   12.79
 -22  -1   3   88.71   11.49
  23 -22   3   86.67   11.67
 -22  -1   6   45.57    8.96
 -21  -2  -7  294.47   19.75
  -2  23  -7  337.90   21.51
 -21  -2  -7  329.45   20.53
  23 -21  -7  351.41   21.37
 -21  -2  -4  170.92   14.48
  -2  23  -4  153.00   14.15
 -21  -2  -4  137.00   12.78
  23 -21  -4  155.03   13.55
  -2  23  -1  482.78   22.92
 -21  -2  -1  463.80   22.60
 -21  -2  -1  428.12   21.62
  23 -21  -1  465.74   22.18
  -2  23   2  211.50   16.58
 -21  -2   2  177.07   14.53
 -21  -2   2  158.72   14.07
  23 -21   2  176.27   14.73
 -21  -2   5  323.09   19.06
 -21  -2   5  338.48   22.28
  -3  23  -8  125.59   14.13
 -20  -3  -8   75.90   11.24
 -20  -3  -8   95.70   12.73
  23 -20  -8  101.41   12.73
 -20  -3  -5    6.25    6.45
 -20  -3  -5   16.58    6.77
  -3  23  -5   18.56    6.98
  23 -20  -5   19.25    7.03
 -20  -3  -2  451.09   21.97
 -20  -3  -2  427.67   21.16
  -3  23  -2  425.90   21.43
  23 -20  -2  413.87   20.67
  -3  23   1   25.56    7.05
 -20  -3   1   33.33    7.67
 -20  -3   1   28.08    7.31
  23 -20   1   18.76    6.78
 -20  -3   4   51.23    9.48
  23 -20   4   36.74    8.80
 -20  -3   4   72.48    9.57
  -3  23   4   51.64    9.45
 -20  -3   7    4.19    5.63
 -19  -4  -9   29.88    8.91
  -4  23  -9   28.80    8.57
 -19  -4  -9   14.61    8.37
  23 -19  -9   20.71    8.11
  -4  23  -6  351.09   20.96
 -19  -4  -6  358.04   20.74
 -19  -4  -6  335.84   19.99
  23 -19  -6  359.80   20.75
 -19  -4  -3   25.71    7.22
 -19  -4  -3   32.57    7.00
  23 -19  -3   26.50    6.91
  -4  23  -3   27.99    7.39
  -4  23   0  548.02   23.63
 -19  -4   0  555.49   23.48
 -19  -4   0  572.07   24.11
  23 -19   0  537.17   22.97
  23 -19   3    4.90    5.47
  -4  23   3    2.68    5.32
 -19  -4   3    7.21    5.78
 -19  -4   3   14.30    6.92
 -19  -4   6  281.08   17.20
 -18  -5 -10   17.51    7.83
  -5  23 -10   24.11    9.47
 -18  -5 -10   23.37    9.17
  23 -18 -10   15.33    8.03
  -5  23  -7  244.95   18.33
 -18  -5  -7  291.79   18.98
 -18  -5  -7  228.73   17.41
  23 -18  -7  263.52   18.63
 -18  -5  -4   38.07    8.31
 -18  -5  -4   19.28    6.81
  -5  23  -4   22.93    7.01
  23 -18  -4   26.89    7.41
 -18  -5  -1  593.65   24.05
  -5  23  -1  572.55   23.57
  23 -18  -1  573.64   23.02
 -18  -5   2  207.81   14.64
  -5  23   2  227.68   15.88
 -18  -5   2  239.00   16.21
  23 -18   2  210.73   14.97
  23 -18   5  307.96   20.18
 -18  -5   5  332.08   20.31
 -18  -5   8   75.18    9.48
 -17  -6  -8   47.79    9.41
  -6  23  -8   55.33   10.52
 -17  -6  -8   68.77   10.34
  23 -17  -8   62.48   10.43
 -17  -6  -5   34.01    7.88
  -6  23  -5   23.93    7.37
 -17  -6  -5   15.88    6.30
  23 -17  -5   20.06    6.99
 -17  -6  -2    3.19    4.62
 -17  -6  -2   15.12    5.73
  23 -17  -2   12.22    5.59
  -6  23  -2   11.63    5.42
 -17  -6   1    1.70    5.30
 -17  -6   1    7.95    5.13
  -6  23   1   -1.78    4.64
  23 -17   1   -0.36    4.12
  23 -17   4   84.02   10.95
 -17  -6   4  101.19   10.56
 -17  -6   4   99.02   11.42
  -6  23   4  109.51   11.72
 -17  -6   7   14.49    5.66
  -7  23  -9   35.03   10.14
 -16  -7  -9   20.89    7.15
 -16  -7  -9   39.89    9.71
  23 -16  -9   20.85    8.24
  -7  23  -6  536.68   25.81
 -16  -7  -6  571.47   25.30
 -16  -7  -6  566.82   25.63
  23 -16  -6  505.16   23.93
 -16  -7  -3   10.71    5.31
 -16  -7  -3   16.92    5.75
  -7  23  -3   16.09    6.05
  23 -16  -3   29.36    6.87
 -16  -7   0  923.25   29.22
 -16  -7   0  898.43   28.27
  23 -16   0  873.89   27.77
  23 -16   3   16.37    6.28
 -16  -7   3   12.32    4.88
  -7  23   3   22.26    6.09
 -16  -7   3   21.08    6.20
 -16  -7   6  420.82   23.03
 -16  -7   6  448.46   19.94
  -8  23 -10   54.91   11.75
 -15  -8 -10   44.11    9.60
 -15  -8 -10   56.21   11.09
  23 -15 -10   33.05   10.14
  -8  23  -7  236.66   17.99
 -15  -8  -7  265.79   17.99
 -15  -8  -7  232.66   17.65
  23 -15  -7  236.95   17.74
 -15  -8  -4  289.11   17.59
 -15  -8  -4  284.54   17.04
  23 -15  -4  253.71   16.00
 -15  -8  -1  756.86   26.74
  -8  23  -1  737.56   25.72
 -15  -8  -1  707.86   25.22
  23 -15  -1  737.53   25.33
 -15  -8   2   98.84    9.91
  -8  23   2   94.82   10.02
 -15  -8   2   83.69    9.39
  23 -15   2   94.98   10.05
  23 -15   5  270.75   18.01
 -15  -8   5  269.08   15.64
 -15  -8   5  254.12   17.00
 -15  -8   8  147.89   11.59
  -9  23  -8   43.41   10.03
 -14  -9  -8   46.47    9.01
 -14  -9  -8   51.52   10.00
  23 -14  -8   33.14    8.84
  -9  23  -5   87.23   10.97
 -14  -9  -5   93.44   11.18
  23 -14  -5  105.75   11.63
 -14  -9  -2  216.05   14.95
  -9  23  -2  198.40   13.98
 -14  -9  -2  212.86   14.38
  23 -14  -2  211.74   14.12
 -14  -9   1  133.59   11.44
 -14  -9   1  144.14   11.87
  23 -14   1  125.60   10.90
  -9  23   1  147.43   11.76
 -14  -9   4   36.59    6.66
  -9  23   4   34.09    7.23
 -14  -9   4   48.05    8.04
  23 -14   4   56.96    8.74
 -14  -9   7  102.85    9.83
 -10  23  -9   11.68    7.30
 -13 -10  -9   33.06    8.31
 -13 -10  -9   30.58    9.79
  23 -13  -9   24.29    8.52
 -10  23  -6  532.68   25.17
 -13 -10  -6  581.32   25.37
 -13 -10  -6  548.56   25.26
  23 -13  -6  539.47   24.70
 -10  23  -3   87.35   10.22
 -13 -10  -3  100.94   10.89
 -13 -10  -3   86.73    9.89
  23 -13  -3  101.16    9.93
 -13 -10   0  278.62   16.20
 -13 -10   0  259.37   15.64
 -10  23   0  304.22   15.92
  23 -13   0  248.18   14.71
 -13 -10   3   76.41    8.92
 -10  23   3   61.37    8.73
 -13 -10   3   69.01    9.05
  23 -13   3   81.93    9.50
 -13 -10   6  249.42   14.43
 -13 -10   6  255.48   17.36
 -11  23 -10   20.40    9.35
 -12 -11 -10   37.19    9.35
 -12 -11 -10   57.02   11.33
  23 -12 -10   33.13   10.81
 -12 -11  -7  284.19   18.44
 -12 -11  -7  264.74   18.62
  23 -12  -7  285.84   19.38
 -11  23  -7  330.11   21.24
 -11  23  -4  146.85   12.96
 -12 -11  -4  132.51   12.15
 -12 -11  -4  123.09   11.67
  23 -12  -4  125.48   11.87
 -12 -11  -1  466.74   21.01
 -11  23  -1  450.09   19.63
 -12 -11  -1  497.55   20.64
  23 -12  -1  496.11   19.99
 -11  23   2  345.73   16.78
 -12 -11   2  335.89   17.11
 -12 -11   2  324.97   16.56
  23 -12   2  334.70   16.89
  23 -12   5  371.01   19.63
 -12 -11   5  363.47   17.26
 -12 -11   5  361.58   18.84
 -12 -11   8   16.16    5.19
 -12  23  -8   17.49    7.32
 -11 -12  -8    8.98    6.46
 -11 -12  -8   18.06    8.21
  23 -11  -8   11.60    7.22
 -11 -12  -5  393.83   20.73
 -11 -12  -5  370.90   20.20
  23 -11  -5  367.75   19.87
 -12  23  -5  395.18   21.16
 -12  23  -2  217.21   14.43
 -11 -12  -2  258.07   16.11
 -11 -12  -2  280.67   16.17
  23 -11  -2  232.37   14.42
 -11 -12   1  606.72   22.87
 -11 -12   1  610.88   22.15
 -12  23   1  614.49   21.69
  23 -11   1  655.88   22.40
 -12  23   4  140.56   11.59
 -11 -12   4  169.37   12.20
 -11 -12   4  125.10   11.28
  23 -11   4  140.88   11.77
 -11 -12   7  255.54   14.13
 -13  23  -9    5.04    7.33
 -10 -13  -9   -1.46    5.87
 -10 -13  -9   -6.92    7.53
  23 -10  -9   10.05    7.84
 -10 -13  -6  245.76   16.77
 -10 -13  -6  264.40   17.86
  23 -10  -6  277.93   18.31
 -10 -13  -3   23.76    6.28
 -13  23  -3   26.88    6.52
 -10 -13  -3   40.58    7.13
  23 -10  -3   26.96    6.09
 -10 -13   0  340.25   17.72
 -13  23   0  302.68   15.54
 -10 -13   0  344.55   16.87
  23 -10   0  310.15   15.49
 -10 -13   3   79.36    9.01
 -13  23   3   77.14    8.54
 -10 -13   3   66.10    8.50
  23 -10   3   69.88    8.21
 -10 -13   6  502.74   19.18
 -10 -13   6  476.09   21.38
 -14  23 -10   38.75   10.83
  -9 -14 -10   19.10    7.81
  -9 -14 -10   20.98    9.46
  23  -9 -10   20.34    8.79
  -9 -14  -7  156.88   14.38
  -9 -14  -7  132.42   13.66
  23  -9  -7  103.73   12.27
 -14  23  -7  123.14   13.76
 -14  23  -4   30.43    7.44
  -9 -14  -4   25.70    6.81
  -9 -14  -4   29.08    7.14
  23  -9  -4   48.42    8.28
 -14  23  -1  216.47   13.56
  -9 -14  -1  190.57   13.87
  -9 -14  -1  214.78   13.71
  23  -9  -1  237.97   13.90
  -9 -14   2  107.20    9.93
  -9 -14   2  111.51    9.90
  23  -9   2   96.67    8.97
 -14  23   2  116.78    9.76
  23  -9   5  142.15   11.93
  -9 -14   5  148.12   11.11
 -14  23   5  136.21   11.07
  -9 -14   5  126.73   11.28
  -8 -15  -8   94.77   12.05
  -8 -15  -8  100.32   13.33
  23  -8  -8   74.46   12.07
 -15  23  -8   99.95   13.98
  -8 -15  -5  322.46   19.11
  -8 -15  -5  355.02   20.12
  23  -8  -5  338.84   19.29
 -15  23  -5  330.40   19.83
 -15  23  -2   45.97    7.43
  -8 -15  -2   44.79    7.93
  -8 -15  -2   56.53    8.25
  23  -8  -2   48.89    7.08
  -8 -15   1  598.70   22.72
 -15  23   1  577.77   20.29
  -8 -15   1  610.56   21.37
  23  -8   1  558.77   19.89
 -15  23   4  268.73   14.35
  -8 -15   4  267.02   14.78
  -8 -15   4  289.60   15.21
  23  -8   4  267.67   14.72
  -8 -15   7  296.86   14.25
  -7 -16  -9    7.86    6.74
  -7 -16  -9    6.05    7.99
  23  -7  -9    7.21    6.75
 -16  23  -9    2.53    7.17
  -7 -16  -6  549.63   25.09
  -7 -16  -6  537.20   25.73
  23  -7  -6  541.90   25.38
 -16  23  -6  571.18   26.73
 -16  23  -3    8.59    5.20
  -7 -16  -3   17.92    6.86
  -7 -16  -3    9.58    5.40
  23  -7  -3    6.05    4.77
  -7 -16   0  991.54   29.73
 -16  23   0  978.16   26.75
  -7 -16   0  917.72   26.54
  23  -7   0 1013.62   26.78
  -7 -16   3   24.14    5.85
  -7 -16   3   20.91    5.16
 -16  23   3   23.79    5.19
  23  -7   3   25.25    5.31
  -7 -16   6  437.55   18.09
  -7 -16   6  494.86   20.32
  -6 -17 -10   41.07    9.69
  -6 -17 -10   15.59   10.52
  23  -6 -10   39.33   11.00
 -17  23 -10   45.12   11.98
  -6 -17  -7   15.68    6.71
  -6 -17  -7   21.46    8.16
  23  -6  -7   22.73    7.84
 -17  23  -7   12.12    6.34
  -6 -17  -4   99.69   11.26
  -6 -17  -4   96.99   10.65
  23  -6  -4   86.50   10.04
 -17  23  -4  102.14   11.35
  -6 -17  -1   -3.25    4.86
 -17  23  -1    3.22    3.97
  -6 -17  -1   -3.14    4.19
  23  -6  -1    0.99    3.95
 -17  23   2   31.25    5.40
  -6 -17   2   38.85    6.81
  -6 -17   2   39.94    6.45
  23  -6   2   40.43    5.97
  23  -6   5   34.56    6.69
  -6 -17   5   42.34    6.35
  -6 -17   5   29.28    6.27
  -5 -18  -8   14.35    7.40
  -5 -18  -8    0.60    6.97
  23  -5  -8   15.66    8.15
 -18  23  -8    4.52    8.42
  -5 -18  -5  362.91   20.70
  -5 -18  -5  338.29   20.32
  23  -5  -5  382.77   20.76
 -18  23  -5  415.25   21.92
  -5 -18  -2  169.28   13.72
  23  -5  -2  142.56   11.48
 -18  23  -2  175.31   12.72
  -5 -18   1  485.63   20.89
 -18  23   1  508.45   18.29
  -5 -18   1  485.26   18.80
  23  -5   1  504.88   18.32
  23  -5   4   -1.87    3.68
  -5 -18   4    4.51    4.39
 -18  23   4   10.63    4.29
  -5 -18   4    9.12    4.75
  -5 -18   7  267.37   13.61
  -4 -19  -9    5.34    6.35
  -4 -19  -9   13.47    8.25
  23  -4  -9   18.80    9.17
 -19  23  -9   15.35    8.79
  -4 -19  -6  285.79   19.18
  -4 -19  -6  326.36   20.82
  23  -4  -6  295.89   19.15
 -19  23  -6  271.34   19.32
 -19  23  -3    9.50    5.09
  -4 -19  -3   16.47    5.47
  -4 -19  -3    8.29    5.35
  23  -4  -3    6.72    5.21
 -19  23   0  482.23   18.74
  -4 -19   0  488.07   21.75
  -4 -19   0  497.78   19.53
  23  -4   0  429.06   17.10
  -4 -19   3   35.24    6.61
  -4 -19   3   41.08    6.06
 -19  23   3   31.99    5.19
  23  -4   3   52.99    6.82
  -4 -19   6  287.32   14.72
  -4 -19   6  317.01   14.72
  -3 -20  -7    8.09    6.07
  -3 -20  -7   -3.90    6.89
  23  -3  -7    1.32    6.34
 -20  23  -7    3.31    6.67
  -3 -20  -4   59.20    9.38
  -3 -20  -4   45.69    8.26
  23  -3  -4   71.21    9.27
 -20  23  -4   58.48    9.38
 -20  23  -1   10.53    4.63
  -3 -20  -1   15.64    5.56
  -3 -20  -1    8.78    4.91
  23  -3  -1    8.19    4.39
  -3 -20   2  528.62   21.87
 -20  23   2  510.58   17.56
  -3 -20   2  507.07   18.42
  23  -3   2  514.38   17.80
  -3 -20   5   42.04    6.81
  -3 -20   5   49.04    6.52
  -2 -21  -8   31.55    8.97
  -2 -21  -8   32.90    9.37
  23  -2  -8   52.63   10.62
 -21  23  -8   47.31   11.21
  -2 -21  -5  369.36   21.47
  -2 -21  -5  398.70   22.26
  23  -2  -5  404.80   22.29
 -21  23  -5  362.24   21.37
  -2 -21  -2  200.90   15.04
  -2 -21  -2  206.93   14.42
  23  -2  -2  199.55   13.15
 -21  23  -2  189.30   13.50
  -2 -21   1  454.99   20.91
 -21  23   1  443.51   17.02
  -2 -21   1  431.76   17.78
  23  -2   1  413.06   16.19
  -2 -21   4  181.87   12.60
  -2 -21   4  162.43   10.42
 -21  23   4  166.37    9.40
  23  -2   4  146.26    9.62
  -2 -21   7  254.76   13.39
  -1 -22  -9   31.10    9.60
  -1 -22  -9   35.72   11.25
  23  -1  -9   32.12   10.52
 -22  23  -9   18.96    9.72
  -1 -22  -6   82.72   11.61
  -1 -22  -6   68.90   11.18
  23  -1  -6   66.17   10.11
 -22  23  -6   53.16   10.71
  -1 -22  -3  115.17   12.58
  -1 -22  -3  106.26   11.29
  23  -1  -3  111.87   11.04
 -22  23  -3  105.62   11.20
 -22  23   0  282.20   14.38
  -1 -22   0  271.48   17.20
  -1 -22   0  263.67   14.71
  23  -1   0  251.53   13.21
  -1 -22   3  147.35   11.91
  -1 -22   3  143.84    9.87
 -22  23   3  145.89    9.06
  23  -1   3  148.47    9.29
  -1 -22   6   46.76    7.27
   0 -23  -7   -1.71    6.76
   0 -23  -7   -0.23    7.24
  23   0  -7    9.75    6.95
 -23  23  -7   -0.41    7.10
   0 -23  -4  175.07   15.30
   0 -23  -4  193.59   15.63
  23   0  -4  180.31   14.31
 -23  23  -4  173.74   14.94
 -23  23  -1    7.29    4.73
   0 -23  -1   13.26    7.18
   0 -23  -1    4.08    4.43
  23   0  -1    0.04    4.03
   0 -23   2  307.37   17.24
 -23  23   2  323.80   13.37
   0 -23   2  301.58   14.24
  23   0   2  339.52   13.83
   0 -23   5   -2.95    4.40
   0 -23   5    1.52    3.56
   1 -24  -8  107.37   14.09
   1 -24  -8   85.86   14.39
 -24  23  -8  128.01   16.85
  23   1  -8  104.59   14.61
   1 -24  -5  373.78   22.77
   1 -24  -5  423.30   23.73
 -24  23  -5  369.99   22.40
   1 -24  -2   22.12    7.13
   1 -24  -2   22.97    6.55
  23   1  -2   19.30    5.67
 -24  23  -2   32.95    7.24
 -24  23   1  496.08   17.74
   1 -24   1  522.78   23.38
   1 -24   1  471.48   18.41
  23   1   1  489.22   16.88
   1 -24   4   75.59    9.18
   1 -24   4   64.74    6.59
 -24  23   4   78.46    5.63
  23   1   4   75.35    6.27
   2 -25  -6    1.71    5.96
   2 -25  -6    3.29    5.97
  23   2  -6    8.15    7.47
 -25  23  -6    2.29    6.46
   2 -25  -3  160.30   15.06
   2 -25  -3  207.95   15.59
  23   2  -3  187.58   13.71
 -25  23  -3  199.38   15.29
 -25  23   0   16.92    5.64
   2 -25   0   22.09    7.61
   2 -25   0   16.16    5.32
  23   2   0    9.63    4.45
   2 -25   3  239.15   15.60
   2 -25   3  218.91   11.45
 -25  23   3  220.02   10.12
  23   2   3  203.61    9.94
   2 -25   6   30.66    6.33
   3 -26  -7    2.00    6.81
   3 -26  -7    4.87    7.12
  23   3  -7   13.90    8.16
 -26  23  -7   12.76    8.53
   3 -26  -4  474.09   25.54
   3 -26  -4  440.58   23.64
 -26  23  -4  455.77   23.95
  23   3  -4  440.26   22.13
   3 -26  -1   17.16    7.26
   3 -26  -1   21.68    5.83
  23   3  -1   32.27    6.42
 -26  23  -1   29.31    6.59
   3 -26   2  398.38   21.03
 -26  23   2  400.48   14.69
   3 -26   2  379.14   15.78
  23   3   2  404.67   14.38
   3 -26   5   16.06    5.75
   4 -27  -8   14.64    8.03
   4 -27  -8   10.64    9.82
  23   4  -8    0.65    8.15
 -27  23  -8    8.78   10.17
   4 -27  -5  221.20   18.83
   4 -27  -5  218.31   18.51
 -27  23  -5  204.36   17.59
  23   4  -5  200.78   16.48
   4 -27  -2   41.76    9.15
   4 -27  -2   67.61    9.40
  23   4  -2   80.49    9.80
 -27  23  -2   67.46    9.37
 -27  23   1  146.09   10.15
   4 -27   1  154.82   14.04
   4 -27   1  148.54   11.12
  23   4   1  126.09    9.07
   4 -27   4   24.36    6.82
   5 -28  -6   86.42   13.16
   5 -28  -6   77.78   12.69
 -28  23  -6   80.99   13.35
  23   5  -6  107.47   13.51
   5 -28  -3  166.41   15.73
   5 -28  -3  169.63   14.87
 -28  23  -3  177.27   15.18
  23   5  -3  183.62   14.11
 -28  23   0   32.20    6.14
   5 -28   0   50.44    9.59
   5 -28   0   32.76    6.63
  23   5   0   35.86    5.91
   5 -28   3  247.33   16.90
   5 -28   3  243.17   11.75
   5 -28   6    1.17    4.41
   6 -29  -7   28.05    9.51
   6 -29  -7   31.21   10.40
  23   6  -7   43.42   10.21
 -29  23  -7   25.84   10.47
   6 -29  -4  276.76   19.68
 -29  23  -4  284.75   19.93
  23   6  -4  238.95   17.19
   6 -29  -1   52.35   10.19
   6 -29  -1   29.49    7.35
  23   6  -1   52.06    7.42
 -29  23  -1   33.37    7.03
   6 -29   2  444.86   23.06
 -29  23   2  468.57   15.46
   6 -29   2  468.77   17.72
  23   6   2  449.39   13.94
   6 -29   5   17.05    6.26
   7 -30  -5    4.12    7.27
   7 -30  -5   25.05    9.19
  23   7  -5   10.64    7.32
 -30  23  -5   -3.67    7.17
   7 -30  -2   67.49   11.27
   7 -30  -2   50.66    8.94
  23   7  -2   54.86    8.41
 -30  23  -2   51.46    8.96
 -30  23   1   19.45    5.04
   7 -30   1   15.87    6.91
   7 -30   1   12.13    4.97
  23   7   1   16.28    4.48
   7 -30   4   12.35    6.24
   8 -31  -6   42.25   11.30
   8 -31  -6   46.48   11.59
  23   8  -6   34.35    9.61
 -31  23  -6   48.79   12.17
   8 -31  -3  195.28   17.81
   8 -31  -3  184.85   15.94
 -31  23  -3  168.85   15.37
  23   8  -3  146.36   13.46
   8 -31   0   23.23    7.61
   8 -31   0   26.94    6.31
  23   8   0   16.22    4.78
 -31  23   0   33.72    6.37
   8 -31   3  146.10   13.88
   8 -31   6   78.25   10.26
   9 -32  -4  164.84   17.28
   9 -32  -4  190.92   17.55
 -32  23  -4  153.81   16.22
  23   9  -4  157.97   14.76
   9 -32  -1  101.06   13.59
   9 -32  -1  103.29   11.66
 -32  23  -1   84.77   10.33
  23   9  -1  113.72   10.24
   9 -32   2  172.63   15.90
   9 -32   5   45.15    8.85
  10 -33  -5   17.22    8.79
  10 -33  -5   16.64    8.50
  23  10  -5   12.15    8.08
 -33  23  -5   33.26   10.84
  10 -33  -2   62.18   11.93
  10 -33  -2   76.73   11.02
 -33  23  -2   72.66   10.90
  23  10  -2   76.99   10.02
  10 -33   1   12.23    7.33
  10 -33   1    1.57    5.11
  10 -33   4   13.93    7.21
  11 -34  -3  105.81   14.72
  11 -34  -3   93.44   13.03
 -34  23  -3   83.01   12.15
  23  11  -3  102.04   12.19
  11 -34   0   38.75   10.17
  11 -34   0   35.77    7.68
 -34  23   0   36.76    7.56
  11 -34   3   67.81   11.16
  12 -35  -4   49.30   11.96
  12 -35  -4   81.40   13.24
  23  12  -4   54.73   10.92
 -35  23  -4   51.10   11.28
  12 -35  -1   61.78   12.64
  12 -35  -1   59.94    9.88
 -35  23  -1   64.57    9.99
  12 -35   2   50.98   10.70
  13 -36  -2   53.67   11.82
  13 -36  -2   61.57   10.70
 -36  23  -2   63.54   10.76
  13 -36   1    8.00    8.64
  14 -37   0   43.61   11.12
 -36  12   0   49.61   13.07
  24 -36   0   61.89   13.30
  24 -36   0   32.53   10.52
  12  24   0   48.16   14.22
 -36  12   0   60.77   12.39
 -35  11  -1   67.24   13.37
  24 -35  -1   72.01   13.30
  24 -35  -1   58.66   12.06
  24 -35  -1   69.58   11.48
 -35  11  -1   71.55   11.31
 -35  11  -1   60.12   11.84
  11  24  -1   89.22   15.70
 -35  11   2   18.17   11.18
  24 -35   2   27.52   12.13
  24 -35   2   32.23    9.72
 -35  11   2   41.71   12.18
  24 -34  -2  112.80   14.18
 -34  10  -2  126.08   14.74
  10  24  -2  119.69   16.93
 -34  10  -2  117.57   16.24
  10  24  -2  125.83   13.33
 -34  10  -2  118.84   15.96
  24 -34  -2  108.31   14.95
  24 -34   1   98.01   14.89
 -34  10   1   72.96   13.20
  10  24   1   87.52   14.81
 -34  10   1  111.18   16.13
  24 -34   4   88.79   12.92
  24 -33  -3  179.94   17.48
 -33   9  -3  195.23   18.65
 -33   9  -3  168.56   17.91
   9  24  -3  202.94   17.83
 -33   9  -3  190.18   18.52
   9  24  -3  185.94   19.71
  24 -33  -3  153.77   16.82
  24 -33   0   69.19   12.79
 -33   9   0   77.00   10.70
  24 -33   0   48.98    9.02
 -33   9   0   78.43   12.89
 -33   9   0   93.20   14.62
   9  24   0   55.59   12.30
 -33   9   3  219.45   21.30
 -33   9   3  225.54   20.63
 -32   8  -4   47.20   12.18
 -32   8  -4   46.17   11.28
   8  24  -4   52.39   11.14
   8  24  -4   46.17   10.28
 -32   8  -4   54.67   11.63
  24 -32  -4   51.45   10.59
  24 -32  -1   55.58   11.35
 -32   8  -1   25.95    8.28
   8  24  -1   53.96   11.95
 -32   8  -1   46.68   10.02
   8  24  -1   41.43    8.12
 -32   8  -1   50.85   11.55
 -32   8   2   34.33   10.77
  24 -32   2   61.08   12.86
 -32   8   2   71.53   11.85
 -31   7  -5  231.48   21.65
   7  24  -5  248.23   21.75
 -31   7  -5  265.97   21.47
   7  24  -5  284.44   22.02
 -31   7  -5  267.01   21.14
  24 -31  -5  272.71   20.67
  24 -31  -2   53.00   10.56
   7  24  -2   66.63   12.98
 -31   7  -2   95.79   13.64
 -31   7  -2   54.49   11.27
  24 -31   1  234.81   20.41
   7  24   1  236.30   21.79
 -31   7   1  193.23   17.66
 -31   7   1  234.80   21.00
 -31   7   4  178.29   17.88
 -30   6  -6   30.26   13.28
 -30   6  -6    0.02    7.50
   6  24  -6   17.84    9.42
 -30   6  -6   20.04    8.73
  24 -30  -6   10.39    7.34
 -30   6  -3   60.99   11.04
   6  24  -3   88.60   13.53
  24 -30  -3   88.64   12.48
   6  24   0  147.65   16.28
 -30   6   0  129.95   14.56
 -30   6   0  138.44   15.95
  24 -30   0  121.38   14.60
  24 -30   3  132.97   15.78
 -30   6   3  109.60   14.16
 -30   6   3   99.59   15.04
 -29   5  -7    3.10    9.13
 -29   5  -7   16.89    8.27
   5  24  -7   14.25    8.57
 -29   5  -7    6.21    7.47
  24 -29  -7    4.81    7.61
 -29   5  -4   79.81   12.36
 -29   5  -4   70.09   11.21
  24 -29  -4   64.79   11.11
   5  24  -4   65.50   11.37
  24 -29  -1   -2.63    6.71
   5  24  -1  -11.18    8.59
 -29   5  -1   18.49    8.15
 -29   5  -1    6.92    6.03
  24 -29   2   65.10   12.14
 -29   5   2   37.31    9.54
   5  24   2   61.50   12.03
 -29   5   2   72.19   13.06
 -29   5   5   -5.36    7.58
   4  24  -5  252.05   19.90
 -28   4  -5  298.29   21.04
 -28   4  -5  324.70   21.56
  24 -28  -5  274.20   19.97
   4  24  -2   35.92   10.31
 -28   4  -2   45.02    9.55
 -28   4  -2   15.28    6.87
  24 -28  -2   39.02    9.06
 -28   4   1  362.43   22.77
   4  24   1  398.91   24.98
 -28   4   1  443.32   26.10
  24 -28   1  392.36   24.10
 -28   4   4   78.79   12.70
  24 -28   4   58.82   12.26
 -28   4   4   52.74    9.75
 -27   3  -6  117.88   14.22
 -27   3  -6   90.34   12.83
  24 -27  -6   85.45   12.55
   3  24  -6  102.02   13.53
 -27   3  -3   37.05    9.22
 -27   3  -3   27.83    7.92
   3  24  -3   35.81    8.73
  24 -27  -3   36.15    9.11
 -27   3   0  252.31   18.68
 -27   3   0  239.59   18.75
   3  24   0  260.50   19.62
  24 -27   0  269.66   19.25
 -27   3   3   40.40   10.52
  24 -27   3   42.97   10.20
 -27   3   3   53.79   10.24
   3  24   3   25.27    8.93
 -27   3   6   45.07    9.60
   2  24  -7   39.09   10.02
 -26   2  -7   58.86   11.11
 -26   2  -7   50.73   10.39
  24 -26  -7   56.32   11.19
 -26   2  -4  143.91   14.95
 -26   2  -4  132.05   13.87
  24 -26  -4  144.56   14.35
   2  24  -4  159.01   15.29
 -26   2  -1  187.11   16.25
   2  24  -1  178.12   16.19
 -26   2  -1  169.58   15.49
  24 -26  -1  179.59   15.47
 -26   2   2   39.99   10.16
  24 -26   2   35.00   10.44
 -26   2   2   33.43    8.21
   2  24   2   45.95   10.96
 -26   2   5  260.54   22.17
 -26   2   5  235.39   18.00
 -25   1  -8  110.07   14.09
   1  24  -8  103.27   14.25
 -25   1  -8  104.75   14.10
  24 -25  -8  103.29   13.47
 -25   1  -5  148.02   14.72
 -25   1  -5  194.85   16.60
   1  24  -5  200.74   17.00
  24 -25  -5  162.87   15.10
   1  24  -2   81.63   11.85
 -25   1  -2  105.24   12.97
 -25   1  -2   98.15   12.12
  24 -25  -2  110.38   12.43
 -25   1   1  389.46   22.16
 -25   1   1  369.61   22.73
  24 -25   1  335.99   21.11
   1  24   1  381.20   23.04
  24 -25   4  125.06   15.38
 -25   1   4  142.41   14.49
 -25   1   4  162.23   16.90
 -25   1   7  281.08   19.43
 -24   0  -6  253.53   18.83
 -24   0  -6  256.06   19.05
   0  24  -6  255.35   19.22
  24 -24  -6  254.34   18.71
 -24   0  -3  -10.98    6.39
   0  24  -3   -0.63    6.35
 -24   0  -3   -2.63    5.42
  24 -24  -3    2.53    6.50
 -24   0   0  283.40   18.69
   0  24   0  246.22   18.08
 -24   0   0  288.75   19.42
  24 -24   0  279.55   18.91
 -24   0   3    6.07    7.17
   0  24   3    3.23    6.39
  24 -24   3    2.05    6.74
 -24   0   3    3.64    5.65
 -24   0   6   30.39    8.08
 -23  -1  -7  210.88   17.41
  -1  24  -7  206.97   17.94
 -23  -1  -7  201.64   17.02
  24 -23  -7  206.48   17.41
 -23  -1  -4   60.28    9.55
 -23  -1  -4   66.94   10.24
  -1  24  -4   58.62   10.48
  24 -23  -4   65.42   10.36
  -1  24  -1  493.91   24.59
 -23  -1  -1  477.67   23.76
 -23  -1  -1  507.10   24.35
  24 -23  -1  492.78   23.72
  24 -23   2   45.68    9.65
  -1  24   2   31.65    9.29
 -23  -1   2   34.38    7.88
 -23  -1   2   46.13    9.23
 -23  -1   5  331.03   22.90
 -23  -1   5  412.33   22.06
 -22  -2  -8   87.17   12.36
 -22  -2  -8   89.70   12.67
  24 -22  -8   85.60   12.25
 -22  -2  -5  254.06   18.17
  -2  24  -5  240.44   17.94
 -22  -2  -5  252.08   17.64
  24 -22  -5  245.98   17.53
 -22  -2  -2  122.80   12.75
 -22  -2  -2  148.70   13.59
  24 -22  -2  139.21   13.30
  -2  24  -2  156.01   14.50
 -22  -2   1  542.04   24.58
  -2  24   1  570.43   26.17
 -22  -2   1  551.26   25.71
  24 -22   1  578.22   25.78
  24 -22   4   96.44   12.32
 -22  -2   4   90.65   11.20
  -2  24   4   69.82   11.78
 -22  -2   4  102.17   13.44
 -22  -2   7  319.79   19.49
 -21  -3  -9   16.00    7.61
 -21  -3  -9   47.83   10.81
  -3  24  -9   28.05    9.50
  24 -21  -9   38.69    9.98
 -21  -3  -6   83.83   11.37
  -3  24  -6   95.54   12.42
 -21  -3  -6   96.77   11.87
  24 -21  -6   97.32   12.09
  -3  24  -3   17.38    6.79
 -21  -3  -3   36.12    8.04
 -21  -3  -3   41.77    8.27
  24 -21  -3   39.25    7.57
  -3  24   0  454.90   22.95
 -21  -3   0  497.51   23.29
 -21  -3   0  462.14   22.61
  24 -21   0  479.62   22.85
 -21  -3   3   80.06   10.39
  -3  24   3   72.26   10.83
 -21  -3   3   79.45   10.90
  24 -21   3  102.31   12.05
 -21  -3   6   95.14   10.96
  -4  24  -7  163.14   15.58
 -20  -4  -7  192.71   16.30
 -20  -4  -7  184.55   16.13
  24 -20  -7  189.23   16.40
 -20  -4  -4  176.65   15.08
  -4  24  -4  182.67   15.25
 -20  -4  -4  197.07   15.61
  24 -20  -4  173.64   14.52
 -20  -4  -1  236.99   16.43
 -20  -4  -1  222.85   15.81
  24 -20  -1  228.73   15.84
  -4  24  -1  230.39   16.29
 -20  -4   2   72.14    9.75
  -4  24   2   59.33    9.75
 -20  -4   2   92.45   11.24
  24 -20   2   64.65    9.61
  24 -20   5  319.27   21.44
 -20  -4   5  358.22   19.65
 -20  -4   5  362.22   22.76
 -20  -4   8  119.58   12.27
  -5  24  -8   80.81   12.54
 -19  -5  -8   79.11   11.51
 -19  -5  -8   81.45   12.10
  24 -19  -8   76.38   11.59
 -19  -5  -5  146.79   13.70
  -5  24  -5  188.02   15.61
 -19  -5  -5  167.20   14.66
  24 -19  -5  148.95   13.98
 -19  -5  -2  395.18   20.77
 -19  -5  -2  421.67   21.15
  -5  24  -2  363.44   19.93
  24 -19  -2  417.61   20.86
  -5  24   1  141.13   12.97
 -19  -5   1  151.64   13.17
 -19  -5   1  129.35   12.72
  24 -19   1  136.95   12.45
 -19  -5   4   23.01    8.02
  24 -19   4   24.12    8.24
  -5  24   4    9.87    6.13
 -19  -5   4   15.82    5.78
 -19  -5   7  184.49   14.35
  -6  24  -9  147.78   16.03
 -18  -6  -9  135.87   14.49
 -18  -6  -9  133.27   15.29
  24 -18  -9  118.73   14.82
  -6  24  -6  294.00   19.82
 -18  -6  -6  350.15   20.62
 -18  -6  -6  303.75   19.58
  24 -18  -6  276.75   18.54
 -18  -6  -3  278.16   17.78
  -6  24  -3  265.55   17.39
 -18  -6  -3  233.22   15.88
  24 -18  -3  258.13   16.52
 -18  -6   0  289.52   17.42
 -18  -6   0  262.96   16.61
  24 -18   0  248.64   15.90
  -6  24   0  262.90   16.56
  -6  24   3  312.97   19.20
 -18  -6   3  303.97   17.59
 -18  -6   3  275.10   17.82
  24 -18   3  337.60   19.35
 -18  -6   6  225.97   18.31
 -18  -6   6  264.84   16.43
  -7  24  -7  138.28   14.85
 -17  -7  -7  117.52   12.74
 -17  -7  -7  143.88   14.82
  24 -17  -7  139.04   14.04
 -17  -7  -4   91.00   11.29
  -7  24  -4   81.82   10.81
 -17  -7  -4  111.88   11.51
  24 -17  -4   82.01   10.18
 -17  -7  -1  424.85   20.89
 -17  -7  -1  426.07   20.66
  -7  24  -1  429.49   20.56
  24 -17  -1  416.42   20.12
 -17  -7   2  161.04   13.14
  -7  24   2  129.49   11.95
 -17  -7   2  146.37   12.99
  24 -17   2  144.44   12.91
  24 -17   5  358.77   21.43
 -17  -7   5  421.99   20.08
 -17  -7   5  403.59   22.43
 -17  -7   8  158.55   12.53
  -8  24  -8  153.27   15.86
 -16  -8  -8  134.90   13.95
 -16  -8  -8  130.81   14.10
  24 -16  -8  145.19   14.72
 -16  -8  -5   24.73    7.73
  -8  24  -5   42.79    8.95
 -16  -8  -5   38.75    8.34
  24 -16  -5   29.58    7.34
 -16  -8  -2   46.11    7.93
  -8  24  -2   66.43    9.36
 -16  -8  -2   45.06    7.79
  24 -16  -2   45.95    7.48
 -16  -8   1   35.01    7.10
  -8  24   1   25.53    6.27
 -16  -8   1   29.96    6.75
  24 -16   1   15.95    5.41
 -16  -8   4  267.23   16.27
  -8  24   4  291.21   18.17
 -16  -8   4  269.43   17.56
  24 -16   4  231.85   16.69
 -16  -8   7   16.43    5.90
  -9  24  -9  236.46   19.94
 -15  -9  -9  288.47   19.81
 -15  -9  -9  304.97   21.60
  24 -15  -9  294.51   21.47
  -9  24  -6  228.28   17.42
 -15  -9  -6  240.25   17.08
 -15  -9  -6  245.28   17.68
  24 -15  -6  252.16   17.36
 -15  -9  -3  429.76   21.40
  -9  24  -3  375.19   19.66
  24 -15  -3  417.19   20.25
 -15  -9   0  112.91   11.12
 -15  -9   0  104.84   10.78
  -9  24   0   80.90    9.49
  24 -15   0   97.48    9.82
 -15  -9   3  370.75   18.64
 -15  -9   3  386.97   19.90
  -9  24   3  375.06   19.50
  24 -15   3  354.24   19.16
 -15  -9   6  219.69   14.48
 -15  -9   6  218.76   16.54
 -10  24 -10   51.80   12.02
 -14 -10 -10   28.79    8.94
 -14 -10 -10   51.24   10.62
  24 -14 -10   45.68   11.43
 -10  24  -7  183.46   16.62
 -14 -10  -7  143.81   13.82
 -14 -10  -7  173.22   15.62
  24 -14  -7  154.29   14.77
 -14 -10  -4    9.05    6.10
 -10  24  -4   16.77    6.96
 -14 -10  -4   11.02    5.97
  24 -14  -4   23.07    7.30
 -14 -10  -1  215.55   14.94
 -10  24  -1  218.53   14.54
  24 -14  -1  191.36   13.42
 -10  24   2  359.32   18.24
 -14 -10   2  303.55   17.13
 -14 -10   2  332.10   17.56
  24 -14   2  318.57   17.46
  24 -14   5  381.52   20.72
 -14 -10   5  412.62   19.23
 -10  24   5  369.16   20.04
 -14 -10   5  389.80   20.89
 -14 -10   8   89.08    9.30
 -11  24  -8   56.49   11.18
 -13 -11  -8   59.08    9.89
 -13 -11  -8   56.78   10.60
  24 -13  -8   56.19   11.09
 -13 -11  -5   15.03    6.43
 -11  24  -5   10.77    5.93
 -13 -11  -5   11.39    6.60
  24 -13  -5    5.08    5.79
 -13 -11  -2  257.98   16.51
 -11  24  -2  273.17   16.35
 -13 -11  -2  261.18   15.80
  24 -13  -2  228.04   14.75
 -13 -11   1  145.00   12.27
 -13 -11   1  109.84   10.29
 -11  24   1  110.46   10.47
  24 -13   1  124.69   11.10
  24 -13   4   30.70    7.12
 -11  24   4   37.09    7.50
 -13 -11   4   43.10    7.39
 -13 -11   4   42.99    7.77
 -13 -11   7  145.73   11.48
 -12 -12  -9  293.04   20.52
 -12 -12  -9  350.90   23.66
  24 -12  -9  313.90   22.28
 -12  24  -9  328.34   23.53
 -12 -12  -6   90.57   11.71
 -12 -12  -6  101.78   12.24
 -12  24  -6   91.04   11.83
 -12  24  -3  217.07   15.50
 -12 -12  -3  214.29   15.38
 -12 -12  -3  180.81   13.91
  24 -12  -3  214.04   14.62
 -12 -12   0  146.49   12.33
 -12  24   0  177.11   12.56
 -12 -12   0  176.88   12.88
  24 -12   0  186.82   12.98
 -12 -12   3  146.87   11.89
 -12  24   3  138.12   11.52
 -12 -12   3  118.96   10.83
  24 -12   3  132.18   11.70
 -12 -12   6  133.35   10.98
 -12 -12   6  143.78   13.08
 -13  24 -10   50.59   12.63
 -11 -13 -10   69.68   11.91
 -11 -13 -10   57.06   11.40
  24 -11 -10   30.42    9.37
 -11 -13  -7   97.09   11.95
 -11 -13  -7  100.02   13.11
  24 -11  -7   97.87   12.69
 -13  24  -7   80.22   11.63
 -13  24  -4   77.01   10.12
 -11 -13  -4   63.90    9.43
 -11 -13  -4   88.76   10.79
  24 -11  -4   83.47   10.07
 -11 -13  -1   52.37    8.31
 -13  24  -1   52.26    7.75
  24 -11  -1   58.83    8.02
 -13  24   2  236.02   14.26
 -11 -13   2  254.99   15.40
 -11 -13   2  251.56   14.78
  24 -11   2  244.84   14.60
 -11 -13   5   19.63    6.40
  24 -11   5   13.90    5.67
 -13  24   5   23.19    6.58
 -11 -13   5   13.22    5.25
 -11 -13   8   60.27    7.76
 -10 -14  -8  103.88   12.45
 -10 -14  -8  146.05   15.65
  24 -10  -8   97.79   13.08
 -14  24  -8  107.03   14.31
 -10 -14  -5  523.55   24.48
 -10 -14  -5  522.48   24.51
  24 -10  -5  470.39   22.53
 -14  24  -5  526.50   24.75
 -14  24  -2  352.81   18.25
 -10 -14  -2  396.72   19.95
 -10 -14  -2  415.91   19.65
  24 -10  -2  372.11   17.98
 -10 -14   1  331.54   17.72
 -10 -14   1  319.40   16.49
 -14  24   1  326.63   16.24
  24 -10   1  308.79   15.59
  24 -10   4   40.85    7.32
 -14  24   4   62.13    8.14
 -10 -14   4   42.14    6.89
 -10 -14   4   49.44    7.66
 -10 -14   7  144.97   11.03
  -9 -15  -9  214.13   17.76
  -9 -15  -9  223.14   19.52
  24  -9  -9  231.26   20.38
 -15  24  -9  228.75   20.36
  -9 -15  -6  161.42   14.22
  -9 -15  -6  123.39   13.24
  24  -9  -6  123.02   13.12
 -15  24  -6  149.62   14.95
 -15  24  -3  472.35   21.49
  -9 -15  -3  494.68   22.98
  -9 -15  -3  522.11   22.79
  24  -9  -3  475.68   21.02
  -9 -15   0   77.44    9.52
 -15  24   0   80.12    8.41
  -9 -15   0   84.72    9.01
  24  -9   0   76.84    8.67
  -9 -15   3  453.69   19.88
 -15  24   3  496.40   19.50
  -9 -15   3  436.72   19.12
  24  -9   3  471.21   19.67
  -9 -15   6  291.68   15.42
  -9 -15   6  301.24   17.22
 -16  24  -7   15.21    7.42
  -8 -16  -7   17.20    7.68
  -8 -16  -7   17.15    7.52
  24  -8  -7   18.96    8.14
  -8 -16  -4  212.62   15.58
  -8 -16  -4  212.21   15.36
  24  -8  -4  234.35   15.69
 -16  24  -4  238.34   16.45
  -8 -16  -1   39.00    7.61
 -16  24  -1   32.35    6.35
  -8 -16  -1   34.94    6.44
  24  -8  -1   38.23    6.18
  -8 -16   2   63.79    8.27
  -8 -16   2   63.78    8.04
 -16  24   2   73.20    7.95
  24  -8   2   76.06    8.21
  24  -8   5   22.59    6.30
  -8 -16   5   34.67    6.63
 -16  24   5   29.42    5.95
  -8 -16   5   25.19    5.88
  -7 -17  -8  242.35   18.79
  -7 -17  -8  262.68   20.46
  24  -7  -8  244.12   19.76
 -17  24  -8  264.54   20.85
  -7 -17  -5  410.61   22.25
  -7 -17  -5  486.17   23.93
  24  -7  -5  467.41   23.10
 -17  24  -5  484.75   23.84
 -17  24  -2  157.76   12.46
  -7 -17  -2  123.36   11.81
  -7 -17  -2  149.82   12.40
  24  -7  -2  152.84   11.82
  -7 -17   1  350.23   18.22
 -17  24   1  345.74   15.77
  -7 -17   1  319.99   15.99
  24  -7   1  335.06   15.84
  -7 -17   4  116.17   10.23
  -7 -17   4   94.20    9.74
 -17  24   4  104.02    9.25
  24  -7   4  112.46   10.05
  -7 -17   7  100.95    9.36
  -6 -18  -9  217.82   18.26
  -6 -18  -9  201.98   19.48
  24  -6  -9  189.42   18.05
 -18  24  -9  241.03   21.03
  -6 -18  -6  172.22   15.22
  -6 -18  -6  160.00   15.59
  24  -6  -6  145.99   14.56
 -18  24  -6  183.99   16.04
  -6 -18  -3  425.25   21.92
  -6 -18  -3  384.44   20.00
  24  -6  -3  435.36   20.25
 -18  24  -3  410.31   20.19
  -6 -18   0  324.70   18.04
 -18  24   0  293.47   15.06
  -6 -18   0  288.78   15.42
  24  -6   0  297.95   14.92
 -18  24   3  217.05   12.47
  -6 -18   3  194.64   13.69
  -6 -18   3  218.47   13.05
  24  -6   3  241.19   13.39
  -6 -18   6  315.82   15.71
  -6 -18   6  284.19   15.31
  -5 -19  -7  165.26   15.59
  -5 -19  -7  201.80   17.28
  24  -5  -7  200.26   17.01
 -19  24  -7  197.60   17.99
 -19  24  -4   41.78    8.29
  -5 -19  -4   33.06    8.23
  -5 -19  -4   46.49    9.37
  24  -5  -4   22.98    6.37
 -19  24  -1  216.49   13.85
  -5 -19  -1  243.22   16.32
  -5 -19  -1  249.21   15.09
  24  -5  -1  204.36   12.77
  -5 -19   2  407.76   19.37
  -5 -19   2  379.69   16.73
 -19  24   2  403.03   16.48
  24  -5   2  415.53   17.03
  24  -5   5  141.41   10.79
  -5 -19   5  126.01   10.74
  -5 -19   5  148.20   11.16
  -4 -20  -8  115.95   14.24
  -4 -20  -8  142.21   16.29
  24  -4  -8  157.44   16.66
 -20  24  -8  153.62   16.74
  -4 -20  -5  314.99   19.79
  -4 -20  -5  306.41   19.95
  24  -4  -5  313.42   19.49
 -20  24  -5  307.16   19.96
  -4 -20  -2   63.00    9.86
  -4 -20  -2   46.90    8.07
  24  -4  -2   63.03    8.39
 -20  24  -2   56.97    8.32
  -4 -20   1  268.46   16.41
 -20  24   1  270.69   14.00
  -4 -20   1  283.16   14.75
  24  -4   1  257.70   13.40
  -4 -20   4  181.83   12.91
  -4 -20   4  179.13   11.48
 -20  24   4  156.83   10.30
  24  -4   4  165.54   11.01
  -4 -20   7  231.90   13.26
  -3 -21  -9  119.53   14.75
  -3 -21  -9  150.97   17.67
  24  -3  -9  130.15   15.90
 -21  24  -9  142.21   17.24
  -3 -21  -6   88.42   11.77
  -3 -21  -6   67.84   11.43
  24  -3  -6   83.80   11.50
 -21  24  -6   74.41   11.69
  -3 -21  -3  147.84   14.02
  -3 -21  -3  133.27   12.22
  24  -3  -3  133.81   12.00
 -21  24  -3  137.45   12.59
 -21  24   0  504.50   19.58
  -3 -21   0  564.25   24.00
  -3 -21   0  543.55   20.95
  24  -3   0  553.85   19.87
  -3 -21   3   42.15    6.96
 -21  24   3   30.82    5.40
  -3 -21   3   48.11    6.66
  24  -3   3   32.34    5.59
  -3 -21   6  107.48    9.87
  -3 -21   6   93.32    8.33
  -2 -22  -7  341.13   22.02
  -2 -22  -7  396.99   25.04
  24  -2  -7  376.18   23.29
 -22  24  -7  356.68   23.57
  -2 -22  -4   90.01   11.32
  -2 -22  -4   91.41   11.49
  24  -2  -4   74.04    9.67
 -22  24  -4   70.42   10.32
  -2 -22  -1  510.91   23.52
  -2 -22  -1  490.48   20.74
 -22  24  -1  502.98   20.54
  -2 -22   2  145.64   12.33
 -22  24   2  131.85    9.35
  -2 -22   2  107.16    9.10
  24  -2   2  130.32    9.32
  -2 -22   5  238.31   14.46
  -2 -22   5  250.88   12.77
  -1 -23  -8  135.89   15.17
  -1 -23  -8  143.24   17.23
  24  -1  -8  124.69   15.59
 -23  24  -8  114.81   15.52
  -1 -23  -5  470.29   25.32
  -1 -23  -5  434.49   24.05
  24  -1  -5  459.33   23.50
 -23  24  -5  468.83   25.08
 -23  24  -2   24.38    6.65
  -1 -23  -2   32.30    7.24
  -1 -23  -2   38.26    7.48
  24  -1  -2   29.62    6.61
  -1 -23   1  516.20   23.24
 -23  24   1  556.73   19.26
  -1 -23   1  588.50   21.01
  24  -1   1  565.84   19.07
  -1 -23   4   69.43    9.29
  -1 -23   4   79.70    7.68
 -23  24   4   78.66    6.61
  24  -1   4   67.78    7.04
  -1 -23   7  205.39   12.59
   0 -24  -6   41.70    9.44
   0 -24  -6   36.15    9.43
  24   0  -6   28.52    8.88
 -24  24  -6   52.02   10.74
   0 -24  -3   -0.16    5.96
   0 -24  -3    0.10    5.04
  24   0  -3    1.35    5.00
 -24  24  -3    1.46    5.05
   0 -24   0  292.30   18.35
   0 -24   0  268.50   15.19
  24   0   0  253.58   13.64
 -24  24   0  264.22   14.49
   0 -24   3    1.96    4.72
 -24  24   3    4.82    3.62
   0 -24   3    2.08    3.93
  24   0   3   -0.97    3.72
   0 -24   6  216.00   13.83
   1 -25  -7  276.35   21.15
   1 -25  -7  249.74   20.87
 -25  24  -7  243.59   20.74
  24   1  -7  227.06   19.17
   1 -25  -4  152.47   14.91
   1 -25  -4  136.68   13.95
  24   1  -4  112.68   11.97
 -25  24  -4  110.37   12.87
   1 -25  -1  426.00   22.73
   1 -25  -1  430.31   20.06
  24   1  -1  417.88   18.23
 -25  24  -1  396.40   18.73
   1 -25   2  128.04   12.19
 -25  24   2  116.10    8.57
   1 -25   2  102.14    9.02
  24   1   2  106.49    8.28
   1 -25   5  142.19   11.98
   2 -26  -8   54.07   11.47
   2 -26  -8   49.77   12.02
  24   2  -8   48.00   11.17
 -26  24  -8   54.29   12.23
   2 -26  -5  256.06   19.56
   2 -26  -5  245.82   18.92
 -26  24  -5  202.85   17.44
  24   2  -5  209.04   16.74
   2 -26  -2   71.60   10.95
   2 -26  -2   72.80    9.53
  24   2  -2   51.32    7.98
 -26  24  -2   69.11    9.37
 -26  24   1  199.78   11.87
   2 -26   1  185.77   12.34
  24   2   1  200.05   11.50
   2 -26   4   99.23   10.89
   2 -26   4   98.62    7.96
   3 -27  -6  121.19   15.38
   3 -27  -6  106.41   14.64
 -27  24  -6   92.41   13.73
  24   3  -6  106.21   13.34
   3 -27  -3   14.48    7.84
   3 -27  -3   17.35    7.32
  24   3  -3   13.78    6.78
 -27  24  -3   16.51    7.03
   3 -27   0  184.19   15.79
   3 -27   0  207.33   13.95
  24   3   0  226.99   12.67
 -27  24   0  248.89   14.18
   3 -27   3   33.48    7.80
   3 -27   3   29.28    5.23
 -27  24   3   29.77    4.59
  24   3   3   30.65    4.64
   3 -27   6   76.19    9.19
   4 -28  -7  117.01   15.57
   4 -28  -7  128.35   16.82
 -28  24  -7  174.46   18.70
  24   4  -7  148.65   16.40
   4 -28  -4   42.56    9.81
  24   4  -4   49.21    9.03
   4 -28  -4   54.02   10.57
 -28  24  -4   40.02    8.60
   4 -28  -1  434.93   23.79
   4 -28  -1  461.13   21.40
  24   4  -1  478.61   19.67
 -28  24  -1  447.74   20.32
   4 -28   2   38.04    8.26
 -28  24   2   33.69    5.46
   4 -28   2   23.05    5.56
  24   4   2   41.32    5.51
   4 -28   5  222.36   15.44
   5 -29  -5    4.75    6.98
   5 -29  -5   -0.22    6.22
  24   5  -5   -4.17    6.93
 -29  24  -5   12.15    7.87
   5 -29  -2   83.79   12.23
   5 -29  -2   58.69    9.30
  24   5  -2   72.11    9.30
 -29  24  -2   82.98   10.81
   5 -29   1   -0.43    5.71
 -29  24   1    9.18    4.53
   5 -29   1    5.35    4.51
  24   5   1    1.56    3.42
   5 -29   4   72.91   10.01
   6 -30  -6   88.87   13.89
   6 -30  -6   86.63   13.82
 -30  24  -6  117.45   15.88
  24   6  -6   96.33   14.12
   6 -30  -3   98.36   12.33
 -30  24  -3  123.24   13.02
  24   6  -3   99.01   11.40
   6 -30   0  124.33   13.83
   6 -30   0  101.99   10.57
  24   6   0  107.43    9.20
 -30  24   0  111.14   10.20
   6 -30   3   87.68   11.60
   6 -30   6    6.75    5.51
   7 -31  -4  163.99   17.63
   7 -31  -4  155.69   16.04
 -31  24  -4  152.35   16.12
  24   7  -4  152.85   14.37
   7 -31  -1  229.64   18.81
   7 -31  -1  237.72   16.45
  24   7  -1  207.30   13.62
 -31  24  -1  203.80   14.88
   7 -31   2   63.36   10.71
   7 -31   2   55.06    7.12
   7 -31   5  259.68   17.39
   8 -32  -5   30.24    9.25
   8 -32  -5   14.93    9.27
  24   8  -5   15.75    8.03
 -32  24  -5   19.83    9.36
   8 -32  -2   62.35   12.04
   8 -32  -2   70.21   10.10
  24   8  -2   68.39    9.15
 -32  24  -2   45.28    8.84
 -32  24   1   43.98    6.43
   8 -32   1   56.14    8.33
   8 -32   4   41.32    8.92
   9 -33  -3  236.18   20.56
   9 -33  -3  219.33   17.92
 -33  24  -3  241.01   18.62
  24   9  -3  173.40   15.21
   9 -33   0   63.43   11.32
   9 -33   0   67.79    9.26
 -33  24   0   54.23    8.30
   9 -33   3  183.67   16.26
  10 -34  -4   74.54   13.57
  10 -34  -4   67.22   12.07
  24  10  -4   71.37   11.39
 -34  24  -4   57.10   11.55
  10 -34  -1  148.82   16.29
  10 -34  -1  104.10   12.06
  24  10  -1  105.73   10.14
 -34  24  -1  140.00   13.15
  10 -34   2  101.83   13.25
  11 -35  -2   23.33    9.39
  11 -35  -2   35.21    8.94
  24  11  -2   24.70    7.37
 -35  24  -2   30.25    8.40
  11 -35   1   55.28   11.54
  12 -36   0   27.00   10.08
  12 -36   0   24.41    7.60
 -36  11  -2    7.86    8.86
  25 -36  -2    4.74    8.47
  25 -36  -2    5.03    9.42
  25 -36  -2    6.64    8.15
 -36  11  -2    2.24    7.89
 -36  11  -2   19.49   10.09
  11  25  -2   30.73   12.62
 -36  11   1  274.18   24.27
  25 -36   1  239.29   22.57
  25 -36   1  255.42   21.12
 -36  11   1  262.81   22.97
  25 -35  -3    6.42    9.11
  25 -35  -3    1.01    9.01
  25 -35  -3   -9.53    9.28
 -35  10  -3    7.50    9.52
 -35  10  -3   -6.17    7.43
  10  25  -3   12.60    7.84
  10  25  -3   -5.92    9.56
 -35  10  -3   14.06    9.24
  25 -35   0  110.72   16.39
 -35  10   0   76.37   13.97
  25 -35   0  103.53   12.21
 -35  10   0  101.23   12.27
  10  25   0  104.98   15.69
  25 -35   3   27.45    9.80
  25 -34  -4   -1.05    8.46
 -34   9  -4   15.27   10.22
 -34   9  -4   25.29   10.68
   9  25  -4   17.11    9.47
   9  25  -4   27.64   11.20
 -34   9  -4   27.68   10.52
  25 -34  -4   17.87    8.74
  25 -34  -1   44.99   11.26
  25 -34  -1   67.53   11.13
 -34   9  -1   45.76   10.15
 -34   9  -1   29.14   10.78
   9  25  -1   46.36   11.95
   9  25  -1   46.23    8.58
 -34   9  -1   71.78   13.41
 -34   9   2    8.42    9.45
  25 -34   2   12.48    9.25
 -34   9   2   10.14    9.33
  25 -33  -5   96.73   15.10
 -33   8  -5  129.54   17.61
 -33   8  -5  118.65   15.71
   8  25  -5  126.60   16.72
   8  25  -5  107.98   15.51
 -33   8  -5  112.63   15.56
  25 -33  -5  140.99   16.27
  25 -33  -2   23.09    8.87
 -33   8  -2    7.66    7.71
 -33   8  -2   12.26    7.97
   8  25  -2   22.09    8.52
   8  25  -2   19.70   10.38
 -33   8  -2   19.63    9.89
  25 -33   1  151.94   17.66
  25 -33   1  165.19   13.45
 -33   8   1  176.02   14.19
 -33   8   1  185.21   18.99
   8  25   1  207.49   21.30
 -33   8   1  183.11   19.31
 -33   8   4   33.05   10.52
 -32   7  -3   43.88   10.96
 -32   7  -3   41.29   10.95
   7  25  -3   31.66   11.42
 -32   7  -3   32.02   10.05
  25 -32  -3   51.46   11.83
 -32   7   0  127.50   15.54
   7  25   0  124.09   16.94
 -32   7   0  146.57   17.29
  25 -32   0  126.65   15.60
 -32   7   3   39.82   12.43
  25 -32   3   66.25   14.07
 -32   7   3   35.51   10.07
   6  25  -4   63.48   11.76
 -31   6  -4  100.75   14.58
 -31   6  -4   88.89   13.77
  25 -31  -4   79.05   12.74
   6  25  -1   95.30   14.70
 -31   6  -1   80.66   13.11
 -31   6  -1  105.59   14.55
  25 -31  -1   67.70   12.52
 -31   6   2   32.04   10.61
  25 -31   2   32.87   10.06
   6  25   2   36.45   12.09
 -31   6   2   28.78    9.55
 -31   6   5   15.44    9.35
   5  25  -5  322.22   23.50
 -30   5  -5  305.56   22.72
 -30   5  -5  317.46   22.44
  25 -30  -5  273.58   20.98
 -30   5  -2  157.46   16.10
   5  25  -2  160.39   17.43
 -30   5  -2  183.26   18.14
  25 -30  -2  162.09   16.53
 -30   5   1  241.55   19.98
   5  25   1  184.50   18.51
 -30   5   1  181.18   18.35
  25 -30   1  217.68   19.50
 -30   5   4   59.62   13.50
 -30   5   4   69.17   12.27
 -29   4  -6   52.53   11.16
   4  25  -6   53.73   12.40
 -29   4  -6   53.22   10.92
  25 -29  -6   73.65   12.03
   4  25  -3  144.91   15.65
 -29   4  -3  137.25   15.15
 -29   4  -3  144.19   15.78
  25 -29  -3  124.38   14.56
 -29   4   0   90.67   12.41
 -29   4   0   85.55   13.07
   4  25   0   71.60   12.73
  25 -29   0   92.72   13.04
 -29   4   3   71.47   12.87
  25 -29   3   80.26   12.91
 -29   4   3   80.33   12.30
 -29   4   6   69.65   12.25
   3  25  -7   -2.89    7.61
 -28   3  -7    1.18    6.96
 -28   3  -7    6.74    7.47
  25 -28  -7    7.03    8.03
   3  25  -4  129.98   15.14
 -28   3  -4  125.01   14.52
 -28   3  -4  108.01   13.46
  25 -28  -4  110.95   13.74
 -28   3  -1   55.16   10.71
   3  25  -1   49.75   10.57
 -28   3  -1   39.71    9.33
  25 -28  -1   48.18    9.90
  25 -28   2  151.58   16.70
 -28   3   2  124.76   14.29
   3  25   2  184.07   18.32
 -28   3   2  155.01   17.05
 -28   3   5    5.25    6.75
 -27   2  -5  261.19   20.20
 -27   2  -5  293.08   20.65
  25 -27  -5  269.91   19.82
   2  25  -5  322.92   22.20
   2  25  -2  255.12   19.70
 -27   2  -2  197.45   16.98
 -27   2  -2  198.76   17.23
  25 -27  -2  209.78   17.47
   2  25   1  480.96   27.23
 -27   2   1  493.72   26.06
 -27   2   1  512.66   27.24
  25 -27   1  443.75   25.57
  25 -27   4  153.98   17.37
 -27   2   4  137.00   14.81
 -27   2   4  126.16   15.91
   1  25  -6   52.27   10.84
 -26   1  -6   41.55    9.76
 -26   1  -6   27.20    8.87
  25 -26  -6   53.62   10.41
   1  25  -3   82.53   11.73
 -26   1  -3   76.58   11.65
 -26   1  -3   84.87   12.05
  25 -26  -3   83.20   11.42
 -26   1   0  106.58   12.85
   1  25   0   77.65   12.58
 -26   1   0   87.03   12.35
  25 -26   0   95.77   12.55
  25 -26   3  121.95   15.01
 -26   1   3   68.78   11.70
   1  25   3  113.96   14.86
 -26   1   3   92.53   12.35
 -26   1   6   16.76    7.49
   0  25  -7   -8.58    7.88
 -25   0  -7   -1.43    7.12
 -25   0  -7    5.12    7.73
  25 -25  -7    1.50    6.53
 -25   0  -4  359.82   22.26
 -25   0  -4  392.60   22.56
  25 -25  -4  390.62   22.50
   0  25  -4  353.71   22.23
   0  25  -1    4.07    6.87
 -25   0  -1   -1.02    5.24
 -25   0  -1    0.47    6.44
  25 -25  -1   13.44    6.50
   0  25   2  273.59   20.21
 -25   0   2  239.00   17.81
 -25   0   2  228.36   18.38
  25 -25   2  236.87   18.53
 -25   0   5    2.67    7.68
 -25   0   5   -6.10    6.19
 -24  -1  -8  137.43   15.37
  -1  25  -8  166.41   17.40
 -24  -1  -8  152.57   15.79
  25 -24  -8  161.16   16.34
 -24  -1  -5  158.43   15.50
 -24  -1  -5  165.54   14.97
  -1  25  -5  132.74   14.77
  25 -24  -5  141.01   14.29
  -1  25  -2  124.36   13.69
 -24  -1  -2  119.83   13.22
 -24  -1  -2  115.41   12.92
  25 -24  -2  107.43   12.50
 -24  -1   1  407.30   22.62
  -1  25   1  376.99   22.53
 -24  -1   1  386.80   22.86
  25 -24   1  372.86   21.85
  25 -24   4  115.92   14.14
 -24  -1   4  158.59   14.83
  -1  25   4   88.00   13.67
 -24  -1   4  137.21   15.61
 -24  -1   7  275.68   19.04
 -23  -2  -6   59.58   10.57
  -2  25  -6   67.28   11.52
 -23  -2  -6   62.49   10.95
  25 -23  -6   62.75   10.95
 -23  -2  -3  299.28   19.66
 -23  -2  -3  247.89   17.72
  25 -23  -3  260.72   17.97
  -2  25   0    9.78    7.26
 -23  -2   0   10.70    5.73
 -23  -2   0   23.88    7.66
  25 -23   0    4.44    6.26
 -23  -2   3  197.11   15.85
  -2  25   3  188.72   17.07
  25 -23   3  192.19   17.05
 -23  -2   6   12.79    6.69
 -22  -3  -7   21.03    8.58
 -22  -3  -7   17.20    7.41
  -3  25  -7   17.26    8.80
  25 -22  -7   10.65    7.38
 -22  -3  -4  248.92   17.95
 -22  -3  -4  319.44   19.93
  -3  25  -4  278.98   19.18
  25 -22  -4  256.70   17.90
 -22  -3  -1   39.83    8.01
  -3  25  -1   46.19    9.36
 -22  -3  -1   52.09    9.28
  25 -22  -1   41.80    8.17
 -22  -3   2  175.90   14.78
 -22  -3   2  170.20   15.25
  -3  25   2  130.47   13.73
  25 -22   2  187.95   16.26
 -22  -3   5   24.17    8.98
  25 -22   5   11.39    6.90
 -22  -3   5    3.56    5.41
 -22  -3   8  175.79   15.11
 -21  -4  -8   44.28    9.62
 -21  -4  -8   37.06    9.20
  -4  25  -8   25.58    9.57
  25 -21  -8    8.66    7.34
 -21  -4  -5  264.73   18.45
  -4  25  -5  278.64   19.39
 -21  -4  -5  288.49   19.09
  25 -21  -5  319.46   20.01
  -4  25  -2   12.13    6.44
 -21  -4  -2   16.07    6.27
 -21  -4  -2   30.10    7.45
  25 -21  -2   20.33    6.55
 -21  -4   1  385.86   21.14
  -4  25   1  362.52   21.11
 -21  -4   1  391.99   21.84
  25 -21   1  383.12   21.46
  25 -21   4   65.29   10.35
 -21  -4   4   68.23   10.04
  -4  25   4   44.60    9.67
 -21  -4   4   75.21   11.28
 -21  -4   7  315.84   19.06
  -5  25  -9  117.67   15.16
 -20  -5  -9  109.64   13.97
 -20  -5  -9  119.88   14.75
  25 -20  -9  105.79   14.45
 -20  -5  -6   14.97    6.90
 -20  -5  -6   17.03    7.72
  -5  25  -6    8.20    7.06
  25 -20  -6    8.20    5.56
 -20  -5  -3  228.42   16.84
 -20  -5  -3  228.99   16.53
  -5  25  -3  170.25   14.96
  25 -20  -3  192.02   14.91
  -5  25   0  128.09   12.86
 -20  -5   0  118.87   12.15
 -20  -5   0  111.05   12.13
  25 -20   0  120.67   12.16
  -5  25   3  312.65   20.26
 -20  -5   3  305.56   18.55
 -20  -5   3  285.23   19.10
  25 -20   3  306.80   19.72
 -20  -5   6   59.88   11.57
 -20  -5   6   78.22   10.34
 -19  -6  -7   32.14    8.58
  -6  25  -7   35.60    8.93
 -19  -6  -7   23.72    8.45
  25 -19  -7   32.39    8.57
 -19  -6  -4  189.38   15.77
  -6  25  -4  170.21   14.85
 -19  -6  -4  156.69   13.88
  25 -19  -4  183.71   15.09
  -6  25  -1    6.21    6.24
 -19  -6  -1    6.28    5.99
 -19  -6  -1    7.23    5.97
  25 -19  -1    4.94    5.46
 -19  -6   2  344.28   19.19
  -6  25   2  310.89   18.96
 -19  -6   2  337.95   19.98
  25 -19   2  373.06   20.61
 -19  -6   5   14.53    7.16
  25 -19   5   14.03    6.69
 -19  -6   5   16.62    6.15
 -19  -6   8  215.24   15.48
  -7  25  -8   75.22   12.42
 -18  -7  -8   66.53   10.81
 -18  -7  -8   53.41   11.07
  25 -18  -8   81.64   12.22
  -7  25  -5  344.11   20.55
 -18  -7  -5  290.75   19.04
 -18  -7  -5  355.71   20.85
  25 -18  -5  315.30   19.57
 -18  -7  -2   11.44    6.29
 -18  -7  -2   15.77    6.98
  25 -18  -2   19.92    6.63
  -7  25  -2   20.00    7.16
  -7  25   1  101.35   11.12
 -18  -7   1  102.55   11.05
 -18  -7   1  105.97   11.48
  25 -18   1   81.97   10.50
  25 -18   4    8.77    6.48
 -18  -7   4   29.04    7.08
  -7  25   4   24.29    8.01
 -18  -7   4   22.46    8.22
 -18  -7   7   80.09    9.90
  -8  25  -9  294.72   22.63
 -17  -8  -9  287.71   20.39
 -17  -8  -9  261.66   20.68
  25 -17  -9  324.69   22.53
  -8  25  -6  153.56   14.73
 -17  -8  -6  170.45   15.50
 -17  -8  -6  162.60   15.31
  25 -17  -6  174.26   15.42
 -17  -8  -3  280.66   17.99
  -8  25  -3  270.75   17.66
 -17  -8  -3  274.34   17.61
  25 -17  -3  273.42   17.39
 -17  -8   0  299.39   18.12
 -17  -8   0  294.62   17.65
  25 -17   0  259.56   16.12
  -8  25   0  261.30   16.46
 -17  -8   3  356.73   19.18
 -17  -8   3  341.79   19.71
  -8  25   3  392.15   20.87
  25 -17   3  386.72   20.64
 -17  -8   6   68.70   10.73
 -17  -8   6   55.58    8.74
 -16  -9  -7   22.15    7.55
  -9  25  -7   16.40    8.10
 -16  -9  -7   10.66    6.65
  25 -16  -7   24.54    7.42
  -9  25  -4  140.74   13.75
 -16  -9  -4  154.36   13.79
 -16  -9  -4  125.34   12.41
  25 -16  -4  137.93   13.05
 -16  -9  -1  170.07   14.11
 -16  -9  -1  168.69   13.68
  -9  25  -1  148.62   12.64
  25 -16  -1  134.86   12.08
 -16  -9   2  312.39   17.96
  -9  25   2  284.30   16.96
 -16  -9   2  321.11   18.43
  25 -16   2  309.67   17.87
 -16  -9   5   47.24    9.15
  25 -16   5   40.71    8.85
 -16  -9   5   35.56    7.58
 -16  -9   8  107.43   10.60
 -10  25  -8   48.07   10.62
 -15 -10  -8   33.10    8.59
 -15 -10  -8   35.52    9.34
  25 -15  -8   24.37    8.06
 -10  25  -5   85.02   11.22
 -15 -10  -5  146.47   13.92
 -15 -10  -5  145.46   13.63
  25 -15  -5  106.45   12.12
 -15 -10  -2    4.81    5.10
 -15 -10  -2   13.61    6.03
 -10  25  -2    8.78    5.46
  25 -15  -2   10.90    5.78
 -15 -10   1  103.87   10.74
 -15 -10   1   70.18    9.15
  25 -15   1   89.33   10.01
 -10  25   1   87.86   10.12
 -15 -10   4   89.38   10.06
 -10  25   4  114.52   12.08
 -15 -10   4  115.40   12.00
  25 -15   4  114.14   11.95
 -15 -10   7   34.58    6.97
 -11  25  -9  379.13   25.60
 -14 -11  -9  366.95   22.74
 -14 -11  -9  333.32   23.10
  25 -14  -9  388.48   25.10
 -11  25  -6  159.10   15.36
 -14 -11  -6  183.61   15.53
 -14 -11  -6  183.66   15.70
  25 -14  -6  156.12   14.91
 -11  25  -3  595.75   24.84
 -14 -11  -3  607.33   25.77
 -14 -11  -3  645.42   25.85
  25 -14  -3  634.82   24.98
 -14 -11   0   91.69   10.16
 -14 -11   0   74.54    9.20
 -11  25   0  110.60   10.93
  25 -14   0  103.22   10.36
 -14 -11   3  360.06   18.64
 -11  25   3  400.54   19.99
 -14 -11   3  355.09   19.07
  25 -14   3  389.11   19.75
 -14 -11   6   74.42    9.23
 -14 -11   6   87.03   11.03
 -12  25  -7   71.99   11.33
 -13 -12  -7   60.32    9.86
 -13 -12  -7   75.31   11.65
  25 -13  -7   61.21   10.68
 -12  25  -4  109.16   11.82
 -13 -12  -4  121.10   12.51
 -13 -12  -4  119.23   12.44
  25 -13  -4  141.80   12.81
 -13 -12  -1    3.42    4.75
 -13 -12  -1   10.98    5.56
 -12  25  -1   17.72    5.81
  25 -13  -1   15.15    5.51
 -12  25   2  191.81   13.69
 -13 -12   2  201.53   14.01
 -13 -12   2  206.20   14.10
  25 -13   2  219.90   14.65
 -13 -12   5    1.16    5.09
  25 -13   5    3.96    5.61
 -12  25   5   -9.38    5.90
 -13 -12   5    6.35    5.14
 -13 -12   8   57.26    8.01
 -13  25  -8   34.55    9.73
 -12 -13  -8   20.43    7.60
 -12 -13  -8   26.19    8.66
  25 -12  -8   14.75    8.50
 -13  25  -5    0.96    6.37
 -12 -13  -5    6.80    7.08
 -12 -13  -5   -7.69    5.90
  25 -12  -5   -3.74    6.05
 -13  25  -2  193.82   14.18
 -12 -13  -2  157.87   13.46
 -12 -13  -2  177.50   13.45
  25 -12  -2  192.76   13.70
 -13  25   1   12.37    4.99
 -12 -13   1   21.42    6.63
 -12 -13   1    7.70    4.75
  25 -12   1   14.82    5.41
 -13  25   4   79.72   10.02
 -12 -13   4   66.36    8.70
 -12 -13   4   97.27   10.71
  25 -12   4   74.15    9.54
 -12 -13   7   26.18    6.21
 -11 -14  -9  214.16   17.99
 -11 -14  -9  240.88   20.36
  25 -11  -9  252.28   21.28
 -14  25  -9  192.50   19.02
 -11 -14  -6  195.50   16.03
 -11 -14  -6  191.83   16.07
  25 -11  -6  199.00   15.89
 -14  25  -6  201.20   16.86
 -14  25  -3  332.91   18.88
 -11 -14  -3  349.69   19.89
 -11 -14  -3  361.44   19.55
  25 -11  -3  391.06   19.83
 -11 -14   0  126.29   11.76
 -14  25   0  133.07   11.52
 -11 -14   0  123.37   11.11
  25 -11   0  133.56   11.06
 -11 -14   3  853.22   27.93
 -14  25   3  779.96   25.80
 -11 -14   3  853.07   27.33
  25 -11   3  809.76   26.84
 -11 -14   6  106.56   10.25
 -11 -14   6  117.97   12.18
 -15  25  -7   35.47    9.37
 -10 -15  -7   28.78    8.54
 -10 -15  -7   39.50    9.37
  25 -10  -7   23.83    8.17
 -15  25  -4  168.83   14.45
 -10 -15  -4  156.13   14.16
 -10 -15  -4  154.90   13.59
  25 -10  -4  172.46   14.10
 -10 -15  -1  142.00   12.82
 -15  25  -1  143.84   11.81
 -10 -15  -1  137.74   11.86
  25 -10  -1  150.40   11.81
 -10 -15   2   11.46    5.62
 -15  25   2   16.19    5.29
 -10 -15   2   16.12    5.44
  25 -10   2    7.78    4.86
  25 -10   5  135.80   12.17
 -10 -15   5  117.47   10.63
 -15  25   5  119.49   11.27
 -10 -15   5  117.89   11.52
  -9 -16  -8   97.82   12.84
  -9 -16  -8  109.27   14.26
  25  -9  -8   88.25   13.04
 -16  25  -8  104.68   13.83
 -16  25  -5   18.16    7.76
  -9 -16  -5   17.33    7.00
  -9 -16  -5   10.78    5.93
  25  -9  -5   25.46    7.64
 -16  25  -2  257.92   15.96
  -9 -16  -2  259.27   17.02
  -9 -16  -2  214.10   14.88
  25  -9  -2  233.38   14.86
  -9 -16   1  110.84   10.94
  -9 -16   1  104.76   10.14
 -16  25   1   82.07    8.61
  25  -9   1  110.23    9.89
  -9 -16   4   90.92    9.70
  -9 -16   4   73.44    9.05
 -16  25   4   85.26    9.21
  25  -9   4   86.72    9.67
  -9 -16   7   16.02    5.50
  -8 -17  -9  217.77   18.17
  -8 -17  -9  211.58   19.14
  25  -8  -9  175.21   17.92
 -17  25  -9  172.22   18.76
  -8 -17  -6   83.12   11.65
  -8 -17  -6   61.31   10.04
  25  -8  -6   77.76   11.24
 -17  25  -3  454.78   21.74
  -8 -17  -3  438.60   22.32
  -8 -17  -3  464.53   21.98
  25  -8  -3  398.64   19.63
  -8 -17   0  252.26   16.41
 -17  25   0  259.19   14.90
  -8 -17   0  266.22   15.43
  25  -8   0  263.96   15.05
 -17  25   3  263.84   14.54
  -8 -17   3  220.99   14.62
  -8 -17   3  228.22   13.85
  25  -8   3  243.14   14.32
  -8 -17   6   62.69    8.13
  -8 -17   6   65.53    8.97
  -7 -18  -7   62.43   10.12
  -7 -18  -7  104.06   13.82
  25  -7  -7   97.58   12.49
 -18  25  -7   79.24   11.86
  -7 -18  -4   89.08   11.27
  -7 -18  -4   64.09    9.60
  25  -7  -4   97.54   10.99
 -18  25  -4   93.62   11.22
 -18  25  -1   77.35    8.96
  -7 -18  -1   84.08   10.59
  -7 -18  -1   66.25    8.53
  25  -7  -1   74.91    8.67
  -7 -18   2   42.75    7.83
  -7 -18   2   37.61    6.62
 -18  25   2   47.43    7.20
  25  -7   2   41.19    6.80
  25  -7   5  307.84   16.33
  -7 -18   5  302.21   16.27
 -18  25   5  266.68   14.65
  -7 -18   5  289.96   15.91
  -6 -19  -8  267.37   20.08
  -6 -19  -8  240.57   20.40
  25  -6  -8  251.74   20.36
 -19  25  -8  255.24   21.33
 -19  25  -5    1.32    5.68
  -6 -19  -5    4.33    6.06
  -6 -19  -5   -4.26    6.05
 -19  25  -2  292.31   17.12
  -6 -19  -2  284.37   18.04
  -6 -19  -2  290.41   17.17
  25  -6  -2  272.66   15.88
  -6 -19   1   15.30    6.04
  -6 -19   1    2.27    4.33
 -19  25   1   13.67    4.65
  25  -6   1   15.67    5.24
  -6 -19   4  172.80   12.77
  -6 -19   4  180.82   12.59
 -19  25   4  153.46   10.89
  25  -6   4  173.11   12.10
  -6 -19   7   20.82    5.58
  -5 -20  -9  163.59   16.91
  -5 -20  -9  153.81   18.28
  25  -5  -9  155.42   17.33
 -20  25  -9  134.36   17.06
  -5 -20  -6   90.69   12.14
  -5 -20  -6   93.18   12.15
  25  -5  -6  119.49   13.77
 -20  25  -6   85.87   12.46
  -5 -20  -3  283.12   18.73
  25  -5  -3  276.06   16.66
 -20  25  -3  264.34   16.82
 -20  25   0  120.24   10.38
  -5 -20   0  148.93   13.30
  -5 -20   0  124.67   10.83
  25  -5   0  125.86   10.08
 -20  25   3  271.81   13.82
  -5 -20   3  320.66   17.41
  -5 -20   3  282.85   14.70
  25  -5   3  304.74   15.10
  -5 -20   6   10.74    5.00
  -5 -20   6   16.22    5.58
  -4 -21  -7  259.58   19.93
  -4 -21  -7  258.28   20.17
  25  -4  -7  257.81   19.51
 -21  25  -7  302.45   22.18
  -4 -21  -4   99.15   12.19
  -4 -21  -4  109.02   12.32
  25  -4  -4  121.13   12.48
 -21  25  -4   94.75   11.24
 -21  25  -1  371.91   18.24
  -4 -21  -1  403.08   21.28
  -4 -21  -1  426.46   19.73
  25  -4  -1  416.61   18.73
 -21  25   2   21.30    4.96
  -4 -21   2   35.41    7.34
  -4 -21   2   34.05    6.11
  25  -4   2   33.17    5.84
  25  -4   5  287.81   14.84
  -4 -21   5  285.65   16.16
  -4 -21   5  284.73   14.93
  -3 -22  -8  131.36   15.01
  -3 -22  -8  158.30   17.33
  25  -3  -8  157.61   17.41
 -22  25  -8  169.98   18.41
  -3 -22  -5   -4.15    6.94
  -3 -22  -5    5.90    6.50
  25  -3  -5    6.77    6.86
 -22  25  -5    8.33    6.61
  -3 -22  -2  156.42   14.24
  -3 -22  -2  149.82   12.81
  25  -3  -2  146.85   12.06
 -22  25  -2  148.85   12.59
  -3 -22   1   29.91    7.16
  -3 -22   1    9.61    4.46
 -22  25   1   14.73    4.82
  25  -3   1   25.79    5.92
  -3 -22   4  336.30   17.89
  -3 -22   4  349.39   15.93
 -22  25   4  319.26   14.27
  25  -3   4  328.41   14.98
  -3 -22   7   14.87    5.18
  -2 -23  -6    5.28    6.38
  -2 -23  -6   13.19    7.78
  25  -2  -6    0.46    6.47
 -23  25  -6    2.79    7.75
  -2 -23  -3  201.87   16.78
  -2 -23  -3  214.31   15.99
  25  -2  -3  219.82   15.46
 -23  25  -3  225.62   16.05
  -2 -23   0   16.51    6.57
 -23  25   0   18.32    5.31
  -2 -23   0   14.41    5.55
  25  -2   0   31.56    6.07
  -2 -23   3  195.35   14.33
  -2 -23   3  202.38   12.40
  25  -2   3  194.51   11.80
 -23  25   3  210.09   11.51
  -2 -23   6   52.78    7.69
  -1 -24  -7  260.12   20.73
  -1 -24  -7  248.62   20.65
  25  -1  -7  287.45   21.35
 -24  25  -7  279.40   22.16
  -1 -24  -4  131.60   13.90
  -1 -24  -4  124.14   13.20
  25  -1  -4  150.47   13.69
 -24  25  -4  132.94   13.67
  -1 -24  -1  359.31   20.83
  -1 -24  -1  412.50   20.05
  25  -1  -1  409.90   18.30
 -24  25  -1  408.36   19.17
  -1 -24   2  114.25   11.73
 -24  25   2  111.57    8.78
  -1 -24   2   93.96    8.51
  25  -1   2   99.90    8.64
  -1 -24   5  213.06   14.51
  -1 -24   5  173.20   10.87
   0 -25  -8  136.92   16.14
   0 -25  -8  150.57   17.36
  25   0  -8  120.04   15.50
 -25  25  -8  139.92   17.09
   0 -25  -5    8.33    8.31
   0 -25  -5    1.16    7.20
  25   0  -5    4.84    6.62
 -25  25  -5   10.11    7.23
   0 -25  -2  254.81   18.69
   0 -25  -2  254.18   16.66
  25   0  -2  240.41   15.12
 -25  25  -2  260.15   16.73
   0 -25   1    1.18    5.63
 -25  25   1    5.95    3.90
   0 -25   1   -2.79    4.57
  25   0   1    9.28    4.31
   0 -25   4  370.04   19.39
   0 -25   4  380.54   15.66
  25   0   4  372.09   13.93
   1 -26  -6   25.31    8.61
   1 -26  -6   40.74   10.69
  25   1  -6   19.07    7.72
 -26  25  -6   29.85    9.63
   1 -26  -3  140.67   14.51
   1 -26  -3  128.56   13.32
  25   1  -3  118.33   11.94
 -26  25  -3  111.97   12.54
   1 -26   0  108.69   12.65
   1 -26   0  102.70   10.44
  25   1   0   97.01    9.33
 -26  25   0   98.68    9.58
   1 -26   3   89.07   10.50
   1 -26   3   83.37    8.25
 -26  25   3   79.59    7.22
  25   1   3   77.07    7.05
   1 -26   6   20.94    5.93
   2 -27  -7  183.89   18.31
   2 -27  -7  217.62   20.20
 -27  25  -7  191.92   19.37
  25   2  -7  194.42   18.36
   2 -27  -4  115.31   13.74
   2 -27  -4  145.60   14.59
  25   2  -4  106.20   12.38
 -27  25  -4  134.75   14.29
   2 -27  -1  422.13   23.70
   2 -27  -1  407.58   20.26
  25   2  -1  395.93   18.21
 -27  25  -1  415.97   19.63
   2 -27   2  181.31   14.78
 -27  25   2  159.23   10.21
   2 -27   2  185.89   12.15
  25   2   2  181.04   10.51
   2 -27   5  361.00   19.31
   3 -28  -5   15.64    7.80
   3 -28  -5   26.39    8.96
  25   3  -5   25.28    8.14
 -28  25  -5   29.03    9.44
   3 -28  -2  146.86   15.29
   3 -28  -2  152.49   13.68
  25   3  -2  116.56   11.31
 -28  25  -2  121.14   12.09
   3 -28   1   44.02    8.86
 -28  25   1   34.78    6.14
   3 -28   1   44.36    7.44
  25   3   1   45.04    6.36
   3 -28   4  120.20   12.26
   4 -29  -6   75.80   13.25
   4 -29  -6   78.95   13.21
  25   4  -6   54.84   11.08
 -29  25  -6   60.69   12.31
   4 -29  -3   85.05   12.49
   4 -29  -3   93.14   11.69
  25   4  -3  102.18   11.25
 -29  25  -3  103.62   12.19
   4 -29   0  119.25   13.69
   4 -29   0   97.52   10.74
  25   4   0  104.73    9.22
 -29  25   0  105.85   10.51
   4 -29   3  127.11   13.37
   4 -29   3   99.15    8.46
   4 -29   6   29.03    6.87
   5 -30  -4   44.73   10.59
   5 -30  -4   46.61    9.75
 -30  25  -4   66.28   11.63
  25   5  -4   57.11   10.05
   5 -30  -1  250.92   19.34
   5 -30  -1  226.86   15.86
  25   5  -1  264.27   15.35
 -30  25  -1  236.26   15.58
   5 -30   2  172.70   15.69
   5 -30   2  136.55   10.66
   5 -30   5  324.72   19.47
   6 -31  -5    8.49    8.42
   6 -31  -5   14.14    7.85
  25   6  -5   15.33    7.49
 -31  25  -5   12.28    8.85
   6 -31  -2   52.70   11.35
   6 -31  -2   46.36    9.29
  25   6  -2   40.64    7.81
 -31  25  -2   50.93    9.43
 -31  25   1   80.17    8.32
   6 -31   1   74.29   11.52
   6 -31   1   70.26    8.83
   6 -31   4   40.34    8.72
   7 -32  -3   45.96   11.53
   7 -32  -3   31.51    9.16
  25   7  -3   29.19    7.99
 -32  25  -3   33.05    8.72
   7 -32   0  118.00   14.40
   7 -32   0  124.67   11.70
  25   7   0  112.83    9.57
 -32  25   0  125.27   11.20
   7 -32   3   41.06    9.20
   8 -33  -4   27.01   10.11
   8 -33  -4   25.51    9.29
  25   8  -4   40.26    9.08
 -33  25  -4   42.74   10.22
   8 -33  -1  219.16   19.19
   8 -33  -1  208.35   15.98
  25   8  -1  187.95   13.17
 -33  25  -1  172.66   14.17
   8 -33   2   30.61    9.14
   8 -33   5   97.82   12.19
   9 -34  -2   17.18    8.49
   9 -34  -2   17.64    7.84
  25   9  -2   26.22    7.22
 -34  25  -2   25.30    8.07
   9 -34   1   63.90   11.62
   9 -34   1   31.11    6.88
   9 -34   4   24.33    8.58
  10 -35  -3   31.43   10.82
  10 -35  -3   11.49    7.73
  25  10  -3   26.80    7.90
 -35  25  -3   22.78    9.06
  10 -35   0   98.88   13.98
  10 -35   0   80.65   10.80
  10 -35   3   -2.81    6.75
  11 -36  -1  196.41   19.31
  11 -36  -1  178.88   15.73
  11 -36   2    9.22    8.21
 -36  10  -1    8.88   10.31
  26 -36  -1   16.14   10.58
  26 -36  -1   -0.14    7.06
 -36  10  -1    3.52    7.73
 -36  10  -1   19.20   10.01
  10  26  -1   10.06   11.40
  26 -35  -2  153.58   16.63
 -35   9  -2  146.47   16.52
   9  26  -2  170.99   20.09
 -35   9  -2  149.78   17.61
   9  26  -2  149.97   14.84
 -35   9  -2  148.76   18.01
  26 -35  -2  164.46   18.60
 -35   9   1   36.22   12.12
  26 -35   1   59.52   14.09
 -35   9   1   38.98   10.43
  26 -34  -3   96.99   14.45
 -34   8  -3  113.77   15.41
 -34   8  -3  148.40   17.48
   8  26  -3   95.11   13.53
 -34   8  -3  110.31   16.34
   8  26  -3  121.60   16.91
  26 -34  -3  123.13   15.73
 -34   8   0   33.02   10.47
  26 -34   0   31.39   11.37
  26 -34   0   48.21    9.97
 -34   8   0   45.26    9.67
 -34   8   0   44.42   12.15
   8  26   0   67.38   14.86
 -34   8   3   11.12    9.56
 -34   8   3   18.87    9.49
 -33   7  -4   29.72   10.01
 -33   7  -4   39.87   10.12
   7  26  -4   67.68   12.62
   7  26  -4   80.14   13.98
 -33   7  -4   69.27   13.28
  26 -33  -4   76.91   13.19
  26 -33  -1   25.58   10.54
   7  26  -1   12.91    9.89
 -33   7  -1   15.63    8.82
 -33   7  -1   26.26   10.16
 -33   7   2    7.14    7.78
  26 -33   2   29.85   11.65
 -33   7   2   26.29    9.12
   6  26  -5   49.47   12.49
 -32   6  -5   18.77   10.91
 -32   6  -5   29.31    9.81
 -32   6  -5   25.64   10.06
  26 -32  -5   11.02    8.16
 -32   6  -2  109.43   14.19
 -32   6  -2  105.84   15.17
   6  26  -2   96.20   15.13
  26 -32  -2  121.73   15.44
   6  26   1   53.46   12.33
 -32   6   1   23.23    9.26
  26 -32   1   28.48   10.77
 -32   6   1   44.70   10.57
 -32   6   4  256.40   21.36
 -31   5  -6   99.58   16.91
   5  26  -6  122.23   15.96
 -31   5  -6   92.05   14.04
 -31   5  -6   77.72   13.37
  26 -31  -6   56.03   12.18
 -31   5  -3  139.35   15.83
   5  26  -3  199.05   19.00
 -31   5  -3  152.59   16.48
  26 -31  -3  182.26   17.79
  26 -31   0   28.02    9.45
   5  26   0   32.18   10.99
 -31   5   0   38.09   10.15
 -31   5   0   33.06   11.02
 -31   5   3   70.75   13.75
  26 -31   3   41.32   12.32
 -31   5   3   37.30    9.68
 -30   4  -4    8.35    7.21
 -30   4  -4    7.20    7.13
  26 -30  -4   17.20    8.31
   4  26  -4   21.86    9.26
 -30   4  -1  105.57   13.72
   4  26  -1  103.36   14.95
 -30   4  -1   84.94   13.48
  26 -30  -1  135.42   15.87
 -30   4   2   17.76    9.64
  26 -30   2    5.33    8.22
   4  26   2   14.29    9.56
 -30   4   2   11.76    8.64
 -30   4   5   16.53    8.21
 -29   3  -5   24.06    8.47
   3  26  -5   23.27    8.51
 -29   3  -5   32.42    9.12
  26 -29  -5   23.08    8.20
 -29   3  -2  487.72   27.09
   3  26  -2  458.47   26.94
 -29   3  -2  463.55   26.86
  26 -29  -2  407.17   24.68
  26 -29   1   -2.11    6.68
   3  26   1   -9.02    8.17
 -29   3   1   -4.73    6.93
 -29   3   1    3.79    6.76
 -29   3   4  307.53   25.04
  26 -29   4  320.73   24.56
 -29   3   4  288.36   21.56
   2  26  -6   18.53    8.94
 -28   2  -6   44.34   10.53
 -28   2  -6   18.14    8.80
  26 -28  -6   15.29    8.29
   2  26  -3  182.44   17.38
 -28   2  -3  182.03   17.24
 -28   2  -3  205.56   17.92
  26 -28  -3  184.82   17.05
  26 -28   0   39.52   10.14
   2  26   0   25.95    8.90
 -28   2   0   50.65    9.62
 -28   2   0   20.12    8.59
  26 -28   3  179.14   18.47
 -28   2   3  193.52   17.49
   2  26   3  159.49   18.04
 -28   2   3  190.89   18.76
 -28   2   6   33.09   10.05
   1  26  -7   29.43    9.84
 -27   1  -7   23.68    9.09
 -27   1  -7   26.39    8.96
  26 -27  -7   32.78    9.73
 -27   1  -4   26.12    8.19
   1  26  -4   52.40   11.22
 -27   1  -4   13.58    7.36
  26 -27  -4   50.07   10.03
 -27   1  -1  145.90   15.07
   1  26  -1  145.01   15.99
 -27   1  -1  160.06   15.73
  26 -27  -1  133.83   14.74
 -27   1   2   88.95   12.45
   1  26   2   88.52   13.04
 -27   1   2   96.67   13.37
  26 -27   2   77.91   12.10
 -27   1   5  132.70   16.96
 -27   1   5  123.70   14.39
   0  26  -5   11.50    7.58
 -26   0  -5    7.52    7.72
 -26   0  -5   18.17    8.23
  26 -26  -5    4.70    6.45
   0  26  -2  604.59   28.88
 -26   0  -2  610.18   28.74
 -26   0  -2  638.77   29.19
  26 -26  -2  629.13   28.82
  26 -26   1    1.81    5.86
 -26   0   1   -5.73    5.84
   0  26   1   -2.08    7.01
 -26   0   1   -5.17    7.08
 -26   0   4  654.71   29.93
 -26   0   4  595.43   31.07
 -26   0   7    0.53    6.70
  -1  26  -6   36.49    9.92
 -25  -1  -6   19.97    8.13
 -25  -1  -6   28.67    9.06
  26 -25  -6   32.99    8.28
 -25  -1  -3   96.21   12.76
 -25  -1  -3   74.40   11.38
  26 -25  -3  110.57   12.95
  -1  26  -3   95.27   12.59
 -25  -1   0  107.60   12.99
  -1  26   0  104.68   13.19
 -25  -1   0   96.90   12.54
  26 -25   0   87.63   11.97
  26 -25   3  123.63   14.77
 -25  -1   3  133.70   14.04
 -25  -1   3  154.56   16.15
  -1  26   3  107.51   13.93
 -25  -1   6   27.11    8.50
 -24  -2  -7   82.33   12.33
 -24  -2  -7   82.70   12.42
  26 -24  -7   67.90   11.51
  -2  26  -7   82.02   12.63
 -24  -2  -4   99.74   12.63
 -24  -2  -4   88.28   12.05
  -2  26  -4  107.59   13.27
  26 -24  -4   92.73   12.38
  -2  26  -1  197.33   16.69
 -24  -2  -1  169.19   15.83
 -24  -2  -1  185.46   16.31
  26 -24  -1  202.21   16.66
  26 -24   2   39.48    9.47
 -24  -2   2   55.28    9.94
 -24  -2   2   60.76   11.13
  -2  26   2   37.47    9.56
  26 -24   5  228.72   20.52
 -24  -2   5  245.37   18.65
 -24  -2   5  225.27   19.98
 -23  -3  -8  271.46   20.73
  -3  26  -8  254.88   20.78
 -23  -3  -8  305.64   21.99
  26 -23  -8  333.97   23.07
 -23  -3  -5   23.83    8.14
 -23  -3  -5   16.73    8.00
  26 -23  -5   36.54    8.84
  -3  26  -5   22.56    8.11
 -23  -3  -2  404.89   22.33
 -23  -3  -2  427.48   23.25
  26 -23  -2  373.69   21.19
  -3  26  -2  420.95   23.43
 -23  -3   1   28.27    7.82
  -3  26   1   30.22    8.47
 -23  -3   1   23.77    8.00
  26 -23   1   31.82    7.91
  26 -23   4  383.03   24.34
 -23  -3   4  480.26   23.96
  -3  26   4  434.64   26.03
 -23  -3   4  419.97   24.95
 -23  -3   7   14.44    7.76
 -22  -4  -6   48.40   10.20
 -22  -4  -6   46.54    9.45
  -4  26  -6   24.74    8.43
  26 -22  -6   56.59   10.79
 -22  -4  -3  105.08   12.84
 -22  -4  -3  103.54   12.27
  -4  26  -3   91.93   11.95
  26 -22  -3   76.70   11.12
  -4  26   0  305.60   19.52
 -22  -4   0  349.03   20.86
 -22  -4   0  281.33   18.92
  26 -22   0  303.70   19.26
 -22  -4   3   94.90   11.73
  -4  26   3   74.55   11.84
 -22  -4   3   80.34   11.78
  26 -22   3   91.27   12.75
 -22  -4   6  119.61   14.90
 -22  -4   6  126.30   13.31
 -21  -5  -7   70.37   11.15
 -21  -5  -7   60.48   11.54
  -5  26  -7   60.88   11.53
  26 -21  -7   33.84    8.73
 -21  -5  -4   58.64   10.51
 -21  -5  -4   50.81    9.38
  26 -21  -4   41.05    8.76
  -5  26  -4   47.47    9.67
 -21  -5  -1   58.91   10.02
  -5  26  -1   45.71    9.09
 -21  -5  -1   62.79    9.60
  26 -21  -1   40.37    8.29
  26 -21   2   36.75    8.50
  -5  26   2   27.60    7.85
 -21  -5   2   33.60    7.85
 -21  -5   2   51.03    9.27
  26 -21   5  172.54   17.11
 -21  -5   5  197.93   15.32
 -21  -5   5  218.82   18.52
 -21  -5   8   94.33   11.51
 -20  -6  -8   87.91   12.97
  -6  26  -8   68.58   12.72
 -20  -6  -8   50.32   10.69
  26 -20  -8   63.27   11.81
 -20  -6  -5   72.65   10.89
 -20  -6  -5   49.08    9.13
  -6  26  -5   56.50   10.64
  26 -20  -5   57.58   10.17
 -20  -6  -2  375.30   21.42
 -20  -6  -2  357.76   20.79
  -6  26  -2  346.18   20.33
  26 -20  -2  346.54   19.82
  -6  26   1   48.97    8.49
 -20  -6   1   48.82    8.90
 -20  -6   1   53.34    9.05
  26 -20   1   54.24    8.91
  26 -20   4  146.87   14.78
  -6  26   4  163.71   15.57
 -20  -6   4  133.17   12.88
 -20  -6   4  150.32   14.92
 -20  -6   7   36.60    8.28
 -19  -7  -9   42.69   10.47
  -7  26  -9   30.05   10.12
 -19  -7  -9   30.28    9.55
  26 -19  -9   21.55    8.28
  -7  26  -6  586.77   28.40
 -19  -7  -6  563.63   26.95
 -19  -7  -6  571.31   27.41
  26 -19  -6  525.81   26.03
 -19  -7  -3   29.71    7.37
 -19  -7  -3   47.07    8.42
  26 -19  -3   47.16    8.22
  -7  26  -3   29.96    7.97
 -19  -7   0  390.48   21.05
 -19  -7   0  415.80   21.54
  26 -19   0  371.04   20.12
  -7  26   0  376.21   20.40
  -7  26   3  106.69   12.53
 -19  -7   3  134.78   12.91
 -19  -7   3  118.76   13.34
  26 -19   3  111.30   12.73
 -19  -7   6  368.00   23.56
 -19  -7   6  332.97   19.20
  -8  26  -7   99.68   13.08
 -18  -8  -7  115.43   13.07
 -18  -8  -7  119.63   14.06
  26 -18  -7  130.01   14.65
 -18  -8  -4   43.46    9.05
 -18  -8  -4   35.61    8.04
  -8  26  -4   31.38    8.30
  26 -18  -4   52.14    9.02
 -18  -8  -1   83.22   10.67
 -18  -8  -1   88.32   11.14
  -8  26  -1  113.48   11.80
  26 -18  -1  103.01   11.32
 -18  -8   2  225.82   15.94
  -8  26   2  244.31   16.92
 -18  -8   2  211.30   15.85
  26 -18   2  197.68   15.23
  26 -18   5   89.10   12.19
 -18  -8   5  119.32   11.87
 -18  -8   5  114.37   13.48
 -18  -8   8   11.87    6.43
 -17  -9  -8   27.62    8.56
  -9  26  -8   16.02    8.08
 -17  -9  -8   21.04    9.17
  26 -17  -8   21.72    8.38
  -9  26  -5   65.29   10.36
 -17  -9  -5   67.26   10.21
 -17  -9  -5   57.07   10.32
  26 -17  -5   57.62    9.64
 -17  -9  -2  211.19   16.27
  -9  26  -2  233.92   16.31
 -17  -9  -2  230.25   16.04
  26 -17  -2  213.42   15.31
 -17  -9   1   19.95    6.51
  -9  26   1   27.37    7.17
 -17  -9   1   27.67    7.17
  26 -17   1   20.07    6.43
  26 -17   4   50.68    9.44
 -17  -9   4   48.57    8.57
  -9  26   4   48.48    9.21
 -17  -9   4   64.18    9.94
 -17  -9   7   36.54    7.63
 -16 -10  -9   25.73    8.80
 -10  26  -9   34.85   10.28
 -16 -10  -9   52.50   11.02
  26 -16  -9   40.85   10.58
 -10  26  -6  453.35   24.84
 -16 -10  -6  410.91   23.31
 -16 -10  -6  440.07   23.84
  26 -16  -6  375.99   22.28
 -16 -10  -3  158.98   14.29
 -10  26  -3  154.55   13.81
 -16 -10  -3  161.71   13.93
  26 -16  -3  136.94   12.59
 -16 -10   0  655.76   26.69
 -10  26   0  607.62   24.68
  26 -16   0  626.12   24.87
  26 -16   3   28.53    7.40
 -10  26   3   18.26    6.88
 -16 -10   3   23.82    6.95
 -16 -10   3   23.18    7.71
 -16 -10   6  532.80   23.11
 -16 -10   6  559.76   27.07
 -11  26  -7  173.53   16.33
 -15 -11  -7  205.76   17.76
  26 -15  -7  201.26   17.36
 -11  26  -4   63.58    9.64
 -15 -11  -4   49.94    9.19
 -15 -11  -4   65.54   10.59
  26 -15  -4   65.50    9.74
 -15 -11  -1  317.33   18.92
 -11  26  -1  314.77   18.00
 -15 -11  -1  362.91   19.23
  26 -15  -1  301.25   17.55
 -11  26   2   67.95    8.86
 -15 -11   2   70.86    9.32
 -15 -11   2   60.45    9.17
  26 -15   2   54.03    8.45
  26 -15   5   78.64   11.03
 -15 -11   5   84.84   10.26
 -11  26   5   88.70   11.52
 -15 -11   5   95.64   11.60
 -15 -11   8   67.67    8.80
 -12  26  -8   13.37    8.76
 -14 -12  -8   19.97    7.94
 -14 -12  -8   11.12    6.88
  26 -14  -8    7.54    7.22
 -12  26  -5  142.06   14.50
 -14 -12  -5  127.11   13.29
 -14 -12  -5   99.82   11.79
  26 -14  -5  120.66   12.95
 -14 -12  -2    5.16    5.91
 -14 -12  -2    9.08    5.70
 -12  26  -2   14.08    5.69
  26 -14  -2    4.79    4.93
 -14 -12   1  138.62   12.61
 -14 -12   1  102.78   10.75
  26 -14   1   80.34    9.68
 -12  26   1  116.74   11.12
 -12  26   4   92.56   11.09
 -14 -12   4   67.97    9.08
 -14 -12   4   66.65    9.60
  26 -14   4   76.19   10.12
 -14 -12   7   99.29   10.33
 -13  26  -9    7.20    8.34
 -13 -13  -9   17.49    7.97
 -13 -13  -9   -1.66    7.16
  26 -13  -9   17.38    8.53
 -13  26  -6  576.27   27.97
 -13 -13  -6  614.86   27.79
 -13 -13  -6  598.73   27.94
  26 -13  -6  570.31   26.95
 -13  26  -3   64.49    9.92
 -13 -13  -3   82.47   10.85
 -13 -13  -3   87.45   10.87
  26 -13  -3   87.20   10.96
 -13 -13   0  514.49   23.38
 -13 -13   0  490.49   21.89
 -13  26   0  519.33   22.10
  26 -13   0  485.52   20.98
 -13 -13   3   57.81    8.33
 -13  26   3   58.86    8.66
 -13 -13   3   60.73    8.88
  26 -13   3   49.69    8.33
 -13 -13   6  532.52   22.10
 -13 -13   6  478.38   23.76
 -12 -14  -7  138.91   14.45
 -12 -14  -7  126.86   14.58
 -14  26  -7  101.11   13.46
 -14  26  -4   85.88   11.13
 -12 -14  -4   68.51    9.93
 -12 -14  -4   79.18   10.23
  26 -12  -4   69.94    9.85
 -12 -14  -1   72.85   10.21
 -14  26  -1   85.24    9.88
 -12 -14  -1   79.53   10.04
 -12 -14   2   24.03    6.48
 -14  26   2   12.34    5.42
 -12 -14   2   19.97    5.78
  26 -12   2    8.44    5.44
  26 -12   5  129.74   12.67
 -12 -14   5  125.36   11.41
 -14  26   5  112.91   11.54
 -12 -14   5  121.81   12.28
 -11 -15  -8   61.41   10.98
 -11 -15  -8   50.48   11.09
  26 -11  -8   54.59   10.44
 -15  26  -8   77.90   12.72
 -15  26  -5  150.22   14.55
 -11 -15  -5  156.07   14.72
 -11 -15  -5  151.41   14.17
  26 -11  -5  139.54   13.65
 -15  26  -2   83.67   10.15
 -11 -15  -2   55.08    8.94
 -11 -15  -2   72.48    9.40
  26 -11  -2   78.79    9.74
 -11 -15   1  433.38   21.05
 -11 -15   1  457.77   20.53
 -15  26   1  416.17   19.18
  26 -11   1  384.70   18.45
  26 -11   4   25.75    6.77
 -11 -15   4   35.44    7.68
 -15  26   4   42.63    7.66
 -11 -15   4   33.58    7.11
 -11 -15   7  196.11   13.35
 -16  26  -9    1.36    7.66
 -10 -16  -9    3.26    7.74
 -10 -16  -9   10.27    9.03
  26 -10  -9    2.32    7.38
 -10 -16  -6  605.00   27.70
 -10 -16  -6  622.68   28.55
  26 -10  -6  561.92   26.98
 -16  26  -6  630.55   29.04
 -10 -16  -3   38.06    8.35
 -16  26  -3   39.29    8.12
 -10 -16  -3   37.37    8.45
  26 -10  -3   40.19    7.86
 -16  26   0  662.14   24.06
 -10 -16   0  661.96   24.92
  26 -10   0  676.87   24.00
 -10 -16   3  117.86   11.58
 -16  26   3  143.50   11.83
 -10 -16   3  148.54   12.15
  26 -10   3  129.39   11.75
 -10 -16   6  446.71   19.91
 -10 -16   6  436.72   21.28
 -17  26  -7   51.17   10.78
  -9 -17  -7   79.19   11.89
  -9 -17  -7   44.07   10.20
  26  -9  -7   50.71   10.87
 -17  26  -4   31.44    8.26
  -9 -17  -4   41.86    8.74
  -9 -17  -4   39.88    8.03
  26  -9  -4   30.55    7.34
  -9 -17  -1   42.59    8.26
 -17  26  -1   36.96    7.26
  -9 -17  -1   41.02    7.47
  26  -9  -1   43.84    7.50
  -9 -17   2  181.60   13.84
  -9 -17   2  157.33   12.05
  26  -9   2  166.12   12.07
 -17  26   2  177.73   12.50
  26  -9   5   93.25   10.30
 -17  26   5   74.40    8.98
  -9 -17   5  104.57   10.85
  -9 -17   5   87.77   10.17
 -18  26  -8    8.26    8.05
  -8 -18  -8    5.65    6.90
  -8 -18  -8   -1.50    7.65
  26  -8  -8   10.38    7.71
  -8 -18  -5  208.06   16.77
  -8 -18  -5  202.90   16.58
  26  -8  -5  205.62   16.23
 -18  26  -5  200.69   16.29
 -18  26  -2  171.72   13.68
  -8 -18  -2  167.11   14.68
  -8 -18  -2  183.79   14.23
  26  -8  -2  167.45   12.91
  -8 -18   1  116.44   11.62
 -18  26   1   98.05    9.39
  -8 -18   1  110.80   10.77
  26  -8   1   98.48    9.75
  -8 -18   4   75.72    9.38
  -8 -18   4   56.11    8.35
 -18  26   4   71.27    8.82
  26  -8   4   72.18    8.73
  -8 -18   7   95.33    9.43
 -19  26  -9   29.76   10.46
  -7 -19  -9   26.32    9.31
  -7 -19  -9   -1.27    8.44
  26  -7  -9   32.47   10.34
  -7 -19  -6  318.49   20.90
  -7 -19  -6  330.30   21.93
  26  -7  -6  354.35   21.88
 -19  26  -6  336.98   21.75
  -7 -19  -3   92.63   11.38
  -7 -19  -3  117.59   12.52
  26  -7  -3  107.70   11.02
 -19  26  -3   85.90   10.71
  -7 -19   0  453.80   22.29
 -19  26   0  439.07   19.31
  -7 -19   0  478.02   20.74
  26  -7   0  516.45   20.60
  -7 -19   3   14.97    5.93
  -7 -19   3   13.24    5.08
 -19  26   3   19.53    5.37
  26  -7   3   32.77    6.56
  -7 -19   6  529.74   21.56
  -7 -19   6  563.16   22.44
 -20  26  -7   46.02   10.42
  -6 -20  -7   35.97    9.72
  -6 -20  -7   36.70   10.11
  26  -6  -7   26.11    9.08
  -6 -20  -4  208.89   16.69
  -6 -20  -4  251.60   17.94
  26  -6  -4  198.73   15.00
 -20  26  -4  206.83   16.02
 -20  26  -1   47.59    8.13
  -6 -20  -1   75.73   10.34
  -6 -20  -1   61.55    8.81
  26  -6  -1   47.21    7.33
  -6 -20   2  343.24   18.71
  -6 -20   2  335.52   16.76
 -20  26   2  340.72   16.19
  26  -6   2  345.67   16.50
  26  -6   5   74.53    8.73
  -6 -20   5   65.31    8.76
 -20  26   5   68.85    7.87
  -6 -20   5   63.50    8.40
  -5 -21  -8   82.73   12.79
  -5 -21  -8   67.41   13.07
  26  -5  -8   48.48   11.85
 -21  26  -8   72.27   12.78
  -5 -21  -5  241.15   18.50
  -5 -21  -5  263.53   18.74
  26  -5  -5  236.78   17.69
 -21  26  -5  223.46   17.82
  -5 -21  -2   21.94    7.11
  -5 -21  -2   48.02    8.43
  26  -5  -2   44.00    7.82
 -21  26  -2   55.19    8.70
  -5 -21   1  105.02   11.24
 -21  26   1   80.50    8.80
  -5 -21   1  100.54    9.89
  26  -5   1   84.58    8.75
  -5 -21   4   49.63    7.94
  -5 -21   4   55.36    7.77
 -21  26   4   48.41    7.09
  26  -5   4   56.93    7.83
  -5 -21   7   56.95    7.97
  -4 -22  -6  184.47   17.06
  -4 -22  -6  178.78   17.07
  26  -4  -6  131.47   15.00
 -22  26  -6  145.80   15.38
 -22  26  -3   51.82    8.63
  -4 -22  -3   60.92   10.19
  -4 -22  -3   67.17    9.87
  26  -4  -3   70.76    9.81
 -22  26   0  459.79   19.62
  -4 -22   0  512.43   24.19
  -4 -22   0  470.56   20.63
  26  -4   0  502.39   19.95
 -22  26   3  111.42    9.29
  -4 -22   3   97.15   10.77
  -4 -22   3   89.13    9.14
  26  -4   3  102.01    9.22
  -4 -22   6   50.30    8.04
  -3 -23  -7   23.71    8.76
  -3 -23  -7   12.98    8.13
  26  -3  -7   21.16    8.85
 -23  26  -7   21.94    9.74
  -3 -23  -4  401.33   23.33
  -3 -23  -4  449.38   23.74
  26  -3  -4  409.20   21.81
 -23  26  -4  387.76   22.03
  -3 -23  -1   40.65    8.48
 -23  26  -1   43.62    7.53
  -3 -23  -1   55.64    8.79
  26  -3  -1   70.35    8.87
  -3 -23   2  333.29   19.12
  -3 -23   2  337.31   16.56
 -23  26   2  318.38   15.05
  26  -3   2  324.91   15.32
  26  -3   5   17.63    5.08
  -3 -23   5    7.15    4.91
  -3 -23   5   10.32    4.87
  -2 -24  -8   47.25   10.93
  -2 -24  -8   65.09   13.94
  26  -2  -8   57.97   11.88
 -24  26  -8   22.84    9.41
  -2 -24  -5  239.59   18.94
  -2 -24  -5  251.33   19.07
  26  -2  -5  273.64   19.19
 -24  26  -5  250.51   18.74
 -24  26  -2   42.83    7.97
  -2 -24  -2   45.90    9.85
  -2 -24  -2   30.93    7.15
  -2 -24   1  165.37   14.10
  -2 -24   1  194.82   13.18
  26  -2   1  184.00   12.02
  -2 -24   4  138.59   12.71
  -2 -24   4  129.96   10.34
 -24  26   4  140.33    9.45
  26  -2   4  129.91    9.76
  -1 -25  -6   24.58    8.82
  -1 -25  -6   15.10    8.19
  26  -1  -6   23.88    8.54
 -25  26  -6   19.21    8.29
  -1 -25  -3  118.27   13.66
  -1 -25  -3   90.53   11.35
  26  -1  -3  122.22   12.09
 -25  26  -3   98.95   11.54
 -25  26   0  112.91   10.34
  -1 -25   0  115.19   12.76
  -1 -25   0   76.70    9.37
  26  -1   0   95.06    9.34
  -1 -25   3   65.09    7.63
  26  -1   3   71.35    7.71
 -25  26   3   74.79    7.40
  -1 -25   6   42.55    7.98
   0 -26  -7   15.07    9.42
   0 -26  -7    4.98    7.42
  26   0  -7    1.70    7.95
 -26  26  -7   -8.86    9.01
   0 -26  -4  619.10   29.76
   0 -26  -4  647.09   29.09
  26   0  -4  643.08   27.32
 -26  26  -4  623.74   28.16
 -26  26  -1    1.09    4.89
   0 -26  -1   -1.24    5.88
   0 -26  -1    7.80    5.76
  26   0  -1    4.37    4.45
   0 -26   2  566.33   25.58
 -26  26   2  557.92   19.10
   0 -26   2  632.72   22.10
  26   0   2  590.25   19.58
   0 -26   5    1.34    4.99
   1 -27  -5  162.76   16.86
   1 -27  -5  128.06   14.80
  26   1  -5  181.89   16.49
 -27  26  -5  135.43   15.26
   1 -27  -2   89.97   12.61
   1 -27  -2   76.02   10.60
  26   1  -2   82.31    9.99
 -27  26  -2   69.01    9.94
   1 -27   1  163.58   14.92
 -27  26   1  149.43   10.84
   1 -27   1  160.74   12.40
  26   1   1  151.92   10.62
   1 -27   4   31.44    7.70
   2 -28  -6   36.12   10.52
   2 -28  -6   40.16   11.09
  26   2  -6   54.55   10.75
 -28  26  -6   46.37   11.35
   2 -28  -3  216.98   18.30
   2 -28  -3  195.01   16.49
  26   2  -3  198.29   15.45
 -28  26  -3  169.11   15.13
   2 -28   0   19.53    7.73
 -28  26   0   31.27    6.49
   2 -28   0   26.33    6.37
  26   2   0   27.69    5.85
   2 -28   3  191.53   15.37
   2 -28   3  201.84   12.22
   2 -28   6   25.55    7.13
   3 -29  -4  224.36   19.32
   3 -29  -4  236.81   18.72
  26   3  -4  191.07   15.78
 -29  26  -4  214.76   18.10
 -29  26  -1    1.17    4.89
   3 -29  -1   -5.09    6.14
   3 -29  -1   -0.39    5.00
  26   3  -1    9.41    5.01
   3 -29   2  400.16   22.51
 -29  26   2  370.58   15.17
   3 -29   2  370.88   17.11
   3 -29   5    7.03    6.22
   4 -30  -5   -0.49    7.60
   4 -30  -5    5.99    7.38
  26   4  -5    4.79    6.90
 -30  26  -5   18.51    9.35
   4 -30  -2   16.24    8.24
   4 -30  -2   14.12    6.78
  26   4  -2   20.65    6.35
 -30  26  -2   17.07    6.88
 -30  26   1   83.84    8.89
   4 -30   1  112.03   13.29
   4 -30   1   91.69    9.67
  26   4   1   91.12    8.49
   4 -30   4   20.85    7.18
   5 -31  -6   14.51    9.01
   5 -31  -6    3.85    8.24
  26   5  -6   16.56    8.84
 -31  26  -6    2.48    8.07
   5 -31  -3   36.65   10.14
   5 -31  -3   60.46   10.94
  26   5  -3   26.53    7.46
 -31  26  -3   44.11    9.93
 -31  26   0   12.25    5.37
   5 -31   0   10.65    6.47
   5 -31   0   21.81    6.53
  26   5   0   13.54    4.82
   5 -31   3  131.44   13.78
   6 -32  -4  230.11   20.01
   6 -32  -4  206.25   18.30
 -32  26  -4  234.68   19.69
  26   6  -4  268.00   18.93
 -32  26  -1   41.55    8.27
   6 -32  -1   57.43   11.22
   6 -32  -1   67.57   10.06
  26   6  -1   57.28    8.33
   6 -32   2  136.50   14.59
   6 -32   5   13.49    8.03
   7 -33  -2   31.34    9.61
   7 -33  -2   33.45    8.81
  26   7  -2   18.05    6.76
 -33  26  -2   28.16    8.97
   7 -33   1   40.14    9.00
   7 -33   1   35.73    7.20
   7 -33   4   29.80    8.84
   8 -34  -3   24.46    9.40
   8 -34  -3   39.14   10.12
  26   8  -3   21.17    8.09
 -34  26  -3   23.21    9.19
   8 -34   0   14.87    7.64
   8 -34   0   15.90    6.89
   8 -34   3   66.48   11.59
   9 -35  -1   13.97    8.84
   9 -35  -1   14.89    7.50
 -35  26  -1   15.79    6.79
   9 -35   2  134.75   15.82
  10 -36   1   19.80    8.67
 -35   8  -1   60.71   13.47
  27 -35  -1   73.62   13.88
  27 -35  -1   44.75   10.33
 -35   8  -1   61.27   11.53
   8  27  -1   54.00   13.09
 -35   8  -1   72.60   14.38
 -35   8   2   44.82   12.75
  27 -35   2   63.93   14.51
 -35   8   2   29.71   11.36
  27 -34  -2   47.20   10.93
 -34   7  -2   56.20   11.94
   7  27  -2   51.15    9.97
   7  27  -2   53.67   12.27
 -34   7  -2   54.79   12.54
  27 -34   1  120.87   17.14
   7  27   1  136.47   18.46
 -34   7   1  143.52   17.67
 -34   7   1  117.63   16.58
 -33   6  -3  116.91   15.15
   6  27  -3  125.02   16.98
 -33   6  -3  111.90   15.79
  27 -33  -3  124.56   16.21
 -33   6   0   22.84   10.19
  27 -33   0   17.63   10.76
   6  27   0   27.37   11.45
 -33   6   0   16.05    8.24
 -33   6   3   35.07   12.58
  27 -33   3   51.21   12.73
 -33   6   3   21.78    8.71
   5  27  -4   43.96   12.07
 -32   5  -4   45.03   11.50
 -32   5  -4   52.62   11.85
  27 -32  -4   52.89   12.25
  27 -32  -1   36.32   10.98
 -32   5  -1   44.15   11.58
   5  27  -1   40.42   10.85
 -32   5  -1   26.61   10.91
 -32   5   2   10.17    9.74
   5  27   2   10.97    8.31
  27 -32   2    2.89    8.63
 -32   5   2    2.77    7.26
 -32   5   5   42.02   10.81
   4  27  -5  233.66   21.51
 -31   4  -5  229.99   20.63
 -31   4  -5  248.18   20.89
  27 -31  -5  207.24   18.97
 -31   4  -2   54.61   11.48
   4  27  -2   44.49   10.91
 -31   4  -2   35.83   10.17
  27 -31  -2   27.68    9.20
 -31   4   1  186.74   18.35
   4  27   1  176.18   19.13
 -31   4   1  178.43   18.72
  27 -31   1  168.48   17.97
 -31   4   4   94.79   15.11
 -31   4   4  139.53   16.49
 -30   3  -6   78.91   13.53
   3  27  -6   63.83   13.01
 -30   3  -6   92.76   13.72
  27 -30  -6   44.89   11.73
   3  27  -3   16.16    8.84
 -30   3  -3   32.95    9.30
 -30   3  -3   39.72    9.67
  27 -30  -3   25.36    8.47
 -30   3   0   80.17   12.48
 -30   3   0   84.80   13.00
   3  27   0   86.12   13.48
  27 -30   0   83.48   12.92
 -30   3   3   13.56    9.12
  27 -30   3   -9.46    9.82
 -30   3   3    4.65    7.19
   3  27   3   29.07   11.27
 -30   3   6   34.19   10.66
 -29   2  -4    9.13    8.07
   2  27  -4    0.85    7.94
 -29   2  -4   12.93    8.50
  27 -29  -4    5.67    7.14
 -29   2  -1   44.57   10.56
   2  27  -1   23.21    8.57
 -29   2  -1   41.72   10.93
  27 -29  -1   30.08    9.74
 -29   2   2   20.96    8.81
  27 -29   2   23.03    9.23
 -29   2   2   19.99    7.54
   2  27   2   29.48    9.95
 -29   2   5   42.76    9.97
 -28   1  -5  345.19   23.50
 -28   1  -5  331.57   22.71
  27 -28  -5  344.32   23.18
   1  27  -5  377.26   24.97
   1  27  -2   75.30   11.90
 -28   1  -2   49.58   10.47
 -28   1  -2   65.41   11.09
  27 -28  -2   41.64    9.73
   1  27   1  396.88   25.38
 -28   1   1  357.68   23.23
 -28   1   1  318.82   22.79
  27 -28   1  335.26   23.00
  27 -28   4  128.19   16.07
 -28   1   4  126.06   15.12
 -28   1   4  119.57   16.09
   0  27  -6   67.14   12.61
 -27   0  -6   59.64   11.49
 -27   0  -6   64.39   12.06
  27 -27  -6   53.86   11.51
 -27   0  -3   -0.79    6.28
   0  27  -3    2.66    6.97
 -27   0  -3   -2.40    6.34
  27 -27  -3    5.96    7.88
 -27   0   0  180.81   17.00
   0  27   0  182.36   18.11
 -27   0   0  175.63   16.65
  27 -27   0  182.64   16.98
 -27   0   3   12.36    9.14
  27 -27   3    6.07    8.06
   0  27   3    0.77    8.07
 -27   0   3    3.12    6.91
 -27   0   6   96.44   13.03
  -1  27  -7   26.69    9.65
 -26  -1  -7   37.43   10.11
 -26  -1  -7   25.76    9.17
  27 -26  -7   46.19   10.82
 -26  -1  -4   60.49   11.53
  -1  27  -4   42.66    9.35
 -26  -1  -4   43.99    9.72
  27 -26  -4   42.32    9.47
  -1  27  -1  181.72   17.09
 -26  -1  -1  115.40   13.93
 -26  -1  -1  149.51   15.34
  27 -26  -1  162.39   16.00
  -1  27   2   92.87   13.30
 -26  -1   2   93.43   13.00
 -26  -1   2   64.82   11.71
  27 -26   2   79.38   12.91
 -26  -1   5  126.70   16.55
 -26  -1   5  163.96   16.13
 -25  -2  -5  310.37   21.74
 -25  -2  -5  315.55   21.57
  -2  27  -5  291.58   21.93
  27 -25  -5  362.02   22.41
  -2  27  -2  164.99   16.11
 -25  -2  -2  178.44   16.47
 -25  -2  -2  178.46   16.15
  27 -25  -2  173.20   16.00
 -25  -2   1  407.02   23.65
  -2  27   1  369.47   23.40
 -25  -2   1  446.59   25.35
  27 -25   1  382.60   23.09
  27 -25   4  116.39   14.98
 -25  -2   4  137.43   14.41
  -2  27   4   96.79   13.97
 -25  -2   4  137.74   15.90
 -25  -2   7  188.84   16.84
 -24  -3  -6   93.76   12.66
  -3  27  -6  115.95   14.43
 -24  -3  -6   97.47   13.51
  27 -24  -6  104.08   13.46
  -3  27  -3   33.79    9.32
 -24  -3  -3   17.19    7.33
 -24  -3  -3   16.29    6.85
  27 -24  -3   32.95    9.02
 -24  -3   0  224.95   17.49
  -3  27   0  221.06   17.54
 -24  -3   0  222.52   17.72
  27 -24   0  221.13   17.65
  27 -24   3    3.05    6.64
 -24  -3   3   -0.41    6.69
  -3  27   3   12.64    7.40
 -24  -3   3   22.54    9.05
 -24  -3   6   75.03   11.63
 -23  -4  -7   64.10   11.42
  -4  27  -7   75.26   13.03
 -23  -4  -7   68.56   11.86
  27 -23  -7   68.86   12.37
  -4  27  -4   16.47    8.09
 -23  -4  -4   20.47    8.08
 -23  -4  -4   28.26    9.10
  27 -23  -4   29.88    9.06
  -4  27  -1  153.70   14.73
 -23  -4  -1  119.89   13.11
 -23  -4  -1  149.16   14.48
  27 -23  -1  147.49   14.53
  -4  27   2   51.13   10.04
 -23  -4   2   50.73    9.45
 -23  -4   2   48.25    9.70
  27 -23   2   70.56   11.54
  27 -23   5  232.13   20.24
 -23  -4   5  217.64   17.48
 -23  -4   5  214.46   19.32
 -23  -4   8    3.84    6.45
 -22  -5  -8  108.06   14.19
 -22  -5  -8   98.99   14.37
  -5  27  -8   73.95   12.92
  27 -22  -8   86.47   13.08
 -22  -5  -5  181.30   16.36
  -5  27  -5  169.44   15.88
 -22  -5  -5  150.12   14.85
  27 -22  -5  153.47   15.19
 -22  -5  -2  294.48   19.79
 -22  -5  -2  272.61   18.89
  27 -22  -2  253.58   17.90
 -22  -5   1  453.31   23.91
  -5  27   1  409.81   23.42
 -22  -5   1  381.82   22.43
  27 -22   1  405.56   22.63
  27 -22   4  107.05   14.06
  -5  27   4  149.73   15.73
 -22  -5   4  134.37   13.38
 -22  -5   4  115.08   14.43
 -22  -5   7  222.75   17.09
 -21  -6  -6  183.95   16.54
  -6  27  -6  145.40   15.36
 -21  -6  -6  173.54   16.40
  27 -21  -6  189.78   17.09
 -21  -6  -3  189.75   16.03
 -21  -6  -3  167.40   14.80
  -6  27  -3  162.95   14.92
  -6  27   0   88.74   11.55
 -21  -6   0   80.15   10.99
 -21  -6   0   88.71   11.57
  27 -21   0   92.64   11.56
  -6  27   3  117.87   13.45
 -21  -6   3  125.18   12.85
 -21  -6   3  128.80   13.92
  27 -21   3  110.64   13.62
 -21  -6   6   82.04   13.02
 -21  -6   6   61.13    9.65
  -7  27  -7  106.05   13.74
 -20  -7  -7  147.97   15.44
 -20  -7  -7  132.54   14.71
  27 -20  -7  128.72   15.20
 -20  -7  -4   39.24    8.64
 -20  -7  -4   21.29    7.22
  -7  27  -4   45.43    9.36
  27 -20  -4   58.94    9.94
 -20  -7  -1  172.96   14.84
 -20  -7  -1  153.57   14.09
  27 -20  -1  163.76   14.41
  -7  27  -1  126.65   13.73
 -20  -7   2   37.08    8.41
  -7  27   2   37.88    8.40
 -20  -7   2   39.65    8.77
  27 -20   2   49.49    9.41
  27 -20   5  105.14   13.38
 -20  -7   5  134.02   12.87
 -20  -7   5  120.67   14.08
 -20  -7   8    2.73    5.42
 -19  -8  -8   33.37    9.31
  -8  27  -8   23.92    9.56
 -19  -8  -8   32.64   10.19
  27 -19  -8   35.91    9.48
 -19  -8  -5  198.74   16.90
  -8  27  -5  183.84   16.45
 -19  -8  -5  198.13   16.78
  27 -19  -5  203.10   16.59
 -19  -8  -2  196.70   16.18
 -19  -8  -2  145.44   13.69
  -8  27  -2  148.30   13.82
  27 -19  -2  204.29   15.37
  -8  27   1  109.94   12.25
 -19  -8   1   97.29   11.71
 -19  -8   1  131.37   12.73
  27 -19   1  111.79   12.23
  27 -19   4  122.87   13.72
 -19  -8   4  129.72   12.93
  -8  27   4  135.96   14.27
 -19  -8   4  100.53   12.51
 -19  -8   7  129.13   12.65
 -18  -9  -6   61.43   10.60
  -9  27  -6   68.14   11.15
 -18  -9  -6   56.71   10.48
  27 -18  -6   71.54   11.32
 -18  -9  -3  163.45   14.93
  -9  27  -3  191.33   15.59
  27 -18  -3  184.06   15.11
 -18  -9   0  159.88   14.49
 -18  -9   0  197.51   15.21
  27 -18   0  150.99   13.38
  -9  27   0  153.70   13.72
 -18  -9   3  376.13   20.37
 -18  -9   3  361.08   21.39
  -9  27   3  360.41   20.88
  27 -18   3  348.46   20.58
 -18  -9   6  289.85   17.94
 -18  -9   6  347.05   22.72
 -17 -10  -7   65.09   11.23
 -10  27  -7   57.88   11.17
  27 -17  -7   63.33   11.61
 -17 -10  -4   47.25    8.96
 -17 -10  -4   41.16    8.83
 -10  27  -4   31.05    8.57
  27 -17  -4   56.15    9.95
 -17 -10  -1  111.70   12.48
 -17 -10  -1  119.67   12.43
 -10  27  -1  142.20   13.25
  27 -17  -1  108.04   11.58
 -17 -10   2  101.46   11.24
 -10  27   2  102.43   11.44
 -17 -10   2   92.42   11.26
  27 -17   2   99.92   11.49
 -17 -10   5   59.57   10.39
  27 -17   5   58.86   10.20
 -17 -10   5   58.84    9.10
 -10  27   5   68.34   11.71
 -17 -10   8   32.44    7.90
 -16 -11  -8   25.75    9.20
 -11  27  -8   17.48    8.38
 -16 -11  -8   33.95    9.64
  27 -16  -8    7.93    7.68
 -16 -11  -5   12.96    6.87
 -11  27  -5   20.70    8.02
 -16 -11  -5   11.79    7.00
  27 -16  -5   10.97    5.89
 -16 -11  -2   72.75   10.45
 -11  27  -2   75.57   10.68
 -16 -11  -2   96.31   11.33
  27 -16  -2   60.46    9.23
 -11  27   1   73.43   10.09
 -16 -11   1   55.16    9.18
 -16 -11   1   69.16    9.61
  27 -16   1   52.99    8.86
 -16 -11   4  119.62   11.80
 -11  27   4  104.83   12.56
 -16 -11   4   96.10   11.75
  27 -16   4  107.56   12.10
 -16 -11   7    6.48    5.45
 -12  27  -9  259.31   21.75
 -15 -12  -9  250.45   20.58
 -15 -12  -9  222.96   20.15
  27 -15  -9  183.20   18.63
 -12  27  -6  112.82   13.86
 -15 -12  -6  121.82   13.96
 -15 -12  -6  101.88   13.17
  27 -15  -6  104.94   12.99
 -15 -12  -3  464.70   23.69
 -12  27  -3  424.36   22.22
 -15 -12  -3  483.67   23.47
  27 -15  -3  457.20   22.48
 -15 -12   0   76.02   10.36
 -15 -12   0   95.28   10.76
 -12  27   0  101.51   10.75
  27 -15   0   81.53   10.30
 -15 -12   3  649.31   25.96
 -12  27   3  650.96   26.77
 -15 -12   3  649.74   26.77
  27 -15   3  629.05   26.42
 -15 -12   6  213.86   15.24
 -15 -12   6  208.72   17.15
 -14 -13  -7    4.64    6.91
 -13  27  -7    4.46    7.88
 -14 -13  -7    6.59    7.02
  27 -14  -7    7.20    7.34
 -13  27  -4   62.90   10.32
 -14 -13  -4   71.37   10.73
 -14 -13  -4   54.26    9.63
  27 -14  -4   52.40    8.59
 -14 -13  -1   44.97    8.49
 -13  27  -1   64.40    9.22
 -14 -13  -1   54.98    8.83
  27 -14  -1   60.60    8.81
 -14 -13   2    8.31    5.18
 -14 -13   2   -4.33    4.97
 -13  27   2   -1.53    5.42
  27 -14   2   14.13    6.29
  27 -14   5   67.86   10.70
 -14 -13   5   62.10    9.03
 -13  27   5   79.39   10.84
 -14 -13   5   61.43   10.15
 -14  27  -8   40.98   10.81
 -13 -14  -8   33.79    8.83
 -13 -14  -8   52.41   10.86
  27 -13  -8   39.34   10.20
 -14  27  -5   60.66   10.42
 -13 -14  -5   59.54   10.21
 -13 -14  -5   52.51    9.70
  27 -13  -5   60.51   10.06
 -13 -14  -2   11.51    5.79
 -13 -14  -2    5.33    5.98
 -14  27  -2    7.76    5.62
  27 -13  -2    7.38    5.18
 -13 -14   1   50.15    8.77
 -13 -14   1   44.54    8.03
 -14  27   1   58.01    8.47
  27 -13   1   57.77    8.77
  27 -13   4   47.91    8.31
 -14  27   4   70.97    9.85
 -13 -14   4   77.93    9.78
 -13 -14   4   78.66   10.09
 -13 -14   7   27.96    7.14
 -12 -15  -9  186.94   17.71
 -12 -15  -9  207.04   19.54
  27 -12  -9  135.00   16.33
 -15  27  -9  146.06   17.66
 -15  27  -6  177.05   16.53
 -12 -15  -6  169.50   15.94
 -12 -15  -6  179.65   16.76
  27 -12  -6  197.29   16.81
 -15  27  -3  650.90   27.15
 -12 -15  -3  669.59   28.20
 -12 -15  -3  630.52   26.34
  27 -12  -3  678.69   26.53
 -12 -15   0  100.06   11.11
 -15  27   0   84.35    9.68
 -12 -15   0   75.19    9.59
  27 -12   0   88.30    9.85
 -12 -15   3  383.43   20.11
 -15  27   3  418.61   20.19
 -12 -15   3  395.44   19.74
  27 -12   3  373.43   19.29
 -12 -15   6  125.20   11.44
 -12 -15   6  142.49   13.66
 -16  27  -7   14.52    8.25
 -11 -16  -7    9.12    6.89
 -11 -16  -7   25.89    9.29
  27 -11  -7   12.08    7.23
 -16  27  -4  112.83   12.62
 -11 -16  -4  132.64   13.82
 -11 -16  -4   92.52   11.51
  27 -11  -4   93.56   11.52
 -11 -16  -1   57.79    9.10
 -16  27  -1   65.19    9.30
 -11 -16  -1   49.99    8.49
  27 -11  -1   51.50    8.03
 -11 -16   2  143.56   12.88
 -11 -16   2  146.68   12.34
  27 -11   2  148.03   12.21
 -16  27   2  140.23   11.87
  27 -11   5   14.17    6.31
 -11 -16   5   20.02    7.04
 -16  27   5   24.72    7.07
 -11 -16   5   25.42    7.38
 -17  27  -8   25.44    9.90
 -10 -17  -8   18.62    8.45
 -10 -17  -8   40.55   10.48
  27 -10  -8   30.31   10.08
 -10 -17  -5   60.86   10.77
 -10 -17  -5   48.95    9.90
  27 -10  -5   48.46    9.19
 -17  27  -5   59.79   10.76
 -17  27  -2  112.47   11.39
 -10 -17  -2  153.88   14.25
 -10 -17  -2  118.31   12.01
  27 -10  -2  114.35   11.18
 -10 -17   1  184.29   14.40
 -10 -17   1  169.89   13.34
 -17  27   1  184.78   13.36
  27 -10   1  201.56   13.61
  27 -10   4   31.19    7.11
 -10 -17   4   27.04    6.44
 -17  27   4   29.91    6.97
 -10 -17   4   32.54    7.28
 -10 -17   7   96.74    9.98
  -9 -18  -6  215.74   18.09
  -9 -18  -6  211.04   18.28
  27  -9  -6  236.44   18.29
 -18  27  -6  249.74   19.51
 -18  27  -3  398.02   21.61
  -9 -18  -3  436.16   23.48
  -9 -18  -3  370.56   20.40
  27  -9  -3  418.74   21.10
 -18  27   0  160.10   12.48
  -9 -18   0  144.12   12.50
  27  -9   0  160.62   12.39
  -9 -18   3  154.38   13.13
 -18  27   3  146.74   11.70
  -9 -18   3  164.07   12.92
  27  -9   3  142.30   11.77
  -9 -18   6   93.43    9.90
  -9 -18   6  124.98   12.25
  -8 -19  -7  171.79   16.73
  -8 -19  -7  149.28   16.23
  27  -8  -7  145.07   15.73
 -19  27  -7  139.69   16.03
  -8 -19  -4  168.71   15.51
  -8 -19  -4  128.43   13.17
  27  -8  -4  152.60   14.07
 -19  27  -4  134.14   13.42
 -19  27  -1   81.66    9.77
  -8 -19  -1   69.92   10.00
  -8 -19  -1   71.22    9.20
  27  -8  -1   67.56    8.76
  -8 -19   2  199.90   15.11
  -8 -19   2  194.43   13.67
 -19  27   2  178.57   12.69
  27  -8   2  193.44   13.26
  27  -8   5  114.35   11.63
 -19  27   5  106.53   10.37
  -8 -19   5  148.39   12.70
  -8 -19   5  118.71   11.54
 -20  27  -8   32.45   11.23
  -7 -20  -8   29.83    8.66
  -7 -20  -8   17.20    9.11
  27  -7  -8   38.81   10.50
  -7 -20  -5  146.10   14.61
  -7 -20  -5  150.82   14.99
  27  -7  -5  154.96   14.61
 -20  27  -5  172.07   15.88
  -7 -20  -2   40.83    9.15
 -20  27  -2   48.59    7.84
  -7 -20  -2   60.13    9.31
  27  -7  -2   45.91    8.05
  -7 -20   1  148.79   13.45
 -20  27   1  141.60   11.41
  -7 -20   1  153.64   12.34
  27  -7   1  157.74   12.03
  27  -7   4   29.95    6.85
 -20  27   4   25.36    6.34
  -7 -20   4   20.57    6.45
  -7 -20   4   40.00    7.40
  -7 -20   7   61.26    8.33
 -21  27  -6   32.77    9.67
  -6 -21  -6   56.70   11.04
  -6 -21  -6   52.54    9.91
  27  -6  -6   26.62    8.30
  -6 -21  -3   98.43   12.54
  -6 -21  -3  125.33   12.76
  27  -6  -3  111.43   11.74
 -21  27  -3  121.95   12.73
  -6 -21   0  140.44   13.67
 -21  27   0  111.94   10.42
  -6 -21   0  134.87   11.77
  27  -6   0  133.94   11.22
 -21  27   3  137.96   11.03
  -6 -21   3  138.71   12.81
  -6 -21   3  138.47   11.66
  27  -6   3  149.28   11.59
  -6 -21   6  129.45   11.47
  -6 -21   6  138.53   12.01
  -5 -22  -7  191.61   17.58
  -5 -22  -7  241.93   20.23
  27  -5  -7  228.10   19.09
 -22  27  -7  249.94   20.94
  -5 -22  -4  159.31   15.38
  -5 -22  -4  178.60   15.64
  27  -5  -4  151.35   14.09
 -22  27  -4  140.79   14.17
 -22  27  -1  417.32   19.85
  -5 -22  -1  358.70   21.00
  -5 -22  -1  345.98   18.98
  27  -5  -1  360.08   18.23
  -5 -22   2  344.67   19.88
  -5 -22   2  313.75   16.57
 -22  27   2  295.84   15.45
  27  -5   2  335.59   16.76
  27  -5   5  164.97   12.12
  -5 -22   5  145.41   12.68
  -5 -22   5  160.79   12.13
  -4 -23  -8   -5.22    7.44
  -4 -23  -8   -1.42    8.29
  27  -4  -8   -8.48    8.81
 -23  27  -8    8.92    8.58
  -4 -23  -5  197.89   17.92
  -4 -23  -5  205.82   17.66
  27  -4  -5  179.72   15.91
 -23  27  -5  188.61   17.02
  -4 -23  -2   97.46   11.98
  -4 -23  -2   72.09   10.18
  27  -4  -2   80.73    9.66
 -23  27  -2   88.52   11.07
  -4 -23   1  125.36   12.74
 -23  27   1  115.59   10.03
  -4 -23   1  128.73   11.02
  27  -4   1  115.02    9.86
  27  -4   4    7.59    5.10
  -4 -23   4   14.18    6.19
  -4 -23   4   12.13    5.59
 -23  27   4   15.22    5.24
  -3 -24  -6   87.19   12.34
  -3 -24  -6   61.80   11.43
  27  -3  -6   81.16   12.17
 -24  27  -6   88.81   12.66
  -3 -24  -3   60.28   10.61
  -3 -24  -3   46.14    8.78
  27  -3  -3   54.66    9.40
 -24  27  -3   58.93    9.77
 -24  27   0  244.30   14.78
  -3 -24   0  299.47   19.67
  -3 -24   0  245.45   15.73
  27  -3   0  261.65   14.91
  -3 -24   3   28.34    7.39
 -24  27   3   31.57    5.98
  -3 -24   3   37.00    6.46
  27  -3   3   24.47    5.79
  -3 -24   6   62.11    8.71
  -2 -25  -7  246.07   20.54
  -2 -25  -7  191.55   18.80
  27  -2  -7  270.56   20.93
 -25  27  -7  252.36   21.83
  -2 -25  -4  107.76   13.55
  -2 -25  -4  120.29   13.28
  27  -2  -4  108.08   12.36
 -25  27  -4  126.57   13.39
 -25  27  -1  462.08   21.08
  -2 -25  -1  522.20   25.89
  -2 -25  -1  488.86   22.53
  27  -2  -1  459.88   20.38
  -2 -25   2  236.53   17.05
  -2 -25   2  211.26   13.53
 -25  27   2  196.26   12.29
  27  -2   2  204.28   12.54
  -2 -25   5  276.51   17.45
  -1 -26  -5  165.57   16.91
  -1 -26  -5  117.41   14.05
  27  -1  -5   89.66   12.06
 -26  27  -5  156.93   16.30
  -1 -26  -2   89.03   12.09
  -1 -26  -2   99.78   11.54
  27  -1  -2   90.34   10.53
 -26  27  -2   71.40    9.99
  -1 -26   1  161.71   15.29
 -26  27   1  152.49   11.31
  -1 -26   1  134.68   11.61
  27  -1   1  158.05   11.36
  -1 -26   4   27.65    7.28
  -1 -26   4   30.37    6.14
   0 -27  -6  102.61   14.48
   0 -27  -6   90.80   13.31
  27   0  -6   93.49   13.44
 -27  27  -6   95.44   14.61
 -27  27  -3   11.98    6.93
   0 -27  -3   -4.47    7.79
   0 -27  -3    6.46    6.39
  27   0  -3   11.64    6.73
 -27  27   0  227.41   14.46
   0 -27   0  197.03   16.42
   0 -27   0  192.97   14.22
  27   0   0  186.64   12.81
   0 -27   3    1.36    5.46
   0 -27   3    0.21    4.07
  27   0   3    0.87    3.89
   0 -27   6   57.38    9.07
   1 -28  -4  106.08   14.22
   1 -28  -4   96.05   12.61
  27   1  -4  112.19   12.91
 -28  27  -4   89.33   12.35
   1 -28  -1  278.52   20.25
   1 -28  -1  272.53   17.23
  27   1  -1  279.93   16.22
 -28  27  -1  246.59   16.09
   1 -28   2   91.27   11.36
 -28  27   2  100.87    8.88
   1 -28   2  105.41    9.81
  27   1   2   87.34    8.60
   1 -28   5  323.87   19.36
   2 -29  -5   27.28   10.01
   2 -29  -5   25.95    9.23
  27   2  -5   26.42    8.48
 -29  27  -5   13.34    8.03
 -29  27  -2    6.47    5.81
   2 -29  -2   16.93    8.11
   2 -29  -2    9.55    5.98
  27   2  -2   14.13    6.39
   2 -29   1   32.30    9.17
 -29  27   1   17.00    5.67
   2 -29   1   23.75    6.44
  27   2   1   18.66    5.18
   2 -29   4   12.57    7.17
   3 -30  -6   40.90   12.01
   3 -30  -6   42.69   11.59
  27   3  -6   17.11    8.42
 -30  27  -6   18.42    9.85
   3 -30  -3    9.39    7.82
   3 -30  -3    2.86    6.79
  27   3  -3    0.84    5.59
 -30  27  -3   -3.34    7.20
 -30  27   0   72.29    8.93
   3 -30   0   76.11   11.97
   3 -30   0   98.82   11.06
  27   3   0   97.28    9.69
   3 -30   3   17.00    7.49
   4 -31  -4  100.25   14.30
   4 -31  -4   92.22   13.10
  27   4  -4   97.49   12.33
 -31  27  -4   87.41   12.86
   4 -31  -1  191.86   17.97
   4 -31  -1  189.14   15.24
  27   4  -1  206.65   14.25
 -31  27  -1  183.37   14.09
   4 -31   2   51.05   10.11
   4 -31   2   46.00    7.23
   4 -31   5  176.38   15.02
   5 -32  -5   37.33   11.19
   5 -32  -5   38.44   10.97
  27   5  -5   43.64   10.28
 -32  27  -5   24.66    9.57
 -32  27  -2    3.23    5.86
   5 -32  -2    4.43    6.74
   5 -32  -2    3.31    6.54
  27   5  -2    3.08    5.96
   5 -32   1   32.99    9.84
   5 -32   1   22.40    6.67
   5 -32   4   21.47    8.12
   6 -33  -3   55.38   12.72
   6 -33  -3   61.43   11.78
  27   6  -3   42.19    8.76
 -33  27  -3   57.64   10.55
   6 -33   0   11.73    7.71
 -33  27   0   16.84    6.49
   6 -33   0   25.61    7.36
   6 -33   3   91.75   12.92
   7 -34  -1  130.77   15.98
   7 -34  -1  126.67   13.39
  27   7  -1  100.16   10.75
 -34  27  -1  121.74   12.65
   7 -34   2   86.46   12.77
   8 -35  -2   38.24   10.48
   8 -35  -2   57.16   11.07
  27   8  -2   49.23    8.89
 -35  27  -2   57.22   10.38
   8 -35   1   52.58   11.53
 -35   7   0   49.07   12.91
  28 -35   0   57.98   14.21
  28 -35   0   40.33    9.74
 -35   7   0   52.71   10.85
 -35   7   0   43.02   12.27
   7  28   0   32.50   11.86
  28 -34  -1   20.43    9.91
   6  28  -1    1.43    9.53
 -34   6  -1   16.86    9.30
 -34   6  -1   16.37    9.55
 -34   6   2   44.90   13.10
  28 -34   2   30.76   11.37
   6  28   2   28.41   11.39
 -34   6   2   16.95    8.24
  28 -33  -2   37.04   10.99
   5  28  -2   52.53   12.80
 -33   5  -2   48.08   11.83
 -33   5  -2   32.75   11.38
  28 -33   1  161.52   19.12
 -33   5   1  179.56   18.56
 -33   5   1  167.74   19.86
   5  28   1  143.91   19.04
 -33   5   4   30.60   12.50
 -33   5   4   32.55   11.21
 -32   4  -3   88.31   14.26
   4  28  -3   76.65   13.61
 -32   4  -3   67.93   12.42
  28 -32  -3   63.44   12.06
  28 -32   0   23.35   10.24
   4  28   0   50.27   13.01
 -32   4   0   32.50   10.58
 -32   4   0   25.22   10.54
 -32   4   3   45.51   13.56
  28 -32   3   45.24   12.13
 -32   4   3   33.12   10.06
   3  28  -4   46.79   12.36
 -31   3  -4   45.78   11.56
 -31   3  -4   45.87   11.37
  28 -31  -4   52.41   11.84
  28 -31  -1   70.15   12.37
 -31   3  -1   55.28   11.77
 -31   3  -1   76.83   13.32
   3  28  -1   97.94   15.82
 -31   3   2   -3.88    9.08
  28 -31   2    7.24    9.34
   3  28   2   14.82    8.15
 -31   3   2   -5.55    7.83
 -31   3   5   19.83    9.35
   2  28  -5  171.67   18.38
 -30   2  -5  194.55   18.93
 -30   2  -5  193.50   19.21
  28 -30  -5  158.76   16.86
 -30   2  -2   97.45   13.57
   2  28  -2   95.05   14.51
 -30   2  -2  100.65   14.09
  28 -30  -2   82.36   13.37
   2  28   1  205.69   20.25
 -30   2   1  212.42   19.21
 -30   2   1  201.39   19.48
  28 -30   1  191.59   18.23
 -30   2   4   72.49   14.41
  28 -30   4   62.39   13.96
 -30   2   4   57.65   11.63
   1  28  -6   21.26   10.55
 -29   1  -6    6.16    8.68
 -29   1  -6   22.76    8.93
  28 -29  -6    0.66    6.98
   1  28  -3  131.30   15.77
 -29   1  -3  107.39   14.45
 -29   1  -3  132.00   15.30
  28 -29  -3  126.89   15.39
  28 -29   0   60.39   11.69
   1  28   0   17.80    8.50
 -29   1   0   51.90   10.83
 -29   1   0   49.58   12.20
  28 -29   3  118.87   16.07
 -29   1   3  117.04   14.60
   1  28   3  135.04   17.19
 -29   1   3  120.68   15.88
 -29   1   6   27.18   10.00
 -28   0  -4   47.93   10.41
   0  28  -4   31.76   10.22
 -28   0  -4   53.21   10.81
  28 -28  -4   39.74    9.73
   0  28  -1    0.78    7.33
 -28   0  -1   -1.67    5.73
 -28   0  -1   -3.32    7.02
  28 -28  -1   -6.88    7.02
 -28   0   2   85.62   12.46
   0  28   2   74.13   13.21
  28 -28   2   81.98   13.28
 -28   0   2   74.98   12.63
 -28   0   5    3.37    8.34
 -28   0   5   -1.68    6.88
 -27  -1  -5  286.10   21.73
 -27  -1  -5  308.85   22.17
  -1  28  -5  263.80   21.17
  28 -27  -5  264.49   20.83
  -1  28  -2   97.64   13.54
 -27  -1  -2  107.50   14.47
 -27  -1  -2  114.25   14.26
  28 -27  -2   75.16   11.92
 -27  -1   1  266.35   20.15
 -27  -1   1  245.45   20.23
  -1  28   1  259.03   21.54
  28 -27   1  275.64   20.88
  28 -27   4  107.45   15.47
 -27  -1   4  118.11   14.37
 -27  -1   4   94.34   14.34
  -2  28  -6   32.12    9.94
 -26  -2  -6    7.43    7.72
 -26  -2  -6   36.92    9.71
  28 -26  -6   24.48    9.72
 -26  -2  -3  204.82   17.84
 -26  -2  -3  202.68   17.85
  28 -26  -3  194.80   17.52
  -2  28  -3  225.31   19.11
 -26  -2   0   19.01    7.59
  -2  28   0   35.72   10.81
 -26  -2   0   43.14   10.22
  28 -26   0   46.24   10.42
  28 -26   3  168.82   17.66
 -26  -2   3  188.60   16.84
  -2  28   3  196.88   18.90
 -26  -2   3  180.48   18.27
 -26  -2   6   60.74   11.46
 -25  -3  -7   18.48    8.56
 -25  -3  -7   14.85    8.75
  28 -25  -7    5.50    7.56
  -3  28  -7   15.46    9.15
 -25  -3  -4  122.60   14.13
 -25  -3  -4  101.82   13.17
  -3  28  -4  101.44   13.53
  28 -25  -4  131.75   14.71
 -25  -3  -1   46.22   10.10
 -25  -3  -1   44.47    9.77
  28 -25  -1   67.75   11.77
  -3  28  -1   39.05    9.41
  -3  28   2  121.71   14.77
 -25  -3   2  142.40   14.70
 -25  -3   2  123.46   14.79
  28 -25   2  128.07   15.12
 -25  -3   5   15.91    9.26
  28 -25   5    7.76    8.24
 -25  -3   5   14.23    8.02
 -24  -4  -5  257.77   19.79
 -24  -4  -5  278.26   20.29
  -4  28  -5  289.13   21.54
  28 -24  -5  258.18   19.68
 -24  -4  -2   31.30    8.52
  -4  28  -2   48.41   10.01
 -24  -4  -2   33.05    9.15
  28 -24  -2   38.95    8.59
 -24  -4   1  485.98   25.65
  -4  28   1  396.95   24.10
 -24  -4   1  418.26   24.70
  28 -24   1  450.36   24.81
 -24  -4   4   32.12    9.19
  28 -24   4   32.02    9.81
 -24  -4   4   54.53   10.05
  -4  28   4   49.23   10.94
 -24  -4   7  134.28   14.40
 -23  -5  -6   11.87    7.35
 -23  -5  -6   14.38    8.76
  28 -23  -6   24.20    8.40
  -5  28  -6   -4.40    7.14
 -23  -5  -3  225.24   18.26
 -23  -5  -3  199.01   17.02
  -5  28  -3  230.82   18.36
  28 -23  -3  262.25   18.90
  -5  28   0   37.88   10.08
 -23  -5   0   45.04    9.67
 -23  -5   0   28.14    8.43
  28 -23   0   21.20    7.48
 -23  -5   3  118.24   13.45
  -5  28   3  110.12   13.78
 -23  -5   3  139.07   15.62
  28 -23   3  128.41   15.10
 -23  -5   6   65.62   12.94
 -23  -5   6   80.97   11.78
 -22  -6  -7   30.85    9.51
 -22  -6  -7   56.46   11.58
  -6  28  -7   56.45   12.09
  28 -22  -7   40.31   10.38
 -22  -6  -4  101.43   13.26
 -22  -6  -4  109.64   12.85
  -6  28  -4  105.97   13.54
  28 -22  -4  109.14   12.43
 -22  -6  -1   58.17   10.73
  -6  28  -1   49.13    9.61
 -22  -6  -1   52.60    9.86
  28 -22  -1   52.11    9.17
 -22  -6   2   98.33   12.46
 -22  -6   2   98.29   12.71
  -6  28   2   82.46   12.23
  28 -22   2  101.25   12.71
 -22  -6   5   25.02    8.72
  28 -22   5    9.33    7.60
 -22  -6   5   18.52    7.48
 -22  -6   8   64.20   10.60
 -21  -7  -8    6.91    6.95
 -21  -7  -8   -1.56    8.43
  -7  28  -8   12.82    9.43
  28 -21  -8    6.82    7.80
 -21  -7  -5  203.36   17.53
  -7  28  -5  187.33   17.07
 -21  -7  -5  185.45   16.60
  28 -21  -5  230.24   17.83
  -7  28  -2   20.67    7.69
 -21  -7  -2   27.01    7.75
 -21  -7  -2   15.38    7.23
  28 -21  -2   26.81    8.00
 -21  -7   1  278.04   18.99
  -7  28   1  294.09   19.64
 -21  -7   1  223.10   17.52
  28 -21   1  249.44   17.83
 -21  -7   4   62.50   11.02
  28 -21   4   68.71   11.55
 -21  -7   4   60.98   10.16
  -7  28   4   37.98    9.53
 -21  -7   7  194.57   16.07
 -20  -8  -6  137.57   15.43
  -8  28  -6  184.83   17.56
 -20  -8  -6  164.30   16.66
  28 -20  -6  166.66   15.72
 -20  -8  -3  304.45   20.35
  -8  28  -3  340.33   21.12
 -20  -8  -3  325.41   20.57
  28 -20  -3  303.34   19.60
  -8  28   0   98.41   12.37
 -20  -8   0  108.59   12.41
 -20  -8   0   97.17   11.99
  28 -20   0   94.43   11.69
  -8  28   3  161.96   15.17
 -20  -8   3  176.71   15.24
 -20  -8   3  163.77   16.02
  28 -20   3  164.45   15.74
 -20  -8   6   32.79   10.14
 -20  -8   6   37.53    8.13
 -19  -9  -7   14.07    7.81
  -9  28  -7   -0.68    7.51
 -19  -9  -7   -7.56    6.28
  28 -19  -7   -3.92    7.06
 -19  -9  -4  156.64   15.01
  -9  28  -4  145.27   14.32
 -19  -9  -4  143.05   14.52
  28 -19  -4  125.53   13.23
 -19  -9  -1  167.88   15.12
 -19  -9  -1  182.96   15.24
  -9  28  -1  189.51   15.46
  28 -19  -1  173.94   14.79
 -19  -9   2   22.78    6.95
  -9  28   2   30.59    8.26
 -19  -9   2   48.70    9.51
  28 -19   2   29.80    8.13
 -19  -9   5    7.91    7.58
  28 -19   5   -8.87    7.42
 -19  -9   5    2.26    5.33
 -19  -9   8  147.64   13.62
 -18 -10  -8    3.02    6.84
 -10  28  -8   27.44    9.90
 -18 -10  -8   20.23    9.54
  28 -18  -8   22.66    8.96
 -18 -10  -5  126.43   14.00
 -10  28  -5  133.82   14.26
 -18 -10  -5  133.18   14.59
  28 -18  -5  108.24   12.84
 -18 -10  -2   37.28    8.78
 -18 -10  -2   66.81   10.36
  28 -18  -2   38.44    8.20
 -10  28  -2   50.43    9.29
 -10  28   1  195.38   15.47
 -18 -10   1  170.64   14.82
 -18 -10   1  181.88   15.47
  28 -18   1  202.34   15.69
  28 -18   4    6.52    6.67
 -18 -10   4   10.82    6.60
 -10  28   4   -4.36    7.02
 -18 -10   4    5.60    6.90
 -18 -10   7   76.06   10.22
 -11  28  -6  215.73   18.48
 -17 -11  -6  219.80   18.09
 -17 -11  -6  196.02   17.31
  28 -17  -6  203.42   17.49
 -17 -11  -3  260.14   18.50
 -11  28  -3  274.17   18.48
 -17 -11  -3  278.25   18.79
  28 -17  -3  268.89   18.02
 -17 -11   0  271.97   18.57
 -17 -11   0  293.02   18.54
 -11  28   0  301.29   18.78
  28 -17   0  272.24   17.58
 -17 -11   3  509.28   24.17
 -17 -11   3  549.65   25.71
 -11  28   3  489.45   24.26
  28 -17   3  513.14   24.97
 -17 -11   6   46.74   10.30
 -17 -11   6   24.14    7.05
 -16 -12  -7   34.29    9.34
 -12  28  -7   29.83    8.97
 -16 -12  -7   22.84    8.00
  28 -16  -7   16.12    7.92
 -16 -12  -4   29.42    8.25
 -12  28  -4   22.18    7.22
 -16 -12  -4   30.98    8.29
  28 -16  -4   30.09    8.41
 -16 -12  -1   85.25   11.56
 -16 -12  -1   71.12    9.98
 -12  28  -1   72.75   10.03
  28 -16  -1   87.66   10.99
 -12  28   2   23.10    7.52
 -16 -12   2   17.01    6.90
 -16 -12   2   16.37    6.44
  28 -16   2   12.87    6.79
 -16 -12   5    7.75    6.97
  28 -16   5    1.49    6.42
 -16 -12   5   12.50    6.08
 -12  28   5    9.28    7.22
 -15 -13  -8   14.19    8.04
 -13  28  -8   -8.15    9.23
 -15 -13  -8   18.54    9.46
  28 -15  -8   14.88    7.91
 -15 -13  -5   28.67    8.19
 -13  28  -5   42.39    9.32
  28 -15  -5   36.58    9.10
 -15 -13  -2   -4.12    5.18
 -15 -13  -2    6.02    5.97
 -13  28  -2    2.37    6.15
  28 -15  -2   10.24    6.05
 -15 -13   1   91.74   11.26
 -15 -13   1  113.63   11.60
  28 -15   1  110.70   11.78
 -13  28   1  115.86   11.91
  28 -15   4   28.58    8.11
 -13  28   4   13.97    7.10
 -15 -13   4   18.29    6.61
 -15 -13   4   24.50    7.37
 -15 -13   7   20.17    6.61
 -14  28  -6  175.00   16.91
 -14 -14  -6  130.83   14.94
 -14 -14  -6  164.86   15.92
  28 -14  -6  147.42   15.20
 -14  28  -3  440.32   23.02
 -14 -14  -3  425.53   23.39
 -14 -14  -3  392.52   21.93
  28 -14  -3  439.85   22.37
 -14 -14   0  329.59   19.80
 -14 -14   0  309.85   18.26
 -14  28   0  280.57   17.29
  28 -14   0  294.04   17.30
 -14 -14   3  473.60   22.83
 -14  28   3  436.08   21.68
 -14 -14   3  434.50   21.94
  28 -14   3  460.42   22.74
 -14 -14   6  104.14   11.23
 -14 -14   6  110.14   13.13
 -15  28  -7   33.85   11.11
 -13 -15  -7   39.88    9.91
 -13 -15  -7   46.84   10.72
  28 -13  -7   32.42    9.61
 -13 -15  -4   16.33    7.69
 -15  28  -4    7.60    6.32
 -13 -15  -4   12.55    7.18
  28 -13  -4   18.83    7.02
 -13 -15  -1  155.21   14.32
 -15  28  -1  122.36   11.95
 -13 -15  -1  149.77   13.49
  28 -13  -1  121.56   11.79
 -13 -15   2    8.59    5.85
 -15  28   2   10.73    5.37
 -13 -15   2    2.23    5.12
  28 -13   2   17.25    6.63
  28 -13   5   28.04    7.82
 -15  28   5   58.95   10.21
 -13 -15   5   40.33    7.68
 -13 -15   5   41.22    8.56
 -16  28  -8   14.31    9.24
 -12 -16  -8   19.80    7.59
 -12 -16  -8   14.34    8.47
  28 -12  -8   31.38    9.64
 -12 -16  -5   15.19    8.57
 -16  28  -5    9.64    6.66
 -12 -16  -5   24.09    8.40
  28 -12  -5   -0.99    6.43
 -12 -16  -2    0.28    6.06
 -12 -16  -2    4.57    6.18
 -16  28  -2   -4.72    5.43
  28 -12  -2   -4.82    5.30
 -16  28   1   19.15    6.29
 -12 -16   1   12.28    5.90
 -12 -16   1   34.07    7.65
  28 -12   1   25.85    6.34
 -12 -16   4   59.07    9.23
 -12 -16   4   74.36    9.92
 -16  28   4   48.33    8.71
  28 -12   4   63.65    9.65
 -12 -16   7   11.39    5.60
 -17  28  -6   54.61   10.24
 -11 -17  -6   54.05   10.44
 -11 -17  -6   44.71   10.27
  28 -11  -6   29.96    9.33
 -17  28  -3  453.85   23.27
 -11 -17  -3  421.02   23.68
 -11 -17  -3  454.54   23.13
  28 -11  -3  441.47   22.24
 -11 -17   0  226.81   16.82
 -17  28   0  237.10   15.73
 -11 -17   0  211.13   15.06
  28 -11   0  200.91   14.14
 -11 -17   3  337.32   19.06
 -17  28   3  331.82   17.86
 -11 -17   3  338.06   18.50
  28 -11   3  319.31   18.28
 -11 -17   6  137.25   12.23
 -11 -17   6  156.24   14.10
 -10 -18  -7   48.84   10.88
 -10 -18  -7   55.57   10.56
  28 -10  -7   62.10   12.00
 -18  28  -7   84.75   13.77
 -10 -18  -4   13.27    7.80
 -18  28  -4    9.35    7.10
 -10 -18  -4    6.18    6.73
  28 -10  -4   -0.01    5.71
 -10 -18  -1  162.05   14.51
 -18  28  -1  187.05   14.24
 -10 -18  -1  151.01   13.30
  28 -10  -1  154.47   12.86
 -10 -18   2   26.41    7.39
 -18  28   2   31.89    6.99
 -10 -18   2   23.04    6.06
  28 -10   2   21.56    6.18
  28 -10   5  154.59   13.83
 -18  28   5  113.24   11.55
 -10 -18   5  150.34   12.94
 -10 -18   5  128.96   12.50
 -19  28  -8   65.21   13.11
  -9 -19  -8   61.77   11.52
  -9 -19  -8   98.06   14.40
  28  -9  -8  103.27   14.82
 -19  28  -5    9.38    7.68
  -9 -19  -5   -3.42    5.86
  -9 -19  -5    6.80    6.60
  28  -9  -5   18.27    7.89
 -19  28  -2   65.48    9.80
  -9 -19  -2   49.48    9.23
  -9 -19  -2   71.56   10.09
  28  -9  -2   63.17    9.08
  -9 -19   1  180.52   14.84
  -9 -19   1  160.45   13.13
 -19  28   1  161.23   12.70
  28  -9   1  158.46   12.52
  -9 -19   4  144.21   12.90
  -9 -19   4  175.97   13.93
 -19  28   4  156.54   12.74
  28  -9   4  159.21   13.23
  -9 -19   7    7.94    5.49
  -8 -20  -6   71.18   11.77
  -8 -20  -6   61.97   11.46
  28  -8  -6   35.15    8.91
 -20  28  -6   60.30   11.49
 -20  28  -3  197.33   15.63
  -8 -20  -3  204.28   17.10
  28  -8  -3  190.67   14.96
  -8 -20   0  107.61   12.12
 -20  28   0  110.34   10.79
  -8 -20   0  122.00   11.93
  28  -8   0  102.39   10.34
 -20  28   3  389.52   18.55
  -8 -20   3  401.13   21.15
  -8 -20   3  395.51   19.14
  28  -8   3  374.83   18.60
  -8 -20   6  126.12   11.85
  -8 -20   6  144.44   12.98
  -7 -21  -7  157.32   16.39
  -7 -21  -7  149.41   16.65
  28  -7  -7  154.44   16.75
 -21  28  -7  152.37   16.96
 -21  28  -4   36.01    8.75
  -7 -21  -4   31.66    8.91
  -7 -21  -4   45.17    9.72
  28  -7  -4   36.33    8.67
 -21  28  -1  261.46   16.49
  -7 -21  -1  236.22   16.07
  28  -7  -1  262.65   16.21
  -7 -21   2    4.90    5.69
 -21  28   2    0.96    4.43
  -7 -21   2    3.95    4.59
  28  -7   2   13.30    6.04
  28  -7   5  190.79   13.66
 -21  28   5  188.78   12.86
  -7 -21   5  235.87   15.99
  -7 -21   5  213.44   14.82
 -22  28  -8   75.55   12.96
  -6 -22  -8   62.72   12.31
  -6 -22  -8   63.95   12.86
  28  -6  -8   28.69   10.87
 -22  28  -5    5.73    6.59
  -6 -22  -5   17.22    8.24
  -6 -22  -5   27.53    9.04
  28  -6  -5   13.67    7.03
 -22  28  -2  147.78   13.39
  -6 -22  -2  154.21   14.99
  -6 -22  -2  156.92   13.68
  28  -6  -2  147.79   12.93
  -6 -22   1   58.44    9.62
  -6 -22   1   58.11    8.60
  28  -6   1   68.34    8.48
  -6 -22   4   48.18    8.34
  -6 -22   4   67.70    8.85
 -22  28   4   82.50    9.14
  28  -6   4   75.42    9.08
  -5 -23  -6  115.86   14.58
  -5 -23  -6   78.88   12.60
  28  -5  -6   77.13   11.86
 -23  28  -6  104.56   13.88
  -5 -23  -3  189.79   17.14
  -5 -23  -3  219.87   16.95
  28  -5  -3  190.42   15.04
 -23  28  -3  209.69   16.41
  -5 -23   0   37.55    8.91
  -5 -23   0   31.42    7.20
 -23  28   0   40.72    7.20
  28  -5   0   32.25    6.77
 -23  28   3  224.56   13.51
  -5 -23   3  249.18   14.90
  28  -5   3  223.74   13.90
  -5 -23   6   13.38    6.47
  -4 -24  -7  101.16   14.35
  -4 -24  -7   87.35   13.34
  28  -4  -7  114.92   15.03
 -24  28  -7  112.36   15.37
  -4 -24  -4   71.12   11.80
  -4 -24  -4   68.67   11.13
  28  -4  -4   73.48   11.13
 -24  28  -4   68.03   10.98
 -24  28  -1  396.78   20.20
  -4 -24  -1  392.65   22.87
  -4 -24  -1  412.86   21.20
  28  -4  -1  388.91   19.17
 -24  28   2   27.63    6.09
  -4 -24   2   27.60    7.37
  -4 -24   2   37.14    7.06
  28  -4   2   33.67    6.77
  -4 -24   5  299.57   18.20
  -4 -24   5  259.37   15.26
 -25  28  -5    1.58    7.04
  -3 -25  -5    7.96    7.37
  -3 -25  -5   -0.90    7.02
  28  -3  -5    8.74    7.06
  -3 -25  -2  160.35   15.82
  -3 -25  -2  141.90   13.72
  28  -3  -2  150.16   13.10
 -25  28  -2  151.55   13.59
  -3 -25   1   36.81    9.00
  -3 -25   1   36.95    7.06
 -25  28   1   33.03    6.96
  28  -3   1   37.33    6.65
  -3 -25   4  130.92   12.80
  -3 -25   4  116.15   10.40
  28  -3   4  112.41    9.94
  -2 -26  -6   34.92   10.29
  -2 -26  -6   26.25    9.72
  28  -2  -6   31.39    9.65
 -26  28  -6   36.86   10.35
  -2 -26  -3  202.67   17.96
  -2 -26  -3  219.74   17.19
  28  -2  -3  169.06   14.61
 -26  28  -3  165.26   15.06
  -2 -26   0   33.53    8.50
 -26  28   0   29.08    6.97
  -2 -26   0   35.56    7.70
  28  -2   0   26.37    6.35
 -26  28   3  184.67   11.66
  -2 -26   3  171.92   15.13
  -2 -26   3  183.70   12.84
  28  -2   3  165.45   11.51
  -2 -26   6   29.28    7.32
  -1 -27  -4  137.36   15.96
  -1 -27  -4  161.02   15.92
  28  -1  -4  136.50   13.95
 -27  28  -1  302.37   17.88
  -1 -27  -1  266.92   19.78
  -1 -27  -1  316.31   19.05
  28  -1  -1  334.48   17.76
  -1 -27   2   70.69   10.65
  -1 -27   2   57.01    8.31
 -27  28   2   44.60    7.12
  28  -1   2   53.64    7.22
  -1 -27   5  276.84   17.88
   0 -28  -5   -7.98    7.64
   0 -28  -5   -5.44    7.68
  28   0  -5   16.03    8.41
 -28  28  -5    5.74    7.88
 -28  28  -2   54.38    9.38
   0 -28  -2   65.03   11.69
  28   0  -2   69.09    9.53
   0 -28   1   -6.34    7.09
   0 -28   1   -0.10    4.78
 -28  28   1   -0.91    4.76
  28   0   1    4.87    5.06
   0 -28   4   30.10    7.74
   1 -29  -6    5.71    9.14
   1 -29  -6    8.40    8.66
  28   1  -6   -7.38    8.47
 -29  28  -6    5.64    8.66
   1 -29  -3  123.19   15.05
   1 -29  -3  109.63   13.40
  28   1  -3  132.65   13.36
 -29  28  -3  149.46   14.54
   1 -29   0   36.93    9.25
 -29  28   0   30.58    7.11
   1 -29   0   21.64    6.99
  28   1   0   26.06    6.27
   1 -29   3  108.40   13.04
   1 -29   3   79.19    8.72
   1 -29   6    6.29    5.59
   2 -30  -4   98.50   13.67
  28   2  -4   74.43   11.83
 -30  28  -4   77.35   11.73
   2 -30  -1  206.43   18.60
   2 -30  -1  189.08   15.27
  28   2  -1  175.32   13.40
 -30  28  -1  162.45   13.70
   2 -30   2   74.60   11.15
   2 -30   2   68.50    8.69
   2 -30   5  146.98   14.17
   3 -31  -5   -0.44    8.39
   3 -31  -5   11.44    7.76
  28   3  -5    2.62    6.71
 -31  28  -5    6.99    8.51
 -31  28  -2    2.06    6.15
   3 -31  -2    2.99    6.65
   3 -31  -2   -4.01    6.26
  28   3  -2    2.51    5.70
 -31  28   1   58.84    8.02
   3 -31   1   62.49   11.10
   3 -31   1   54.32    8.67
   3 -31   4   38.99    9.08
   4 -32  -3   13.03    8.64
   4 -32  -3   12.65    8.70
  28   4  -3   13.08    7.23
 -32  28  -3   22.58    8.23
   4 -32   0   10.99    7.44
 -32  28   0   11.97    5.97
   4 -32   0   11.56    6.32
  28   4   0    8.22    5.18
   4 -32   3   57.75   10.28
   5 -33  -4   23.89   10.04
   5 -33  -4   32.51    9.69
  28   5  -4   34.77    9.14
 -33  28  -4   37.07   10.89
   5 -33  -1  159.50   17.21
   5 -33  -1  122.05   12.85
  28   5  -1  137.41   12.06
 -33  28  -1  145.50   13.33
   5 -33   2   36.13    9.73
 -34  28  -2   44.31    9.60
   6 -34  -2   39.38   11.02
   6 -34  -2   21.22    8.63
  28   6  -2   50.05    9.05
   6 -34   1   13.17    8.58
   7 -35   0   17.78    9.73
   7 -35   0   26.22    7.68
 -34   5   0   67.39   13.70
  29 -34   0   56.78   13.02
   5  29   0   37.14   12.16
 -34   5   0   67.06   13.70
  29 -33  -1    7.52    9.07
 -33   4  -1    6.46    7.34
   4  29  -1   -6.55    9.42
 -33   4  -1    4.49    8.55
 -33   4   2    1.92    9.10
  29 -33   2    7.68   10.32
 -33   4   2    8.32    8.55
   4  29   2   10.05   11.25
 -32   3  -2  300.45   23.12
   3  29  -2  274.30   23.69
 -32   3  -2  350.86   25.46
  29 -32  -2  324.49   23.93
 -32   3   1    4.26    8.33
  29 -32   1    4.64    7.53
 -32   3   1    3.38    7.60
   3  29   1   -3.72   10.13
 -32   3   4  319.55   26.88
  29 -32   4  256.75   24.33
 -32   3   4  254.37   22.08
   2  29  -3   92.86   15.03
 -31   2  -3  103.15   14.94
 -31   2  -3  106.46   15.21
  29 -31  -3   64.60   12.82
  29 -31   0   33.53   10.50
 -31   2   0   22.67    9.73
   2  29   0   20.47   10.50
 -31   2   0   19.53    9.27
 -31   2   3   38.73   11.54
  29 -31   3   45.58   12.73
   2  29   3   48.24   14.28
 -31   2   3   21.64    8.50
 -30   1  -4   -1.72    6.46
 -30   1  -4    9.35    8.15
   1  29  -4    5.21    8.08
  29 -30  -4   16.49    8.08
 -30   1  -1   70.35   12.59
   1  29  -1   89.06   14.66
 -30   1  -1   64.87   12.53
  29 -30  -1   52.08   11.64
 -30   1   2    3.87    8.77
  29 -30   2    2.46    8.15
 -30   1   2   -3.91    7.53
   1  29   2    1.35    7.54
 -30   1   5   41.15   12.59
 -30   1   5   46.29   10.95
 -29   0  -5    1.02    7.17
   0  29  -5   -7.32    9.12
 -29   0  -5   -0.92    6.93
  29 -29  -5    9.75    8.68
   0  29  -2  213.25   19.75
 -29   0  -2  165.85   17.89
 -29   0  -2  221.43   19.87
  29 -29  -2  164.82   17.21
   0  29   1   -4.67    8.47
  29 -29   1    6.42    7.47
 -29   0   1   -7.66    8.06
 -29   0   1   -5.59    9.48
  29 -29   4  496.52   31.67
 -29   0   4  517.54   28.45
 -29   0   4  484.50   30.55
  -1  29  -6    9.85    8.91
 -28  -1  -6   22.71    9.80
 -28  -1  -6    7.75    8.70
  29 -28  -6   16.57    8.47
  -1  29  -3  108.48   15.08
 -28  -1  -3  129.88   15.28
 -28  -1  -3   99.10   13.82
  29 -28  -3  142.76   16.03
 -28  -1   0   12.61    7.83
  -1  29   0   23.31    9.27
 -28  -1   0   19.21    8.20
  29 -28   0   25.68    9.55
  29 -28   3  140.58   16.77
  -1  29   3  114.55   16.06
 -28  -1   3  137.61   15.83
 -28  -1   3  157.67   18.13
 -28  -1   6    8.29    8.19
 -27  -2  -4   13.90    8.26
  -2  29  -4    5.38    6.94
 -27  -2  -4   23.17    9.28
  29 -27  -4   29.20    8.56
 -27  -2  -1   13.26    8.17
 -27  -2  -1   16.99    7.38
  29 -27  -1    8.90    7.49
  29 -27   2    5.34    7.38
  -2  29   2   18.56    9.28
 -27  -2   2   18.09    9.10
 -27  -2   2   16.88    9.14
 -27  -2   5   36.50   11.25
 -27  -2   5   19.82    8.44
  -3  29  -5   15.92    9.76
 -26  -3  -5   19.48    8.80
 -26  -3  -5   20.86    8.82
  29 -26  -5   25.03    9.73
  -3  29  -2  516.98   28.20
 -26  -3  -2  487.10   27.19
 -26  -3  -2  425.85   25.29
  29 -26  -2  431.15   24.90
  29 -26   1   -0.99    7.61
  -3  29   1    6.39    8.24
 -26  -3   1   -3.97    6.00
 -26  -3   1   -4.41    6.66
  29 -26   4  247.87   21.43
 -26  -3   4  281.61   20.38
  -3  29   4  217.32   20.18
 -26  -3   4  289.18   23.13
  -4  29  -6   36.61   10.01
 -25  -4  -6   31.69    9.71
 -25  -4  -6   11.22    8.48
  29 -25  -6   47.04   10.57
 -25  -4  -3  125.32   14.80
 -25  -4  -3   93.50   12.62
  29 -25  -3  117.87   14.01
  -4  29  -3  108.04   14.32
 -25  -4   0   68.30   11.12
  -4  29   0   75.32   12.06
 -25  -4   0   84.77   12.62
  29 -25   0  105.65   13.55
 -25  -4   3   82.45   12.14
  -4  29   3  103.58   14.97
 -25  -4   3  102.83   14.41
  29 -25   3  101.45   14.00
 -25  -4   6   49.87   12.82
 -25  -4   6   50.66   10.18
 -24  -5  -7    5.88    7.35
 -24  -5  -7    6.92    6.91
  29 -24  -7    6.99    8.17
  -5  29  -7   10.62    8.40
 -24  -5  -4   93.94   12.77
 -24  -5  -4   68.81   11.61
  -5  29  -4   70.66   11.89
  29 -24  -4   81.67   11.69
 -24  -5  -1    3.56    6.16
  -5  29  -1   10.05    7.52
 -24  -5  -1   17.27    8.09
  29 -24  -1   -9.48    7.37
  29 -24   2   71.09   11.56
 -24  -5   2   59.13   10.68
 -24  -5   2   77.07   12.27
  -5  29   2   73.77   11.81
 -24  -5   5    0.61    7.15
  29 -24   5    5.76    8.59
 -24  -5   5   -3.42    6.97
 -23  -6  -5    3.65    6.76
 -23  -6  -5   14.14    8.53
  29 -23  -5   14.00    8.59
  -6  29  -5   32.46    9.23
 -23  -6  -2  500.49   26.60
 -23  -6  -2  527.27   26.87
  29 -23  -2  494.32   25.54
  -6  29  -2  451.77   25.16
 -23  -6   1   48.09    9.74
  -6  29   1   42.85   10.03
 -23  -6   1   53.29   10.68
  29 -23   1   40.76    9.68
  29 -23   4  312.95   22.85
  -6  29   4  256.44   20.87
 -23  -6   4  282.28   19.81
 -23  -6   4  254.73   20.88
 -23  -6   7   30.50    8.79
 -22  -7  -6  158.02   16.54
  -7  29  -6  155.12   16.58
 -22  -7  -6  170.52   16.94
  29 -22  -6  155.20   15.91
  -7  29  -3   17.12    8.03
 -22  -7  -3   37.17    9.81
 -22  -7  -3   31.43    8.46
  29 -22  -3   22.91    8.06
  -7  29   0  234.60   18.15
 -22  -7   0  237.58   18.14
 -22  -7   0  260.07   18.94
  29 -22   0  240.50   18.38
  -7  29   3   62.70   11.33
 -22  -7   3   62.95   10.79
 -22  -7   3   88.43   13.17
  29 -22   3   70.13   11.56
 -22  -7   6  197.05   19.60
 -22  -7   6  211.49   17.12
 -21  -8  -7    5.50    7.02
 -21  -8  -7   -6.36    7.71
  -8  29  -7    6.95    8.00
  29 -21  -7    3.76    6.92
 -21  -8  -4   47.20    9.52
  -8  29  -4   68.77   11.95
 -21  -8  -4   52.33   10.36
  29 -21  -4   54.58   10.57
 -21  -8  -1   50.81    9.85
  -8  29  -1   35.21    8.65
 -21  -8  -1   40.06    9.61
  29 -21  -1   32.97    8.57
 -21  -8   2  111.33   12.96
  -8  29   2  142.14   15.30
 -21  -8   2  106.93   12.97
  29 -21   2  122.82   14.07
 -21  -8   5    2.04    7.28
  29 -21   5   16.88    9.32
 -21  -8   5    2.60    6.02
 -20  -9  -8   56.46   11.28
  -9  29  -8   78.88   13.41
 -20  -9  -8   67.81   12.30
  29 -20  -8   81.56   13.28
 -20  -9  -5   67.95   11.28
  -9  29  -5   80.71   12.63
 -20  -9  -5   61.86   10.97
  29 -20  -5   81.09   11.89
 -20  -9  -2  172.01   15.89
 -20  -9  -2  161.04   15.42
  -9  29  -2  178.60   15.82
  29 -20  -2  176.03   15.56
  -9  29   1   65.42   10.66
 -20  -9   1   77.95   10.79
 -20  -9   1   68.08   10.74
  29 -20   1   57.79   10.14
  29 -20   4  278.96   20.58
 -20  -9   4  298.15   19.70
  -9  29   4  303.64   21.33
 -20  -9   4  342.77   22.31
 -20  -9   7   64.72   10.10
 -10  29  -6  492.96   27.35
 -19 -10  -6  433.59   25.40
 -19 -10  -6  464.04   26.37
  29 -19  -6  447.55   25.57
 -19 -10  -3  112.62   13.56
 -10  29  -3  138.53   14.30
 -19 -10  -3  143.27   14.57
  29 -19  -3  131.36   13.50
 -19 -10   0  680.96   29.14
  29 -19   0  653.12   27.64
 -10  29   0  651.08   28.01
 -19 -10   3   55.47   10.20
 -10  29   3   57.45   10.36
 -19 -10   3   49.50    9.92
  29 -19   3   68.06   10.90
 -19 -10   6  293.78   18.89
 -19 -10   6  346.83   23.56
 -18 -11  -7   16.00    8.41
 -11  29  -7   18.85    9.38
 -18 -11  -7   24.70    9.25
  29 -18  -7   35.92    9.91
 -18 -11  -4   36.18    8.73
 -18 -11  -4   21.16    8.22
  29 -18  -4   23.06    8.11
 -11  29  -1    8.10    6.67
 -18 -11  -1   -2.71    6.24
 -18 -11  -1    8.24    6.97
  29 -18  -1    0.22    5.13
 -11  29   2   32.65    8.31
 -18 -11   2   15.37    6.43
 -18 -11   2   26.97    7.92
  29 -18   2   33.26    8.22
 -18 -11   5    5.16    7.20
  29 -18   5    5.90    7.47
 -11  29   5   13.49    9.12
 -18 -11   5    5.58    6.25
 -17 -12  -8   -5.51    8.67
 -12  29  -8   27.73   10.69
 -17 -12  -8   10.44    7.57
  29 -17  -8   10.50    7.87
 -17 -12  -5   43.20    9.80
 -17 -12  -5   67.99   10.95
 -12  29  -5   59.54   11.44
  29 -17  -5   65.57   10.92
 -17 -12  -2  123.21   13.51
 -12  29  -2  161.33   14.80
 -17 -12  -2  174.25   15.10
  29 -17  -2  159.95   14.44
 -12  29   1  113.92   12.39
 -17 -12   1  112.11   12.67
 -17 -12   1   90.98   11.41
  29 -17   1   96.01   11.51
 -17 -12   4   68.23   10.17
 -12  29   4   70.60   11.41
 -17 -12   4   65.08   10.61
  29 -17   4   59.51   10.83
 -17 -12   7   12.52    7.31
 -13  29  -6  720.95   32.69
 -16 -13  -6  694.01   31.48
 -16 -13  -6  671.98   31.50
  29 -16  -6  682.32   30.90
 -16 -13  -3   72.71   10.83
 -16 -13  -3   31.99    8.79
 -13  29  -3   47.29    9.61
  29 -16  -3   57.75    9.34
 -16 -13   0  503.82   24.86
 -16 -13   0  592.39   25.85
 -13  29   0  565.55   24.81
  29 -16   0  590.23   25.51
  29 -16   3   19.17    7.78
 -16 -13   3   11.85    6.62
 -13  29   3   17.04    7.63
 -16 -13   3   10.27    6.52
 -16 -13   6  484.66   23.34
 -16 -13   6  398.74   24.19
 -15 -14  -7   40.85    9.54
 -14  29  -7   40.57   11.00
 -15 -14  -7   68.88   12.52
  29 -15  -7   45.77   11.01
 -15 -14  -4   -4.04    6.50
 -14  29  -4   -2.18    6.29
 -15 -14  -4   -3.89    5.57
  29 -15  -4   -4.53    6.67
 -15 -14  -1   71.27   10.63
 -14  29  -1   82.13   10.48
 -15 -14  -1   64.53    9.82
  29 -15  -1   88.41   10.69
 -15 -14   2   -0.95    5.32
 -15 -14   2    4.54    6.00
 -14  29   2   -4.84    6.18
  29 -15   2   -3.30    5.27
  29 -15   5   67.27   10.65
 -15 -14   5   66.99    9.88
 -14  29   5   44.66    9.48
 -15 -14   5   49.67    9.92
 -15  29  -8    7.00    8.74
 -14 -15  -8   11.91    8.70
 -14 -15  -8   22.16    9.47
  29 -14  -8    3.23    7.44
 -14 -15  -5   32.53    8.63
 -15  29  -5   32.22    9.09
 -14 -15  -5   28.21    8.86
  29 -14  -5   42.55    9.51
 -14 -15  -2    5.85    6.49
 -14 -15  -2   13.70    6.84
 -15  29  -2   -0.69    5.72
  29 -14  -2    1.66    5.89
 -14 -15   1   52.82    9.46
 -15  29   1   35.32    8.00
 -14 -15   1   46.00    8.19
  29 -14   1   37.78    8.35
 -15  29   4    5.79    6.79
  29 -14   4   -3.07    5.50
 -14 -15   4    2.12    5.85
 -14 -15   4    1.26    5.55
 -14 -15   7   32.86    7.84
 -16  29  -6  483.28   27.06
 -13 -16  -6  482.22   26.92
 -13 -16  -6  498.50   27.03
  29 -13  -6  528.36   27.23
 -13 -16  -3   15.06    7.53
 -16  29  -3   19.94    8.03
 -13 -16  -3    3.46    6.02
  29 -13  -3   13.51    6.34
 -13 -16   0  561.27   26.05
 -13 -16   0  544.40   24.14
 -16  29   0  547.00   24.02
  29 -13   0  519.37   23.27
 -13 -16   3   77.72   10.02
 -16  29   3   60.27    9.08
 -13 -16   3   85.99   10.92
  29 -13   3   70.02    9.79
 -13 -16   6  600.38   25.29
 -13 -16   6  586.40   27.35
 -17  29  -7   11.92    9.08
 -12 -17  -7   19.34    8.19
 -12 -17  -7   29.11   10.40
  29 -12  -7   19.44    8.74
 -17  29  -4   83.40   11.41
 -12 -17  -4   87.83   12.32
 -12 -17  -4   67.10   10.67
  29 -12  -4   72.81   10.58
 -12 -17  -1  114.85   12.96
 -17  29  -1  130.46   12.85
 -12 -17  -1  108.96   12.14
  29 -12  -1  117.90   11.94
 -17  29   2  162.68   13.41
 -12 -17   2  172.68   14.77
 -12 -17   2  159.00   13.45
  29 -12   2  171.39   13.94
  29 -12   5   76.72   11.38
 -17  29   5   56.04    9.57
 -12 -17   5   71.72   10.08
 -12 -17   5   63.39    9.87
 -18  29  -8   58.29   12.96
 -11 -18  -8   45.62   10.81
 -11 -18  -8   54.54   11.73
  29 -11  -8   41.64   11.61
 -11 -18  -5  -11.50    7.78
 -18  29  -5    4.39    7.24
 -11 -18  -5    7.69    7.47
  29 -11  -5    0.40    6.40
 -11 -18  -2    9.21    6.83
 -18  29  -2   13.72    6.39
 -11 -18  -2   16.81    6.85
  29 -11  -2   17.69    6.70
 -11 -18   1   41.89    8.63
 -11 -18   1   56.63    8.97
 -18  29   1   63.72    9.28
  29 -11   1   58.80    8.91
 -11 -18   4   68.11    9.26
 -11 -18   4   68.88   10.00
  29 -11   4   76.69   10.56
 -18  29   4   58.44    9.29
 -11 -18   7   12.41    6.26
 -10 -19  -6  331.14   22.84
 -10 -19  -6  345.59   23.29
  29 -10  -6  360.68   23.04
 -19  29  -6  335.50   23.07
 -10 -19  -3   49.90   10.21
 -19  29  -3   50.63    9.59
 -10 -19  -3   40.57    9.06
  29 -10  -3   41.48    9.13
 -10 -19   0  672.29   28.51
 -19  29   0  613.26   24.65
 -10 -19   0  625.43   25.70
  29 -10   0  617.66   24.55
 -10 -19   3   79.12   10.74
 -10 -19   3   63.48    9.43
  29 -10   3   86.45   10.30
 -10 -19   6  393.51   20.34
 -10 -19   6  357.41   20.56
  -9 -20  -7   74.01   12.29
  -9 -20  -7   70.36   13.15
  29  -9  -7   74.51   12.87
 -20  29  -7   86.96   13.94
 -20  29  -4  280.01   19.54
  -9 -20  -4  327.41   21.94
  -9 -20  -4  297.50   20.20
  29  -9  -4  289.24   19.19
  -9 -20  -1   73.18   10.95
 -20  29  -1   81.33   10.41
  -9 -20  -1   63.21    9.73
  29  -9  -1   65.44    9.21
  -9 -20   2  125.06   12.63
  -9 -20   2  136.28   12.39
  29  -9   2  145.87   12.37
 -20  29   2  146.70   12.24
  29  -9   5   73.48    9.98
 -20  29   5   68.84    9.50
  -9 -20   5   72.62   10.04
 -21  29  -5   -1.10    6.93
  -8 -21  -5    4.05    6.44
  -8 -21  -5   -1.31    6.42
  29  -8  -5   -0.92    5.84
 -21  29  -2  147.54   13.69
  -8 -21  -2  148.24   14.64
  -8 -21  -2  157.56   14.39
  29  -8  -2  138.98   12.73
  -8 -21   1   46.49    8.98
 -21  29   1   37.83    7.83
  -8 -21   1   35.65    7.96
  29  -8   1   24.99    6.33
  29  -8   4   46.05    8.37
  -8 -21   4   39.60    8.24
 -21  29   4   37.41    7.40
  -8 -21   4   52.92    8.85
  -7 -22  -6  253.03   20.21
  -7 -22  -6  240.36   19.59
  29  -7  -6  221.79   18.62
 -22  29  -6  210.39   18.64
 -22  29  -3   84.63   11.56
  -7 -22  -3   75.29   11.75
  -7 -22  -3  100.21   12.33
  29  -7  -3  102.55   11.79
  -7 -22   0  194.28   16.55
 -22  29   0  199.77   14.30
  -7 -22   0  191.98   14.65
  29  -7   0  172.67   13.23
  -7 -22   3   58.06    9.52
  -7 -22   3   37.61    7.58
 -22  29   3   33.22    6.87
  29  -7   3   34.75    7.83
  -7 -22   6  175.19   14.10
 -23  29  -7   61.81   13.22
  -6 -23  -7   27.00    9.17
  -6 -23  -7   49.45   11.40
  29  -6  -7   19.78    8.92
  -6 -23  -4  188.17   17.57
  -6 -23  -4  202.42   17.19
  29  -6  -4  224.30   17.38
 -23  29  -4  230.73   18.40
 -23  29  -1   56.44    8.93
  -6 -23  -1   51.74    9.77
  -6 -23  -1   67.55    9.53
  29  -6  -1   47.76    8.26
  -6 -23   2  452.80   23.55
  -6 -23   2  458.86   20.87
 -23  29   2  498.03   20.62
  29  -6   2  443.05   19.99
  -6 -23   5   42.66    8.38
  -6 -23   5   26.68    7.20
 -24  29  -5   -2.21    7.11
  -5 -24  -5   11.21    8.11
  -5 -24  -5    0.62    7.01
  29  -5  -5    0.99    6.45
 -24  29  -2   76.06   10.41
  -5 -24  -2   68.52   11.49
  -5 -24  -2   65.21   10.07
  29  -5  -2   57.50    9.16
  -5 -24   1   14.37    6.66
  -5 -24   1   13.75    6.43
 -24  29   1   20.49    5.96
  29  -5   1    4.32    4.81
  29  -5   4   57.84    8.01
  -5 -24   4   57.84    9.66
  -5 -24   4   63.22    8.98
  -4 -25  -6   77.56   13.20
  29  -4  -6   69.70   12.01
 -25  29  -6   83.89   13.89
  -4 -25  -3   76.56   12.29
  -4 -25  -3   75.07   11.61
  29  -4  -3   63.95    9.88
 -25  29  -3   86.41   11.64
  -4 -25   0  110.06   13.26
 -25  29   0  110.36   10.71
  -4 -25   0   88.37   10.74
  29  -4   0   99.89   10.15
 -25  29   3  123.41   10.58
  -4 -25   3  103.78   11.83
  -4 -25   3  130.82   11.47
  29  -4   3   97.39    9.98
  -4 -25   6   35.73    7.95
  -3 -26  -4  346.00   23.48
  -3 -26  -4  278.65   19.98
  29  -3  -4  299.39   19.86
 -26  29  -4  280.21   19.80
  -3 -26  -1    8.11    6.31
 -26  29  -1    5.94    5.75
  -3 -26  -1    0.42    5.53
  29  -3  -1   16.35    6.33
  -3 -26   2  452.33   24.10
  -3 -26   2  416.96   19.63
  29  -3   2  415.39   18.84
  -3 -26   5   28.11    7.67
 -27  29  -5   48.42   10.55
  -2 -27  -5   66.50   12.08
  -2 -27  -5   53.49   10.90
  29  -2  -5   46.19   10.57
 -27  29  -2    8.14    6.62
  -2 -27  -2   19.42    7.94
  -2 -27  -2    8.81    6.74
  29  -2  -2   24.44    7.02
  -2 -27   1   44.34    9.22
  -2 -27   1   22.24    6.49
 -27  29   1   30.37    6.88
  29  -2   1   24.87    6.59
  -2 -27   4   18.43    7.40
  -1 -28  -6   23.53    9.55
  -1 -28  -6   21.95   10.20
  29  -1  -6   21.13    9.10
 -28  29  -6   25.80   10.69
  -1 -28  -3  135.98   15.70
  -1 -28  -3  111.75   13.31
  29  -1  -3  111.10   12.42
 -28  29  -3  114.34   13.24
  -1 -28   0   39.07    9.47
 -28  29   0   36.54    7.91
  -1 -28   0   41.02    8.26
  29  -1   0   29.82    6.73
  -1 -28   3   87.36   11.80
  -1 -28   3   75.38    8.91
  -1 -28   6    8.41    6.60
   0 -29  -4  533.63   29.72
   0 -29  -4  537.41   28.01
  29   0  -4  570.90   27.31
 -29  29  -4  460.82   25.78
   0 -29  -1   -1.67    6.32
 -29  29  -1    2.04    5.65
   0 -29  -1    9.34    6.29
  29   0  -1   -1.07    5.34
   0 -29   2  162.44   15.70
   0 -29   2  185.15   13.54
   0 -29   5    1.77    5.89
   1 -30  -5   36.57   10.99
   1 -30  -5   47.24   11.16
  29   1  -5   43.38   10.05
 -30  29  -5   40.25   10.81
 -30  29  -2   -5.77    6.14
   1 -30  -2    6.97    7.13
   1 -30  -2   -0.56    6.52
  29   1  -2   -7.48    6.00
   1 -30   1   70.91   11.60
   1 -30   1   54.63    8.62
 -30  29   1   44.29    7.39
  29   1   1   59.79    7.99
   1 -30   4    5.14    6.77
 -31  29  -3   38.03    9.26
   2 -31  -3   10.44    8.78
   2 -31  -3   17.32    8.44
  29   2  -3   10.91    7.20
   2 -31   0   30.63    9.93
 -31  29   0   32.27    7.38
   2 -31   0   22.76    6.86
  29   2   0   21.84    6.56
   2 -31   3   89.91   12.34
   3 -32  -4  356.01   25.78
   3 -32  -4  338.30   23.23
  29   3  -4  347.49   22.12
 -32  29  -4  330.74   22.92
 -32  29  -1   -2.79    6.16
   3 -32  -1    2.64    7.96
   3 -32  -1    1.22    5.98
  29   3  -1    1.31    5.57
   3 -32   2  303.94   21.42
 -33  29  -2    5.11    6.53
   4 -33  -2    2.82    7.97
   4 -33  -2    0.54    6.59
  29   4  -2   -4.30    6.62
   4 -33   1   12.49    7.98
   4 -33   1    3.80    5.52
   5 -34   0   35.37   11.07
   5 -34   0   38.01    8.42
  30 -34   1  151.76   18.72
 -34   4   1  209.62   21.10
 -34   4   1  186.32   21.54
   4  30   1  164.45   20.50
  30 -33   0   42.13   12.51
   3  30   0   43.51   13.04
 -33   3   0   49.01   11.84
 -33   3   0   37.34   12.95
  30 -32  -1    6.54    8.00
   2  30  -1   13.90    9.70
 -32   2  -1    9.58    8.42
 -32   2  -1   15.99    9.11
 -32   2   2   11.58   10.30
  30 -32   2    3.61    9.41
   2  30   2   21.88   10.88
 -32   2   2    3.90    7.81
 -31   1  -2   65.53   12.41
   1  30  -2   73.27   14.29
 -31   1  -2   45.94   10.98
  30 -31  -2   58.36   12.69
   1  30   1  157.93   18.84
 -31   1   1  118.19   15.78
 -31   1   1  184.74   20.01
  30 -31   1  136.37   17.26
  30 -31   4   87.11   15.60
 -31   1   4   93.49   15.10
 -31   1   4  102.67   17.20
 -30   0  -3    3.65    8.08
 -30   0  -3   -5.84    7.73
  30 -30  -3   -3.29    7.78
   0  30  -3   -0.56    8.55
  30 -30   0   17.47    8.77
   0  30   0   53.00   12.37
 -30   0   0   41.45   10.24
 -30   0   0   38.51   10.92
 -30   0   3    5.30    9.16
  30 -30   3    9.33    9.51
 -30   0   3   16.52    8.64
   0  30   3   -2.01    9.77
 -29  -1  -4   14.45    8.72
  -1  30  -4    3.00    7.41
 -29  -1  -4   18.15    9.46
  30 -29  -4   12.60    8.31
 -29  -1  -1   51.77   11.32
  -1  30  -1   84.54   14.11
 -29  -1  -1   43.51   10.82
  30 -29  -1   56.95   11.63
  30 -29   2    0.52    7.99
 -29  -1   2    4.65    7.65
  -1  30   2   -1.74    7.57
 -29  -1   2    1.91    8.47
 -29  -1   5   30.35   12.20
 -29  -1   5   30.33    9.81
 -28  -2  -5  212.94   19.94
 -28  -2  -5  214.87   19.73
  30 -28  -5  204.51   18.99
  -2  30  -5  219.15   20.81
  -2  30  -2   83.05   14.05
 -28  -2  -2   80.94   12.68
 -28  -2  -2   66.96   11.68
  30 -28  -2   64.53   12.00
 -28  -2   1  169.88   17.10
 -28  -2   1  233.77   20.60
  30 -28   1  196.17   18.78
  -2  30   1  170.80   18.59
  30 -28   4   89.14   14.86
 -28  -2   4   86.69   13.36
 -28  -2   4   93.10   14.86
 -27  -3  -6   77.07   13.32
 -27  -3  -6   54.99   11.81
  -3  30  -6   90.93   15.23
  30 -27  -6   80.60   13.30
 -27  -3  -3   29.51    9.92
  -3  30  -3    8.30    8.57
 -27  -3  -3   13.96    7.48
  30 -27  -3   -2.87    7.68
 -27  -3   0   61.93   11.14
  -3  30   0   72.21   12.16
 -27  -3   0   72.45   12.09
  30 -27   0   72.24   12.50
 -27  -3   3    7.48    7.58
  30 -27   3   -2.17    8.21
 -27  -3   3    4.49    6.89
  -3  30   3   -3.88    8.28
 -27  -3   6   35.17    9.88
  -4  30  -4   19.41    8.87
 -26  -4  -4   15.73    8.64
 -26  -4  -4   13.93    7.39
  30 -26  -4   18.90    8.15
  -4  30  -1   97.21   14.38
 -26  -4  -1   86.75   13.25
 -26  -4  -1   61.88   11.06
  30 -26  -1   70.62   12.48
  -4  30   2   19.21    9.07
  30 -26   2   26.87    9.84
 -26  -4   2   16.50    8.47
 -26  -4   2   -2.83    7.80
 -26  -4   5   17.34   10.72
  30 -26   5    2.18    9.97
 -26  -4   5    8.37    7.30
 -25  -5  -5  354.62   24.32
 -25  -5  -5  340.50   23.54
  -5  30  -5  328.70   23.44
  30 -25  -5  369.62   24.16
  -5  30  -2  147.38   15.54
 -25  -5  -2  141.01   15.85
 -25  -5  -2  134.53   14.98
  30 -25  -2  142.52   15.22
 -25  -5   1  247.40   19.36
  -5  30   1  249.69   20.70
 -25  -5   1  255.56   19.96
  30 -25   1  238.14   19.54
 -25  -5   4   33.93   10.40
  30 -25   4   61.23   12.46
 -25  -5   4   43.70    9.58
  -5  30   4   63.09   13.23
 -24  -6  -6   19.23    8.96
 -24  -6  -6   13.68    8.58
  30 -24  -6   19.69    9.29
  -6  30  -6   36.16   10.67
  -6  30  -3   56.10   11.16
 -24  -6  -3   62.91   11.20
 -24  -6  -3   72.61   11.49
  30 -24  -3   62.14   11.00
  -6  30   0  156.81   16.14
 -24  -6   0  145.87   15.04
 -24  -6   0  109.91   14.07
  30 -24   0  136.97   14.74
  -6  30   3   84.79   12.66
 -24  -6   3  113.28   14.15
 -24  -6   3   96.37   14.15
  30 -24   3   93.52   14.03
 -24  -6   6  121.35   16.60
 -24  -6   6  123.73   14.46
 -23  -7  -7   23.35    9.42
 -23  -7  -7   23.99    9.90
  -7  30  -7   25.09    9.58
  30 -23  -7   25.20   10.15
  -7  30  -4    3.10    6.57
 -23  -7  -4   12.54    7.59
 -23  -7  -4    6.83    7.07
  30 -23  -4   -3.30    7.64
 -23  -7  -1   22.75    7.96
  -7  30  -1   16.95    8.70
 -23  -7  -1   22.70    8.21
  30 -23  -1   20.06    7.27
  30 -23   2   36.73    9.45
  -7  30   2   38.12   10.43
 -23  -7   2   35.08    8.93
 -23  -7   2   55.00   10.56
 -23  -7   5    9.49    8.99
  30 -23   5   14.91    9.00
 -23  -7   5   19.68    7.97
 -22  -8  -5  176.82   17.23
  -8  30  -5  177.32   17.11
 -22  -8  -5  175.69   17.58
  30 -22  -5  184.64   17.01
 -22  -8  -2  118.18   14.42
 -22  -8  -2  123.45   14.24
  -8  30  -2  122.91   14.33
  30 -22  -2   93.52   12.30
 -22  -8   1  269.40   19.67
  -8  30   1  302.66   20.83
 -22  -8   1  245.20   18.87
  30 -22   1  230.25   18.45
  30 -22   4   43.76   11.52
 -22  -8   4   56.83   10.77
 -22  -8   4   71.45   12.66
  -8  30   4   48.19   11.33
 -22  -8   7   98.23   12.75
 -21  -9  -6   26.94    9.23
 -21  -9  -6   30.65   10.45
  -9  30  -6   27.89   10.25
  30 -21  -6   38.30   10.38
 -21  -9  -3  406.10   24.24
 -21  -9  -3  345.95   22.06
  -9  30  -3  445.39   25.18
  30 -21  -3  411.64   23.56
  -9  30   0  119.91   13.55
 -21  -9   0   83.12   11.76
 -21  -9   0  105.00   12.68
  -9  30   3  298.52   21.46
 -21  -9   3  328.96   21.19
 -21  -9   3  304.70   21.48
  30 -21   3  322.84   21.97
 -21  -9   6  128.20   14.13
 -21  -9   6  114.99   15.90
 -20 -10  -7   27.96    9.47
 -20 -10  -7   29.37    9.38
 -10  30  -7   40.27   10.28
  30 -20  -7   21.60    8.07
 -20 -10  -4   18.14    7.75
 -20 -10  -4   24.86    8.79
 -10  30  -4    2.75    6.52
  30 -20  -4   14.41    7.38
 -10  30  -1   25.22    8.22
 -20 -10  -1   31.63    8.57
 -20 -10  -1   39.37    9.26
  30 -20  -1   18.42    7.39
 -20 -10   2   38.89    9.41
 -10  30   2   30.84    8.88
 -20 -10   2   45.54    9.58
  30 -20   2   39.04    9.36
 -20 -10   5    1.22    7.11
  30 -20   5    6.93    8.16
 -10  30   5    9.08    7.99
 -20 -10   5    6.13    6.54
 -19 -11  -5   48.47   10.52
 -19 -11  -5   32.06    9.74
 -11  30  -5   40.62    9.91
  30 -19  -5   45.42   10.61
 -11  30  -2   45.37    9.41
 -19 -11  -2   38.93    9.05
 -19 -11  -2   55.43   10.38
  30 -19  -2   29.15    8.27
 -11  30   1   78.09   11.55
 -19 -11   1   68.54   10.64
 -19 -11   1   58.53   10.01
  30 -19   1   77.87   11.84
 -19 -11   4  171.30   15.41
 -11  30   4  136.58   14.68
 -19 -11   4  151.98   15.65
  30 -19   4  147.06   15.64
 -19 -11   7   87.84   11.83
 -12  30  -6   94.34   14.07
 -18 -12  -6  108.78   13.92
 -18 -12  -6   51.94   11.09
  30 -18  -6   60.10   11.11
 -18 -12  -3  324.64   21.73
 -12  30  -3  350.61   22.05
 -18 -12  -3  326.56   21.18
  30 -18  -3  359.69   21.41
 -18 -12   0  114.80   13.00
 -18 -12   0  151.89   14.58
  30 -18   0  130.85   13.29
 -12  30   0  121.52   13.12
 -18 -12   3  480.56   24.46
 -18 -12   3  485.78   25.24
 -12  30   3  492.94   25.70
  30 -18   3  485.78   25.43
 -18 -12   6  142.08   13.73
 -18 -12   6  156.88   16.98
 -17 -13  -7   31.34   10.12
 -13  30  -7   13.02    9.68
 -17 -13  -7   21.39    9.87
  30 -17  -7   42.32   10.20
 -17 -13  -4   22.20    8.10
 -17 -13  -4    2.35    6.84
 -13  30  -4   18.73    7.64
  30 -17  -4   17.12    7.65
 -13  30  -1    1.35    5.94
 -17 -13  -1   -4.62    6.10
 -17 -13  -1   -3.97    5.29
  30 -17  -1   -0.19    5.53
 -13  30   2   -4.74    6.55
 -17 -13   2   -0.99    5.41
 -17 -13   2    3.14    6.01
  30 -17   2   16.70    7.19
 -17 -13   5    8.88    7.78
  30 -17   5   31.04    9.68
 -17 -13   5   15.74    7.18
 -13  30   5    8.62    7.66
 -16 -14  -5    0.02    6.88
 -14  30  -5   10.53    8.38
 -16 -14  -5   -5.02    7.24
  30 -16  -5    3.08    7.50
 -16 -14  -2   -2.79    6.36
 -16 -14  -2    8.82    6.52
 -14  30  -2    0.28    5.53
  30 -16  -2    8.89    6.07
 -16 -14   1    8.15    6.19
 -14  30   1   22.10    7.00
 -16 -14   1    3.90    6.11
  30 -16   1    8.46    5.93
  30 -16   4   17.08    7.71
 -14  30   4   25.76    8.46
 -16 -14   4   23.08    7.65
 -16 -14   4   22.29    7.80
 -16 -14   7   22.01    7.76
 -15  30  -6  125.89   15.50
 -15 -15  -6  157.18   16.27
 -15 -15  -6  125.82   15.40
  30 -15  -6  142.65   14.99
 -15 -15  -3  417.90   24.15
 -15  30  -3  436.44   23.62
 -15 -15  -3  400.61   22.90
  30 -15  -3  449.94   23.82
 -15  30   0   39.21    8.56
 -15 -15   0   43.18    9.40
 -15 -15   0   36.05    8.35
  30 -15   0   27.08    7.61
 -15 -15   3  344.23   20.51
 -15  30   3  298.05   19.04
 -15 -15   3  344.96   21.00
  30 -15   3  334.36   20.37
 -15 -15   6  191.48   15.41
 -15 -15   6  186.45   17.07
 -14 -16  -7   28.49    9.49
 -16  30  -7   43.81   10.71
 -14 -16  -7   21.79    8.75
  30 -14  -7   32.83    9.69
 -14 -16  -4   55.83   10.29
 -16  30  -4   34.92    9.04
 -14 -16  -4   29.54    8.10
  30 -14  -4   44.29    9.57
 -14 -16  -1    5.06    6.71
 -14 -16  -1    6.36    6.27
  30 -14  -1    5.14    5.78
 -16  30  -1    0.49    5.30
 -14 -16   2    9.68    6.42
 -14 -16   2   19.56    7.08
 -16  30   2    6.57    6.16
  30 -14   2    6.51    6.70
  30 -14   5   -5.12    6.71
 -14 -16   5    7.22    6.02
 -16  30   5    4.28    6.64
 -14 -16   5    0.97    6.68
 -13 -17  -5    4.66    7.20
 -17  30  -5    9.32    7.13
 -13 -17  -5    5.20    7.20
  30 -13  -5   15.90    7.75
 -13 -17  -2    1.41    6.11
 -13 -17  -2    7.69    6.87
 -17  30  -2   13.04    6.98
  30 -13  -2    2.73    5.93
 -13 -17   1   11.71    6.51
 -17  30   1   14.94    6.23
 -13 -17   1   15.52    7.45
  30 -13   1   -0.03    5.01
  30 -13   4   24.60    7.43
 -13 -17   4   19.54    7.16
 -17  30   4   17.41    7.22
 -13 -17   4   10.08    6.02
 -13 -17   7   14.37    8.02
 -13 -17   7    7.65    6.40
 -18  30  -6  101.67   14.77
 -12 -18  -6   93.34   13.30
 -12 -18  -6   82.44   12.79
  30 -12  -6  102.44   13.72
 -18  30  -3  565.50   26.81
 -12 -18  -3  503.89   26.60
 -12 -18  -3  566.76   27.00
  30 -12  -3  569.05   26.17
 -12 -18   0  140.75   14.16
 -12 -18   0  161.94   14.01
 -18  30   0  131.72   12.72
  30 -12   0  175.40   14.04
 -12 -18   3  391.11   21.67
 -18  30   3  380.69   20.48
 -12 -18   3  380.40   20.65
  30 -12   3  382.45   20.62
 -12 -18   6   93.35   10.94
 -12 -18   6  119.31   13.63
 -19  30  -7   68.18   13.05
 -11 -19  -7   91.51   13.84
 -11 -19  -7   56.97   12.08
  30 -11  -7   60.47   12.10
 -19  30  -4  159.86   15.29
 -11 -19  -4  100.00   13.26
 -11 -19  -4  171.54   16.46
  30 -11  -4   87.12   11.58
 -11 -19  -1   75.05   10.79
 -19  30  -1   85.40   10.78
 -11 -19  -1   75.25   10.50
  30 -11  -1   83.20   10.31
 -19  30   2   73.02    9.59
 -11 -19   2   66.27   10.08
 -11 -19   2  100.48   11.49
  30 -11   2   82.08   10.35
  30 -11   5   15.97    7.22
 -19  30   5   17.73    7.23
 -11 -19   5   19.60    6.87
 -11 -19   5   12.69    6.88
 -10 -20  -5   -0.04    7.25
 -20  30  -5    4.22    7.10
 -10 -20  -5    3.66    6.46
  30 -10  -5    3.73    6.62
 -20  30  -2   72.82   10.77
 -10 -20  -2   77.23   11.71
 -10 -20  -2   48.83    9.44
  30 -10  -2   57.21    9.62
 -20  30   1   48.19    8.38
 -10 -20   1   64.05   10.20
 -10 -20   1   49.19    8.76
  30 -10   1   34.13    7.45
  30 -10   4   15.93    6.22
 -10 -20   4    7.38    5.50
 -20  30   4   17.15    6.81
 -10 -20   4   20.06    7.04
  -9 -21  -6   98.38   13.86
  -9 -21  -6   99.70   14.22
  30  -9  -6  114.30   14.63
 -21  30  -6  110.22   14.23
 -21  30  -3  331.90   20.73
  -9 -21  -3  340.56   22.59
  -9 -21  -3  329.73   21.05
  30  -9  -3  329.79   20.13
  -9 -21   0  132.16   13.84
 -21  30   0  134.66   12.52
  30  -9   0  122.81   11.88
  -9 -21   3  331.99   20.29
 -21  30   3  372.59   19.29
  -9 -21   3  343.68   19.18
  30  -9   3  367.91   19.98
  -9 -21   6   37.96    8.80
  -9 -21   6   34.00    7.55
  -8 -22  -7  116.97   15.31
  -8 -22  -7  118.83   15.43
  30  -8  -7  131.18   16.16
 -22  30  -7  114.05   15.66
  -8 -22  -4   51.53   10.73
 -22  30  -4   39.09    9.57
  -8 -22  -4   24.02    8.49
  30  -8  -4   56.85    9.96
  -8 -22  -1  263.02   19.38
 -22  30  -1  265.30   17.36
  -8 -22  -1  281.20   18.39
  30  -8  -1  238.12   16.28
  -8 -22   2  130.94   13.43
  -8 -22   2  152.91   13.25
  30  -8   2  154.29   12.66
 -22  30   2  154.49   12.87
  30  -8   5  124.54   12.49
  -8 -22   5  145.67   13.83
  -8 -22   5  123.79   12.35
 -23  30  -5    1.44    6.64
  -7 -23  -5    0.98    6.50
  -7 -23  -5   10.69    8.45
  30  -7  -5   -1.56    6.71
  -7 -23  -2   48.33    9.88
 -23  30  -2   36.17    8.38
  -7 -23  -2   54.09    9.30
  30  -7  -2   32.97    8.08
  -7 -23   1   27.41    7.73
  -7 -23   1   39.47    7.63
  30  -7   1   27.57    6.75
 -23  30   1   34.28    7.52
  30  -7   4    8.71    6.07
 -23  30   4    7.80    5.66
  -7 -23   4    2.78    6.41
  -7 -23   4    8.48    6.04
 -24  30  -6   50.26   11.56
  -6 -24  -6   65.84   12.09
  -6 -24  -6   94.05   13.86
  30  -6  -6   91.41   13.45
 -24  30  -3  123.89   13.43
  -6 -24  -3  121.39   14.68
  -6 -24  -3  133.93   14.00
  30  -6  -3  110.67   12.53
  -6 -24   0  148.60   15.05
 -24  30   0  126.53   12.03
  -6 -24   0  137.45   12.84
  30  -6   0  122.19   11.68
 -24  30   3   59.79    8.58
  -6 -24   3   63.83   10.21
  -6 -24   3   52.06    8.31
  30  -6   3   57.86    8.28
  -6 -24   6   27.86    7.55
 -25  30  -4   44.01   10.09
  -5 -25  -4   60.27   12.04
  -5 -25  -4   41.27    9.74
  30  -5  -4   51.23   10.26
 -25  30  -1  187.05   14.82
  -5 -25  -1  181.67   17.33
  -5 -25  -1  185.77   15.36
  30  -5  -1  189.60   14.48
  -5 -25   2  145.80   14.41
  -5 -25   2  145.77   12.77
 -25  30   2  163.54   12.47
  30  -5   2  180.90   13.33
  -5 -25   5  307.09   19.07
 -26  30  -5    1.98    6.71
  -4 -26  -5   39.35   11.26
  -4 -26  -5   32.62   10.31
  30  -4  -5   25.51    9.62
  -4 -26  -2   19.87    9.04
 -26  30  -2    0.69    6.13
  -4 -26  -2   16.04    7.48
  30  -4  -2   16.73    6.66
  -4 -26   1   97.83   12.54
 -26  30   1   87.79    9.76
  -4 -26   1  104.23   11.57
  30  -4   1   79.65    9.37
  -4 -26   4   24.96    7.89
  -4 -26   4   14.83    5.79
 -27  30  -6   22.93   11.01
  -3 -27  -6   32.43   10.09
  -3 -27  -6   28.25   10.37
  30  -3  -6   29.37    9.81
 -27  30  -3    4.98    7.27
  -3 -27  -3   -2.76    7.36
  -3 -27  -3   11.48    7.91
  30  -3  -3    0.91    5.96
  -3 -27   0   90.35   12.50
 -27  30   0   86.52   10.36
  -3 -27   0  100.43   11.60
  30  -3   0  106.90   10.71
  -3 -27   3   31.51    8.64
  -3 -27   3   14.77    6.20
  -3 -27   6   58.00    9.69
  -2 -28  -4  110.07   14.98
  -2 -28  -4   64.83   11.84
  30  -2  -4   92.47   12.88
 -28  30  -4   78.35   12.32
 -28  30  -1  166.30   14.49
  -2 -28  -1  165.44   16.67
  -2 -28  -1  164.98   14.66
  30  -2  -1  190.80   14.79
  -2 -28   2  100.36   13.23
  -2 -28   2   73.74    9.22
 -28  30   2   69.47    8.58
  30  -2   2   80.26    9.18
  -2 -28   5  167.69   15.02
 -29  30  -5   43.12   11.17
  -1 -29  -5   55.09   12.14
  -1 -29  -5   41.62   10.29
  30  -1  -5   49.59   10.89
 -29  30  -2   -0.37    6.26
  -1 -29  -2    4.80    7.96
  -1 -29  -2    8.63    7.05
  30  -1  -2   -1.12    5.99
  -1 -29   1   60.68   11.30
 -29  30   1   67.17    8.96
  -1 -29   1   67.95    9.85
  30  -1   1   75.08    9.12
  -1 -29   4    6.97    6.68
 -30  30  -3    7.44    7.35
   0 -30  -3    3.04    7.17
   0 -30  -3    2.57    6.80
  30   0  -3   -2.84    6.28
   0 -30   0   49.58   10.75
 -30  30   0   45.85    8.41
   0 -30   0   50.75    8.92
  30   0   0   33.55    7.36
   0 -30   3    5.35    7.26
   1 -31  -4  130.99   15.98
   1 -31  -4   88.84   13.38
  30   1  -4  111.61   13.66
 -31  30  -4   98.08   13.99
 -31  30  -1  156.54   13.99
   1 -31  -1  166.68   17.82
   1 -31  -1  167.24   14.88
  30   1  -1  162.74   13.38
   1 -31   2   72.63   12.00
   1 -31   2   60.43    8.87
 -32  30  -2   34.86    9.00
   2 -32  -2    9.72    7.44
   2 -32  -2   16.02    7.91
  30   2  -2   10.88    6.44
   2 -32   1   12.86    7.99
   2 -32   1    1.09    5.14
   3 -33   0   32.91   10.61
   3 -33   0   24.58    7.42
   4 -34  -1  185.90   19.17
   4 -34  -1  198.46   16.93
 -34  30  -1  154.11   14.38
   2  31  -2   56.31   12.79
 -33   2  -2   61.64   12.74
 -33   2   1  168.47   18.72
   2  31   1  179.45   20.65
 -33   2   1  175.48   20.27
  31 -33   1  165.46   19.79
   1  31  -3   38.98   12.28
 -32   1  -3   37.98   11.71
 -32   1  -3   28.59   11.18
  31 -32  -3   18.22   10.49
  31 -32   0   22.72    9.91
 -32   1   0   23.96    9.78
   1  31   0    5.63    9.67
 -32   1   0    5.98    8.03
 -32   1   3   74.02   15.29
  31 -32   3   73.53   14.79
   1  31   3   69.64   15.52
 -32   1   3   72.31   13.97
 -31   0  -1   -6.69    8.49
   0  31  -1    4.80    8.11
 -31   0  -1    1.42    8.67
  31 -31  -1   -3.34    8.28
 -31   0   2   33.88   11.58
  31 -31   2   -0.38    8.68
 -31   0   2   -0.71    7.22
   0  31   2   25.23   10.56
  -1  31  -2   81.88   13.94
 -30  -1  -2   79.30   12.99
 -30  -1  -2   62.52   13.17
  31 -30  -2   76.69   13.64
  -1  31   1  169.14   19.30
 -30  -1   1  155.47   17.51
 -30  -1   1  149.67   18.38
  31 -30   1  125.49   17.06
  31 -30   4   89.68   16.33
 -30  -1   4  118.88   16.01
 -30  -1   4  102.69   16.99
  -2  31  -3  120.82   16.51
 -29  -2  -3  108.55   14.71
 -29  -2  -3  105.03   15.13
  31 -29  -3   99.45   14.36
  31 -29   0   22.79    9.43
 -29  -2   0   27.61    9.68
 -29  -2   0   15.44    9.60
  -2  31   0   38.57   11.46
 -29  -2   3   23.10    9.91
  31 -29   3   40.98   11.78
  -2  31   3   22.77   10.73
 -29  -2   3   31.02    9.82
 -28  -3  -4   34.56   10.90
  -3  31  -4   59.11   12.44
 -28  -3  -4   34.55   10.13
  31 -28  -4   66.00   12.17
  -3  31  -1   61.16   12.24
 -28  -3  -1   72.72   12.70
 -28  -3  -1   71.63   13.39
  31 -28  -1   55.89   11.62
  31 -28   2   -0.12    8.37
  -3  31   2    4.15    8.84
 -28  -3   2    8.69    8.30
 -28  -3   2   11.44    9.25
 -28  -3   5   -4.28    9.44
  31 -28   5   -5.56   10.01
 -28  -3   5   18.56    8.74
 -27  -4  -5  205.23   19.70
 -27  -4  -5  230.62   20.34
  -4  31  -5  233.88   20.73
  31 -27  -5  209.27   19.49
 -27  -4  -2   39.93   10.44
 -27  -4  -2   57.91   11.81
  31 -27  -2   44.98   10.76
 -27  -4   1  163.58   16.53
 -27  -4   1  172.12   17.85
  -4  31   1  174.57   18.13
  31 -27   1  220.78   19.84
  31 -27   4   99.65   15.34
 -27  -4   4  100.67   13.96
  -4  31   4   95.40   15.50
 -27  -4   4   92.24   14.70
  -5  31  -6   67.05   13.54
 -26  -5  -6   83.13   13.71
 -26  -5  -6   55.52   12.38
  31 -26  -6   43.17   10.89
 -26  -5  -3  120.08   15.63
 -26  -5  -3  122.34   15.24
  31 -26  -3  124.95   15.05
  -5  31  -3  134.17   16.25
  -5  31   0    5.03    6.70
 -26  -5   0   26.04    8.69
 -26  -5   0   25.08    9.63
  31 -26   0   24.23    8.95
  31 -26   3   43.72   11.04
 -26  -5   3   53.04   10.73
  -5  31   3   40.28   11.04
 -26  -5   3   53.48   11.63
 -26  -5   6    5.16    9.25
 -26  -5   6    0.28    7.26
  -6  31  -4   67.92   12.71
 -25  -6  -4   93.06   13.57
 -25  -6  -4   74.05   12.54
  31 -25  -4  102.05   14.11
  -6  31  -1   99.70   13.80
 -25  -6  -1   79.25   13.08
 -25  -6  -1   87.23   13.25
  31 -25  -1   78.64   12.60
  31 -25   2   27.60    8.99
 -25  -6   2   40.45    9.87
  -6  31   2   60.60   11.88
 -25  -6   2   43.08   11.03
 -25  -6   5   14.66    9.23
  31 -25   5    2.14    9.20
 -25  -6   5   12.79    8.58
 -24  -7  -5  293.78   22.42
 -24  -7  -5  247.21   20.53
  -7  31  -5  296.82   22.58
  31 -24  -5  287.64   21.60
 -24  -7  -2   74.48   12.17
  -7  31  -2   71.30   12.57
 -24  -7  -2   54.77   11.27
  31 -24  -2   62.23   11.36
  -7  31   1  207.60   18.64
 -24  -7   1  196.29   18.28
  31 -24   1  220.62   19.01
  31 -24   4  158.96   18.01
  -7  31   4  138.71   16.92
 -24  -7   4  138.03   14.79
 -24  -7   4  148.78   16.94
 -23  -8  -6   79.19   12.95
  -8  31  -6  112.55   15.99
 -23  -8  -6   84.24   14.04
  31 -23  -6  129.36   15.94
 -23  -8  -3  139.35   15.93
 -23  -8  -3  165.51   16.34
  -8  31  -3  188.11   18.00
  31 -23  -3  176.05   17.16
 -23  -8   0   18.81    7.68
 -23  -8   0   36.57   10.45
  -8  31   0   25.76    9.15
  31 -23   0   18.92    8.75
  -8  31   3  171.57   17.90
 -23  -8   3  178.36   16.74
 -23  -8   3  184.26   18.20
  31 -23   3  164.47   17.30
 -23  -8   6   60.96   13.48
 -23  -8   6   47.73   10.47
 -22  -9  -4   27.37    9.44
  31 -22  -4   27.40    8.68
  -9  31  -4   41.16   10.78
 -22  -9  -1   49.75    9.77
 -22  -9  -1   63.17   10.88
  31 -22  -1   82.37   11.93
  -9  31  -1   79.16   12.25
  31 -22   2    3.85    6.59
 -22  -9   2   13.69    7.34
 -22  -9   2    1.89    6.50
  -9  31   2   14.56    8.23
 -22  -9   5    6.02    8.52
  31 -22   5    4.95    8.52
 -22  -9   5    8.16    6.44
 -21 -10  -5  142.13   15.85
 -10  31  -5  147.55   16.69
 -21 -10  -5  153.20   16.06
  31 -21  -5   98.10   13.49
 -10  31  -2   60.64   10.27
 -21 -10  -2   54.69   10.69
 -21 -10  -2   54.84   10.39
  31 -21  -2   38.72    9.19
 -10  31   1  119.74   13.97
 -21 -10   1  112.33   13.88
 -21 -10   1  138.61   15.03
  31 -21   1  107.99   13.30
  31 -21   4   88.44   14.02
 -21 -10   4  108.22   13.17
 -10  31   4   81.66   13.06
 -21 -10   4   91.20   14.03
 -21 -10   7   47.88   10.05
 -20 -11  -6  104.74   14.57
 -11  31  -6  119.99   15.28
 -20 -11  -6  146.36   16.70
  31 -20  -6  121.30   14.95
 -20 -11  -3  179.72   16.92
 -11  31  -3  177.95   16.14
 -20 -11  -3  173.23   16.72
  31 -20  -3  174.13   16.11
 -11  31   0  201.48   17.10
 -20 -11   0  192.82   17.15
 -20 -11   0  212.19   17.80
  31 -20   0  181.49   16.17
 -20 -11   3  339.64   21.36
 -20 -11   3  287.24   20.95
  31 -20   3  309.63   21.39
 -11  31   3  330.96   22.32
 -20 -11   6   57.02   12.06
 -20 -11   6   61.49   10.80
 -19 -12  -7   37.32    9.90
 -12  31  -7   13.53    9.38
 -19 -12  -7   37.63   10.38
  31 -19  -7   26.93    9.18
 -19 -12  -4   30.39    9.41
 -19 -12  -4   32.36    9.47
 -12  31  -4   40.53   10.17
  31 -19  -4   40.94    8.92
 -12  31  -1   20.42    8.31
 -19 -12  -1   46.28   10.25
 -19 -12  -1   30.19    7.78
  31 -19  -1   45.00    9.25
 -19 -12   2   78.28   11.59
 -12  31   2   60.35   10.89
 -19 -12   2   50.66   10.18
  31 -19   2   75.88   11.27
 -19 -12   5   11.04    7.69
  31 -19   5   18.76    9.16
 -12  31   5   20.71    8.89
 -19 -12   5   13.67    6.76
 -18 -13  -5    6.13    7.20
 -18 -13  -5   13.14    6.97
 -13  31  -5   15.96    8.85
  31 -18  -5   19.28    7.95
 -18 -13  -2   83.84   12.18
 -18 -13  -2   94.20   12.29
 -13  31  -2  130.65   14.10
  31 -18  -2  123.19   13.37
 -13  31   1  103.15   12.48
 -18 -13   1  108.42   12.87
 -18 -13   1  119.86   13.48
  31 -18   1   88.85   11.98
 -13  31   4   62.34   11.39
 -18 -13   4   75.50   11.29
 -18 -13   4   82.16   12.58
  31 -18   4   84.76   12.68
 -18 -13   7   -3.52    6.12
 -14  31  -6  158.45   17.16
 -17 -14  -6  167.44   17.60
 -17 -14  -6  155.45   17.10
  31 -17  -6  196.31   18.18
 -17 -14  -3  435.85   25.39
 -14  31  -3  452.94   24.91
 -17 -14  -3  525.40   26.58
  31 -17  -3  467.51   24.62
 -17 -14   0  210.66   17.25
 -17 -14   0  217.03   17.35
 -14  31   0  161.44   15.31
  31 -17   0  185.87   15.66
 -17 -14   3  393.75   22.51
 -14  31   3  424.48   23.87
 -17 -14   3  395.55   23.12
  31 -17   3  404.04   23.59
 -17 -14   6   66.24   11.02
 -17 -14   6   81.23   13.16
 -16 -15  -7   -2.63    7.39
 -15  31  -7    5.35    8.96
 -16 -15  -7   -2.05    6.99
  31 -16  -7    0.40    7.42
 -16 -15  -4   99.49   13.54
 -15  31  -4   73.21   11.55
 -16 -15  -4   78.23   12.01
  31 -16  -4   80.14   11.50
 -15  31  -1   10.53    6.83
 -16 -15  -1    6.59    6.23
  31 -16  -1   -4.54    5.38
 -15  31   2  110.71   12.66
 -16 -15   2  105.00   12.90
 -16 -15   2  106.00   12.42
  31 -16   2  112.45   12.53
  31 -16   5   42.54   10.26
 -16 -15   5   41.73    9.11
 -15  31   5   44.55   10.02
 -16 -15   5   29.33    9.34
 -15 -16  -5   24.95    9.28
 -16  31  -5   23.50    8.82
 -15 -16  -5   23.94    8.98
  31 -15  -5   21.46    7.91
 -15 -16  -2  110.63   13.65
 -16  31  -2  114.30   13.24
 -15 -16  -2   99.95   12.64
  31 -15  -2  127.07   13.52
 -15 -16   1    9.54    5.57
 -16  31   1   14.70    6.89
  31 -15   1    8.06    6.51
  31 -15   4   46.58    9.21
 -16  31   4   56.33   10.47
 -15 -16   4   56.11    9.76
 -15 -16   4   77.16   11.50
 -15 -16   7    3.89    7.84
 -15 -16   7    3.13    6.39
 -17  31  -6   95.97   14.20
 -14 -17  -6  122.03   15.55
 -14 -17  -6  114.82   15.44
  31 -14  -6  103.71   14.23
 -14 -17  -3  368.64   23.25
 -17  31  -3  338.59   21.56
 -14 -17  -3  349.50   21.55
  31 -14  -3  364.02   21.86
 -14 -17   0  178.94   16.23
 -14 -17   0  198.43   16.01
 -17  31   0  232.11   16.95
  31 -14   0  216.61   16.20
 -14 -17   3  487.65   24.58
 -17  31   3  479.07   23.68
 -14 -17   3  475.14   23.97
  31 -14   3  462.74   23.84
 -14 -17   6  106.38   12.46
 -14 -17   6  102.00   13.26
 -13 -18  -7   19.76    9.05
 -18  31  -7    3.98    9.40
 -13 -18  -7   15.57    8.88
  31 -13  -7   -0.48    8.21
 -18  31  -4  134.57   14.51
 -13 -18  -4  147.43   15.76
 -13 -18  -4  132.88   14.27
  31 -13  -4  127.98   14.04
 -13 -18  -1   87.74   12.12
 -18  31  -1  120.28   13.04
 -13 -18  -1  120.09   12.86
  31 -13  -1  120.61   12.47
 -18  31   2   79.85   10.54
 -13 -18   2   68.83   10.29
 -13 -18   2   57.31    9.47
  31 -13   2   79.98   10.60
  31 -13   5   19.84    8.01
 -18  31   5    6.79    6.63
 -13 -18   5   11.85    6.64
 -13 -18   5   31.18    8.80
 -12 -19  -5   -0.77    7.13
 -19  31  -5   -2.72    7.04
 -12 -19  -5   15.93    8.48
  31 -12  -5   -3.46    7.08
 -12 -19  -2   77.18   11.82
 -19  31  -2  103.92   12.56
 -12 -19  -2   80.90   11.68
  31 -12  -2   80.24   11.07
 -12 -19   1   49.62    9.20
 -12 -19   1   51.75    9.25
 -19  31   1   55.60    9.46
  31 -12   1   54.18    8.82
  31 -12   4   10.99    7.47
 -12 -19   4    7.83    6.16
 -19  31   4   20.05    7.36
 -12 -19   4    8.44    6.32
 -20  31  -6  133.73   16.28
 -11 -20  -6  113.85   15.02
 -11 -20  -6  123.80   15.69
  31 -11  -6  131.92   15.45
 -20  31  -3  421.68   23.72
 -11 -20  -3  391.99   24.47
 -11 -20  -3  396.45   23.32
  31 -11  -3  380.85   21.97
 -11 -20   0  195.41   16.70
 -20  31   0  190.06   15.05
 -11 -20   0  192.34   15.51
  31 -11   0  228.67   16.28
 -11 -20   3  215.24   16.65
 -20  31   3  251.84   16.82
 -11 -20   3  232.06   16.40
  31 -11   3  222.42   16.38
 -11 -20   6   99.68   11.68
 -11 -20   6  106.24   12.80
 -21  31  -7   37.69   11.36
 -10 -21  -7   23.22    9.82
  31 -10  -7   26.14    9.83
 -21  31  -4  126.79   14.72
 -10 -21  -4  127.25   14.93
 -10 -21  -4  112.35   13.80
  31 -10  -4  110.20   13.11
 -10 -21  -1   70.64   11.37
 -21  31  -1   57.60    9.62
 -10 -21  -1   74.12   10.87
  31 -10  -1   69.46    9.78
 -10 -21   2   24.27    7.71
 -21  31   2   14.10    6.17
 -10 -21   2   21.37    7.31
  31 -10   2   36.76    8.00
  31 -10   5  111.39   12.77
 -10 -21   5  118.14   13.06
 -10 -21   5   90.87   11.60
  -9 -22  -5    2.27    7.21
 -22  31  -5   -6.31    8.33
  -9 -22  -5   -7.12    7.82
  31  -9  -5   -5.49    6.48
  -9 -22  -2   -0.58    6.47
 -22  31  -2   10.50    6.62
  -9 -22  -2    4.27    6.62
  31  -9  -2    0.76    5.99
 -22  31   1   32.67    7.65
  -9 -22   1   31.86    8.66
  -9 -22   1   51.95    9.16
  31  -9   1   41.60    8.33
  31  -9   4    0.64    5.67
  -9 -22   4    1.62    6.06
 -22  31   4    2.33    5.57
  -9 -22   4   11.12    7.36
 -23  31  -6   55.01   12.45
  -8 -23  -6   51.64   11.30
  -8 -23  -6   55.42   11.66
  31  -8  -6   57.41   11.60
 -23  31  -3  114.16   13.56
  -8 -23  -3  107.12   14.42
  -8 -23  -3  145.18   15.09
  31  -8  -3  154.92   14.48
  -8 -23   0   36.93    9.55
  -8 -23   0   12.38    6.50
 -23  31   0   29.73    7.46
  31  -8   0   22.20    6.93
  -8 -23   3  143.77   14.33
 -23  31   3  132.45   12.18
  -8 -23   3  155.90   13.22
  31  -8   3  172.02   14.02
  -8 -23   6   61.62    9.85
 -24  31  -4  139.12   15.35
  -7 -24  -4  149.31   16.50
  -7 -24  -4  154.61   16.20
  31  -7  -4  152.05   15.28
  -7 -24  -1  195.84   17.44
 -24  31  -1  173.80   14.95
  -7 -24  -1  181.77   15.66
  31  -7  -1  201.23   15.32
  -7 -24   2   59.08   10.25
 -24  31   2   50.55    8.42
  -7 -24   2   54.82    9.07
  31  -7   2   59.09    8.74
  -7 -24   5  279.32   18.70
 -25  31  -5   20.46    8.97
  -6 -25  -5   42.17   10.15
  -6 -25  -5   28.67   10.18
  31  -6  -5   12.62    8.42
  -6 -25  -2   38.10   10.07
 -25  31  -2   24.25    7.54
  -6 -25  -2   20.85    6.85
  31  -6  -2   14.32    6.32
  -6 -25   1   86.54   12.40
 -25  31   1   78.48    9.94
  -6 -25   1   97.52   11.33
  31  -6   1   96.61   10.51
  -6 -25   4   82.88   11.58
  -6 -25   4   51.41    8.78
 -26  31  -6   33.74   11.96
  -5 -26  -6    3.41    8.06
  -5 -26  -6    5.49    7.86
  31  -5  -6   16.86    9.35
  -5 -26  -3   45.93   10.88
 -26  31  -3   42.66    9.77
  -5 -26  -3   39.05    9.18
  31  -5  -3   48.29    9.74
  -5 -26   0   40.62   10.11
  -5 -26   0   17.45    6.55
 -26  31   0   34.40    7.73
  31  -5   0   21.81    6.43
  -5 -26   3  142.44   14.59
  -5 -26   3  156.14   13.24
  31  -5   3  152.96   12.91
  -5 -26   6   54.14    9.44
  -4 -27  -4  147.54   17.14
  -4 -27  -4  101.69   14.15
  31  -4  -4  110.60   13.50
 -27  31  -4  123.23   15.01
 -27  31  -1  154.13   13.99
  -4 -27  -1  147.60   15.56
  -4 -27  -1  133.63   13.77
  31  -4  -1  146.66   13.33
 -27  31   2   40.93    7.33
  -4 -27   2   36.49    8.90
  -4 -27   2   48.03    8.21
  31  -4   2   55.58    8.38
  -4 -27   5  164.10   15.07
 -28  31  -5   25.65   10.19
  -3 -28  -5   29.80   10.40
  -3 -28  -5   -0.38    8.23
  31  -3  -5   19.18    8.42
  -3 -28  -2    8.17    7.30
 -28  31  -2    4.29    6.26
  -3 -28  -2   -7.40    7.54
  31  -3  -2   12.33    7.28
  -3 -28   1   50.36   10.58
 -28  31   1   67.46    9.21
  -3 -28   1   49.19    9.00
  31  -3   1   64.00    8.78
  -3 -28   4   32.93    9.05
 -29  31  -3   50.88   10.67
  -2 -29  -3   34.40   10.45
  -2 -29  -3   44.51   10.70
  31  -2  -3   29.64    8.64
  -2 -29   0   26.75    8.74
  -2 -29   0   30.25    8.34
 -29  31   0   18.57    7.15
  31  -2   0   24.23    6.97
  -2 -29   3   82.02   12.71
 -30  31  -4   69.94   12.55
  -1 -30  -4  107.82   15.58
  -1 -30  -4   91.07   13.20
  31  -1  -4  101.91   13.44
 -30  31  -1  191.85   15.25
  -1 -30  -1  132.89   16.14
  -1 -30  -1  169.57   15.45
  31  -1  -1  148.20   13.44
  -1 -30   2   72.03   11.79
  -1 -30   2   55.76    8.60
   0 -31  -2   15.32    9.00
 -31  31  -2   18.93    8.24
   0 -31  -2   25.80    8.42
  31   0  -2   16.56    7.28
   0 -31   1    1.12    7.45
   0 -31   1    9.87    6.33
 -32  31  -3   72.75   11.65
   1 -32  -3   75.41   13.47
   1 -32  -3   66.85   11.87
  31   1  -3   79.75   11.58
   1 -32   0   16.31    8.92
 -32  31   0   23.38    7.21
   1 -32   0   36.47    8.67
   1 -32   3   30.11    9.39
 -33  31  -1  192.07   16.08
   2 -33  -1  160.72   18.36
   2 -33  -1  181.90   16.28
  31   2  -1  158.97   13.60
   2 -33   2   49.35   10.88
 -32   0  -2  251.07   22.40
   0  32  -2  221.64   22.35
 -32   0  -2  228.71   22.46
  32 -32  -2  223.45   21.23
  32 -32   1   14.81   11.30
   0  32   1    8.05   10.36
 -32   0   1    2.66    8.74
 -32   0   1    3.78    8.95
  -1  32  -3   57.28   13.95
 -31  -1  -3   27.23   10.30
 -31  -1  -3   15.68   10.34
  32 -31  -3   32.09   11.13
  32 -31   0   14.01    9.74
  -1  32   0   21.64   11.02
 -31  -1   0   14.71    8.19
 -31  -1   0   26.03   10.21
  32 -31   3  102.96   17.47
 -31  -1   3   79.99   14.27
  -1  32   3   65.15   14.52
 -31  -1   3  100.81   16.38
 -30  -2  -1    5.64    7.58
  -2  32  -1    7.30    9.20
 -30  -2  -1   25.37   10.88
  32 -30  -1   21.77   10.14
  32 -30   2   28.08   10.44
 -30  -2   2   27.48    9.94
  -2  32   2    4.27    8.81
 -30  -2   2   21.78   11.02
  -3  32  -2  354.56   25.67
 -29  -3  -2  325.66   24.07
 -29  -3  -2  353.49   24.96
  32 -29  -2  304.66   24.26
  32 -29   1   -2.17    8.18
 -29  -3   1   -4.07    7.59
  -3  32   1    4.13    8.93
 -29  -3   1   10.13    9.29
  32 -29   4  359.46   27.58
 -29  -3   4  375.28   25.52
 -29  -3   4  318.89   26.33
 -28  -4  -3   80.60   12.83
  -4  32  -3   42.49   11.55
 -28  -4  -3   46.19   11.40
  32 -28  -3   52.86   11.29
 -28  -4   0   16.52    9.01
  -4  32   0   16.39    9.94
 -28  -4   0   17.27    9.98
  32 -28   0   19.86    9.40
 -28  -4   3   18.67   10.03
  32 -28   3   25.00   10.70
 -28  -4   3    6.86    8.16
  -4  32   3   10.08    9.80
 -27  -5  -4   56.54   11.87
  -5  32  -4   55.05   12.85
 -27  -5  -4   15.06    8.24
  32 -27  -4   41.62   11.19
  -5  32  -1   34.55   10.05
 -27  -5  -1   42.41   11.13
 -27  -5  -1   31.22   10.06
  32 -27  -1   31.43   10.12
  32 -27   2   16.60    9.04
  -5  32   2    5.83    8.67
 -27  -5   2   -2.63    7.03
 -27  -5   2    1.31    8.87
 -27  -5   5   31.21   12.16
  32 -27   5   57.09   14.22
 -27  -5   5   31.63   10.23
  -6  32  -5   -2.94    9.21
 -26  -6  -5   12.70    9.91
 -26  -6  -5    7.29    8.34
  32 -26  -5   26.25   10.52
  -6  32  -2  164.23   17.79
 -26  -6  -2  144.20   16.48
 -26  -6  -2  115.38   15.21
  32 -26  -2  112.43   14.74
  32 -26   1   60.18   12.09
 -26  -6   1   45.17   11.04
  -6  32   1   43.71   11.51
 -26  -6   1   65.84   12.51
  32 -26   4  231.59   21.80
 -26  -6   4  238.44   20.13
  -6  32   4  188.58   20.54
 -26  -6   4  247.07   22.43
 -25  -7  -3   17.24    7.66
 -25  -7  -3   40.99   10.30
  32 -25  -3   36.64   10.27
  -7  32   0  156.67   16.94
 -25  -7   0  139.16   15.63
 -25  -7   0  146.87   15.95
  32 -25   0  135.23   15.62
  32 -25   3    9.82    9.34
  -7  32   3   23.30    9.43
 -25  -7   3   43.37   10.65
 -25  -7   3   22.96   10.98
  -8  32  -4   58.56   12.30
 -24  -8  -4   57.70   12.24
 -24  -8  -4   43.19   10.07
  32 -24  -4   28.06    8.81
 -24  -8  -1   54.83   11.83
  -8  32  -1   55.09   10.87
 -24  -8  -1   55.29   10.87
  32 -24  -1   79.58   12.56
  32 -24   2   66.48   11.89
  -8  32   2   52.50   11.16
 -24  -8   2   63.89   12.03
 -24  -8   2   55.82   11.88
 -24  -8   5   24.91   10.63
  32 -24   5   18.34    9.45
 -24  -8   5    7.72    7.92
 -23  -9  -5   28.16    9.74
 -23  -9  -5   31.44    9.74
  32 -23  -5   34.32    8.97
  -9  32  -5   40.19   10.69
 -23  -9  -2  218.17   18.88
 -23  -9  -2  207.93   18.12
  32 -23  -2  213.79   18.27
  -9  32  -2  184.36   17.37
 -23  -9   1  105.63   14.25
  -9  32   1  105.95   13.88
 -23  -9   1  100.58   13.74
  32 -23   1  116.82   14.20
  32 -23   4  156.64   17.59
 -23  -9   4  126.72   14.68
 -23  -9   4  142.10   16.62
  -9  32   4  157.07   17.89
 -22 -10  -6  300.16   23.40
 -10  32  -6  316.75   23.59
 -22 -10  -6  304.83   23.08
  32 -22  -6  301.05   22.94
 -22 -10  -3   51.00   11.04
 -10  32  -3   73.79   12.59
 -22 -10  -3   32.85    9.69
  32 -22  -3   69.00   12.00
 -10  32   0  267.09   20.29
 -22 -10   0  227.82   19.12
 -22 -10   0  254.33   20.19
  32 -22   0  247.89   19.41
 -22 -10   3   69.75   11.50
 -22 -10   3   64.28   11.66
  32 -22   3   79.94   13.28
 -10  32   3   82.24   12.80
 -22 -10   6  233.79   18.93
 -22 -10   6  249.16   22.23
 -21 -11  -4   62.38   11.53
 -21 -11  -4   47.89   10.62
  32 -21  -4   62.25   10.76
 -11  32  -4   40.08   10.07
 -21 -11  -1   29.52    9.13
 -11  32  -1   16.90    8.42
 -21 -11  -1   35.51    9.61
  32 -21  -1   17.51    7.49
 -21 -11   2  111.05   13.20
 -11  32   2  110.13   14.18
 -21 -11   2   90.56   13.09
  32 -21   2  114.96   14.56
 -21 -11   5   10.50    8.98
  32 -21   5   -1.23    8.13
 -21 -11   5   -1.27    6.97
 -11  32   5    8.90    9.19
 -20 -12  -5   29.55    9.82
 -20 -12  -5   13.22    8.59
 -12  32  -5   18.96    8.09
  32 -20  -5   35.60   10.08
 -20 -12  -2  123.90   14.13
 -20 -12  -2  149.72   15.60
 -12  32  -2  187.41   17.12
  32 -20  -2  157.91   15.60
 -20 -12   1   16.98    7.93
 -20 -12   1   19.50    7.88
  32 -20   1   20.57    8.67
 -12  32   1   27.36    8.93
 -20 -12   4  169.02   16.20
 -12  32   4  142.14   16.15
 -20 -12   4  178.79   17.33
  32 -20   4  147.71   16.80
 -19 -13  -6  357.18   24.83
 -13  32  -6  316.04   23.83
 -19 -13  -6  324.44   23.33
  32 -19  -6  345.25   24.19
 -19 -13  -3   48.46   11.43
 -19 -13  -3   50.64   11.22
  32 -19  -3   54.74   10.38
 -13  32  -3   42.52   10.27
 -19 -13   0  501.52   27.06
 -19 -13   0  463.96   25.15
  32 -19   0  502.16   25.81
 -13  32   0  526.40   26.59
  32 -19   3    2.15    6.66
 -13  32   3   13.06    8.33
 -19 -13   3    1.98    6.30
 -19 -13   3    5.29    7.14
 -19 -13   6  281.45   20.07
 -19 -13   6  267.40   21.74
 -18 -14  -4   39.53    9.63
 -18 -14  -4   12.27    7.67
 -14  32  -4   33.23   10.01
  32 -18  -4   21.25    8.11
 -14  32  -1   13.34    7.48
 -18 -14  -1   19.79    7.89
 -18 -14  -1    9.04    6.79
  32 -18  -1   23.14    7.86
 -14  32   2   34.11    9.13
 -18 -14   2   32.28    8.78
 -18 -14   2   20.25    8.27
  32 -18   2   31.28    8.47
 -18 -14   5   19.01    8.59
  32 -18   5   17.35    8.39
 -18 -14   5   27.54    8.57
 -14  32   5   21.21    9.86
 -17 -15  -5   18.21    8.05
 -17 -15  -5   18.22    8.58
 -15  32  -5   22.69    9.41
  32 -17  -5   30.17    9.17
 -17 -15  -2   76.91   12.12
 -15  32  -2   68.88   11.07
 -17 -15  -2   67.38   11.91
  32 -17  -2   55.33   10.14
 -17 -15   1   18.59    8.38
 -15  32   1   32.52    8.68
 -17 -15   1   24.59    7.51
  32 -17   1   24.64    8.23
  32 -17   4   44.79    9.57
 -15  32   4   54.88   10.68
 -17 -15   4   37.56    8.99
 -17 -15   4   36.24    9.43
 -16  32  -6  380.79   25.29
 -16 -16  -6  322.51   23.62
 -16 -16  -6  386.35   25.42
  32 -16  -6  366.68   24.53
 -16 -16  -3   10.30    7.57
 -16 -16  -3   10.51    7.13
 -16  32  -3   13.05    7.44
  32 -16  -3   12.02    7.89
 -16 -16   0  563.58   28.46
 -16 -16   0  585.07   27.32
 -16  32   0  559.27   26.78
  32 -16   0  574.74   26.62
  32 -16   3   21.59    8.00
 -16 -16   3   20.91    7.48
 -16  32   3    8.15    6.74
 -16 -16   3   18.95    8.24
 -16 -16   6  308.28   20.09
 -16 -16   6  335.39   23.14
 -15 -17  -4   29.67    9.24
 -17  32  -4   25.16    8.22
 -15 -17  -4   13.64    7.74
  32 -15  -4   15.27    7.61
 -15 -17  -1   22.66    8.17
 -15 -17  -1    4.64    6.20
  32 -15  -1   33.76    8.63
 -17  32  -1   15.14    7.45
 -17  32   2   66.61   10.49
 -15 -17   2   57.43   10.01
 -15 -17   2   68.77   10.88
  32 -15   2   46.93    9.27
  32 -15   5   20.38    9.42
 -15 -17   5   25.06    7.85
 -17  32   5   13.01    7.81
 -15 -17   5   34.31    9.52
 -14 -18  -5   26.42    9.52
 -18  32  -5   35.93    9.73
 -14 -18  -5   10.85    8.10
  32 -14  -5   32.08    9.59
 -14 -18  -2   40.54    9.78
 -18  32  -2   65.65   10.65
 -14 -18  -2   51.24   10.08
  32 -14  -2   60.36   10.09
 -14 -18   1   -2.45    6.04
 -18  32   1    9.08    6.78
 -14 -18   1    4.72    6.72
  32 -14   1   11.59    6.67
  32 -14   4   18.76    8.22
 -14 -18   4   33.77    8.39
 -14 -18   4   24.58    8.25
 -18  32   4   21.69    7.61
 -19  32  -6  402.89   26.26
 -13 -19  -6  343.51   24.60
 -13 -19  -6  347.96   24.39
  32 -13  -6  327.06   22.99
 -13 -19  -3   15.59    8.31
 -13 -19  -3   -3.41    6.55
 -19  32  -3   12.48    6.70
  32 -13  -3    8.06    6.95
 -13 -19   0  544.16   27.28
 -13 -19   0  499.37   25.04
 -19  32   0  509.42   24.44
  32 -13   0  511.71   24.20
 -13 -19   3   47.77   10.52
 -19  32   3   43.11    9.57
 -13 -19   3   31.67    8.76
  32 -13   3   29.62    8.02
 -13 -19   6  303.38   19.77
 -13 -19   6  251.15   19.45
 -20  32  -4  167.62   16.30
 -12 -20  -4  183.13   17.99
  32 -12  -4  152.49   15.07
 -12 -20  -1   44.45    9.91
 -12 -20  -1   33.59    8.73
 -20  32  -1   49.58    9.74
  32 -12  -1   44.18    8.68
 -20  32   2  114.79   12.31
 -12 -20   2  130.43   14.06
 -12 -20   2  131.97   13.35
  32 -12   2  134.96   13.80
  32 -12   5   35.49    9.09
 -20  32   5   27.27    8.73
 -12 -20   5   31.95    8.25
 -12 -20   5   38.54    9.16
 -11 -21  -5   13.40    7.95
 -21  32  -5   27.58   10.40
 -11 -21  -5    6.20    6.68
  32 -11  -5   10.61    7.21
 -11 -21  -2  113.12   14.18
 -21  32  -2  105.24   12.57
 -11 -21  -2  103.22   13.09
  32 -11  -2   91.29   11.47
 -11 -21   1   35.89    8.51
 -11 -21   1   53.24    8.96
  32 -11   1   37.60    8.40
  32 -11   4   23.99    8.02
 -11 -21   4   32.16    8.70
 -21  32   4   46.52    9.45
 -11 -21   4   36.16    8.57
 -22  32  -6  221.82   19.91
 -10 -22  -6  205.44   19.43
 -10 -22  -6  223.19   20.53
  32 -10  -6  232.54   20.10
 -22  32  -3   91.75   12.45
 -10 -22  -3   93.65   13.57
 -10 -22  -3   97.52   12.45
  32 -10  -3   66.49   10.73
 -10 -22   0  276.52   19.95
 -22  32   0  278.06   18.18
 -10 -22   0  279.21   18.87
  32 -10   0  260.97   17.37
 -22  32   3   36.37    8.21
 -10 -22   3   31.89    9.10
 -10 -22   3   33.57    7.96
  32 -10   3   34.06    8.59
 -10 -22   6  300.11   19.49
 -23  32  -4  149.90   15.87
  -9 -23  -4  121.31   15.65
  -9 -23  -4  117.76   14.68
  32  -9  -4  121.02   14.04
  -9 -23  -1  116.59   14.33
 -23  32  -1  123.29   13.20
  -9 -23  -1  113.48   12.84
  32  -9  -1  112.02   12.16
  -9 -23   2  151.07   15.36
  -9 -23   2  145.01   13.67
  32  -9   2  140.44   13.42
 -23  32   2  136.25   12.60
  -9 -23   5   37.85    9.42
  -9 -23   5   57.06   10.12
  -8 -24  -5    9.21    8.30
 -24  32  -5   17.16    8.47
  -8 -24  -5   29.20   10.09
  32  -8  -5   40.41   10.19
 -24  32  -2   60.12   10.37
  -8 -24  -2   51.64   11.03
  -8 -24  -2   50.66    9.84
  32  -8  -2   33.93    8.18
 -24  32   1   44.82    8.53
  -8 -24   1   25.93    8.89
  -8 -24   1   52.64    9.78
  32  -8   1   47.62    8.44
  32  -8   4   43.86    8.91
  -8 -24   4   49.79    9.37
  -8 -24   4   42.14    8.87
  -7 -25  -3   50.97   11.89
 -25  32  -3   26.15    8.94
  -7 -25  -3   46.76   10.05
  32  -7  -3   54.12   10.41
  -7 -25   0  134.42   15.19
 -25  32   0  129.97   12.94
  -7 -25   0  121.87   12.97
  32  -7   0  122.61   12.25
  -7 -25   3   30.02    8.89
  -7 -25   3   24.33    7.27
  32  -7   3   34.90    7.81
 -25  32   3   25.27    7.28
 -26  32  -4  205.44   18.52
  -6 -26  -4  208.39   19.63
  -6 -26  -4  221.42   19.20
  32  -6  -4  212.47   17.89
  -6 -26  -1   42.42   10.38
  -6 -26  -1   45.61    9.43
 -26  32  -1   48.59    9.24
  32  -6  -1   53.29    9.04
  -6 -26   2  128.23   14.60
  -6 -26   2  115.61   12.32
 -26  32   2  112.76   11.67
  32  -6   2  128.06   12.52
  -6 -26   5   14.03    7.56
 -27  32  -5   37.70   10.94
  -5 -27  -5   36.30   10.84
  -5 -27  -5   27.08   10.40
  32  -5  -5   30.06    9.28
  -5 -27  -2    1.13    7.61
 -27  32  -2   11.59    7.21
  -5 -27  -2   17.91    8.15
  32  -5  -2   15.99    7.45
  -5 -27   1   38.02    9.65
  -5 -27   1   22.94    7.21
  32  -5   1   27.97    7.44
 -27  32   1   28.01    7.38
  -5 -27   4   35.40    9.14
  -4 -28  -3   46.36   12.04
 -28  32  -3   49.34   10.82
  -4 -28  -3   48.80   10.53
  32  -4  -3   32.56    8.76
  -4 -28   0   23.32    8.95
  -4 -28   0   20.01    7.39
 -28  32   0   30.72    7.66
  32  -4   0   24.64    7.02
  -4 -28   3   43.57    9.81
  -4 -28   3   48.84    8.72
  -3 -29  -4  321.24   24.37
  -3 -29  -4  269.04   21.17
  32  -3  -4  260.67   20.08
 -29  32  -4  284.26   21.62
  -3 -29  -1    3.98    8.18
 -29  32  -1    6.81    6.47
  -3 -29  -1    7.48    6.88
  32  -3  -1    6.58    6.42
  -3 -29   2  318.53   22.00
  -3 -29   2  298.84   18.38
  -2 -30  -2   22.68    9.71
 -30  32  -2    4.04    6.56
  -2 -30  -2    4.46    6.85
  32  -2  -2   18.97    7.91
  -2 -30   1   18.11    9.04
  -2 -30   1   12.88    6.60
 -30  32   1    8.75    5.75
  32  -2   1    7.74    5.69
  -1 -31  -3   81.84   13.68
  -1 -31  -3   77.99   12.58
  32  -1  -3   91.05   12.60
 -31  32  -3   74.24   12.17
  -1 -31   0    4.69    7.29
  -1 -31   0   17.72    7.23
 -31  32   0    8.96    6.33
  32  -1   0   23.98    7.18
  -1 -31   3   26.58    8.71
   0 -32  -1    7.84    8.63
 -32  32  -1    4.91    6.79
   0 -32  -1   12.57    7.68
  32   0  -1    5.58    6.19
   0 -32   2  246.49   20.65
  -2  33  -2   64.71   14.15
 -31  -2  -2   53.19   13.45
  -2  33   1  214.29   21.73
 -31  -2   1  198.63   20.25
 -31  -2   1  190.77   20.27
  33 -31   1  196.52   20.21
  33 -30   0   44.09   11.79
 -30  -3   0   35.08   11.01
 -30  -3   0   33.28   10.36
  -3  33   0   22.59   11.08
  -4  33  -1   11.68    8.99
 -29  -4  -1   10.28    8.18
 -29  -4  -1    7.75    8.73
  33 -29  -1   23.20    9.69
  33 -29   2   -0.29    8.80
  -4  33   2    5.89    9.09
 -29  -4   2   13.47    9.57
 -29  -4   2    2.92    8.30
 -28  -5  -2   17.50    9.12
 -28  -5  -2   26.38   10.69
  -5  33  -2   27.47   11.43
  33 -28  -2   18.95    8.41
 -28  -5   1  130.84   16.10
 -28  -5   1  112.64   16.35
  -5  33   1  135.82   17.22
  33 -28   1  176.94   18.74
 -28  -5   4   33.44   11.51
  33 -28   4   44.16   12.74
 -28  -5   4   24.79   10.13
  -5  33   4   25.94   10.90
 -27  -6  -3  106.92   14.85
 -27  -6  -3  106.02   14.87
  33 -27  -3   93.16   14.38
  -6  33  -3  100.44   14.88
  -6  33   0   33.68   10.78
 -27  -6   0   24.83   10.09
 -27  -6   0   27.71   10.94
  33 -27   0   20.84    9.23
  33 -27   3   37.85   11.75
 -27  -6   3   46.70   10.79
  -6  33   3   56.25   12.79
 -27  -6   3   61.67   13.81
  -7  33  -4   32.82   11.18
 -26  -7  -4   39.72   11.04
 -26  -7  -4   35.85   10.77
  33 -26  -4   49.28   11.64
 -26  -7  -1   48.04   10.62
 -26  -7  -1   29.55   10.46
  -7  33  -1   39.49   11.20
  33 -26  -1   25.87    9.20
  33 -26   2   44.66   11.80
 -26  -7   2   22.75    8.70
  -7  33   2   28.30   10.54
 -26  -7   2   25.21    9.54
 -25  -8  -5  120.73   15.99
 -25  -8  -5  122.13   16.66
  -8  33  -5   82.36   14.78
  33 -25  -5  105.42   14.64
 -25  -8  -2   28.41    8.85
  -8  33  -2   32.69   10.11
 -25  -8  -2   43.26   10.77
  33 -25  -2   39.52   10.14
 -25  -8   1  184.62   17.94
  -8  33   1  198.50   19.17
 -25  -8   1  227.66   20.57
  33 -25   1  209.28   19.35
 -25  -8   4   23.28   10.32
  33 -25   4   33.05   11.38
  -8  33   4   41.47   11.80
 -25  -8   4   33.24   10.02
 -24  -9  -3  147.65   16.55
 -24  -9  -3  130.97   15.78
  -9  33  -3  161.53   17.23
  33 -24  -3  188.03   18.16
  -9  33   0   49.74   11.22
 -24  -9   0   58.89   11.75
 -24  -9   0   65.30   11.82
  33 -24   0   84.38   13.73
  -9  33   3  203.67   19.77
 -24  -9   3  219.36   19.35
 -24  -9   3  231.32   20.26
  33 -24   3  207.55   19.63
 -10  33  -4   11.05    8.34
 -23 -10  -4   15.46    8.96
 -23 -10  -4   35.45   10.37
  33 -23  -4    9.45    8.17
 -23 -10  -1   -1.24    7.18
 -10  33  -1   14.42    8.76
 -23 -10  -1    4.65    6.46
  33 -23  -1    5.98    6.86
 -23 -10   2   62.34   11.92
 -10  33   2   91.74   13.30
 -23 -10   2  101.85   14.06
  33 -23   2   90.28   14.44
 -23 -10   5   29.43   10.73
  33 -23   5   16.51    9.62
 -23 -10   5    9.80    7.69
 -22 -11  -5   75.88   13.67
 -22 -11  -5   71.75   12.64
  33 -22  -5   97.18   13.73
 -11  33  -5   75.79   13.25
 -22 -11  -2   89.94   13.67
 -22 -11  -2   71.88   11.89
 -11  33  -2   90.69   13.57
  33 -22  -2   65.90   11.71
 -22 -11   1  125.91   14.96
 -11  33   1  137.58   15.67
 -22 -11   1  122.01   14.70
  33 -22   1  116.42   14.17
  33 -22   4    9.24    8.28
 -22 -11   4   10.67    7.74
 -11  33   4   26.73   10.23
 -22 -11   4   23.00   10.37
 -21 -12  -3  318.16   22.97
 -21 -12  -3  274.23   20.92
 -12  33  -3  296.83   21.98
  33 -21  -3  296.65   21.43
 -12  33   0   79.98   12.24
 -21 -12   0   80.12   12.48
 -21 -12   0   56.47   10.57
  33 -21   0   71.05   11.90
 -12  33   3  183.81   18.02
 -21 -12   3  249.16   19.53
 -21 -12   3  214.00   19.51
  33 -21   3  199.91   18.75
 -20 -13  -4   20.59    8.53
 -20 -13  -4    7.23    7.07
  33 -20  -4    9.64    7.18
 -13  33  -4   16.49    8.83
 -20 -13  -1   54.87   10.51
 -20 -13  -1   30.45    9.34
 -13  33  -1   58.03   11.32
  33 -20  -1   46.95   10.78
 -20 -13   2   70.84   11.68
 -13  33   2   61.71   11.65
 -20 -13   2   81.57   12.91
  33 -20   2   57.87   11.21
 -20 -13   5    5.78    9.05
  33 -20   5   13.48    9.07
 -13  33   5   -4.17    7.65
 -20 -13   5    1.67    7.16
 -19 -14  -5   30.74    9.56
 -19 -14  -5   57.45   11.86
 -14  33  -5   38.08   10.44
  33 -19  -5   53.42   11.05
 -14  33  -2   22.46    8.91
 -19 -14  -2   29.03    9.80
 -19 -14  -2   15.02    8.10
  33 -19  -2   19.55    8.06
 -14  33   1  126.84   14.62
 -19 -14   1  128.67   14.72
 -19 -14   1  105.15   13.30
  33 -19   1  122.13   14.54
  33 -19   4   63.43   11.83
 -19 -14   4   87.26   12.72
 -14  33   4   97.14   13.90
 -19 -14   4   94.15   14.45
 -18 -15  -6   21.77   10.03
 -18 -15  -6   16.72    8.08
 -15  33  -6   30.85   10.83
  33 -18  -6   49.47   11.87
 -18 -15  -3  276.61   21.43
 -15  33  -3  279.05   21.10
 -18 -15  -3  309.08   21.67
  33 -18  -3  319.02   21.66
 -18 -15   0  123.92   15.33
 -18 -15   0  131.08   14.48
  33 -18   0  161.26   15.57
 -15  33   0  145.37   15.39
 -18 -15   3  185.57   17.08
 -18 -15   3  197.65   17.35
 -15  33   3  204.95   17.86
  33 -18   3  200.19   17.94
 -18 -15   6   28.34   10.37
 -18 -15   6   49.46   10.36
 -17 -16  -4   63.48   11.91
 -17 -16  -4   41.18   10.91
 -16  33  -4   46.91   11.12
  33 -17  -4   55.01   11.01
 -16  33  -1   20.25    8.51
 -17 -16  -1   20.87    8.21
 -17 -16  -1   22.07    8.42
  33 -17  -1   19.15    7.69
 -16  33   2   30.77    8.79
 -17 -16   2   31.30    9.23
 -17 -16   2   39.92    9.64
  33 -17   2   39.18    9.64
 -17 -16   5   -9.10    7.70
  33 -17   5    3.96    7.66
 -17 -16   5    7.46    7.38
 -16  33   5   -5.42    8.14
 -16 -17  -5    8.54    7.68
 -17  33  -5   10.21    8.58
 -16 -17  -5   14.69    7.83
  33 -16  -5   11.05    8.60
 -16 -17  -2   40.30    9.68
 -16 -17  -2   30.27    9.19
  33 -16  -2   44.72    9.43
 -17  33  -2   36.66    8.99
 -16 -17   1   25.39    8.35
 -17  33   1    6.22    7.22
 -16 -17   1   19.37    7.66
  33 -16   1   13.67    7.38
  33 -16   4   42.67   10.00
 -17  33   4   13.52    7.82
 -16 -17   4   41.59    9.97
 -16 -17   4   31.55    8.34
 -15 -18  -6   30.29   10.75
 -18  33  -6   42.30   11.93
 -15 -18  -6   26.08    9.42
  33 -15  -6   20.68    8.87
 -15 -18  -3  210.14   19.38
 -18  33  -3  223.43   19.00
 -15 -18  -3  225.68   18.57
  33 -15  -3  168.04   15.79
 -15 -18   0  105.80   13.87
 -15 -18   0  108.73   13.33
 -18  33   0  114.61   13.21
  33 -15   0  102.70   12.51
 -15 -18   3  347.72   21.91
 -18  33   3  381.91   22.81
 -15 -18   3  368.50   22.59
  33 -15   3  372.65   22.67
 -15 -18   6   66.45   12.43
 -15 -18   6   66.86   11.12
 -14 -19  -4   79.20   12.97
 -14 -19  -4   80.89   12.61
 -19  33  -4   67.69   12.30
  33 -14  -4   64.38   11.61
 -14 -19  -1   82.23   12.22
 -19  33  -1   92.91   11.92
 -14 -19  -1   88.33   12.43
  33 -14  -1   84.09   11.40
 -14 -19   2   15.93    7.40
 -14 -19   2   16.29    7.47
 -19  33   2   33.35    8.78
  33 -14   2   29.05    8.13
  33 -14   5   14.04    8.72
 -19  33   5   11.25    7.40
 -14 -19   5    4.53    6.66
 -14 -19   5   25.89    9.06
 -13 -20  -5   11.69    8.44
 -20  33  -5    4.52    7.63
 -13 -20  -5    3.52    7.06
  33 -13  -5   -0.57    6.98
 -13 -20  -2   74.11   12.83
 -13 -20  -2   61.41   11.00
 -20  33  -2   53.85   10.35
  33 -13  -2   55.57   10.21
 -13 -20   1   40.66    9.62
 -20  33   1   14.27    7.11
 -13 -20   1   26.07    8.48
  33 -13   1   17.20    7.59
  33 -13   4    8.11    7.25
 -13 -20   4   15.52    7.35
 -13 -20   4   26.22    9.44
 -20  33   4    7.33    7.11
 -21  33  -3  263.60   19.71
 -12 -21  -3  251.66   20.61
 -12 -21  -3  254.81   19.77
  33 -12  -3  267.29   19.92
 -21  33   0   54.51    9.90
 -12 -21   0   81.62   12.45
 -12 -21   0   61.32   10.92
  33 -12   0   57.59    9.55
 -12 -21   3  325.26   21.58
 -21  33   3  320.14   20.52
 -12 -21   3  331.79   20.55
  33 -12   3  301.03   19.66
 -11 -22  -4   36.80   10.30
 -22  33  -4   23.25    9.45
 -11 -22  -4   34.41   10.40
  33 -11  -4   24.51    9.32
 -11 -22  -1   60.41   11.32
 -22  33  -1   68.91   10.74
 -11 -22  -1   64.18   10.90
  33 -11  -1   51.44    9.72
 -22  33   2   80.15   11.28
 -11 -22   2   57.53   11.32
 -11 -22   2   59.76    9.96
  33 -11   2   59.94   10.14
  33 -11   5   24.87    8.25
 -11 -22   5   26.83    8.37
 -11 -22   5   15.57    8.49
 -10 -23  -5    0.24    7.09
 -23  33  -5    8.53    8.49
 -10 -23  -5   -1.65    8.86
  33 -10  -5    0.57    6.98
 -10 -23  -2   93.36   13.67
 -23  33  -2  104.60   12.92
 -10 -23  -2   73.79   11.69
  33 -10  -2   85.88   12.15
 -23  33   1    0.29    5.65
 -10 -23   1    0.83    7.06
 -10 -23   1   12.60    7.29
  33 -10   1   -5.65    5.97
  33 -10   4   21.53    7.65
 -10 -23   4   24.65    7.92
 -10 -23   4   34.44    8.83
 -24  33  -3  230.97   18.93
  -9 -24  -3  215.30   19.68
  -9 -24  -3  191.58   17.34
  33  -9  -3  198.88   17.39
  -9 -24   0   54.69   10.20
  -9 -24   0   42.01    8.93
  33  -9   0   57.93    9.67
 -24  33   0   50.68    9.34
  -9 -24   3  183.93   16.66
 -24  33   3  182.65   15.03
  -9 -24   3  184.45   15.37
  33  -9   3  159.29   14.20
  -8 -25  -4   29.14   10.40
 -25  33  -4   28.61    9.87
  -8 -25  -4   24.26    9.19
  33  -8  -4   29.90    8.73
  -8 -25  -1  208.18   19.01
 -25  33  -1  214.46   16.99
  -8 -25  -1  173.67   15.86
  33  -8  -1  175.83   14.99
  -8 -25   2   23.82    9.03
 -25  33   2   11.95    6.32
  -8 -25   2   11.29    6.74
  33  -8   2   23.92    7.34
  -8 -25   5  108.14   13.47
  -7 -26  -2   15.16    8.10
 -26  33  -2   25.02    8.74
  -7 -26  -2   19.85    8.51
  33  -7  -2   21.36    7.36
 -26  33   1   13.94    6.80
  -7 -26   1    8.71    7.89
  -7 -26   1   15.70    7.19
  33  -7   1   18.46    7.16
  -7 -26   4   56.66   10.76
  -7 -26   4   55.99    9.81
  -6 -27  -3   48.42   11.47
 -27  33  -3   48.82   10.65
  -6 -27  -3   50.56   10.33
  33  -6  -3   38.78    9.61
  -6 -27   0   34.08   10.30
  -6 -27   0   28.68    8.43
 -27  33   0   21.16    7.36
  33  -6   0   17.50    6.77
  -6 -27   3  113.03   14.01
  -6 -27   3  117.64   12.56
  -5 -28  -4   41.05   11.92
 -28  33  -4   29.69   10.52
  -5 -28  -4   41.49   10.93
  33  -5  -4   24.65    8.70
  -5 -28  -1  163.08   17.28
 -28  33  -1  167.75   15.18
  -5 -28  -1  165.20   15.53
  33  -5  -1  152.33   14.24
  -5 -28   2   48.39   10.36
  -5 -28   2   54.14    9.81
  33  -5   2   38.26    8.34
  -4 -29  -2   -1.08    8.05
 -29  33  -2    8.06    8.14
  -4 -29  -2   13.65    7.30
  33  -4  -2   -5.52    7.52
  -4 -29   1   10.93    6.98
  -4 -29   1   -2.99    6.45
  33  -4   1    4.45    5.59
 -29  33   1    1.45    6.09
  -3 -30   0   61.66   11.64
  -3 -30   0   41.63    9.08
 -30  33   0   47.80    9.52
  33  -3   0   38.62    8.07
 -31  33  -1  158.95   15.04
  -2 -31  -1  154.87   17.64
  -2 -31  -1  170.75   16.09
  33  -2  -1  127.91   13.40
  -2 -31   2   59.12   11.72
  -4  34   1  205.94   21.92
 -30  -4   1  211.97   20.32
 -30  -4   1  194.19   20.87
  34 -30   1  184.94   20.41
 -29  -5   0   46.86   11.55
  -5  34   0   47.29   12.09
 -29  -5   0   29.70   10.45
  34 -29   0   40.04   12.18
  -6  34  -1   15.10   10.48
 -28  -6  -1    6.68    8.76
 -28  -6  -1   24.07   10.35
  34 -28  -1    9.24    9.13
  34 -28   2   41.96   12.16
  -6  34   2   40.83   12.29
 -28  -6   2   40.55   11.11
 -28  -6   2   32.62   11.23
  -7  34  -2  100.32   15.85
 -27  -7  -2   96.73   15.06
 -27  -7  -2   68.04   13.28
  34 -27  -2   52.60   12.37
 -27  -7   1  171.21   18.18
  -7  34   1  170.82   19.38
 -27  -7   1  140.98   17.23
  34 -27   1  136.86   16.85
 -26  -8  -3  105.24   15.24
  -8  34  -3   78.09   13.34
 -26  -8  -3   73.22   13.73
  34 -26  -3  105.09   15.07
  -8  34   0   19.97    9.67
 -26  -8   0   28.88   10.36
 -26  -8   0   18.33    9.59
  34 -26   0   13.43    8.53
  34 -26   3   18.92    9.91
  -8  34   3   35.26   11.76
 -26  -8   3   20.08    9.64
 -26  -8   3   36.88   11.72
  -9  34  -4   -2.80    7.98
 -25  -9  -4   24.64    9.84
 -25  -9  -4   30.20   10.47
  34 -25  -4    3.04    7.49
 -25  -9  -1   38.36   10.86
  -9  34  -1   37.49   10.55
 -25  -9  -1   43.48   10.56
  34 -25  -1   44.62   11.63
  34 -25   2   28.93   10.96
  -9  34   2    7.78    8.98
 -25  -9   2   19.73    9.78
 -25  -9   2   18.60    9.56
 -24 -10  -2  154.64   17.25
 -24 -10  -2  124.80   15.75
  34 -24  -2  145.75   16.62
 -10  34  -2  143.08   16.47
 -24 -10   1  132.77   15.94
 -10  34   1  121.93   15.67
 -24 -10   1  168.37   17.77
  34 -24   1  115.09   15.20
 -24 -10   4   83.28   14.47
 -10  34   4   68.15   13.34
  34 -24   4   65.72   13.40
 -24 -10   4   99.10   14.04
 -11  34  -3   60.36   12.25
 -23 -11  -3   89.29   14.01
 -23 -11  -3  107.77   14.49
  34 -23  -3   95.49   13.53
 -23 -11   0   39.99   10.74
 -23 -11   0   29.00    9.80
 -11  34   0   46.40   11.19
  34 -23   0   25.91    9.19
 -11  34   3  109.13   15.75
 -23 -11   3  111.95   14.54
 -23 -11   3  116.98   15.72
  34 -23   3   87.37   14.45
 -12  34  -4    8.75    8.98
 -22 -12  -4  -12.39    8.88
 -22 -12  -4    8.08    8.94
  34 -22  -4    2.59    7.45
 -22 -12  -1   89.27   14.03
 -22 -12  -1   80.27   13.09
  34 -22  -1   72.53   12.05
 -12  34  -1   94.38   13.61
  34 -22   2   12.74    8.97
 -22 -12   2   17.89    8.15
 -12  34   2   13.80    8.53
 -22 -12   2   18.94    9.32
 -22 -12   5   12.83    9.71
  34 -22   5   26.52   11.67
 -12  34   5   14.58   10.08
 -22 -12   5   11.34    7.98
 -21 -13  -5   31.73   10.73
 -21 -13  -5   20.67    9.50
 -13  34  -5   35.08   11.01
  34 -21  -5   22.68    8.59
 -21 -13  -2  131.47   15.92
 -21 -13  -2  113.91   14.18
 -13  34  -2  126.50   15.01
  34 -21  -2  118.81   14.22
 -21 -13   1   24.05    8.58
 -21 -13   1   17.64    8.28
  34 -21   1   27.35    9.02
 -21 -13   4  116.76   14.48
 -13  34   4  101.97   15.36
  34 -21   4   89.17   14.49
 -20 -14  -3  166.25   17.94
 -20 -14  -3  187.30   18.34
 -14  34  -3  174.09   17.76
  34 -20  -3  148.36   16.26
 -14  34   0  104.42   14.09
 -20 -14   0  109.61   14.07
 -20 -14   0   89.18   13.19
  34 -20   0   82.36   12.46
 -20 -14   3  262.45   20.21
 -20 -14   3  243.10   20.20
 -14  34   3  237.43   19.67
  34 -20   3  243.53   20.64
 -19 -15  -4   76.47   13.61
 -19 -15  -4   51.66   11.67
  34 -19  -4   62.27   12.12
 -15  34  -4   40.56   10.94
 -15  34  -1   15.67    8.46
 -19 -15  -1   20.93    8.96
 -19 -15  -1   22.29    8.93
  34 -19  -1   29.42    8.88
 -19 -15   2   35.01    9.34
 -15  34   2   43.04    9.75
 -19 -15   2   52.79   11.44
  34 -19   2   38.14    9.99
 -19 -15   5   35.68   10.99
  34 -19   5   18.82    9.52
 -19 -15   5   48.39   10.38
 -15  34   5   49.42   11.63
 -18 -16  -5    9.16    8.97
 -18 -16  -5   14.43    8.19
 -16  34  -5   17.95    9.51
  34 -18  -5    6.69    8.15
 -16  34  -2   58.09   11.17
 -18 -16  -2   69.32   12.40
 -18 -16  -2   75.49   12.22
  34 -18  -2   67.28   11.66
 -18 -16   1   10.54    7.46
 -16  34   1    2.83    6.67
 -18 -16   1    5.91    6.70
  34 -18   1   -2.39    6.87
 -18 -16   4  120.88   14.43
 -16  34   4  111.21   14.64
 -18 -16   4  135.55   15.81
  34 -18   4  134.25   16.38
 -17 -17  -3  284.27   22.12
 -17  34  -3  289.36   21.58
 -17 -17  -3  297.95   21.88
  34 -17  -3  274.59   20.43
 -17 -17   0  167.14   16.76
 -17 -17   0  164.83   16.05
 -17  34   0  123.24   14.10
  34 -17   0  158.24   15.44
 -17 -17   3  291.42   20.89
 -17  34   3  303.36   21.36
 -17 -17   3  311.85   21.67
  34 -17   3  314.22   22.00
 -16 -18  -4  120.45   14.99
 -18  34  -4  131.16   16.05
 -16 -18  -4  126.99   15.55
  34 -16  -4  138.29   16.02
 -18  34  -1   -5.66    6.91
 -16 -18  -1   -3.67    6.62
 -16 -18  -1    7.46    7.77
  34 -16  -1   10.06    7.76
 -18  34   2   51.39   10.09
 -16 -18   2   72.43   11.80
 -16 -18   2   49.70   10.50
  34 -16   2   50.33   10.75
  34 -16   5   13.85    9.48
 -16 -18   5   12.10    7.93
 -18  34   5    1.36    7.90
 -16 -18   5   10.66    8.03
 -15 -19  -5   39.97   10.97
 -19  34  -5   28.80    9.73
 -15 -19  -5   18.61    9.55
  34 -15  -5   24.83    9.21
 -15 -19  -2   47.36   10.98
 -15 -19  -2   46.81   10.82
  34 -15  -2   23.86    8.20
 -19  34  -2   34.52    9.35
 -15 -19   1   16.53    7.91
 -19  34   1   17.19    8.03
 -15 -19   1   17.74    7.56
  34 -15   1    2.07    6.59
  34 -15   4   33.09    9.59
 -19  34   4   42.72   10.40
 -15 -19   4   52.48   10.58
 -15 -19   4   32.11    9.31
 -14 -20  -3  233.59   20.25
 -20  34  -3  205.45   18.45
 -14 -20  -3  202.28   18.41
  34 -14  -3  238.84   19.20
 -14 -20   0  126.21   15.21
 -14 -20   0  125.77   14.24
 -20  34   0  118.24   13.63
  34 -14   0  112.90   13.04
 -14 -20   3  194.09   17.39
 -20  34   3  174.83   16.06
 -14 -20   3  182.23   16.60
  34 -14   3  162.55   15.94
 -21  34  -4   92.33   13.63
 -13 -21  -4   75.53   13.41
 -13 -21  -4   72.42   12.78
  34 -13  -4   80.35   12.67
 -13 -21  -1   24.73    9.23
 -13 -21  -1   28.56    8.99
  34 -13  -1   21.41    8.30
 -21  34  -1   36.44    9.19
 -21  34   2  126.35   13.81
 -13 -21   2   95.51   13.13
 -13 -21   2  126.20   13.90
  34 -13   2  139.11   14.02
  34 -13   5   23.91    9.03
 -13 -21   5   16.89    8.42
 -13 -21   5   12.20    8.02
 -12 -22  -5   31.92   11.29
 -22  34  -5   46.10   12.11
 -12 -22  -5   53.87   12.64
  34 -12  -5   22.34    9.23
 -12 -22  -2    6.32    6.97
 -12 -22  -2   38.17    9.50
 -22  34  -2   36.81    9.27
  34 -12  -2   14.72    7.52
 -12 -22   1  100.83   13.25
 -12 -22   1  110.74   13.39
 -22  34   1   75.42   11.21
  34 -12   1   96.79   12.45
  34 -12   4    5.20    7.44
 -12 -22   4    3.00    6.65
 -22  34   4   -2.76    7.67
 -12 -22   4   -8.84    7.67
 -23  34  -3  113.74   14.42
 -11 -23  -3   76.13   13.82
 -11 -23  -3   79.06   12.15
  34 -11  -3   82.15   12.17
 -23  34   0   45.02    9.25
 -11 -23   0   47.95   10.82
 -11 -23   0   33.44    9.37
  34 -11   0   55.76    9.63
 -11 -23   3  125.90   14.07
 -23  34   3  113.73   12.88
 -11 -23   3  130.18   13.92
  34 -11   3  127.26   13.88
 -10 -24  -4   82.35   13.53
 -24  34  -4   59.55   12.12
 -10 -24  -4   84.26   13.97
  34 -10  -4   88.70   13.15
 -10 -24  -1   78.68   12.99
 -24  34  -1  105.28   12.85
 -10 -24  -1   93.16   12.11
  34 -10  -1  100.19   12.27
 -24  34   2   91.07   11.69
 -10 -24   2  136.95   15.32
 -10 -24   2  104.97   12.84
  34 -10   2  102.81   12.71
  -9 -25  -2   14.27    8.56
  -9 -25  -2   15.56    8.30
 -25  34  -2    6.80    7.45
  34  -9  -2   11.87    7.57
 -25  34   1   49.75    9.66
  -9 -25   1   52.34   11.10
  -9 -25   1   31.97    8.30
  34  -9   1   40.83    9.02
  -9 -25   4   15.43    8.45
  -9 -25   4    6.23    7.16
  -8 -26  -3   17.17    9.94
 -26  34  -3   21.89    9.58
  -8 -26  -3   22.34    9.05
  34  -8  -3   35.64    9.41
  -8 -26   0   30.08    9.99
  -8 -26   0   30.14    8.92
 -26  34   0   29.47    8.24
  34  -8   0   31.63    7.96
  -8 -26   3  110.47   14.10
  -8 -26   3   83.04   11.42
  34  -8   3   90.61   11.72
  -7 -27  -1  115.16   15.07
 -27  34  -1  126.80   13.71
  -7 -27  -1  146.88   15.12
  34  -7  -1  114.12   13.32
  -7 -27   2   65.43   12.18
 -27  34   2   50.17    9.40
  -7 -27   2   66.83   10.49
  34  -7   2   45.95    9.08
  -6 -28  -2   15.30    9.12
 -28  34  -2   20.54    8.63
  -6 -28  -2   26.30    8.79
  34  -6  -2   27.13    8.93
 -28  34   1    0.57    5.83
  -6 -28   1    1.56    6.09
  34  -6   1    2.44    6.32
  -5 -29   0   42.67   10.81
  -5 -29   0   44.87    9.43
 -29  34   0   31.89    8.59
  34  -5   0   60.95    9.95
  -4 -30  -1  185.15   19.45
 -30  34  -1  177.53   15.94
  -4 -30  -1  181.51   17.01
  34  -4  -1  167.39   14.87
 -28  -7   0   61.15   12.60
  -7  35   0   37.63   11.61
 -28  -7   0   21.47    9.64
  35 -28   0   37.87   10.67
  -8  35  -1   37.00   11.30
 -27  -8  -1   44.66   11.70
 -27  -8  -1   40.89   12.18
  35 -27  -1   19.82    9.56
  35 -27   2   68.85   13.93
 -27  -8   2   41.13   10.92
  -8  35   2   54.68   12.88
 -27  -8   2   34.62   12.20
  -9  35  -2  144.04   17.51
 -26  -9  -2  172.85   19.33
 -26  -9  -2  126.86   16.29
  35 -26  -2  151.91   17.13
 -26  -9   1   18.82    9.15
  -9  35   1   21.38   10.64
 -26  -9   1   31.78   10.78
  35 -26   1   45.18   10.72
 -10  35  -3   16.43    9.24
 -25 -10  -3   11.04    8.97
 -25 -10  -3    4.97    7.21
  35 -25  -3   -3.31    7.16
 -10  35   0   87.95   14.36
 -25 -10   0   93.32   14.04
 -25 -10   0  107.11   15.16
  35 -25   0   68.01   13.06
  35 -25   3   14.83    8.99
 -10  35   3   30.04   11.11
 -25 -10   3   26.34    9.64
 -25 -10   3   18.33    9.66
 -24 -11  -1   87.75   13.59
 -24 -11  -1   77.51   13.92
 -11  35  -1   44.07   11.32
  35 -24  -1   58.19   12.13
  35 -24   2   15.83    9.78
 -11  35   2   39.98   11.99
 -24 -11   2   31.90    9.77
 -24 -11   2   38.66   11.62
 -23 -12  -2   42.86   10.98
 -12  35  -2   25.95    9.64
 -23 -12  -2   48.82   10.73
  35 -23  -2   47.18   10.97
 -12  35   1   76.81   13.40
 -23 -12   1   59.18   11.89
 -23 -12   1   79.12   13.32
  35 -23   1   63.74   12.40
  35 -23   4   41.21   12.34
 -23 -12   4   50.60   10.77
 -12  35   4   58.90   13.43
 -23 -12   4   56.87   13.11
 -13  35  -3   47.09   11.82
 -22 -13  -3   27.12   10.30
 -22 -13  -3   35.11   10.55
  35 -22  -3   42.49   10.92
 -13  35   0  208.08   19.08
 -22 -13   0  275.76   22.24
 -22 -13   0  247.34   20.26
  35 -22   0  206.11   18.79
  35 -22   3   10.27    9.26
 -22 -13   3   14.96    8.76
 -13  35   3   22.45    9.94
 -22 -13   3   20.91    9.33
 -21 -14  -4   12.38    8.68
 -21 -14  -4    6.39    8.02
  35 -21  -4   14.52    7.65
 -14  35  -4   19.01   10.17
 -21 -14  -1   31.42    8.91
 -14  35  -1   44.63   10.94
 -21 -14  -1   20.77    8.78
  35 -21  -1   34.77   10.60
 -21 -14   2   23.97    8.84
 -14  35   2    9.65    8.45
 -21 -14   2   12.60    9.09
  35 -21   2   30.61   10.72
 -15  35  -2    2.08    7.58
 -20 -15  -2    2.67    7.13
 -20 -15  -2   16.16    9.04
  35 -20  -2   -0.88    6.97
 -20 -15   1   64.44   12.33
 -20 -15   1   63.49   11.52
  35 -20   1   68.40   11.99
 -15  35   1   47.96   10.95
  35 -20   4   43.83   11.76
 -20 -15   4   46.02   10.97
 -15  35   4   37.18   10.89
 -20 -15   4   47.79   11.80
 -19 -16  -3    7.66    9.55
 -19 -16  -3   -6.32    8.65
  35 -19  -3    2.19    7.73
 -16  35  -3   12.76    9.59
 -19 -16   0  322.97   23.19
 -19 -16   0  362.72   23.87
  35 -19   0  358.52   22.99
 -16  35   0  383.60   24.21
  35 -19   3   34.29    9.54
 -16  35   3   24.79    9.83
 -19 -16   3   45.15   10.88
 -19 -16   3   30.51   10.17
 -18 -17  -4    5.26    8.05
 -18 -17  -4   -1.40    9.02
 -17  35  -4   26.31   10.43
  35 -18  -4   10.19    9.32
 -17  35  -1   44.64   10.24
 -18 -17  -1   26.12    9.49
 -18 -17  -1   19.73    8.80
  35 -18  -1   46.13   10.05
 -17  35   2   11.82    7.81
 -18 -17   2   -1.56    6.71
 -18 -17   2  -11.38    8.53
  35 -18   2   -0.35    7.16
 -17 -18  -2   18.51    9.49
 -17 -18  -2    5.22    7.80
  35 -17  -2    5.52    6.76
 -18  35  -2    4.75    7.57
 -17 -18   1   37.13    9.41
 -18  35   1   40.49   10.02
 -17 -18   1   34.39    9.03
  35 -17   1   47.54   10.38
  35 -17   4   24.94   10.05
 -18  35   4   25.62    9.45
 -17 -18   4   25.25    8.47
 -17 -18   4   23.36    9.43
 -16 -19  -3   31.63   10.85
 -16 -19  -3   34.90   10.73
 -19  35  -3   26.81   10.12
  35 -16  -3   13.92    8.44
 -16 -19   0  366.09   24.22
 -16 -19   0  367.11   23.38
 -19  35   0  358.85   22.93
  35 -16   0  347.24   22.38
  35 -16   3    3.76    7.92
 -16 -19   3    9.92    8.05
 -19  35   3   -0.28    8.38
 -16 -19   3   -2.04    7.93
 -15 -20  -4   21.28    9.68
 -15 -20  -4   17.39    9.53
 -20  35  -4   14.90    8.77
  35 -15  -4   32.97    9.91
 -20  35  -1   41.85   10.36
 -15 -20  -1   69.38   12.73
 -15 -20  -1   62.66   11.59
  35 -15  -1   52.55   10.68
 -15 -20   2   -0.63    7.05
 -15 -20   2    8.12    7.82
  35 -15   2    1.21    6.73
 -20  35   2    4.30    7.25
 -14 -21  -2   -5.36    8.36
 -14 -21  -2    1.77    6.73
 -21  35  -2   12.97    8.45
  35 -14  -2   12.99    8.09
 -14 -21   1   31.92    9.72
 -21  35   1   41.44    9.85
 -14 -21   1   37.17    9.76
  35 -14   1   40.70    9.65
 -21  35   4   16.37    8.68
  35 -14   4   29.26    9.53
 -14 -21   4   11.61    7.75
 -14 -21   4   27.25    9.53
 -13 -22  -3    5.29    8.08
 -13 -22  -3   12.89    8.38
 -22  35  -3    5.91    7.63
  35 -13  -3    5.44    8.23
 -13 -22   0  219.24   19.36
 -22  35   0  240.63   18.19
  35 -13   0  263.15   19.22
 -13 -22   3   28.80    9.18
 -22  35   3   14.17    8.54
 -13 -22   3   10.12    7.62
 -12 -23  -4   36.85   11.36
 -23  35  -4   31.52   10.45
 -12 -23  -4   15.05    9.41
  35 -12  -4   35.35   10.42
 -12 -23  -1   46.55   11.31
 -23  35  -1   69.72   11.29
 -12 -23  -1   55.68   10.75
  35 -12  -1   39.78    9.71
 -12 -23   2   35.06    9.98
 -12 -23   2   61.34   10.97
 -23  35   2   40.17    9.39
  35 -12   2   48.26   10.51
 -11 -24  -2   32.46   10.46
 -11 -24  -2   27.27    9.84
 -24  35  -2   28.44    9.50
  35 -11  -2   28.28    9.07
 -11 -24   1   69.75   12.38
 -24  35   1   66.97   10.60
 -11 -24   1   75.82   11.76
  35 -11   1   86.73   11.63
 -10 -25  -3   43.47   12.22
 -25  35  -3   32.45    9.64
 -10 -25  -3   26.64   10.18
  35 -10  -3   29.19    9.00
 -10 -25   0   87.91   13.87
 -10 -25   0  106.00   13.45
 -25  35   0   96.30   12.88
  35 -10   0   90.92   12.09
  35 -10   3   14.06    7.54
 -10 -25   3   -1.01    7.37
 -10 -25   3    0.86    6.70
  -9 -26  -1   38.92   11.15
  -9 -26  -1   31.60    9.67
 -26  35  -1   24.85    8.60
  35  -9  -1   34.80    8.78
 -26  35   2  124.96   13.26
  -9 -26   2  172.54   17.65
  -9 -26   2  146.13   14.76
  35  -9   2  139.27   14.08
  -8 -27  -2   43.94   11.55
  -8 -27  -2   34.60   10.11
 -27  35  -2   35.86    9.79
  35  -8  -2   42.84   10.04
 -27  35   1   54.41    9.90
  -8 -27   1   55.79   11.57
  -8 -27   1   65.38   11.25
  35  -8   1   26.16    8.34
  -7 -28   0   39.62   10.59
  -7 -28   0   34.53    9.28
  35  -7   0   23.94    8.04
 -28  35   0   36.63    8.99
 -26 -10  -1    8.25    8.19
 -26 -10  -1    2.02    8.06
 -10  36  -1   13.39    9.87
  36 -26  -1   16.92    9.15
 -25 -11  -2   33.75   10.72
 -11  36  -2   16.17   10.18
 -25 -11  -2   19.51    9.91
  36 -25  -2   43.17   11.40
 -25 -11   1  193.09   19.64
 -11  36   1  192.74   19.87
 -25 -11   1  189.65   19.51
  36 -25   1  203.47   19.69
 -24 -12   0   38.96   11.03
 -24 -12   0   28.42   10.90
  36 -24   0   23.62   10.44
 -12  36   0   37.96   12.14
 -23 -13  -1    5.49    8.34
 -13  36  -1   15.43    9.97
 -23 -13  -1    3.07    7.51
  36 -23  -1   13.12    9.65
  36 -23   2   52.57   13.05
 -23 -13   2   58.89   11.93
 -23 -13   2   63.40   13.06
 -13  36   2   80.12   14.17
 -22 -14  -2   99.94   15.32
 -22 -14  -2   87.22   13.83
 -14  36  -2   89.29   14.23
  36 -22  -2   82.68   13.53
 -22 -14   1  128.21   15.84
 -14  36   1  138.70   16.40
 -22 -14   1  170.74   17.98
  36 -22   1  130.66   16.17
 -21 -15  -3  133.38   16.38
 -21 -15  -3  154.02   17.58
 -15  36  -3  112.82   15.99
  36 -21  -3  131.26   16.27
 -21 -15   0   59.77   12.37
 -15  36   0   67.43   12.10
 -21 -15   0   47.02   10.80
  36 -21   0   55.03   11.88
 -15  36   3  107.53   15.18
 -21 -15   3  134.08   15.68
 -21 -15   3  133.74   16.79
  36 -21   3  109.66   15.91
 -20 -16  -1    1.21    6.89
 -16  36  -1   20.38    9.14
 -20 -16  -1   10.86    7.92
  36 -20  -1    4.50    8.00
 -20 -16   2   51.32   11.68
 -16  36   2   34.16   10.44
 -20 -16   2   56.43   12.11
  36 -20   2   24.52    9.68
 -19 -17  -2   71.56   12.89
 -19 -17  -2   89.68   14.38
 -17  36  -2   80.53   13.27
  36 -19  -2   67.45   12.11
 -19 -17   1   28.14   10.02
 -19 -17   1   27.56    9.93
 -17  36   1   31.16   10.17
  36 -19   1   32.11    9.78
 -18 -18  -3  137.74   17.01
 -18  36  -3  110.89   15.23
 -18 -18  -3  119.18   16.00
  36 -18  -3  127.97   15.25
 -18 -18   0   58.56   11.82
 -18  36   0   57.78   11.82
 -18 -18   0   86.57   13.50
  36 -18   0   65.21   11.76
 -18  36   3   72.09   13.05
 -18 -18   3   73.89   12.78
 -18 -18   3  100.06   14.10
  36 -18   3   92.77   14.27
 -19  36  -1   18.52    7.95
 -17 -19  -1   19.01   10.03
 -17 -19  -1   27.31    9.14
  36 -17  -1   19.93    8.58
 -19  36   2   63.67   12.13
 -17 -19   2   71.22   12.69
 -17 -19   2   62.14   12.11
  36 -17   2   89.83   13.11
 -16 -20  -2   18.91    9.24
 -16 -20  -2   19.76    8.47
  36 -16  -2   22.96    9.50
 -20  36  -2   28.92   10.40
 -16 -20   1   -0.06    6.62
 -20  36   1   14.17    8.77
 -16 -20   1   -0.31    7.24
  36 -16   1   -1.68    7.21
 -15 -21  -3  104.42   15.23
 -21  36  -3   94.55   14.46
 -15 -21  -3  101.15   14.24
  36 -15  -3  120.17   14.99
 -21  36   0   49.20   10.70
 -15 -21   0   33.35   10.52
 -15 -21   0   50.54   10.12
  36 -15   0   63.43   11.35
 -15 -21   3  112.35   14.96
 -21  36   3  144.03   15.97
 -15 -21   3  112.40   14.66
  36 -15   3  136.64   15.12
 -14 -22  -1  171.65   18.40
 -14 -22  -1  175.93   17.08
 -22  36  -1  141.96   15.70
  36 -14  -1  144.46   15.72
 -22  36   2   79.02   12.27
 -14 -22   2  101.93   14.26
 -14 -22   2   69.42   11.74
  36 -14   2   56.62   11.41
 -13 -23  -2   66.87   12.92
 -13 -23  -2   59.94   11.97
 -23  36  -2   55.95   11.44
  36 -13  -2   43.90   10.09
 -13 -23   1   16.93    8.76
 -23  36   1    3.59    6.67
 -13 -23   1   -8.04    7.38
  36 -13   1    6.32    7.59
 -24  36   0   33.48    9.21
 -12 -24   0   29.51   10.00
 -12 -24   0   16.67    7.97
  36 -12   0   23.02    8.25
 -11 -25  -1  210.43   20.02
 -25  36  -1  220.46   18.75
 -11 -25  -1  225.76   18.77
  36 -11  -1  247.85   18.86
 -11 -25   2    9.96    8.47
 -25  36   2   14.84    8.00
 -11 -25   2   -1.63    7.23
  36 -11   2   16.27    8.09
 -10 -26   1   22.03   10.18
 -26  36   1    6.08    6.86
 -10 -26   1    8.94    7.97
  36 -10   1   16.05    8.17
 -23 -14   0   51.56   12.58
 -23 -14   0   51.27   13.20
 -14  37   0   48.12   12.35
  37 -23   0   50.91   11.73
 -22 -15  -1   99.29   15.03
 -22 -15  -1   89.76   14.76
  37 -22  -1   64.64   12.26
 -15  37  -1   93.58   14.94
 -16  37   1   13.73    9.33
 -21 -16   1    6.85    9.42
 -21 -16   1    6.14    7.62
  37 -21   1    4.40    8.95
 -20 -17   0   36.97   11.12
 -17  37   0   42.38   11.26
 -20 -17   0   34.88   10.08
  37 -20   0   44.56   11.40
 -18  37  -1   33.03    9.74
 -19 -18  -1   61.93   12.67
 -19 -18  -1   47.37   11.49
  37 -19  -1   65.15   11.82
 -19 -18   2   79.96   13.86
 -18  37   2   41.22   11.18
 -19 -18   2   63.87   12.15
  37 -19   2   49.27   12.18
 -19  37  -2   82.86   13.65
 -18 -19  -2   69.34   13.17
 -18 -19  -2   56.57   11.98
  37 -18  -2   41.03   10.35
 -18 -19   1   19.44    8.97
 -18 -19   1   28.74    9.96
 -19  37   1   44.30   10.79
  37 -18   1   35.82   10.19
 -17 -20   0   47.76   10.87
 -20  37   0   65.62   12.24
 -17 -20   0   49.86   11.47
  37 -17   0   52.14   11.06
 -21  37  -1   16.00    8.24
 -16 -21  -1   17.73    9.49
 -16 -21  -1   38.44   10.64
  37 -16  -1   41.05   10.24
 -15 -22   1   70.15   12.93
 -22  37   1   54.01   10.69
 -15 -22   1   83.69   13.48
  37 -15   1   65.57   12.01
 -23  37   0   57.96   11.40
 -14 -23   0   78.60   13.59
 -14 -23   0   57.50   11.79
  37 -14   0   49.57   11.12
   0   0   0    0.00    0.00


TITL YY_ZnAlaPyr_15PD_100K in R3
REM R3 (#146 in standard setting)
CELL 0.71073  28.831506  28.831506  10.130361  90.0000  90.0000 120.0000
ZERR   18.00   0.000396   0.000396   0.000161   0.0000   0.0000   0.0000
LATT -3
SYMM -y, x-y, z
SYMM -x+y,-x, z
SFAC C H N O Zn
UNIT 126.00 126.00 54.00 90.00 18.00
TREF
HKLF 4
END
_computing_structure_solution     'SHELXT 2014/5 (Sheldrick, 2014)'
;
_shelx_hkl_checksum              42126
_olex2_submission_special_instructions 'No special instructions were received'
_oxdiff_exptl_absorpt_empirical_details
;
Empirical correction (ABSPACK) includes:
- Absorption correction using spherical harmonics
- Frame scaling
- Detector area scaling
;
_oxdiff_exptl_absorpt_empirical_full_max 1.238
_oxdiff_exptl_absorpt_empirical_full_min 0.872
loop_
_space_group_symop_operation_xyz
'x, y, z'
'-y, x-y, z'
'-x+y, -x, z'
'x+2/3, y+1/3, z+1/3'
'-y+2/3, x-y+1/3, z+1/3'
'-x+y+2/3, -x+1/3, z+1/3'
'x+1/3, y+2/3, z+2/3'
'-y+1/3, x-y+2/3, z+2/3'
'-x+y+1/3, -x+2/3, z+2/3'
loop_
_atom_site_label
_atom_site_type_symbol
_atom_site_fract_x
_atom_site_fract_y
_atom_site_fract_z
_atom_site_U_iso_or_equiv
_atom_site_adp_type
_atom_site_occupancy
_atom_site_site_symmetry_order
_atom_site_calc_flag
_atom_site_refinement_flags_posn
_atom_site_refinement_flags_adp
_atom_site_refinement_flags_occupancy
_atom_site_disorder_assembly
_atom_site_disorder_group
Zn01 Zn 0.66383(3) 0.64330(3) 0.96826(6) 0.0155(2) Uani 1 1 d . . . . .
Zn02 Zn 0.33021(3) 0.35337(3) 0.79841(6) 0.0160(2) Uani 1 1 d . . . . .
O2 O 0.58631(18) 0.61279(19) 0.9867(5) 0.0211(10) Uani 1 1 d . . . . .
O5 O 0.38836(19) 0.41442(18) 0.4836(5) 0.0207(10) Uani 1 1 d . . . . .
O4 O 0.33669(18) 0.40347(19) 0.6589(5) 0.0203(10) Uani 1 1 d . . . . .
O1 O 0.59484(19) 0.66229(18) 1.1639(5) 0.0211(10) Uani 1 1 d . . . . .
N4 N 0.6140(2) 0.6413(2) 0.5825(5) 0.0174(11) Uani 1 1 d . . . . .
N2 N 0.3606(2) 0.3851(2) 1.0784(6) 0.0190(11) Uani 1 1 d . . . . .
N5 N 0.5990(2) 0.6371(2) 0.4542(5) 0.0191(11) Uani 1 1 d . . . . .
N3 N 0.4751(2) 0.5662(2) 1.0162(6) 0.0198(11) Uani 1 1 d D . . . .
H3 H 0.4665 0.5561 0.9336 0.024 Uiso 1 1 calc R . . . .
N6 N 0.4339(2) 0.5253(2) 0.5189(6) 0.0185(11) Uani 1 1 d . . . . .
H6 H 0.4439 0.5322 0.4358 0.022 Uiso 1 1 calc R . . . .
N1 N 0.3636(2) 0.4011(2) 0.9493(5) 0.0174(11) Uani 1 1 d . . . . .
O3 O 0.4649(3) 0.5398(2) 1.2295(6) 0.0448(17) Uani 1 1 d . . . . .
O6 O 0.4587(2) 0.5409(2) 0.7333(5) 0.0348(13) Uani 1 1 d . . . . .
C10 C 0.5261(3) 0.5864(3) 0.5743(7) 0.0209(13) Uani 1 1 d . . . . .
C3 C 0.4159(3) 0.4738(3) 1.0677(7) 0.0212(13) Uani 1 1 d . . . . .
C4 C 0.4539(3) 0.5291(3) 1.1117(7) 0.0249(14) Uani 1 1 d . . . . .
C13 C 0.3678(2) 0.4317(2) 0.5656(7) 0.0175(12) Uani 1 1 d . . . . .
C5 C 0.5119(2) 0.6232(3) 1.0441(7) 0.0202(13) Uani 1 1 d . . . . .
H5 H 0.5149 0.6418 0.9587 0.024 Uiso 1 1 calc R . . . .
C11 C 0.4709(3) 0.5494(3) 0.6153(7) 0.0209(13) Uani 1 1 d . . . . .
C12 C 0.3781(3) 0.4882(3) 0.5497(7) 0.0206(13) Uani 1 1 d . . . . .
H12 H 0.3684 0.4997 0.6334 0.025 Uiso 1 1 calc R . . . .
C8 C 0.5704(3) 0.6108(3) 0.6553(7) 0.0231(14) Uani 1 1 d . . . . .
H8 H 0.5700 0.6066 0.7483 0.028 Uiso 1 1 calc R . . . .
C2 C 0.3923(3) 0.4288(3) 1.1509(7) 0.0244(14) Uani 1 1 d . . . . .
H2 H 0.3979 0.4292 1.2434 0.029 Uiso 1 1 calc R . . . .
C1 C 0.3973(3) 0.4545(3) 0.9438(7) 0.0228(14) Uani 1 1 d . . . . .
H1 H 0.4067 0.4756 0.8657 0.027 Uiso 1 1 calc R . . . .
C9 C 0.5464(3) 0.6043(3) 0.4482(7) 0.0213(13) Uani 1 1 d . . . . .
H9 H 0.5257 0.5945 0.3695 0.026 Uiso 1 1 calc R . . . .
C6 C 0.5686(2) 0.6328(2) 1.0698(6) 0.0172(12) Uani 1 1 d D . . . .
C14 C 0.3421(3) 0.4880(3) 0.4371(9) 0.0334(18) Uani 1 1 d . . . . .
H14A H 0.3462 0.5237 0.4284 0.050 Uiso 1 1 calc GR . . . .
H14B H 0.3046 0.4619 0.4570 0.050 Uiso 1 1 calc GR . . . .
H14C H 0.3524 0.4781 0.3541 0.050 Uiso 1 1 calc GR . . . .
C7 C 0.4941(5) 0.6492(5) 1.1399(15) 0.071(3) Uani 1 1 d . . . . .
H7A H 0.4620 0.6488 1.1063 0.106 Uiso 1 1 calc GR . . . .
H7B H 0.5226 0.6863 1.1533 0.106 Uiso 1 1 calc GR . . . .
H7C H 0.4858 0.6299 1.2240 0.106 Uiso 1 1 calc GR . . . .
C3AA C 0.5670(17) 0.488(2) 0.026(3) 0.094(12) Uiso 0.295(17) 1 d D U P A -1
H3AA H 0.5925 0.5267 0.0172 0.113 Uiso 0.295(17) 1 calc R . P A -1
H3AB H 0.5877 0.4691 0.0208 0.113 Uiso 0.295(17) 1 calc R . P A -1
O0AA O 0.546(2) 0.486(2) -0.208(4) 0.156(19) Uiso 0.295(17) 1 d D U P A -1
H0AA H 0.5355 0.4596 -0.2570 0.234 Uiso 0.295(17) 1 calc R . P A -1
C1AA C 0.5738(18) 0.503(2) 0.396(4) 0.110(15) Uiso 0.295(17) 1 d D U P A -1
H1AA H 0.5991 0.4894 0.3919 0.133 Uiso 0.295(17) 1 calc R . P A -1
H1AB H 0.5882 0.5335 0.4584 0.133 Uiso 0.295(17) 1 calc R . P A -1
O1AA O 0.5237(18) 0.4625(18) 0.440(4) 0.121(16) Uiso 0.295(17) 1 d D U P A -1
H1AC H 0.5279 0.4475 0.5062 0.181 Uiso 0.295(17) 1 calc R . P A -1
C4AA C 0.5282(17) 0.470(2) -0.085(4) 0.098(14) Uiso 0.295(17) 1 d D U P A -1
H4AA H 0.5086 0.4305 -0.0857 0.118 Uiso 0.295(17) 1 calc R . P A -1
H4AB H 0.5018 0.4815 -0.0650 0.118 Uiso 0.295(17) 1 calc R . P A -1
C5AA C 0.541(2) 0.478(2) 0.162(3) 0.114(13) Uiso 0.295(17) 1 d D U P A -1
H5AA H 0.5034 0.4702 0.1503 0.136 Uiso 0.295(17) 1 calc R . P A -1
H5AB H 0.5387 0.4449 0.1993 0.136 Uiso 0.295(17) 1 calc R . P A -1
C6AA C 0.569(3) 0.5226(17) 0.258(4) 0.120(14) Uiso 0.295(17) 1 d D U P A -1
H6AA H 0.5489 0.5422 0.2657 0.144 Uiso 0.295(17) 1 calc R . P A -1
H6AB H 0.6050 0.5479 0.2244 0.144 Uiso 0.295(17) 1 calc R . P A -1
loop_
_atom_site_aniso_label
_atom_site_aniso_U_11
_atom_site_aniso_U_22
_atom_site_aniso_U_33
_atom_site_aniso_U_23
_atom_site_aniso_U_13
_atom_site_aniso_U_12
Zn01 0.0206(4) 0.0206(4) 0.0069(4) 0.0005(3) 0.0000(3) 0.0114(3)
Zn02 0.0205(4) 0.0185(4) 0.0080(4) -0.0006(3) -0.0001(3) 0.0091(3)
O2 0.020(2) 0.027(2) 0.015(2) -0.0036(19) 0.0004(18) 0.0108(19)
O5 0.026(2) 0.018(2) 0.016(2) 0.0003(18) 0.0029(19) 0.0093(18)
O4 0.021(2) 0.025(2) 0.013(2) 0.0043(18) 0.0017(18) 0.0096(19)
O1 0.027(2) 0.022(2) 0.013(2) -0.0026(18) -0.0065(19) 0.0107(19)
N4 0.021(3) 0.022(3) 0.006(3) -0.002(2) -0.001(2) 0.008(2)
N2 0.024(3) 0.019(2) 0.009(3) -0.001(2) 0.000(2) 0.007(2)
N5 0.023(3) 0.025(3) 0.007(3) -0.001(2) -0.002(2) 0.011(2)
N3 0.019(2) 0.020(3) 0.012(3) -0.001(2) -0.001(2) 0.004(2)
N6 0.023(3) 0.021(3) 0.007(3) -0.001(2) -0.001(2) 0.008(2)
N1 0.020(3) 0.019(2) 0.008(3) 0.000(2) -0.001(2) 0.006(2)
O3 0.064(4) 0.028(3) 0.011(3) -0.004(2) -0.013(3) -0.001(3)
O6 0.034(3) 0.039(3) 0.009(3) 0.003(2) 0.001(2) 0.001(2)
C10 0.027(3) 0.024(3) 0.008(3) -0.002(2) -0.003(2) 0.010(3)
C3 0.023(3) 0.021(3) 0.012(3) 0.001(2) -0.002(2) 0.005(2)
C4 0.024(3) 0.025(3) 0.016(4) -0.002(3) -0.004(3) 0.005(3)
C13 0.014(3) 0.019(3) 0.013(3) -0.003(2) -0.004(2) 0.004(2)
C5 0.015(3) 0.021(3) 0.020(4) -0.001(3) -0.001(2) 0.006(2)
C11 0.023(3) 0.023(3) 0.014(3) 0.002(3) 0.001(3) 0.009(3)
C12 0.021(3) 0.019(3) 0.018(3) 0.000(2) 0.000(3) 0.007(2)
C8 0.024(3) 0.025(3) 0.015(3) 0.001(3) 0.001(3) 0.008(3)
C2 0.029(3) 0.022(3) 0.013(3) -0.003(3) -0.006(3) 0.005(3)
C1 0.023(3) 0.021(3) 0.016(3) 0.003(3) -0.001(3) 0.005(3)
C9 0.016(3) 0.024(3) 0.014(3) -0.001(3) 0.001(2) 0.003(2)
C6 0.021(3) 0.016(3) 0.010(3) 0.004(2) 0.002(2) 0.005(2)
C14 0.029(4) 0.028(4) 0.043(5) 0.003(3) -0.012(3) 0.014(3)
C7 0.076(8) 0.064(8) 0.075(9) -0.012(7) -0.004(7) 0.036(7)
loop_
_atom_type_symbol
_atom_type_description
_atom_type_scat_dispersion_real
_atom_type_scat_dispersion_imag
_atom_type_scat_source
C C 0.0033 0.0016 'International Tables Vol C Tables 4.2.6.8 and 6.1.1.4'
H H 0.0000 0.0000 'International Tables Vol C Tables 4.2.6.8 and 6.1.1.4'
N N 0.0061 0.0033 'International Tables Vol C Tables 4.2.6.8 and 6.1.1.4'
O O 0.0106 0.0060 'International Tables Vol C Tables 4.2.6.8 and 6.1.1.4'
Zn Zn 0.2839 1.4301 'International Tables Vol C Tables 4.2.6.8 and 6.1.1.4'
loop_
_geom_angle_atom_site_label_1
_geom_angle_atom_site_label_2
_geom_angle_atom_site_label_3
_geom_angle
_geom_angle_site_symmetry_1
_geom_angle_site_symmetry_3
_geom_angle_publ_flag
O2 Zn01 O1 104.07(19) . 8_654 ?
O2 Zn01 N4 107.0(2) . 6_565 ?
O2 Zn01 N5 112.8(2) . 8_655 ?
O1 Zn01 N4 113.2(2) 8_654 6_565 ?
N5 Zn01 O1 101.7(2) 8_655 8_654 ?
N5 Zn01 N4 117.2(2) 8_655 6_565 ?
O5 Zn02 N2 106.3(2) 5 9_554 ?
O4 Zn02 O5 102.83(19) . 5 ?
O4 Zn02 N2 112.9(2) . 9_554 ?
N1 Zn02 O5 113.3(2) . 5 ?
N1 Zn02 O4 102.3(2) . . ?
N1 Zn02 N2 118.3(2) . 9_554 ?
C6 O2 Zn01 119.3(4) . . ?
C13 O5 Zn02 118.2(4) . 9_554 ?
C13 O4 Zn02 141.3(4) . . ?
C6 O1 Zn01 141.4(5) . 6_565 ?
N5 N4 Zn01 120.9(4) . 8_654 ?
C8 N4 Zn01 130.7(5) . 8_654 ?
C8 N4 N5 108.4(5) . . ?
N1 N2 Zn02 121.5(4) . 5 ?
C2 N2 Zn02 130.7(5) . 5 ?
C2 N2 N1 107.8(5) . . ?
N4 N5 Zn01 126.8(4) . 6_564 ?
C9 N5 Zn01 125.2(5) . 6_564 ?
C9 N5 N4 107.9(5) . . ?
C4 N3 H3 118.7 . . ?
C4 N3 C5 122.6(6) . . ?
C5 N3 H3 118.7 . . ?
C11 N6 H6 119.3 . . ?
C11 N6 C12 121.5(6) . . ?
C12 N6 H6 119.3 . . ?
N2 N1 Zn02 125.5(4) . . ?
C1 N1 Zn02 126.1(5) . . ?
C1 N1 N2 108.1(5) . . ?
C8 C10 C11 126.5(6) . . ?
C8 C10 C9 104.3(6) . . ?
C9 C10 C11 129.2(6) . . ?
C2 C3 C4 124.7(6) . . ?
C1 C3 C4 129.9(6) . . ?
C1 C3 C2 105.4(6) . . ?
N3 C4 C3 116.0(6) . . ?
O3 C4 N3 122.6(7) . . ?
O3 C4 C3 121.4(7) . . ?
O5 C13 O4 123.8(6) . . ?
O5 C13 C12 118.6(6) . . ?
O4 C13 C12 117.6(6) . . ?
N3 C5 H5 104.7 . . ?
N3 C5 C6 110.2(5) . . ?
C6 C5 H5 104.7 . . ?
C7 C5 N3 117.1(7) . . ?
C7 C5 H5 104.7 . . ?
C7 C5 C6 114.1(7) . . ?
N6 C11 C10 117.4(6) . . ?
O6 C11 N6 121.4(6) . . ?
O6 C11 C10 121.2(6) . . ?
N6 C12 C13 111.4(5) . . ?
N6 C12 H12 109.2 . . ?
N6 C12 C14 109.9(6) . . ?
C13 C12 H12 109.2 . . ?
C13 C12 C14 107.8(5) . . ?
C14 C12 H12 109.2 . . ?
N4 C8 C10 109.5(6) . . ?
N4 C8 H8 125.3 . . ?
C10 C8 H8 125.3 . . ?
N2 C2 C3 109.0(6) . . ?
N2 C2 H2 125.5 . . ?
C3 C2 H2 125.5 . . ?
N1 C1 C3 109.7(6) . . ?
N1 C1 H1 125.1 . . ?
C3 C1 H1 125.1 . . ?
N5 C9 C10 109.9(6) . . ?
N5 C9 H9 125.1 . . ?
C10 C9 H9 125.1 . . ?
O2 C6 C5 116.1(6) . . ?
O1 C6 O2 124.9(6) . . ?
O1 C6 C5 118.7(6) . . ?
C12 C14 H14A 109.5 . . ?
C12 C14 H14B 109.5 . . ?
C12 C14 H14C 109.5 . . ?
H14A C14 H14B 109.5 . . ?
H14A C14 H14C 109.5 . . ?
H14B C14 H14C 109.5 . . ?
C5 C7 H7A 109.5 . . ?
C5 C7 H7B 109.5 . . ?
C5 C7 H7C 109.5 . . ?
H7A C7 H7B 109.5 . . ?
H7A C7 H7C 109.5 . . ?
H7B C7 H7C 109.5 . . ?
H3AA C3AA H3AB 107.7 . . ?
C4AA C3AA H3AA 108.8 . . ?
C4AA C3AA H3AB 108.8 . . ?
C4AA C3AA C5AA 114(3) . . ?
C5AA C3AA H3AA 108.8 . . ?
C5AA C3AA H3AB 108.8 . . ?
C4AA O0AA H0AA 109.5 . . ?
H1AA C1AA H1AB 108.1 . . ?
O1AA C1AA H1AA 109.5 . . ?
O1AA C1AA H1AB 109.5 . . ?
O1AA C1AA C6AA 111(2) . . ?
C6AA C1AA H1AA 109.5 . . ?
C6AA C1AA H1AB 109.5 . . ?
C1AA O1AA H1AC 109.5 . . ?
C3AA C4AA H4AA 107.4 . . ?
C3AA C4AA H4AB 107.4 . . ?
O0AA C4AA C3AA 120(3) . . ?
O0AA C4AA H4AA 107.4 . . ?
O0AA C4AA H4AB 107.4 . . ?
H4AA C4AA H4AB 106.9 . . ?
C3AA C5AA H5AA 108.6 . . ?
C3AA C5AA H5AB 108.6 . . ?
H5AA C5AA H5AB 107.6 . . ?
C6AA C5AA C3AA 115(3) . . ?
C6AA C5AA H5AA 108.6 . . ?
C6AA C5AA H5AB 108.6 . . ?
C1AA C6AA H6AA 109.1 . . ?
C1AA C6AA H6AB 109.1 . . ?
C5AA C6AA C1AA 113(2) . . ?
C5AA C6AA H6AA 109.1 . . ?
C5AA C6AA H6AB 109.1 . . ?
H6AA C6AA H6AB 107.8 . . ?
loop_
_geom_bond_atom_site_label_1
_geom_bond_atom_site_label_2
_geom_bond_distance
_geom_bond_site_symmetry_2
_geom_bond_publ_flag
Zn01 O2 1.959(5) . ?
Zn01 O1 1.967(5) 8_654 ?
Zn01 N4 1.985(5) 6_565 ?
Zn01 N5 1.960(6) 8_655 ?
Zn02 O5 1.966(5) 5 ?
Zn02 O4 1.962(5) . ?
Zn02 N2 1.968(6) 9_554 ?
Zn02 N1 1.957(5) . ?
O2 C6 1.265(8) . ?
O5 Zn02 1.966(5) 9_554 ?
O5 C13 1.259(8) . ?
O4 C13 1.277(8) . ?
O1 Zn01 1.967(5) 6_565 ?
O1 C6 1.249(8) . ?
N4 Zn01 1.984(5) 8_654 ?
N4 N5 1.356(7) . ?
N4 C8 1.339(9) . ?
N2 Zn02 1.967(6) 5 ?
N2 N1 1.375(8) . ?
N2 C2 1.347(9) . ?
N5 Zn01 1.960(6) 6_564 ?
N5 C9 1.326(8) . ?
N3 H3 0.8800 . ?
N3 C4 1.343(9) . ?
N3 C5 1.470(8) . ?
N6 H6 0.8800 . ?
N6 C11 1.355(9) . ?
N6 C12 1.451(8) . ?
N1 C1 1.352(8) . ?
O3 C4 1.234(9) . ?
O6 C11 1.236(9) . ?
C10 C11 1.464(9) . ?
C10 C8 1.377(9) . ?
C10 C9 1.393(9) . ?
C3 C4 1.480(9) . ?
C3 C2 1.405(9) . ?
C3 C1 1.369(10) . ?
C13 C12 1.512(9) . ?
C5 H5 1.0000 . ?
C5 C6 1.535(9) . ?
C5 C7 1.468(14) . ?
C12 H12 1.0000 . ?
C12 C14 1.542(10) . ?
C8 H8 0.9500 . ?
C2 H2 0.9500 . ?
C1 H1 0.9500 . ?
C9 H9 0.9500 . ?
C14 H14A 0.9800 . ?
C14 H14B 0.9800 . ?
C14 H14C 0.9800 . ?
C7 H7A 0.9800 . ?
C7 H7B 0.9800 . ?
C7 H7C 0.9800 . ?
C3AA H3AA 0.9900 . ?
C3AA H3AB 0.9900 . ?
C3AA C4AA 1.49(3) . ?
C3AA C5AA 1.52(3) . ?
O0AA H0AA 0.8400 . ?
O0AA C4AA 1.33(2) . ?
C1AA H1AA 0.9900 . ?
C1AA H1AB 0.9900 . ?
C1AA O1AA 1.40(3) . ?
C1AA C6AA 1.53(2) . ?
O1AA H1AC 0.8400 . ?
C4AA H4AA 0.9900 . ?
C4AA H4AB 0.9900 . ?
C5AA H5AA 0.9900 . ?
C5AA H5AB 0.9900 . ?
C5AA C6AA 1.50(3) . ?
C6AA H6AA 0.9900 . ?
C6AA H6AB 0.9900 . ?
