#------------------------------------------------------------------------------
#$Date: 2020-08-22 02:03:28 +0300 (Sat, 22 Aug 2020) $
#$Revision: 255550 $
#$URL: file:///home/coder/svn-repositories/cod/cif/4/13/51/4135197.cif $
#------------------------------------------------------------------------------
#
# This file is available in the Crystallography Open Database (COD),
# http://www.crystallography.net/
#
# All data on this site have been placed in the public domain by the
# contributors.
#
data_4135197
loop_
_publ_author_name
'Yan, Yong'
'Carrington, Elliot J.'
'P\'etuya, R\'emi'
'Whitehead, George F. S.'
'Verma, Ajay'
'Hylton, Rebecca K.'
'Tang, Chiu C.'
'Berry, Neil G.'
'Darling, George R.'
'Dyer, Matthew S.'
'Antypov, Dmytro'
'Katsoulidis, Alexandros P.'
'Rosseinsky, Matthew J.'
_publ_section_title
;
 Amino Acid Residues Determine the Response of Flexible Metal-Organic
 Frameworks to Guests.
;
_journal_name_full               'Journal of the American Chemical Society'
_journal_paper_doi               10.1021/jacs.0c03853
_journal_year                    2020
_chemical_formula_moiety         'C6 H5 N3 O3 Zn, 0.5(C6 H6)'
_chemical_formula_sum            'C9 H8 N3 O3 Zn'
_chemical_formula_weight         271.55
_space_group_crystal_system      trigonal
_space_group_IT_number           161
_space_group_name_Hall           'R 3 -2"c'
_space_group_name_H-M_alt        'R 3 c :H'
_atom_sites_solution_hydrogens   geom
_audit_creation_date             2018-06-20
_audit_creation_method
;
Olex2 1.2
(compiled 2018.05.29 svn.r3508 for OlexSys, GUI svn.r5506)
;
_cell_angle_alpha                90
_cell_angle_beta                 90
_cell_angle_gamma                120
_cell_formula_units_Z            18
_cell_length_a                   26.5411(14)
_cell_length_b                   26.5411(14)
_cell_length_c                   10.1419(4)
_cell_measurement_reflns_used    6341
_cell_measurement_temperature    100
_cell_measurement_theta_max      25.0200
_cell_measurement_theta_min      2.6220
_cell_volume                     6187.1(5)
_computing_cell_refinement       'CrysAlisPro 1.171.38.46 (Rigaku OD, 2015)'
_computing_data_collection       'CrysAlisPro 1.171.38.46 (Rigaku OD, 2015)'
_computing_data_reduction        'CrysAlisPro 1.171.38.46 (Rigaku OD, 2015)'
_computing_molecular_graphics    'Olex2 (Dolomanov et al., 2009)'
_computing_publication_material  'Olex2 (Dolomanov et al., 2009)'
_computing_structure_refinement  'ShelXL (Sheldrick, 2015)'
_diffrn_ambient_temperature      100
_diffrn_detector                 'CCD plate'
_diffrn_measured_fraction_theta_full 0.999
_diffrn_measured_fraction_theta_max 0.999
_diffrn_measurement_details
;
List of Runs (angles in degrees, time in seconds):

  # Type    Start    End  Width  t~exp~   \w     \q     \k     \f   Frames
--------------------------------------------------------------------------
  1  \w   -110.00  15.00   1.00   10.00    --  -20.00 -68.00   0.00  125
  2  \w   -110.00  15.00   1.00   10.00    --  -20.00 -68.00 120.00  125
  3  \w   -110.00  15.00   1.00   10.00    --  -20.00 -68.00 240.00  125
  4  \w   -110.00  15.00   1.00   10.00    --  -20.00 -30.00  90.00  125
;
_diffrn_measurement_device       'abstract diffractometer'
_diffrn_measurement_device_type
'dtrek-CrysAlisPro-abstract goniometer imported rigaku-d*trek images'
_diffrn_measurement_method       '\w scans'
_diffrn_orient_matrix_type
'CrysAlisPro convention (1999,Acta A55,543-557)'
_diffrn_orient_matrix_UB_11      -0.0292873000
_diffrn_orient_matrix_UB_12      -0.0063880000
_diffrn_orient_matrix_UB_13      -0.0042331000
_diffrn_orient_matrix_UB_21      0.0083190000
_diffrn_orient_matrix_UB_22      0.0281562000
_diffrn_orient_matrix_UB_23      0.0243719000
_diffrn_orient_matrix_UB_31      0.0049831000
_diffrn_orient_matrix_UB_32      0.0108922000
_diffrn_orient_matrix_UB_33      -0.0654161000
_diffrn_radiation_monochromator  graphite
_diffrn_radiation_probe          x-ray
_diffrn_radiation_type           MoK\a
_diffrn_radiation_wavelength     0.71073
_diffrn_reflns_av_R_equivalents  0.1034
_diffrn_reflns_av_unetI/netI     0.0587
_diffrn_reflns_Laue_measured_fraction_full 0.999
_diffrn_reflns_Laue_measured_fraction_max 0.999
_diffrn_reflns_limit_h_max       31
_diffrn_reflns_limit_h_min       -31
_diffrn_reflns_limit_k_max       31
_diffrn_reflns_limit_k_min       -31
_diffrn_reflns_limit_l_max       12
_diffrn_reflns_limit_l_min       -10
_diffrn_reflns_number            20712
_diffrn_reflns_point_group_measured_fraction_full 0.958
_diffrn_reflns_point_group_measured_fraction_max 0.958
_diffrn_reflns_theta_full        25.025
_diffrn_reflns_theta_max         25.025
_diffrn_reflns_theta_min         2.658
_diffrn_source                   'fine-focus sealed X-ray tube'
_diffrn_source_type              'Enhance (Mo) X-ray Source'
_exptl_absorpt_coefficient_mu    1.782
_exptl_absorpt_correction_T_max  1.00000
_exptl_absorpt_correction_T_min  0.79782
_exptl_absorpt_correction_type   multi-scan
_exptl_absorpt_process_details
;
CrysAlisPro 1.171.38.46 (Rigaku Oxford Diffraction, 2015)
Empirical absorption correction using spherical harmonics,
 implemented in SCALE3 ABSPACK scaling algorithm.
;
_exptl_crystal_colour            white
_exptl_crystal_colour_primary    white
_exptl_crystal_density_diffrn    1.312
_exptl_crystal_description       block
_exptl_crystal_F_000             2466
_exptl_crystal_preparation
'Solvent exchnage with benzene followed by insitu heating at 360K'
_exptl_crystal_size_max          0.12
_exptl_crystal_size_mid          0.02
_exptl_crystal_size_min          0.012
_refine_diff_density_max         0.706
_refine_diff_density_min         -0.375
_refine_diff_density_rms         0.119
_refine_ls_abs_structure_details
;
 Flack x determined using 743 quotients [(I+)-(I-)]/[(I+)+(I-)]
 (Parsons, Flack and Wagner, Acta Cryst. B69 (2013) 249-259).
;
_refine_ls_abs_structure_Flack   0.016(17)
_refine_ls_extinction_method     none
_refine_ls_goodness_of_fit_ref   1.060
_refine_ls_hydrogen_treatment    constr
_refine_ls_matrix_type           full
_refine_ls_number_parameters     137
_refine_ls_number_reflns         2323
_refine_ls_number_restraints     13
_refine_ls_restrained_S_all      1.059
_refine_ls_R_factor_all          0.0755
_refine_ls_R_factor_gt           0.0641
_refine_ls_shift/su_max          0.000
_refine_ls_shift/su_mean         0.000
_refine_ls_structure_factor_coef Fsqd
_refine_ls_weighting_details
'w=1/[\s^2^(Fo^2^)+(0.0890P)^2^+28.5402P] where P=(Fo^2^+2Fc^2^)/3'
_refine_ls_weighting_scheme      calc
_refine_ls_wR_factor_gt          0.1487
_refine_ls_wR_factor_ref         0.1550
_reflns_Friedel_coverage         0.906
_reflns_Friedel_fraction_full    0.916
_reflns_Friedel_fraction_max     0.916
_reflns_number_gt                2018
_reflns_number_total             2323
_reflns_threshold_expression     'I > 2\s(I)'
_cod_data_source_file            ZnGlyPyr_Benzene_Lowloading_150K.cif
_cod_data_source_block           ZnGlyPyr_Benzene_Lowloading_150K
_cod_original_cell_volume        6187.1(7)
_cod_original_sg_symbol_H-M      'R 3 c'
_cod_database_code               4135197
_shelx_shelxl_version_number     2014/7
_chemical_oxdiff_formula         'Zn C6 H8 N3 O5'
_shelx_space_group_comment
;
The symmetry employed for this shelxl refinement is uniquely defined
by the following loop, which should always be used as a source of
symmetry information in preference to the above space-group names.
They are only intended as comments.
;
_reflns_odcompleteness_completeness 99.77
_reflns_odcompleteness_iscentric 1
_reflns_odcompleteness_theta     24.97
_olex2_refinement_description
;
1. Fixed Uiso
 At 1.2 times of:
  All C(H) groups, All C(H,H) groups, All N(H) groups
2. Uiso/Uaniso restraints and constraints
C9B \\sim C10B \\sim C11B \\sim C12B \\sim C7B \\sim C8B: within 2A with sigma
of 0.02 and sigma for terminal atoms of 0.04
C8A \\sim C7A \\sim C12A \\sim C11A \\sim C10A \\sim C9A: within 2A with sigma
of 0.02 and sigma for terminal atoms of 0.04
Uanis(C4) = Uanis(O2)
3. Others
 Sof(C9B)=Sof(H9B)=Sof(C10B)=Sof(H10B)=Sof(C11B)=Sof(H11B)=Sof(C12B)=Sof(H12B)=
 Sof(C7B)=Sof(H7B)=Sof(C8B)=Sof(H8B)=0.5*(1-FVAR(2))
 Sof(C12A)=Sof(H12A)=Sof(C11A)=Sof(H11A)=Sof(C10A)=Sof(H10A)=Sof(C9A)=Sof(H9A)=
 Sof(C8A)=Sof(H8A)=Sof(C7A)=Sof(H7A)=0.5*FVAR(2)
4.a Secondary CH2 refined with riding coordinates:
 C5(H5A,H5B)
4.b Aromatic/amide H refined with riding coordinates:
 N3(H3), C1(H1), C3(H3A), C12A(H12A), C11A(H11A), C10A(H10A), C9A(H9A),
 C8A(H8A), C7A(H7A), C9B(H9B), C10B(H10B), C11B(H11B), C12B(H12B), C7B(H7B),
 C8B(H8B)
4.c Fitted hexagon refined as free rotating group:
 C12A(C11A,C10A,C9A,C8A,C7A), C9B(C10B,C11B,C12B,C7B,C8B)
;
_shelx_res_file
;
    yy_zn_gly_pyr_benzene_heat_5_10_150k_0-84.res created by SHELXL-2014/7

TITL YY_Zn_Gly_Pyr_Benzene_Heat_5_10_150K_0-84 in R3c
REM R3c (#161 in standard setting)
CELL 0.71073 26.541109 26.541109 10.141933 90 90 120
ZERR 18 0.001394 0.001394 0.000372 0 0 0
LATT -3
SYMM -Y,+X-Y,+Z
SYMM +Y-X,-X,+Z
SYMM +Y-X,+Y,0.5+Z
SYMM +X,+X-Y,0.5+Z
SYMM -Y,-X,0.5+Z
SFAC C H N O Zn
UNIT 162 144 54 54 18
SIMU 0.02 0.04 2 C9B C10B C11B C12B C7B C8B
SIMU 0.02 0.04 2 C8A C7A C12A C11A C10A C9A
EADP C4 O2

L.S. 16
PLAN  20
TEMP -173.15
BOND
fmap 2
acta
REM <olex2.extras>
REM <HklSrc "%.\\YY_Zn_Gly_Pyr_Benzene_Heat_5_10_150K_0-84.hkl">
REM </olex2.extras>

WGHT    0.089000   28.540201
FVAR       0.63792   0.54356
ZN1   5    0.647956    0.676352    0.156260    11.00000    0.03533    0.03757 =
         0.00973   -0.00100    0.00007    0.01646
N2    3    0.682548    0.628858    0.104073    11.00000    0.04838    0.04042 =
         0.00906    0.00421    0.00055    0.02281
O1    4    0.597952    0.679621    0.018193    11.00000    0.04443    0.03181 =
         0.01816    0.00166   -0.00333    0.01418
N3    3    0.413403    0.539124    0.380442    11.00000    0.03780    0.03217 =
         0.00585    0.00198   -0.00012    0.01409
AFIX  43
H3    2    0.421707    0.550733    0.298018    11.00000   -1.20000
AFIX   0
O3    4    0.710937    0.757830    0.177811    11.00000    0.04031    0.03895 =
         0.02127    0.00339   -0.00325    0.01719
N1    3    0.595208    0.647272    0.308811    11.00000    0.03768    0.04567 =
         0.01159    0.00411    0.00952    0.01790
O2    4    0.441895    0.555365    0.592772    11.00000    0.04381    0.05576 =
         0.01419    0.00418    0.00243    0.01915
C1    1    0.539094    0.618947    0.305706    11.00000    0.03698    0.04161 =
         0.01355   -0.00348   -0.00432    0.01196
AFIX  43
H1    2    0.516849    0.611358    0.227304    11.00000   -1.20000
AFIX   0
C4    1    0.455834    0.564450    0.472967    11.00000    0.04381    0.05576 =
         0.01419    0.00418    0.00243    0.01915
C2    1    0.514944    0.600810    0.430445    11.00000    0.03855    0.03565 =
         0.01447    0.00181   -0.00118    0.01660
C6    1    0.564161    0.647850   -0.074327    11.00000    0.03122    0.03417 =
         0.01475    0.00749    0.00406    0.01320
C3    1    0.710485    0.607528    0.177347    11.00000    0.04012    0.05079 =
         0.01140    0.00187   -0.00156    0.02779
AFIX  43
H3A   2    0.714390    0.610496    0.270561    11.00000   -1.20000
AFIX   0
C5    1    0.355996    0.494481    0.412120    11.00000    0.03126    0.04636 =
         0.01831    0.00062    0.00310    0.01491
AFIX  23
H5A   2    0.328964    0.492281    0.342134    11.00000   -1.20000
H5B   2    0.343779    0.504300    0.495932    11.00000   -1.20000
AFIX  66

PART -1
C12A  1    0.530893    0.482164    0.825957    20.50000    0.14839
AFIX  43
H12A  2    0.525886    0.509080    0.878091    20.50000   -1.20000
AFIX  65
C11A  1    0.558920    0.454322    0.878414    20.50000    0.13300
AFIX  43
H11A  2    0.573067    0.462209    0.966401    20.50000   -1.20000
AFIX  65
C10A  1    0.566246    0.414940    0.802135    20.50000    0.13254
AFIX  43
H10A  2    0.585401    0.395911    0.837988    20.50000   -1.20000
AFIX  65
C9A   1    0.545546    0.403399    0.673398    20.50000    0.09627
AFIX  43
H9A   2    0.550554    0.376483    0.621264    20.50000   -1.20000
AFIX  65
C8A   1    0.517520    0.431241    0.620939    20.50000    0.12249
AFIX  43
H8A   2    0.503372    0.423353    0.532952    20.50000   -1.20000
AFIX  65
C7A   1    0.510193    0.470623    0.697217    20.50000    0.13891
AFIX  43
H7A   2    0.491038    0.489651    0.661364    20.50000   -1.20000
AFIX  66
PART 0
PART -2
C9B   1    0.592224    0.416017    0.333561   -20.50000    0.09650
AFIX  43
H9B   2    0.615045    0.400953    0.297524   -20.50000   -1.20000
AFIX  65
C10B  1    0.562530    0.393945    0.451449   -20.50000    0.07189
AFIX  43
H10B  2    0.565058    0.363796    0.495984   -20.50000   -1.20000
AFIX  65
C11B  1    0.529138    0.415986    0.504176   -20.50000    0.08625
AFIX  43
H11B  2    0.508844    0.400901    0.584747   -20.50000   -1.20000
AFIX  65
C12B  1    0.525440    0.460099    0.439016   -20.50000    0.09281
AFIX  43
H12B  2    0.502618    0.475163    0.475053   -20.50000   -1.20000
AFIX  65
C7B   1    0.555133    0.482171    0.321128   -20.50000    0.09888
AFIX  43
H7B   2    0.552605    0.512321    0.276594   -20.50000   -1.20000
AFIX  65
C8B   1    0.588525    0.460131    0.268399   -20.50000    0.10167
AFIX  43
H8B   2    0.608819    0.475216    0.187828   -20.50000   -1.20000
AFIX   0
HKLF 4

REM  YY_Zn_Gly_Pyr_Benzene_Heat_5_10_150K_0-84 in R3c
REM R1 =  0.0641 for    2018 Fo > 4sig(Fo)  and  0.0755 for all    2323 data
REM    137 parameters refined using     13 restraints

END

WGHT      0.0890     28.5218

REM Highest difference peak  0.706,  deepest hole -0.375,  1-sigma level  0.119
Q1    1   0.6753  0.7199  0.1635  11.00000  0.05    0.71
Q2    1   0.6895  0.6959  0.1468  11.00000  0.05    0.65
Q3    1   0.6733  0.6559  0.1772  11.00000  0.05    0.60
Q4    1   0.6061  0.6492  0.1604  11.00000  0.05    0.60
Q5    1   0.5120  0.4580  0.5478  11.00000  0.05    0.58
Q6    1   0.6297  0.6325  0.1506  11.00000  0.05    0.53
Q7    1   0.5631  0.4752  0.2297  11.00000  0.05    0.50
Q8    1   0.6195  0.6912  0.1516  11.00000  0.05    0.49
Q9    1   0.6990  0.3992  0.3419  11.00000  0.05    0.47
Q10   1   0.6356  0.3330  0.4826  11.00000  0.05    0.45
Q11   1   0.6227  0.3165  0.3110  11.00000  0.05    0.43
Q12   1   0.5099  0.4616  0.6289  11.00000  0.05    0.42
Q13   1   0.4142  0.5348  0.4459  11.00000  0.05    0.41
Q14   1   0.4351  0.5207  0.4138  11.00000  0.05    0.41
Q15   1   0.6507  0.3757  0.2949  11.00000  0.05    0.40
Q16   1   0.6667  0.3333  0.1719  10.33333  0.05    0.39
Q17   1   0.4979  0.5744  0.5831  11.00000  0.05    0.38
Q18   1   0.5655  0.4027  0.3890  11.00000  0.05    0.37
Q19   1   0.6441  0.6869  0.0623  11.00000  0.05    0.36
Q20   1   0.6515  0.6771  0.2431  11.00000  0.05    0.36
;
_shelx_res_checksum              18754
_shelx_hkl_file
;
   0   0   3 71.2375 279.913   3
   0   0   3 109.184 185.749   1
   0   0   3-4.26723 133.999   4
   0   0   6 72973.8 1685.83   1
   0   0   6 69644.0 2231.05   3
   0   0   6 73903.9 1337.20   4
   0   0   9-33.1254 314.535   1
   0   0   9 322.645 292.302   4
   0   0   9-556.190 626.786   3
   0   0  12 16855.2 1783.79   3
  -1   0  -4 5919.35 462.976   1
   1  -1  -1 163.866 126.387   3
  -1   0  -1-33.1761 89.9336   1
   1  -1   2 7732.58 394.370   1
   0   1   2 7654.54 305.173   1
   0   1   2 8395.89 324.488   4
  -1   0   2 8338.31 471.479   3
   0   1   2 7992.64 496.879   3
  -1   0   5 274.541 363.820   3
   0   1   5 254.255 222.605   1
   1  -1   5-21.5121 144.813   4
   1  -1   5-10.0890 363.277   3
   1  -1   5-186.495 252.444   1
   0   1   5 6.01429 196.916   4
  -1   0   5-30.2331 181.373   4
  -1   0   5 12.6188 215.864   1
   0   1   5 38.0109 347.208   3
   0   1   8 941.970 346.569   1
   1  -1   8 740.163 360.681   1
   1  -1   8 1324.50 253.076   4
   0   1   8 1196.89 319.666   4
   1  -1   8 898.168 525.311   3
   0   1   8 1501.04 622.293   3
  -1   0   8 644.629 300.090   4
  -1   0   8 1571.62 395.965   1
  -1   0   8 516.303 495.224   3
   1  -1  11 405.266 499.721   1
   0   1  11-176.742 667.002   3
  -1   0  11 120.885 450.401   1
  -1   0  11 72.0866 708.754   3
   1  -1  11 1061.11 777.525   3
   0   1  11-81.2227 419.473   1
   0  -1  -2 8139.88 492.050   3
   0  -1  -2 8658.00 325.783   1
   1   0  -2 8279.64 464.437   3
   0  -1  -2 8096.64 317.609   4
  -1   1  -2 7806.60 404.082   1
   1   0   1 125.572 98.1730   1
  -1   1   1 26.1511 125.121   3
  -1   1   4 5393.46 573.818   3
   0  -1   4 4734.65 539.420   3
  -1   1   4 5689.04 382.470   1
   1   0   4 5383.03 573.671   3
   1   0   4 5212.19 412.518   1
   0  -1   4 6094.46 455.970   1
  -1   1   4 5083.70 358.678   4
   1   0   4 5567.28 316.782   4
   0  -1   7-215.323 503.675   3
   1   0   7-225.846 270.167   1
   0  -1   7 88.5390 271.391   1
  -1   1   7 297.641 261.490   4
   0  -1   7-63.4240 203.699   4
  -1   1   7-159.432 274.515   1
  -1   1   7-174.304 418.195   3
   1   0   7 166.507 204.369   4
   1   0   7-191.412 450.082   3
  -1   1  10 412.000 376.567   1
   0  -1  10 115.208 618.400   3
  -1   1  10 752.489 725.515   3
   1   0  10 1.02295 578.558   3
   0  -1  10 575.380 459.498   1
   1   0  10 200.099 416.464   1
   0  -1  10 248.285 226.677   4
   1   0  10 145.935 201.716   4
  -2   0  -5 22.3880 253.584   1
   2  -2  -2 22850.7 804.342   3
  -2   0  -2 22557.4 444.342   4
  -2   0  -2 23733.7 663.716   1
   2  -2   1-46.0234 150.373   1
   0   2   1 85.9697 137.782   4
  -2   0   1 43.5611 96.6937   1
   0   2   1 81.7731 147.877   3
  -2   0   1-47.5451 124.225   3
   0   2   1 197.859 157.796   2
  -2   0   4 5144.01 412.208   1
   2  -2   4 4516.06 459.823   1
   0   2   4 5092.68 393.158   4
   0   2   4 5232.28 356.225   1
   0   2   4 5202.84 502.373   2
   0   2   4 4655.63 582.663   3
  -2   0   4 4919.91 530.479   3
   0   2   7-50.3869 509.651   3
  -2   0   7-18.9911 403.215   3
   0   2   7 89.0443 251.719   1
  -2   0   7-56.0808 274.980   1
   2  -2   7 59.9951 274.277   1
   0   2   7 278.084 247.198   4
   2  -2   7 96.6893 128.570   4
   2  -2   7 233.428 497.906   3
  -2   0   7-132.208 248.659   4
   2  -2   7-56.4721 130.883   4
  -2   0  10 1753.86 407.442   4
  -2   0  10 1450.60 680.360   3
   0   2  10 1161.16 408.050   1
   0   2  10 2380.64 818.973   3
  -2   0  10 1950.79 488.940   1
   2  -2  10 1221.72 706.344   3
   2  -2  10 1642.42 540.879   1
   1  -2  -3 70704.7 1656.41   3
   2  -1  -3 71690.3 1579.17   3
   1  -2  -3 68488.4 947.173   1
  -1  -1  -3 67879.6 1163.92   1
  -2   1  -3 68761.1 1341.42   1
  -1  -1  -3 67291.6 981.045   4
  -1   2   3 67570.5 1605.63   3
  -2   1   3 66561.1 1521.14   3
   1   1   3 66830.7 1119.80   1
   2  -1   3 64241.5 1294.02   1
  -1   2   3 68282.9 1157.95   4
  -1  -1   3 67669.6 1458.43   3
  -2   1   3 67871.9 1004.26   1
   1   1   3 69605.1 1024.33   4
   1   1   3 67227.0 1607.46   3
   1  -2   3 63029.1 1312.65   1
  -1   2   3 68014.6 900.052   1
   1  -2   3 65711.5 736.157   4
   1   1   3 66490.5 1310.04   2
   1   1   6 22600.8 1333.34   3
  -2   1   6 21309.8 851.768   1
  -1  -1   6 20408.0 969.946   1
   1  -2   6 20496.2 612.714   4
  -2   1   6 21513.7 862.657   4
  -1   2   6 22252.5 821.178   1
   1   1   6 21366.1 906.798   1
   2  -1   6 21802.3 1013.23   1
   1  -2   6 21841.8 1038.48   1
  -2   1   6 20057.1 1230.09   3
  -1   2   6 20550.9 841.669   4
  -1  -1   6 21675.9 774.863   4
  -1   2   6 21368.3 1280.68   3
  -1  -1   6 22074.1 1258.86   3
   1   1   6 20722.1 746.415   4
   2  -1   6 21487.0 611.169   4
   1  -2   6 20519.9 1250.18   3
   2  -1   6 22128.6 1323.42   3
   1  -2   6 21192.0 616.966   4
   1   1   6 21835.2 1095.17   2
  -1  -1   9 15840.8 783.603   4
  -1   2   9 17966.1 948.507   1
  -1  -1   9 17043.3 1078.79   1
   1   1   9 16298.4 993.580   1
   1   1   9 14990.1 738.942   4
  -1   2   9 16806.4 885.671   4
  -1  -1   9 15058.9 750.573   4
   1  -2   9 19478.6 1570.31   3
  -1   2   9 17508.9 1491.63   3
  -2   1   9 17035.2 960.791   1
   2  -1   9 14013.6 544.228   4
   1  -2   9 13690.4 543.236   4
   1   1   9 14838.0 1403.56   3
  -2   1   9 15111.6 871.208   4
  -1  -1   9 18152.1 1467.68   3
   2  -1   9 13429.6 520.838   4
   1  -2   9 17926.4 1138.23   1
   1  -2   9 13345.8 527.586   4
  -2   1   9 16713.6 1432.12   3
   2  -1   9 16563.6 1078.20   1
   2  -1   9 15506.3 1448.39   3
  -1  -1  12 5839.01 1219.79   3
   1   1  12 2236.25 941.099   3
   1  -2  12 3958.63 1085.55   3
   1  -2  12 4940.69 1060.92   2
   2  -1  12 3174.44 992.780   3
  -1   2  12 3523.18 1030.03   3
  -2   1  12 3729.70 968.223   3
   0  -2  -4 5608.39 391.291   1
  -2   2  -4 4721.83 473.123   1
  -2   2  -1-60.0650 150.910   1
   0  -2  -1-160.912 181.627   3
   0  -2  -1 74.1593 121.433   4
   0  -2  -1 92.4290 133.271   2
   2   0  -1 67.6386 120.211   3
   2   0   2 24304.9 599.026   2
  -2   2   2 23480.3 798.922   3
   2   0   2 23910.2 657.220   1
   0  -2   2 23686.6 490.361   4
   2   0   2 23677.6 463.960   4
   0  -2   5 91.2632 183.570   4
  -2   2   5-103.128 186.672   1
   0  -2   5-252.695 353.042   3
  -2   2   5 99.7802 373.317   3
  -2   2   5 5.91019 228.743   4
   2   0   5-188.174 366.104   3
   2   0   5 127.125 192.117   4
   2   0   5-21.2778 235.192   2
   2   0   5-49.3536 234.042   1
   0  -2   5 182.426 269.284   1
  -2   2   8 5386.85 545.130   1
   0  -2   8 5524.72 428.042   4
   2   0   8 4672.40 383.200   4
   0  -2   8 3803.76 366.169   4
   2   0   8 5200.40 596.110   1
  -2   2   8 4649.42 532.020   4
  -2   2   8 4939.36 800.293   3
   0  -2   8 4106.62 619.268   1
   0  -2   8 5526.10 817.769   3
   2   0   8 4988.67 816.030   3
   2   0  11 165.052 475.290   1
   2   0  11-786.171 746.247   3
   0  -2  11 280.321 726.858   3
  -2   2  11 931.041 743.253   3
   0  -2  11 264.671 479.249   1
  -3   0  -6 97819.9 2163.90   1
  -3   0  -3 79.4254 142.221   4
  -3   0  -3-70.0358 236.886   1
   3  -3  -3 235.654 327.998   3
  -3   0   0 106400. 1180.73   1
   3  -3   0 113237. 1273.77   3
   3  -3   0 103646. 1010.68   2
  -3   0   0 111368. 1280.05   4
   0   3   0 114629. 1278.71   4
   3  -3   0 104342. 1113.24   1
   0   3   0 113656. 1319.08   2
  -3   0   0 108907. 1013.27   3
  -3   0   0 107189. 1237.45   2
  -3   0   3-47.7676 243.921   3
   0   3   3 127.224 219.451   4
   3  -3   3-144.125 249.955   1
   0   3   3 59.6987 314.254   3
   0   3   3 39.3439 241.435   2
   0   3   3 145.945 174.041   1
   0   3   6 62022.2 1370.25   1
   0   3   6 59259.9 1891.26   2
  -3   0   6 61493.1 1555.09   1
   0   3   6 58363.7 2149.96   3
  -3   0   6 60725.2 2018.04   3
   3  -3   6 58981.5 1791.02   1
   0   3   6 58370.3 1442.42   4
   3  -3   6 61761.4 2169.66   3
  -3   0   9-544.522 535.092   3
  -3   0   9 194.518 315.099   4
  -3   0   9-7.01648 336.651   4
   0   3   9-243.785 558.382   3
   3  -3   9-31.4842 396.866   1
  -3   0   9 432.651 412.697   1
   3  -3   9-1059.80 706.463   3
   0   3   9 195.740 318.713   1
   0   3   9-117.548 341.902   4
   3  -3  12 11559.7 1151.29   1
   3  -3  12 11979.1 1426.93   2
  -2  -1  -7 12508.3 834.225   1
   3  -2  -4 943.636 391.173   3
  -3   1  -4 756.161 284.645   1
  -2  -1  -4 1220.56 300.128   1
   2  -3  -4 400.966 368.859   3
  -2  -1  -4 1171.26 201.080   4
  -3   1  -1 9270.82 304.218   4
  -2  -1  -1 8375.64 362.305   1
   1   2  -1 9482.72 369.507   4
   2  -3  -1 8344.20 422.596   3
   1   2  -1 8826.07 462.686   2
  -1   3  -1 8601.83 376.348   2
   2  -3  -1 8703.12 426.113   2
  -2  -1  -1 8940.38 346.008   2
   3  -2  -1 8552.18 411.368   3
  -3   1  -1 8371.97 401.845   1
  -2  -1  -1 8813.93 352.323   4
   2  -3  -1 8567.17 384.945   4
  -1   3  -1 8582.33 306.192   4
   1   2   2 22752.5 578.570   1
  -2  -1   2 21740.8 637.011   4
   1   2   2 21855.5 622.690   4
  -3   1   2 23203.5 484.577   1
  -3   1   2 21510.8 730.541   3
  -1   3   2 21933.6 803.580   3
  -1   3   2 22774.0 670.118   4
   2  -3   2 22499.5 769.501   1
   3  -2   2 22799.0 752.246   1
   1   2   2 21011.4 794.718   3
  -1   3   2 23056.4 769.431   2
  -2  -1   2 22307.2 674.467   3
   2  -3   2 23538.0 647.529   2
   1   2   2 22654.9 711.304   2
  -1   3   5 356.109 191.956   1
  -2  -1   5 186.142 274.212   1
  -2  -1   5 292.650 356.240   3
   1   2   5-1.11437 238.906   1
   2  -3   5 666.098 318.939   1
  -3   1   5 455.114 391.267   3
   1   2   5 412.016 279.035   2
  -1   3   5 322.324 320.958   2
   2  -3   5 251.748 96.8433   4
  -1   3   5 244.783 388.590   3
   2  -3   5 161.748 79.6893   4
   3  -2   5-29.4042 255.303   1
  -1   3   5 213.899 230.247   4
  -3   1   5 373.974 233.834   1
   1   2   5 55.2906 194.201   4
   1   2   5 480.593 444.933   3
  -3   1   8 71.1209 426.399   3
   1   2   8-16.7858 484.046   3
   1   2   8 111.880 326.395   1
   2  -3   8 76.4405 509.807   3
   2  -3   8 220.498 99.1759   4
  -3   1   8 76.6694 315.004   4
  -2  -1   8 268.881 298.149   4
  -2  -1   8 1436.72 633.269   3
   2  -3   8 110.510 86.9551   4
  -2  -1   8 479.504 284.778   4
   2  -3   8 334.998 359.286   1
  -3   1   8 204.168 331.705   1
  -1   3   8 138.574 270.506   1
  -1   3   8 164.728 583.013   3
  -1   3   8 136.568 295.754   4
   1   2   8 0.27501 274.219   4
  -2  -1   8 572.511 371.658   1
   3  -2   8 547.255 332.080   1
   3  -2   8 728.138 564.372   3
  -2  -1  11 573.735 754.569   3
   3  -2  11-604.365 795.341   3
   2  -3  11 23.1071 456.952   1
  -2  -1  11 335.460 434.698   1
   1   2  11 243.601 776.753   3
   2  -3  11-32.8184 626.055   2
   2  -3  11 551.280 704.322   3
   1   2  11 313.652 439.205   1
  -1   3  11 890.439 814.613   3
  -3   1  11-613.101 731.821   3
   3  -2  11 362.490 555.317   1
  -1  -2  -5 335.979 250.246   1
  -3   2  -5 371.492 318.375   1
   3  -1  -5 58.3238 362.507   3
   3  -1  -2 23516.5 766.250   3
  -1  -2  -2 22454.2 582.411   1
  -3   2  -2 21837.7 744.625   1
   1  -3  -2 24302.9 687.692   4
  -1  -2  -2 22948.1 617.823   4
   2   1  -2 23605.3 694.410   3
   1  -3  -2 23575.6 863.001   3
   1  -3  -2 24711.3 788.770   2
  -1  -2  -2 23951.8 710.390   2
  -1  -2   1 8073.66 350.655   4
  -1  -2   1 10131.5 494.370   2
   3  -1   1 8907.36 408.159   1
   2   1   1 8242.94 348.620   4
   2   1   1 9038.11 367.113   1
  -2   3   1 8816.24 391.222   4
   3  -1   1 9154.28 306.728   4
  -3   2   1 8557.49 393.213   3
  -2   3   1 9280.53 428.697   3
   1  -3   1 9192.29 383.688   2
  -2   3   1 8245.22 405.098   2
   1  -3   1 9072.55 307.421   4
   2   1   1 9190.11 357.845   2
   2   1   4 579.946 233.374   2
   3  -1   4 930.508 139.723   4
  -2   3   4 982.807 174.904   1
   3  -1   4 1060.08 291.129   1
   1  -3   4 1178.23 347.626   1
  -1  -2   4 882.840 210.688   4
   1  -3   4 1109.40 165.082   4
   3  -1   4 768.290 234.942   2
   2   1   4 656.666 370.425   3
   2   1   4 641.501 240.636   1
  -1  -2   4 1029.57 323.156   3
  -3   2   4 858.348 187.496   1
  -2   3   4 1016.04 267.304   4
  -3   2   4 839.654 357.327   3
   2   1   4 886.385 198.218   4
  -2   3   4 1016.40 392.294   3
  -1  -2   7 13240.0 880.385   1
  -3   2   7 13369.8 1133.10   3
  -3   2   7 13170.7 695.738   1
   2   1   7 12379.6 625.788   4
   3  -1   7 14359.6 909.144   1
  -2   3   7 12225.7 632.910   1
   1  -3   7 12303.7 1089.81   3
  -1  -2   7 13391.5 1092.12   3
   2   1   7 13386.3 807.493   1
   1  -3   7 11343.0 478.882   4
   2   1   7 13493.8 1181.12   3
   1  -3   7 11844.5 861.349   1
  -1  -2   7 13674.1 667.597   4
  -3   2   7 11228.1 743.081   4
   1  -3   7 11154.6 473.419   4
  -2   3   7 12802.2 1162.41   3
   3  -1   7 11726.0 1149.66   3
  -2   3   7 13104.2 768.353   4
   3  -1   7 11166.8 453.345   4
  -1  -2   7 13358.3 669.109   4
   2   1   7 11768.3 911.640   2
   3  -1   7 12298.9 893.422   2
  -3   2  10 16.4220 358.382   1
  -2   3  10 156.029 617.807   3
   1  -3  10 57.6814 456.104   1
   3  -1  10-212.958 407.697   1
  -1  -2  10 5.06066 241.501   4
  -1  -2  10-246.492 425.579   1
   3  -1  10-221.957 649.192   3
   2   1  10-193.683 390.341   1
  -1  -2  10 478.659 592.839   3
  -3   2  10-240.247 602.306   3
   1  -3  10 574.130 696.842   3
   2   1  10-215.045 636.257   3
  -2   3  10 285.113 341.056   1
   0  -3  -6 62668.5 1443.74   1
   0  -3  -3 258.429 216.569   4
   3   0  -3 139.948 241.221   3
   0  -3  -3 87.7376 167.909   1
  -3   3  -3 294.430 307.258   1
   0  -3  -3 270.895 310.905   3
  -3   3   0 119775. 1287.85   3
   3   0   0 117130. 1283.54   2
   3   0   0 119523. 1311.80   4
   0  -3   0 119009. 1291.83   4
  -3   3   0 111802. 1039.38   2
   3   0   0 113587. 1199.68   1
   0  -3   0 119957. 1331.81   2
  -3   3   0 109152. 1172.06   1
   3   0   0 116173. 1061.16   3
   0  -3   3 313.102 168.016   4
  -3   3   3 756.592 319.851   3
   3   0   3-117.383 172.601   2
   0  -3   3-191.585 323.430   2
   3   0   3-231.301 256.140   1
   3   0   3 55.9566 148.085   4
  -3   3   3 473.364 225.466   4
   3   0   6 92597.2 1398.57   4
   3   0   6 95166.6 2760.34   3
   0  -3   6 93360.9 2518.05   3
  -3   3   6 93532.0 1951.19   4
   0  -3   6 96462.9 1464.44   4
   3   0   6 97064.4 2070.83   1
   0  -3   6 95832.1 2227.14   1
  -3   3   6 94574.8 2622.42   3
   3   0   6 96744.1 2163.84   2
  -3   3   6 94029.0 1485.40   1
  -3   3   9 48.6775 376.098   4
   0  -3   9 5.36894 193.704   4
   3   0   9-78.7592 683.138   3
  -3   3   9-232.951 296.517   1
  -3   3   9 730.161 683.238   3
   0  -3   9 58.0946 515.266   3
   0  -3   9 229.700 205.172   4
   3   0   9 35.8280 170.656   4
   3   0   9 678.723 500.308   1
   0  -3   9 313.086 399.546   1
   0  -3  12 9878.44 1364.01   2
  -4   0  -7 23.7525 343.444   1
  -4   0  -4 3275.35 273.787   4
  -4   0  -4 3762.40 453.422   1
   4  -4  -4 3302.42 527.887   3
  -4   0  -1 75.9970 164.019   2
  -4   0  -1 54.8044 181.081   4
  -4   0  -1-75.0194 237.271   1
   0   4  -1-36.6999 254.495   2
   0   4  -1 83.9032 169.574   4
   4  -4  -1 53.1717 215.137   3
   4  -4  -1-40.0907 123.391   1
   4  -4   2 16798.2 751.185   1
   0   4   2 18127.7 510.779   1
  -4   0   2 17821.7 636.657   3
   0   4   2 17040.7 755.034   3
   0   4   2 17316.8 737.460   2
  -4   0   2 18097.3 577.695   1
   4  -4   2 17143.6 434.755   2
   0   4   2 17652.0 690.943   4
   0   4   5-2.19979 221.694   1
  -4   0   5-70.5543 321.222   3
   0   4   5 390.498 396.669   3
   4  -4   5-173.594 319.098   1
   0   4   5-100.827 312.479   2
   0   4   5 40.6346 234.528   4
   0   4   8 17515.9 850.876   1
   4  -4   8 18178.4 1183.53   1
  -4   0   8 17429.5 950.527   4
  -4   0   8 16044.9 920.029   4
   0   4   8 14978.8 904.214   4
  -4   0   8 17032.2 964.029   1
   0   4   8 18718.2 1489.84   3
  -4   0   8 18090.2 1318.13   3
   4  -4   8 17715.1 1435.44   3
  -4   0  11-237.900 656.249   3
   4  -4  11-744.711 903.313   3
   0   4  11 142.742 758.407   3
   4  -4  11 86.7985 623.798   2
   4  -4  11 604.900 551.342   1
  -4   0  11 238.163 478.801   1
  -4   1  -5 8542.18 658.548   1
  -3  -1  -5 7420.52 422.138   4
   3  -4  -5 8502.56 831.276   3
   4  -3  -5 7964.90 774.188   3
  -3  -1  -5 7796.84 596.224   1
  -4   1  -2 4775.42 264.473   4
  -3  -1  -2 4952.55 328.439   4
   1   3  -2 5312.01 496.461   2
  -4   1  -2 5049.88 259.615   2
   3  -4  -2 4136.95 436.604   3
  -3  -1  -2 5065.50 386.718   1
   1   3  -2 4880.32 354.563   4
  -1   4  -2 5391.68 431.574   2
   4  -3  -2 5594.77 449.427   3
  -3  -1  -2 4278.16 316.336   2
  -1   4  -2 4956.62 285.802   4
  -4   1  -2 4864.94 410.412   1
   1   3   1 1659.15 269.452   3
  -4   1   1 1723.19 212.992   1
   3  -4   1 1696.72 223.063   3
  -1   4   1 1755.76 256.533   4
  -3  -1   1 1745.70 341.432   2
   3  -4   1 1771.84 186.630   4
   1   3   1 1864.31 271.895   4
  -4   1   1 1867.85 242.503   3
  -1   4   1 1588.94 271.269   2
  -1   4   1 1796.90 268.163   3
   1   3   1 1736.65 254.600   2
   4  -3   1 2355.52 313.864   1
  -3  -1   1 1916.25 177.288   3
  -3  -1   1 1578.14 259.018   4
  -3  -1   1 1661.28 219.003   1
   1   3   1 2112.78 224.899   1
   4  -3   1 2178.53 291.772   3
   3  -4   1 1511.83 277.436   1
   3  -4   1 1680.70 177.728   2
  -1   4   4 1374.34 310.017   4
  -1   4   4 1175.77 378.706   2
   4  -3   4 1452.26 367.111   1
  -1   4   4 1585.64 488.993   3
   3  -4   4 1085.51 320.448   1
   1   3   4 1578.61 278.982   1
   1   3   4 1273.21 354.125   2
   1   3   4 1045.52 269.475   4
  -4   1   4 1262.11 367.632   3
  -3  -1   4 972.987 317.665   3
   1   3   4 1208.88 425.212   3
  -1   4   4 1078.09 202.304   1
  -4   1   7 3169.02 456.014   4
   1   3   7 2069.90 604.448   3
  -4   1   7 3193.14 659.535   3
  -1   4   7 3074.00 374.659   1
   3  -4   7 2952.39 751.842   3
   3  -4   7 2780.55 502.305   1
  -1   4   7 2799.74 445.583   4
  -3  -1   7 2867.06 604.630   3
   1   3   7 2510.54 405.060   4
   4  -3   7 3467.61 720.572   3
  -4   1   7 3599.68 443.493   1
  -3  -1   7 2868.50 408.281   4
   1   3   7 2782.39 413.653   1
  -1   4   7 2457.68 632.229   3
   4  -3   7 2856.26 543.424   1
  -3  -1   7 2188.66 442.064   1
   4  -3  10 3987.38 701.548   1
   1   3  10 3404.21 572.901   1
   3  -4  10 3616.24 839.648   2
   4  -3  10 5795.01 1068.71   3
  -3  -1  10 2647.56 440.072   4
   3  -4  10 4041.53 923.354   3
  -4   1  10 2643.39 524.445   1
   3  -4  10 3848.22 660.055   1
  -1   4  10 2768.68 460.535   1
  -3  -1  10 3577.17 933.249   3
   1   3  10 2106.19 796.038   3
  -4   1  10 3693.51 832.088   3
  -1   4  10 4530.75 1026.94   3
  -4   1  10 3904.55 590.566   4
  -3  -1  10 2963.14 582.219   1
  -2  -2  -6 11737.2 732.432   1
  -4   2  -6 13162.1 911.379   1
  -2  -2  -3 69027.9 1383.70   2
   2  -4  -3 65877.4 1350.99   4
  -2   4  -3 66608.3 766.834   4
  -2  -2  -3 69618.0 1280.21   1
  -2  -2  -3 66569.8 1167.77   4
   4  -2  -3 70574.3 1614.81   3
   2  -4  -3 69391.0 1719.43   3
  -4   2  -3 69497.7 1524.86   1
   4  -2   0 55485.7 894.239   1
  -2  -2   0 56678.9 927.924   1
   2   2   0 57409.0 1040.13   2
  -2   4   0 55713.4 931.944   4
   2  -4   0 55771.8 923.592   4
  -2  -2   0 58484.7 1020.67   2
  -4   2   0 57509.7 947.649   3
  -2   4   0 56285.9 912.115   2
   2  -4   0 56849.4 916.112   2
   2   2   0 55601.1 988.341   4
  -4   2   0 55185.6 912.141   1
  -2   4   0 57342.8 872.488   3
   2   2   0 56394.3 926.054   1
   4  -2   0 57127.0 943.512   3
   2  -4   0 55369.0 872.780   3
   2  -4   3 62104.9 1491.95   1
  -2  -2   3 63006.9 1199.35   4
   2   2   3 64911.3 1207.06   1
   2   2   3 62221.5 1165.21   4
  -2  -2   3 62226.8 1331.22   3
  -2   4   3 63892.7 1531.17   2
   2  -4   3 62408.7 725.598   4
   2   2   3 61431.8 1608.20   3
  -2   4   3 62538.7 1319.47   4
   4  -2   3 64199.8 1025.35   2
  -4   2   3 63891.5 853.862   1
   2  -4   3 63058.3 1344.52   2
  -4   2   3 62075.8 1507.88   3
  -2   4   3 65307.2 1639.92   3
   4  -2   3 60350.9 1422.03   1
   2   2   3 65031.7 1374.55   2
  -2  -2   6 11675.0 797.585   1
  -2   4   6 11505.3 530.131   1
   4  -2   6 10487.5 792.745   1
   2  -4   6 9534.84 335.630   4
   2   2   6 11960.9 708.576   1
  -4   2   6 12029.1 743.229   4
  -4   2   6 10855.2 589.253   1
   2  -4   6 10016.5 809.681   1
   4  -2   6 11366.2 733.973   2
   2   2   6 11922.9 1054.98   3
   2   2   6 10868.3 618.908   4
  -2  -2   6 10718.6 875.326   3
  -2  -2   6 11238.4 647.444   4
  -2   4   6 11124.0 714.079   4
   2  -4   6 9879.40 338.752   4
  -2   4   6 11652.2 1029.05   3
   2  -4   6 11038.1 951.268   3
  -4   2   6 12277.3 982.910   3
   2   2   6 11601.6 843.459   2
  -4   2   9 15056.5 1393.38   3
   2   2   9 15450.4 973.077   1
   2  -4   9 16132.9 1469.56   3
   4  -2   9 16217.1 1530.16   3
   2  -4   9 16719.0 1204.06   1
  -4   2   9 12832.3 931.657   4
  -4   2   9 14469.2 828.558   1
  -2   4   9 12296.8 887.002   4
  -2  -2   9 15293.6 1345.35   3
  -2   4   9 15888.8 782.366   1
  -2  -2   9 17430.8 1153.70   1
  -2   4   9 13819.4 1395.81   3
   2   2   9 15002.0 1469.29   3
  -2  -2   9 15070.4 797.289   4
   4  -2   9 14288.5 1080.86   1
   2   2   9 14033.0 770.491   4
  -2  -2   9 12850.5 775.760   4
  -1  -3  -7 2650.21 426.362   1
  -1  -3  -4 1644.20 271.139   4
  -1  -3  -4 1935.70 281.365   1
   3   1  -4 1915.31 369.954   3
   1  -4  -4 1431.95 264.798   4
   1  -4  -4 1422.15 211.311   1
   1  -4  -4 2149.53 472.911   3
  -4   3  -4 2643.99 432.751   1
   4  -1  -4 2088.99 434.862   3
   3   1  -1 1900.17 173.815   3
   3   1  -1 1949.01 226.827   1
  -3   4  -1 2349.39 262.058   3
   1  -4  -1 1883.89 263.251   3
  -3   4  -1 1540.54 272.315   1
  -1  -3  -1 1999.25 260.922   4
   4  -1  -1 1801.28 210.195   1
   4  -1  -1 2027.05 240.014   3
  -1  -3  -1 1724.86 244.897   3
  -4   3  -1 1703.86 264.826   1
   1  -4  -1 1415.43 254.157   2
   3   1  -1 2239.52 345.381   2
  -1  -3  -1 2069.36 224.606   1
   3   1  -1 2254.49 296.699   4
  -3   4  -1 1834.10 191.891   2
  -1  -3  -1 1864.47 272.731   2
  -3   4  -1 2010.73 188.681   4
   1  -4  -1 1266.91 243.676   4
   1  -4  -1 1819.39 174.015   1
  -4   3   2 4408.06 436.961   3
   3   1   2 4337.91 327.322   2
  -1  -3   2 4818.66 340.114   4
   3   1   2 5206.33 399.719   1
   4  -1   2 4891.75 417.572   1
  -1  -3   2 5017.44 472.532   2
   1  -4   2 4731.18 283.573   4
   3   1   2 4235.56 304.756   4
  -1  -3   2 3860.99 297.081   3
  -3   4   2 4011.44 423.843   2
   4  -1   2 4461.77 272.170   4
   4  -1   2 4972.90 265.420   2
  -3   4   2 4709.04 450.935   3
  -3   4   2 3957.48 351.834   4
   1  -4   2 4424.14 398.522   2
   3   1   5 8460.05 482.280   4
   4  -1   5 8892.49 679.661   1
   1  -4   5 7432.94 715.070   3
   3   1   5 8484.21 652.368   2
  -3   4   5 8792.42 832.453   3
   3   1   5 9340.55 869.928   3
   1  -4   5 8230.86 382.895   4
  -1  -3   5 9304.23 742.807   3
  -1  -3   5 8414.33 671.528   1
   3   1   5 8894.41 624.056   1
  -4   3   5 9226.27 823.869   3
  -4   3   5 7719.37 395.629   1
  -3   4   5 8082.51 611.513   4
   1  -4   5 7776.61 700.812   2
  -3   4   5 8143.76 365.784   1
  -1  -3   5 8362.39 483.759   4
  -4   3   5 7902.50 599.582   4
   4  -1   5 9028.40 600.172   2
   1  -4   5 7539.90 653.874   1
   4  -1   5 7722.69 343.760   4
  -3   4   5 8301.63 718.105   2
  -1  -3   8 4532.72 424.071   4
  -3   4   8 3222.19 538.793   4
   4  -1   8 3997.43 600.931   1
  -1  -3   8 4984.64 779.324   3
   1  -4   8 3966.15 298.164   4
   3   1   8 4695.25 429.954   4
  -1  -3   8 3906.87 407.760   4
   1  -4   8 5339.71 719.749   1
  -4   3   8 3483.79 528.005   4
   1  -4   8 3980.29 287.723   4
  -4   3   8 3651.91 735.667   3
  -3   4   8 4695.70 423.000   1
   4  -1   8 3308.24 770.042   3
   3   1   8 5020.41 928.213   3
  -4   3   8 3897.11 398.644   1
   4  -1   8 3354.72 239.432   4
   3   1   8 5094.64 613.156   1
  -3   4   8 4810.13 796.089   3
  -1  -3   8 4148.79 641.568   1
   1  -4   8 3567.74 733.670   3
  -4   3  11 273.629 770.608   3
   1  -4  11 426.071 523.896   1
   4  -1  11-834.475 842.881   3
   3   1  11 1065.66 529.872   1
   1  -4  11-755.956 650.919   3
  -3   4  11-486.268 734.465   3
  -1  -3  11 301.971 507.948   1
   3   1  11 236.357 702.406   3
   1  -4  11 12.5996 620.599   2
  -1  -3  11 694.895 757.404   3
   4  -1  11 208.128 521.375   1
  -1  -3  11-155.541 628.172   2
   0  -4  -5 92.7794 219.236   1
  -4   4  -5 263.221 346.299   1
   4   0  -5 236.441 342.405   3
   0  -4  -5-87.5495 228.965   4
   4   0  -2 14382.5 582.115   3
   0  -4  -2 15670.9 742.823   3
  -4   4  -2 13970.2 343.059   4
   0  -4  -2 15016.1 622.767   4
   0  -4  -2 14838.8 673.003   2
   0  -4  -2 16395.2 486.891   1
  -4   4  -2 16259.1 731.639   1
   0  -4   1-127.209 191.106   4
  -4   4   1 484.885 234.772   3
  -4   4   1-112.158 206.345   2
  -4   4   1-114.592 126.376   1
   0  -4   1 292.502 268.522   2
   4   0   1 43.2076 182.812   4
   4   0   1 61.5502 230.264   1
   4   0   1-19.5254 165.696   2
  -4   4   4 4748.50 582.591   3
   0  -4   4 4416.10 329.042   4
   0  -4   4 3942.36 485.263   2
  -4   4   4 4413.80 447.670   4
   4   0   4 4009.03 393.843   2
   0  -4   4 4471.62 492.293   3
   4   0   4 4076.33 313.691   4
   4   0   4 4700.27 499.440   1
   0  -4   7-166.721 343.415   1
   0  -4   7-591.277 428.052   3
   4   0   7-15.6292 500.630   3
  -4   4   7 212.336 310.955   4
   0  -4   7-211.608 408.620   2
   4   0   7 19.5367 169.014   4
  -4   4   7 919.617 558.913   3
   4   0   7 211.352 356.883   2
   0  -4   7 28.1318 192.996   4
   4   0   7 65.3082 328.460   1
  -4   4   7 87.4881 169.274   1
  -4   4  10 5303.56 482.602   1
   4   0  10 6400.82 788.759   1
   4   0  10 7529.62 1163.33   3
   0  -4  10 8377.71 1171.34   3
  -4   4  10 8256.97 1212.84   3
   0  -4  10 6090.35 834.017   1
   0  -4  10 8142.27 1068.28   2
  -5   0  -5 345.669 204.241   4
   5  -5  -5 412.406 437.978   3
  -5   0  -5 356.117 292.093   1
  -5   0  -2 58353.1 1086.86   4
   5  -5  -2 62566.1 1482.17   3
   0   5  -2 61091.3 1461.32   2
   0   5  -2 59466.9 1135.98   4
  -5   0  -2 60589.3 1344.64   1
  -5   0  -2 59952.8 1016.99   2
  -5   0   1 271.267 196.141   3
   5  -5   1 143.004 236.378   1
  -5   0   1 240.513 268.599   4
   0   5   1-105.773 270.233   2
   0   5   1 24.0330 216.397   3
  -5   0   1-24.4909 289.861   2
   5  -5   1-109.934 126.863   2
  -5   0   1 276.883 213.124   1
   5  -5   1-52.9176 219.932   3
   0   5   1-40.5953 229.617   4
   0   5   4 15220.6 994.382   3
   5  -5   4 14566.6 654.060   2
   5  -5   4 13886.6 850.732   1
   0   5   4 15134.2 789.798   4
  -5   0   4 15131.0 833.536   3
   0   5   4 16273.6 918.527   2
   0   5   4 14967.8 573.936   1
   5  -5   7-45.2168 393.688   1
   0   5   7 161.265 316.543   4
   0   5   7-273.047 262.058   1
  -5   0   7 133.263 419.924   3
   0   5   7 434.661 553.140   3
  -5   0   7 212.228 297.671   1
  -5   0  10 9589.43 1150.94   3
   0   5  10 8123.58 1273.24   3
   0   5  10 7873.15 647.478   1
  -5   0  10 7540.41 784.553   1
  -5   0  10 7107.38 743.330   4
   5  -5  10 8502.73 1216.84   3
   5  -5  10 8043.57 956.738   1
   5  -5  10 6540.08 949.984   2
  -4  -1  -6 11784.7 552.709   4
  -5   1  -6 11607.7 842.457   1
  -4  -1  -6 12478.5 825.727   1
  -5   1  -3 24748.8 615.801   4
   4  -5  -3 25250.2 1072.15   3
  -1   5  -3 26341.3 683.075   4
   1   4  -3 26364.1 809.533   4
  -4  -1  -3 25285.5 739.553   4
  -4  -1  -3 26394.2 921.155   1
  -4  -1  -3 26457.3 820.020   2
   5  -4  -3 26925.2 1085.76   3
  -5   1  -3 26932.2 1001.29   1
   1   4   0 4397.00 401.091   2
  -1   5   0 4340.67 281.627   3
  -5   1   0 4359.74 365.292   2
   5  -4   0 4235.03 341.483   1
   4  -5   0 3938.52 341.863   4
  -5   1   0 3852.06 345.069   1
   5  -4   0 3762.50 358.843   3
  -1   5   0 3910.80 374.345   2
  -5   1   0 5014.35 348.971   3
   4  -5   0 3873.37 335.847   1
   1   4   0 4151.58 227.169   3
   4  -5   0 4275.44 366.015   3
  -4  -1   0 3933.10 374.190   4
  -1   5   0 3874.96 351.794   4
   1   4   0 4054.89 375.923   4
  -4  -1   0 4016.97 356.421   1
   4  -5   0 4000.07 307.880   2
  -4  -1   0 3915.35 377.115   2
  -5   1   0 3628.42 351.882   4
  -1   5   3 54559.0 1567.43   3
   1   4   3 57184.5 1073.60   1
   4  -5   3 57540.6 1132.72   2
   5  -4   3 54779.9 1473.03   1
   1   4   3 56225.6 1311.25   4
  -5   1   3 58236.7 1424.51   3
   1   4   3 56651.7 1625.24   3
  -1   5   3 59308.7 879.886   1
  -1   5   3 56255.3 1352.42   4
  -4  -1   3 55309.0 1273.50   3
  -4  -1   3 54314.3 1275.92   4
   1   4   3 60275.1 1509.03   2
   4  -5   3 55477.2 1491.21   1
  -5   1   3 55635.5 1025.67   1
  -1   5   3 59083.0 1529.56   2
  -5   1   6 6438.82 530.326   1
  -1   5   6 6419.12 580.285   4
  -1   5   6 6692.87 434.419   1
   1   4   6 6476.50 572.491   4
  -1   5   6 6537.07 807.957   3
   4  -5   6 6838.26 646.355   2
  -4  -1   6 5510.54 648.129   3
  -5   1   6 6138.39 717.150   3
   1   4   6 6401.21 800.395   3
   1   4   6 6545.18 529.007   1
  -4  -1   6 6296.74 552.426   4
   1   4   6 5994.92 700.287   2
   5  -4   6 6000.57 662.911   1
   4  -5   6 6695.10 710.194   1
   4  -5   9 15782.2 1462.97   3
  -5   1   9 15626.6 945.374   1
   4  -5   9 18147.7 1295.28   2
  -1   5   9 13005.2 936.500   4
   1   4   9 15979.4 1483.83   3
  -4  -1   9 16175.5 1342.35   3
  -4  -1   9 14966.2 952.962   4
   1   4   9 14968.2 941.306   4
   5  -4   9 16586.3 1231.05   1
  -4  -1   9 15116.9 1032.61   1
  -1   5   9 15785.0 1451.09   3
  -4  -1   9 16272.4 948.090   4
  -5   1   9 17238.3 1031.40   4
   1   4   9 16786.8 957.732   1
   5  -4   9 16522.3 1549.91   3
  -5   1   9 19764.6 1508.71   3
   4  -5   9 17686.0 1292.77   1
  -1   5   9 17630.4 836.058   1
  -3  -2  -7 10921.5 790.498   1
  -5   2  -7 10183.5 892.297   1
   5  -3  -4 2828.42 504.090   3
  -5   2  -4 2330.25 166.154   4
  -5   2  -4 3260.98 456.837   1
  -3  -2  -4 3052.02 330.038   4
  -3  -2  -4 2851.96 373.525   1
   3  -5  -4 2716.93 473.640   3
  -5   2  -1 13388.4 506.926   4
   2   3  -1 15823.2 616.147   4
  -2   5  -1 15385.0 585.826   2
  -3  -2  -1 14482.0 582.194   4
   2   3  -1 14364.6 691.891   2
  -3  -2  -1 14677.0 576.190   1
   5  -3  -1 14825.3 464.348   1
  -3  -2  -1 15355.7 572.213   2
  -2   5  -1 15037.6 529.655   4
  -2   5  -1 15044.6 488.844   3
   3  -5  -1 15752.8 629.970   4
   5  -3  -1 15792.8 639.290   3
   3  -5  -1 14981.5 623.526   3
   3  -5  -1 15490.9 636.406   2
   2   3   2 15442.6 738.545   3
   3  -5   2 14837.5 434.507   4
  -2   5   2 15071.4 666.725   4
  -2   5   2 14926.9 716.630   2
  -5   2   2 13984.1 455.609   1
   2   3   2 14731.4 573.398   1
   5  -3   2 14313.1 695.583   1
   3  -5   2 15825.8 572.100   2
  -2   5   2 14186.6 730.844   3
  -3  -2   2 15471.4 807.176   2
  -3  -2   2 13937.0 503.738   3
   2   3   2 14147.1 630.504   4
   2   3   2 14675.0 656.952   2
   3  -5   2 15159.5 744.551   1
  -3  -2   2 14117.9 622.121   4
  -5   2   2 14492.9 649.525   3
   3  -5   5 3211.25 482.721   2
  -2   5   5 2859.90 422.661   4
   2   3   5 3021.07 384.808   4
  -3  -2   5 2909.04 373.782   4
   2   3   5 3007.39 482.765   2
  -2   5   5 3562.78 596.629   3
   3  -5   5 3977.36 547.754   1
   2   3   5 3722.57 433.291   1
   2   3   5 3660.66 654.687   3
  -3  -2   5 3190.29 461.863   3
   5  -3   5 3514.79 513.392   1
  -5   2   5 2781.40 521.887   3
  -2   5   5 3718.29 283.031   1
  -2   5   5 4057.13 558.994   2
   5  -3   5 3355.96 373.778   2
  -2   5   8 9755.30 1110.16   3
   5  -3   8 10898.9 1143.88   3
  -5   2   8 11061.6 1113.71   3
   2   3   8 9656.96 696.075   4
  -2   5   8 9545.09 555.449   1
  -3  -2   8 10663.1 720.706   4
   3  -5   8 9441.83 940.974   2
  -5   2   8 10409.5 689.169   1
  -2   5   8 9241.70 779.665   4
  -5   2   8 9486.73 794.461   4
   5  -3   8 8582.25 781.771   2
   5  -3   8 9295.62 851.528   1
   2   3   8 9223.15 1112.97   3
  -3  -2   8 10367.3 890.531   1
  -3  -2   8 11366.2 1121.87   3
   3  -5   8 11878.0 991.273   1
   2   3   8 11017.1 796.011   1
   3  -5   8 9361.64 1088.92   3
   2   3  11 881.924 895.393   3
   3  -5  11 207.172 479.129   1
   2   3  11 368.629 439.998   1
  -2   5  11 1440.43 768.553   3
  -3  -2  11 757.201 646.030   3
   5  -3  11-110.012 782.364   3
  -5   2  11 690.883 506.397   4
  -3  -2  11 1811.26 868.392   2
  -3  -2  11 1310.13 590.231   1
  -5   2  11 1580.56 779.826   3
   3  -5  11 555.386 775.746   3
   5  -3  11 56.2365 520.467   1
   3  -5  11 1369.39 772.714   2
  -2  -3  -8 10358.9 813.388   1
   2  -5  -5 3585.42 285.319   1
  -2  -3  -5 4304.48 443.493   1
  -5   3  -5 4111.28 542.574   1
  -2  -3  -5 3460.75 385.410   4
   2  -5  -5 3592.46 640.144   3
   5  -2  -5 4875.77 642.226   3
  -3   5  -2 14012.1 560.688   2
  -5   3  -2 13573.2 687.278   1
   2  -5  -2 14164.9 696.818   2
  -2  -3  -2 13641.0 551.161   1
   3   2  -2 14130.3 513.078   3
  -2  -3  -2 12887.6 578.914   4
   2  -5  -2 12253.4 615.273   4
  -5   3  -2 13534.2 410.505   4
  -3   5  -2 13172.6 417.328   4
   2  -5  -2 13894.8 702.875   3
   5  -2  -2 14017.3 439.909   1
   3   2  -2 14442.6 634.813   4
   2  -5  -2 13714.0 353.345   1
   5  -2  -2 12776.0 626.801   3
  -2  -3  -2 13559.6 639.614   2
   2  -5   1 16225.5 540.813   4
   2  -5   1 15672.8 582.514   2
   5  -2   1 14616.1 632.553   1
   2  -5   1 16354.9 503.539   3
  -3   5   1 14049.3 606.504   2
   5  -2   1 16418.7 620.090   3
  -2  -3   1 15995.2 719.491   2
  -5   3   1 15123.2 618.055   3
  -5   3   1 14667.2 476.229   1
   3   2   1 15540.4 603.741   2
   3   2   1 15804.5 614.105   4
   3   2   1 15120.1 578.106   1
  -3   5   1 15172.2 627.251   4
  -2  -3   1 15349.8 606.898   4
  -3   5   1 15939.0 637.870   3
   5  -2   4 2847.27 424.790   1
   2  -5   4 2958.96 449.007   2
   5  -2   4 2515.49 180.748   4
   2  -5   4 2310.05 201.814   4
  -5   3   4 3551.59 513.319   3
  -2  -3   4 2955.64 400.732   3
   3   2   4 3363.07 401.333   1
   3   2   4 2723.42 402.330   2
   2  -5   4 2684.50 423.179   1
  -2  -3   4 3064.31 341.355   4
  -2  -3   4 2871.82 530.781   2
   5  -2   4 2921.33 293.636   2
   3   2   4 2571.65 303.589   4
  -3   5   4 2356.11 464.237   2
  -3   5   4 3021.23 388.954   4
  -5   3   4 2520.86 212.801   1
   3   2   4 2956.51 555.451   3
  -3   5   4 2690.24 509.015   3
   2  -5   7 9919.47 983.765   3
  -5   3   7 9955.49 785.270   4
  -5   3   7 10398.7 981.751   3
   3   2   7 12060.8 1176.67   3
   5  -2   7 9351.17 734.233   2
   3   2   7 10527.6 630.815   4
   2  -5   7 8606.37 320.257   4
   3   2   7 11885.7 804.043   1
  -3   5   7 10533.3 484.978   1
  -2  -3   7 11608.8 999.010   3
   5  -2   7 10311.9 1042.39   3
  -5   3   7 10730.0 587.812   1
  -3   5   7 11223.3 1063.43   3
  -2  -3   7 10499.5 854.105   1
  -3   5   7 10092.5 789.236   4
   2  -5   7 12459.0 958.550   1
  -2  -3   7 10359.7 632.670   4
   5  -2   7 10877.8 849.660   1
   2  -5   7 11591.7 987.604   2
   3   2  10 5247.42 673.326   1
  -3   5  10 4966.40 450.699   1
  -5   3  10 5031.19 497.124   1
  -2  -3  10 5396.46 524.890   4
   3   2  10 4674.64 1033.04   3
  -2  -3  10 4403.03 919.367   2
   2  -5  10 5903.86 938.418   2
  -5   3  10 6942.86 1101.73   3
   5  -2  10 6164.46 831.646   1
  -2  -3  10 4261.63 856.127   3
   2  -5  10 5832.29 840.304   1
  -3   5  10 5860.04 1039.33   3
  -2  -3  10 5006.16 776.649   1
   5  -2  10 5407.27 1127.22   3
   2  -5  10 5248.48 1092.05   3
  -5   4  -6 6272.02 730.067   1
   1  -5  -6 6650.50 447.590   1
  -1  -4  -6 5957.65 511.162   1
   4   1  -3 61867.1 1373.59   3
  -1  -4  -3 59432.1 1312.27   4
   1  -5  -3 59727.0 1670.36   3
  -5   4  -3 62506.5 1567.19   1
   1  -5  -3 61358.7 1535.20   2
   1  -5  -3 61465.2 925.498   1
   5  -1  -3 62148.6 1481.07   3
  -1  -4  -3 60534.3 1141.10   1
   1  -5  -3 61900.8 1387.20   4
  -1  -4  -3 60302.3 1463.74   2
  -4   5  -3 61076.4 1583.58   1
  -1  -4   0 6577.99 447.727   2
   1  -5   0 6057.23 421.987   2
   4   1   0 6040.86 461.673   2
  -5   4   0 5976.44 422.709   3
  -5   4   0 6248.43 402.546   1
   5  -1   0 5496.74 387.095   1
  -1  -4   0 5929.45 382.702   1
   4   1   0 6157.48 306.587   3
   5  -1   0 5508.08 390.061   2
   5  -1   0 6514.55 381.077   3
  -4   5   0 6191.43 392.132   1
  -4   5   0 5877.11 419.661   3
  -4   5   0 5958.91 368.153   2
   4   1   0 5367.65 390.724   1
  -1  -4   0 5961.47 256.392   3
  -4   5   0 5962.12 385.800   4
  -1  -4   0 5404.22 410.937   4
   1  -5   0 6053.49 419.083   4
   4   1   0 5907.07 430.921   4
   1  -5   0 5627.71 311.783   3
  -4   5   3 26572.3 1099.36   3
  -4   5   3 29038.9 976.065   4
   4   1   3 27831.4 951.057   1
  -1  -4   3 26519.4 1088.20   2
   4   1   3 26965.6 785.706   4
   4   1   3 26360.8 858.516   2
  -1  -4   3 27529.9 814.725   4
  -5   4   3 26080.0 1076.20   3
   5  -1   3 26300.5 978.172   1
   1  -5   3 27510.0 704.971   4
  -1  -4   3 25840.0 835.815   3
   1  -5   3 28120.5 1037.95   2
   5  -1   3 27963.4 753.727   2
   5  -1   3 27360.6 657.226   4
  -4   5   3 28294.6 1099.48   2
   5  -1   6 11602.9 844.932   1
  -1  -4   6 11999.8 612.839   4
   1  -5   6 11517.8 492.137   4
   5  -1   6 12125.0 756.445   2
   1  -5   6 12315.0 952.886   2
  -4   5   6 10085.1 383.236   1
  -5   4   6 10303.8 454.068   1
   4   1   6 11712.5 778.748   1
   4   1   6 12359.5 608.335   4
  -4   5   6 12954.0 1059.24   3
  -1  -4   6 12288.7 921.380   3
  -1  -4   6 12765.8 895.084   1
   4   1   6 11649.5 802.878   2
   1  -5   6 10217.5 895.301   3
  -5   4   6 11563.6 791.261   4
  -4   5   6 11704.3 806.824   4
  -5   4   6 13163.6 1055.03   3
   4   1   6 12006.7 1070.82   3
   1  -5   6 10969.9 848.705   1
   5  -1   6 10913.6 435.414   4
  -1  -4   6 11446.9 941.140   2
   1  -5   9 8434.21 1072.93   2
   4   1   9 7689.81 798.460   1
   1  -5   9 8195.39 896.293   1
  -1  -4   9 8332.96 1025.71   3
   4   1   9 8893.02 1248.03   3
  -5   4   9 8068.23 1070.68   3
  -4   5   9 6990.06 451.323   1
   1  -5   9 5633.48 293.127   4
   1  -5   9 7937.09 1064.69   3
  -1  -4   9 8950.93 932.546   1
  -5   4   9 7040.94 504.032   1
  -4   5   9 8694.98 1116.43   3
   5  -1   9 8130.40 846.393   1
  -1  -4   9 6121.71 503.263   4
  -1  -4   9 7647.23 540.785   4
   4   1   9 6162.81 469.765   4
   5  -1   9 7488.49 1131.26   3
  -1  -4   9 9405.17 1061.79   2
   0  -5  -7-168.029 302.213   1
   0  -5  -4 15399.4 604.862   1
   0  -5  -4 16774.1 920.798   2
   0  -5  -4 16341.8 783.814   4
   5   0  -4 17098.0 907.635   3
  -5   5  -4 15953.7 937.207   1
   0  -5  -4 16778.7 1012.32   3
  -5   5  -1 58.5103 237.329   3
  -5   5  -1-19.0293 158.256   4
  -5   5  -1 257.937 137.186   2
  -5   5  -1 69.0250 234.243   1
   5   0  -1-71.9863 170.669   3
   5   0  -1 271.307 220.495   1
   0  -5  -1-146.512 180.710   1
   0  -5  -1 114.147 212.921   3
   0  -5  -1-44.9663 241.329   4
   0  -5  -1-236.859 239.887   2
   0  -5   2 58550.3 1146.35   4
   5   0   2 57496.1 1298.59   1
   5   0   2 56807.9 1092.42   4
  -5   5   2 57633.3 1401.58   3
   0  -5   2 60006.5 1423.60   2
   5   0   2 58964.4 1029.37   2
  -5   5   2 58008.3 1300.23   4
   0  -5   5-170.538 380.269   2
   5   0   5 140.391 262.547   2
  -5   5   5 334.472 276.140   4
  -5   5   5 148.169 401.989   3
   5   0   5-206.717 328.508   1
   5   0   5 250.883 211.224   4
   0  -5   5-136.320 267.155   3
   0  -5   5 97.6909 182.778   4
   0  -5   5 55.0453 311.736   1
  -5   5   8 906.761 196.404   1
   5   0   8 1941.25 714.726   3
   5   0   8 794.769 210.279   4
   0  -5   8 1077.28 586.677   3
   0  -5   8 1155.31 279.165   4
   0  -5   8 1363.66 538.931   2
  -5   5   8 974.609 569.417   3
   0  -5   8 704.661 383.072   1
   5   0   8 842.414 396.753   1
   0  -5  11 41.1216 521.536   1
  -5   5  11-1131.69 718.803   3
   5   0  11 152.007 568.098   1
   0  -5  11 755.028 715.047   3
   5   0  11 1236.95 964.092   3
   0  -5  11 452.274 729.572   2
  -6   0  -6 14684.2 586.250   4
  -6   0  -6 15276.2 972.575   1
  -6   0  -3-29.1903 216.641   4
   0   6  -3-92.5850 323.554   2
  -6   0  -3 212.288 209.278   2
  -6   0  -3 157.325 293.825   1
   0   6  -3 325.314 227.336   4
   6  -6  -3 1.07921 301.841   3
  -6   0   0 9642.07 484.924   3
   0   6   0 10416.2 408.062   3
  -6   0   0 9630.69 586.397   2
  -6   0   0 9034.96 561.205   1
   6  -6   0 10104.9 541.075   1
   6  -6   0 9226.25 469.061   2
  -6   0   0 8764.23 567.283   4
   0   6   0 9802.13 604.280   2
   0   6   0 10557.6 596.318   4
   6  -6   0 10666.2 597.356   3
  -6   0   3 266.089 270.398   4
  -6   0   3 273.104 211.461   1
  -6   0   3 100.990 258.348   3
   0   6   3 9.27288 180.565   1
   0   6   3-449.167 373.425   3
   0   6   3-240.891 296.450   2
   0   6   3 415.020 280.289   4
   6  -6   3 285.517 356.554   1
   6  -6   3 86.7133 171.778   2
   0   6   6 15945.3 935.191   4
   6  -6   6 16014.1 1118.33   1
   6  -6   6 16191.5 871.855   2
   0   6   6 16970.3 1251.22   3
  -6   0   6 17399.0 955.158   4
   0   6   6 17793.5 723.108   1
  -6   0   6 16496.1 1069.22   3
   0   6   9-154.216 351.346   1
  -6   0   9 477.839 399.300   1
   6  -6   9-300.208 553.411   1
   6  -6   9 97.4163 599.727   3
   0   6   9 810.592 740.937   3
  -6   0   9 585.749 449.217   4
   6  -6   9-824.557 546.498   2
  -6   0   9 128.573 583.926   3
  -5  -1  -7 10466.9 857.731   1
  -5  -1  -4 612.708 324.517   1
  -6   1  -4 431.016 188.224   4
  -6   1  -4 112.362 281.029   1
  -1   6  -4 473.439 213.372   4
   6  -5  -4 112.368 345.696   3
  -5  -1  -4 320.804 239.690   2
   5  -6  -4 474.781 403.092   3
  -5  -1  -4 687.465 231.477   4
   5  -6  -1 47089.3 1161.26   2
   5  -6  -1 50953.6 1265.31   3
  -1   6  -1 51371.1 1262.74   2
   6  -5  -1 50222.4 926.138   1
   6  -5  -1 48825.8 1242.66   3
  -1   6  -1 52124.2 780.812   3
  -5  -1  -1 49079.2 1142.69   4
  -6   1  -1 49737.2 928.670   2
  -6   1  -1 49370.1 1085.93   4
  -5  -1  -1 49898.7 1183.08   1
  -5  -1  -1 50886.1 1084.54   2
  -1   6  -1 50456.4 1119.02   4
   1   5  -1 51134.2 1175.32   4
  -6   1  -1 51904.9 1240.77   1
   1   5  -1 49168.2 1310.71   2
   5  -6  -1 50248.2 916.477   1
   5  -6   2 411.500 161.897   2
  -1   6   2 0.79025 285.933   3
  -5  -1   2 427.909 195.268   3
  -6   1   2 372.557 255.276   3
  -5  -1   2 109.625 352.915   2
  -6   1   2 214.823 212.144   1
   6  -5   2-332.870 319.494   3
   5  -6   2 507.099 268.484   3
   1   5   2 29.2600 279.911   2
  -1   6   2-15.3732 250.541   4
  -5  -1   2 448.819 236.708   1
   1   5   2 322.808 208.120   1
   1   5   2 175.162 279.286   3
   6  -5   2 62.8732 292.256   1
  -5  -1   2 344.609 294.371   4
  -1   6   2 544.443 323.872   2
   5  -6   2 139.090 297.724   1
   1   5   2 171.884 273.378   4
  -1   6   5 7110.81 404.097   1
  -1   6   5 6108.46 592.173   4
   1   5   5 6298.67 580.627   4
  -6   1   5 6789.32 463.010   1
  -1   6   5 6025.91 767.921   3
   1   5   5 7323.36 505.799   1
   5  -6   5 6706.04 703.216   1
  -5  -1   5 7181.92 602.110   4
   6  -5   5 6640.96 672.290   1
  -1   6   5 7177.09 734.631   2
  -6   1   5 6602.99 652.634   3
   1   5   5 7247.49 722.020   2
   5  -6   5 7381.52 597.419   2
  -5  -1   5 6395.93 624.758   3
   1   5   5 7131.08 799.696   3
  -6   1   8 922.251 305.652   1
  -5  -1   8 1254.12 439.283   1
  -1   6   8 766.149 302.673   1
   1   5   8 1628.96 693.098   3
   5  -6   8 1114.56 496.658   1
   5  -6   8 1546.86 569.432   2
   1   5   8 1545.96 442.888   4
   6  -5   8 1552.95 483.809   1
   5  -6   8 1127.18 602.766   3
  -6   1   8 1752.49 573.385   3
   6  -5   8 889.917 641.742   3
  -5  -1   8 1398.45 537.240   3
   1   5   8 751.755 357.708   1
   6  -5   8 535.819 388.387   2
  -1   6   8 601.942 419.414   4
  -1   6   8 1230.79 575.018   3
  -5  -1   8 1137.47 410.758   4
  -6   1  11 1827.44 802.093   3
  -5  -1  11 1898.07 586.418   1
   5  -6  11 2130.60 648.058   1
   6  -5  11 1266.68 857.575   3
   5  -6  11 411.872 651.158   2
  -6   1  11 1845.34 551.306   4
   6  -5  11 805.927 589.161   1
  -1   6  11 2211.29 880.002   3
   6  -5  11 1419.79 725.104   2
   5  -6  11 662.211 841.681   3
   1   5  11 3398.43 1013.13   3
  -5  -1  11 467.255 644.341   3
  -5  -1  11 1921.49 952.414   2
  -4  -2  -8 537.613 459.381   1
  -4  -2  -5 12024.6 738.588   1
  -6   2  -5 11495.0 816.728   1
  -6   2  -5 9322.43 334.292   4
  -4  -2  -5 12483.5 612.631   4
   6  -4  -5 10843.3 882.924   3
   2   4  -2 14963.4 650.939   4
  -6   2  -2 12960.2 364.284   2
  -4  -2  -2 14666.4 678.522   1
  -6   2  -2 14905.5 746.705   1
   4  -6  -2 14626.4 775.590   3
  -2   6  -2 14178.6 679.070   2
   4  -6  -2 13665.8 725.790   2
   4  -6  -2 12207.0 358.233   1
  -4  -2  -2 13942.4 618.671   4
  -6   2  -2 13972.1 528.148   4
  -4  -2  -2 14158.8 630.266   2
   2   4  -2 13768.0 799.285   2
   4  -6  -2 13186.6 689.051   4
  -2   6  -2 14021.5 536.688   4
   6  -4  -2 14742.9 752.566   3
   6  -4  -2 13681.1 414.841   1
  -2   6   1 5522.48 414.505   3
   4  -6   1 5949.46 482.232   1
  -6   2   1 5527.25 403.733   1
   2   4   1 5888.08 476.530   2
   2   4   1 5730.62 403.552   3
   4  -6   1 6177.22 366.685   2
   2   4   1 6018.20 459.363   4
  -2   6   1 6478.73 499.527   2
  -6   2   1 5575.38 412.252   3
  -4  -2   1 6197.88 436.849   1
   4  -6   1 5712.63 369.221   4
  -4  -2   1 5670.94 463.201   4
  -4  -2   1 6511.76 571.988   2
   6  -4   1 5510.94 455.955   1
  -2   6   1 5403.92 442.129   4
   4  -6   1 6546.43 425.844   3
  -4  -2   1 5843.12 260.985   3
   2   4   1 6234.97 414.532   1
   6  -4   1 5167.43 431.054   3
  -2   6   4 5516.33 509.986   4
   4  -6   4 4746.24 564.097   1
  -6   2   4 6019.78 607.502   3
  -4  -2   4 5969.95 546.803   3
   2   4   4 6205.53 479.560   1
   2   4   4 5934.48 583.233   2
  -4  -2   4 6522.27 696.351   2
   6  -4   4 6031.80 598.460   1
  -2   6   4 5735.23 599.699   2
  -4  -2   4 5894.32 514.437   4
   4  -6   4 5428.05 488.281   2
   6  -4   4 5926.57 364.105   2
   2   4   4 6288.29 515.470   4
   2   4   4 6356.19 716.394   3
  -2   6   4 5408.01 643.131   3
  -6   2   4 6385.09 385.183   1
  -2   6   4 5612.56 286.650   1
  -4  -2   7 15374.5 1120.84   3
   2   4   7 13994.5 846.218   4
  -2   6   7 15326.0 603.397   1
  -6   2   7 15663.1 1166.74   3
   2   4   7 18029.7 1400.44   3
   4  -6   7 13824.4 976.176   2
   6  -4   7 13357.2 835.248   2
  -6   2   7 15479.2 791.560   1
   2   4   7 14627.7 841.191   1
  -2   6   7 12970.9 883.123   4
   6  -4   7 14958.3 1039.40   1
   4  -6   7 13447.6 1049.47   1
  -2   6   7 14188.9 1240.93   3
  -4  -2   7 15857.6 889.086   4
  -4  -2   7 15087.9 1001.97   1
  -4  -2  10 904.167 497.198   1
  -4  -2  10 829.428 420.696   4
   4  -6  10 374.389 569.501   2
   2   4  10 128.005 393.737   1
  -4  -2  10 561.288 594.373   3
   2   4  10 908.456 737.214   3
  -6   2  10 828.878 769.906   3
  -4  -2  10 618.044 689.209   2
   4  -6  10 1599.56 624.339   1
  -2   6  10 791.126 713.525   3
  -6   2  10 667.930 385.457   1
   6  -4  10 1082.92 516.053   1
   4  -6  10 845.984 679.609   3
  -6   2  10 408.806 435.875   4
  -2   6  10 604.126 272.094   1
   6  -4  10 272.909 739.946   3
  -3  -3  -6 21465.2 991.478   1
  -6   3  -6 22834.0 1238.41   1
  -3  -3  -6 20033.7 839.114   4
  -3   6  -3 3549.88 428.482   2
   3  -6  -3 2868.53 457.137   3
  -3  -3  -3 3101.03 346.309   4
  -3  -3  -3 3769.52 396.597   1
   6  -3  -3 3291.90 455.307   3
  -3   6  -3 3428.85 251.078   4
  -6   3  -3 3215.23 229.636   4
   3  -6  -3 3236.47 417.273   4
  -3  -3  -3 2749.16 378.483   2
  -6   3  -3 2792.70 433.508   1
   3   3   0 233601. 2564.55   2
  -3   6   0 232684. 2171.30   3
  -3  -3   0 229999. 2303.72   1
   3  -6   0 231054. 2260.83   2
  -3  -3   0 234130. 2546.13   2
   3   3   0 232667. 2285.67   1
  -6   3   0 233500. 2291.19   1
   3  -6   0 234512. 2191.11   3
  -6   3   0 232111. 2340.08   3
   6  -3   0 231205. 2251.90   1
  -3   6   0 233000. 2329.38   4
  -3   6   0 232773. 2258.90   2
   6  -3   0 235396. 2325.20   3
   3   3   0 232661. 2436.27   4
   3  -6   0 232865. 2311.31   4
   3  -6   3 3335.08 472.592   1
  -3   6   3 3426.42 423.110   4
   3   3   3 3422.87 388.513   1
   3   3   3 2330.20 354.716   2
  -3   6   3 3048.10 492.702   3
  -3  -3   3 3501.71 523.524   2
   3   3   3 2958.12 381.338   4
  -6   3   3 3232.73 253.058   1
  -3   6   3 2836.15 446.669   2
  -6   3   3 3636.12 455.111   3
   6  -3   3 3116.56 218.145   2
   3  -6   3 3605.22 402.849   2
   3   3   3 3465.61 496.958   3
   6  -3   3 2748.90 435.395   1
  -3  -3   3 3048.90 345.269   3
   3  -6   3 2911.79 237.809   4
  -3  -3   3 3857.80 399.738   4
  -3   6   6 19679.1 1294.15   3
  -3   6   6 18144.4 985.833   4
   3   3   6 19498.8 917.713   1
   6  -3   6 19014.7 870.171   2
   3   3   6 19116.5 1105.06   2
   3  -6   6 20206.0 1086.19   2
  -6   3   6 19092.9 716.804   1
  -3  -3   6 17029.2 1040.96   3
   3   3   6 17759.8 1292.67   3
  -3  -3   6 15156.8 1136.99   2
  -6   3   6 19263.5 640.220   1
   3   3   6 19737.7 894.191   4
  -3   6   6 17725.7 494.952   1
   6  -3   6 17801.1 1057.96   1
  -3  -3   6 18369.8 852.391   4
   3  -6   6 17588.4 1109.37   1
  -6   3   6 17320.1 1146.36   3
   3  -6   9 457.222 510.762   2
  -3  -3   9-242.952 569.040   3
   3   3   9-65.4976 384.706   1
   3   3   9-278.200 642.848   3
  -6   3   9 242.797 257.300   1
  -3   6   9 356.680 208.338   1
   6  -3   9-77.0888 429.686   1
  -6   3   9-97.3135 295.055   1
   6  -3   9 491.218 686.641   3
  -3  -3   9 145.982 560.404   2
  -6   3   9 1235.45 601.988   3
   3  -6   9 189.622 499.524   1
  -3  -3   9 202.306 418.682   1
  -3  -3   9 349.304 361.129   4
  -3  -3   9 55.7110 291.294   4
   3  -6   9 563.914 616.114   3
  -3   6   9-300.158 562.750   3
   3   3   9 267.397 372.853   4
  -2  -4  -7 14923.7 858.792   1
  -2  -4  -4 5348.04 539.631   2
   2  -6  -4 5626.16 304.243   1
   6  -2  -4 6076.63 592.765   3
   2  -6  -4 4650.69 610.861   3
  -2  -4  -4 5841.64 480.640   4
   4   2  -4 5748.67 526.698   3
  -2  -4  -4 5750.97 451.466   1
   2  -6  -4 5010.27 497.271   4
  -6   4  -4 5376.33 587.533   1
  -4   6  -1 6670.10 431.635   3
   6  -2  -1 6288.11 445.461   3
  -4   6  -1 6771.53 388.162   2
   2  -6  -1 6363.27 464.752   3
  -2  -4  -1 6398.36 418.546   1
   6  -2  -1 6564.83 399.480   1
   2  -6  -1 5987.70 465.817   4
  -2  -4  -1 6512.13 472.828   4
   4   2  -1 6092.00 536.358   2
  -6   4  -1 6399.40 460.612   3
   2  -6  -1 6550.18 495.895   2
  -6   4  -1 6912.04 510.984   1
   4   2  -1 6116.88 473.432   4
  -2  -4  -1 6728.16 477.890   2
   4   2  -1 6849.59 462.015   1
  -4   6  -1 6454.78 393.770   4
   4   2  -1 6432.40 280.482   3
   4   2   2 12409.4 623.954   1
  -2  -4   2 12137.3 616.974   4
  -4   6   2 13343.4 735.288   3
   2  -6   2 13601.0 535.123   4
  -4   6   2 12974.9 686.744   4
   4   2   2 12476.9 618.756   4
   6  -2   2 12189.8 375.332   2
   2  -6   2 13529.6 533.018   3
   4   2   2 12342.3 601.934   2
   2  -6   2 13538.9 653.342   2
  -6   4   2 13111.8 709.384   3
  -2  -4   2 12409.4 421.835   3
  -2  -4   2 12245.9 752.964   2
  -4   6   2 13349.8 743.120   2
   6  -2   2 13487.0 723.303   1
  -6   4   2 13853.7 443.028   1
   4   2   5 11733.5 631.175   4
  -4   6   5 12792.3 938.203   2
  -6   4   5 11009.6 392.918   1
  -4   6   5 11074.9 760.378   4
   4   2   5 12745.1 769.007   1
  -2  -4   5 10564.2 896.855   2
  -2  -4   5 9991.65 726.948   3
   6  -2   5 12097.3 637.223   2
   4   2   5 11839.4 788.008   2
   2  -6   5 12002.3 451.259   4
  -6   4   5 9871.33 409.043   1
   4   2   5 12498.4 1012.41   3
  -4   6   5 11768.4 942.343   3
  -2  -4   5 11135.9 629.384   4
   6  -2   5 12027.2 806.698   1
   6  -2   5 9734.97 355.050   4
   2  -6   5 12071.2 884.402   1
   2  -6   5 11857.8 835.719   2
  -6   4   5 11431.5 897.537   3
  -2  -4   8 319.253 267.725   4
  -6   4   8-211.489 482.594   3
   2  -6   8-289.283 518.242   3
   2  -6   8 511.085 523.507   2
   2  -6   8 0.59905 365.213   1
  -6   4   8 25.4742 196.731   1
  -4   6   8 641.580 639.376   3
  -2  -4   8 83.5452 365.294   1
   4   2   8 231.312 272.727   4
   6  -2   8-333.039 350.101   2
  -4   6   8 147.792 141.457   1
   4   2   8-364.989 386.525   1
  -6   4   8 61.9263 164.255   1
   6  -2   8 102.666 386.581   1
  -2  -4   8 47.5031 427.188   3
   6  -2   8 770.007 610.890   3
   4   2   8 247.062 547.110   3
  -2  -4   8 177.910 490.801   2
   2  -6  11 3298.80 855.137   2
   2  -6  11 2986.86 746.445   1
  -6   4  11 2800.72 927.493   3
   4   2  11 2033.83 662.652   1
  -2  -4  11 1852.55 841.653   2
  -2  -4  11 3160.05 762.562   1
   6  -2  11 1961.47 984.720   3
   4   2  11 3663.32 1085.42   3
  -2  -4  11 3131.57 869.044   3
   2  -6  11 928.969 915.392   3
   6  -2  11 1923.77 674.346   1
  -4   6  11 1759.58 896.391   3
  -1  -5  -8 396.583 313.243   1
   1  -6  -5 5828.93 386.900   1
  -1  -5  -5 6321.11 474.964   1
   5   1  -5 5510.56 648.259   3
   6  -1  -5 5461.80 669.756   3
   1  -6  -5 6276.09 570.416   4
  -6   5  -5 7768.09 744.449   1
  -1  -5  -5 6438.18 547.271   4
  -6   5  -2 868.570 325.542   1
  -1  -5  -2 399.496 217.257   1
  -5   6  -2 654.407 182.564   4
  -5   6  -2-54.5475 285.997   1
  -1  -5  -2 518.509 276.162   4
  -1  -5  -2 763.708 296.571   3
   1  -6  -2 144.951 271.869   4
  -1  -5  -2 260.632 280.320   2
   6  -1  -2 471.857 207.893   1
   1  -6  -2 289.463 159.435   1
   5   1  -2 106.308 185.065   3
   6  -1  -2 370.904 238.913   3
  -5   6  -2 576.857 184.736   2
   1  -6  -2 336.127 301.188   3
   1  -6  -2 436.480 329.778   2
  -1  -5   1 48665.8 1308.90   2
   1  -6   1 51467.9 803.924   3
  -5   6   1 50321.5 1185.12   2
  -6   5   1 48848.9 1206.08   3
  -1  -5   1 50746.2 1163.03   4
  -5   6   1 51136.0 1186.93   4
   6  -1   1 48562.4 1132.43   3
  -5   6   1 49979.5 1243.54   3
   5   1   1 50220.2 1142.12   4
   6  -1   1 49274.4 1193.72   1
   5   1   1 48571.3 1156.71   1
   1  -6   1 49870.1 1100.12   4
   6  -1   1 49590.3 964.774   2
   1  -6   1 46864.1 1188.64   2
   5   1   1 49617.9 1109.00   2
   6  -1   1 50921.0 1106.98   4
  -6   5   1 48585.8 932.595   1
   1  -6   4 1046.85 377.701   2
   6  -1   4 455.690 318.030   1
  -6   5   4 1084.03 429.067   3
   1  -6   4 790.860 210.256   4
  -1  -5   4 892.163 335.690   3
  -5   6   4 755.869 303.175   4
   5   1   4 628.304 288.864   2
   5   1   4 1428.68 385.485   1
  -5   6   4 357.998 314.402   2
  -1  -5   4 550.486 399.881   2
   5   1   4 637.188 241.206   4
   6  -1   4 324.702 183.707   4
  -1  -5   4 724.099 274.459   4
  -5   6   4 233.903 389.148   3
   6  -1   4 520.055 229.240   2
  -6   5   7 14005.8 1164.53   3
   1  -6   7 12828.6 1011.25   1
   5   1   7 12271.1 929.777   2
   5   1   7 13873.1 935.696   1
  -1  -5   7 13764.7 1099.62   2
   6  -1   7 10109.7 421.878   4
   1  -6   7 13043.3 1063.08   3
  -1  -5   7 12353.9 992.124   1
   1  -6   7 11673.3 528.308   4
  -6   5   7 10559.3 375.422   1
   1  -6   7 13274.2 1058.20   2
   5   1   7 11882.1 646.053   4
  -5   6   7 11803.9 871.785   4
  -5   6   7 12551.8 1137.86   3
   5   1   7 13289.5 1233.02   3
   6  -1   7 11134.7 817.789   2
  -1  -5   7 12588.8 678.153   4
   6  -1   7 13075.5 952.495   1
  -6   5   7 11313.9 890.371   4
  -1  -5   7 12224.0 1003.46   3
   6  -1   7 15384.0 1343.98   3
  -1  -5  10 114.642 471.732   1
   6  -1  10-218.682 533.582   1
  -6   5  10-447.924 606.642   3
   1  -6  10 626.274 673.881   3
   6  -1  10-87.4225 656.533   3
   1  -6  10 214.974 478.984   1
   5   1  10 1003.38 663.554   3
   1  -6  10-249.578 585.498   2
  -5   6  10 573.019 706.116   3
   5   1  10 532.063 494.729   1
  -1  -5  10 153.650 581.864   3
  -1  -5  10-130.233 565.450   2
   0  -6  -6 18554.9 772.791   1
   6   0  -6 17598.0 1191.28   3
   0  -6  -6 19538.2 960.088   4
   6   0  -3 197.131 244.137   3
  -6   6  -3-5.94494 103.794   4
  -6   6  -3 640.624 348.019   1
   0  -6  -3 400.525 305.214   4
   0  -6  -3 625.880 366.678   2
   0  -6  -3-32.6795 198.863   1
   0  -6  -3 320.254 337.612   3
   6   0   0 14330.3 554.720   3
   0  -6   0 14763.9 697.864   2
  -6   6   0 13645.2 623.737   1
  -6   6   0 14423.2 689.830   3
   6   0   0 13978.7 697.635   2
   0  -6   0 14284.7 477.436   3
   6   0   0 13801.3 654.921   1
   6   0   0 14880.4 708.879   4
  -6   6   0 14633.7 567.373   2
   0  -6   0 15634.4 707.779   4
  -6   6   0 14605.3 625.433   4
  -6   6   3 325.683 353.925   3
  -6   6   3 632.861 301.843   4
   6   0   3 70.4489 224.939   4
   0  -6   3 220.439 234.829   4
   0  -6   3 139.480 347.460   2
   6   0   3 33.1201 305.928   1
   6   0   3 192.698 193.567   2
  -6   6   6 16484.6 1010.39   4
  -6   6   6 18232.0 1260.16   3
   6   0   6 18140.3 958.171   2
   0  -6   6 18048.5 726.844   4
   0  -6   6 16752.8 1083.41   1
   6   0   6 16637.9 661.586   4
   0  -6   6 16815.5 1122.42   2
   0  -6   6 15513.9 1035.88   3
   6   0   6 15680.3 947.474   1
   6   0   9 156.580 609.131   3
   0  -6   9 220.784 199.174   4
  -6   6   9 756.434 617.097   3
   0  -6   9-14.3864 497.346   2
   6   0   9 159.445 504.162   1
   6   0   9-33.6556 123.799   4
   0  -6   9-268.351 446.915   1
   0  -6   9-75.1949 188.705   4
   0  -6   9-139.656 575.022   3
  -7   0  -7 33.6001 186.227   4
  -7   0  -4 5327.72 449.239   2
  -7   0  -4 4907.31 408.659   4
   0   7  -4 4934.58 459.248   4
   7  -7  -4 5557.13 675.344   3
  -7   0  -4 6351.35 614.448   1
   0   7  -1-162.611 271.348   4
   0   7  -1 146.102 117.324   3
   0   7  -1 58.4204 321.164   2
  -7   0  -1-80.0420 264.741   4
  -7   0  -1-248.048 282.998   1
  -7   0  -1 196.680 238.583   2
   7  -7  -1 138.654 263.059   3
   7  -7  -1 34.8749 209.656   1
   7  -7   2 27892.9 559.311   2
  -7   0   2 29115.6 946.219   1
   7  -7   2 30077.8 1054.71   3
  -7   0   2 30558.1 1268.38   2
   0   7   2 30681.0 1129.47   4
  -7   0   2 29422.5 881.282   3
  -7   0   2 29466.5 1097.72   4
   0   7   2 29444.4 1138.04   2
   0   7   2 29735.6 1082.77   3
  -7   0   5-298.140 308.498   3
   7  -7   5-33.5853 263.646   2
   0   7   5 2.94094 314.228   4
   0   7   5 228.838 426.955   3
  -7   0   5-56.1693 303.273   4
   7  -7   5 5.24710 355.399   1
  -7   0   5-142.264 228.120   1
   0   7   5 156.925 229.979   1
   0   7   5 120.234 398.553   2
  -7   0   8 24690.9 1289.86   4
  -7   0   8 22411.2 1451.16   3
  -7   0   8 20387.8 993.253   1
   7  -7   8 23768.4 1236.58   2
   7  -7   8 23276.7 1478.80   1
  -7   0   8 21901.2 1148.85   1
   0   7   8 22937.4 901.477   1
   0   7   8 20641.5 1613.35   3
   7  -7  11-324.105 759.519   3
   7  -7  11 768.138 616.100   2
  -7   0  11 237.483 469.796   4
  -7   0  11 1052.60 714.161   3
   7  -7  11 443.458 602.159   1
   0   7  11 1732.75 803.402   3
  -7   0  11 1124.38 980.323   2
  -7   1  -5 4952.30 585.555   1
  -6  -1  -5 4984.25 417.424   4
  -7   1  -5 5798.19 374.079   4
  -6  -1  -5 5040.46 567.033   1
  -1   7  -2 4112.93 397.105   4
  -6  -1  -2 4041.93 462.275   1
   1   6  -2 3632.13 476.364   2
   6  -7  -2 3757.62 259.277   1
  -7   1  -2 3824.11 303.329   2
  -6  -1  -2 3998.77 370.804   2
  -6  -1  -2 4450.95 421.676   4
   7  -6  -2 3584.06 440.820   3
  -7   1  -2 3921.76 396.294   4
   6  -7  -2 3406.51 479.286   3
   1   6  -2 4548.27 441.237   4
  -7   1  -2 4691.13 496.416   1
  -1   7  -2 4687.17 502.706   2
   7  -6  -2 4145.61 281.945   1
  -7   1   1 2057.66 387.760   4
   7  -6   1 2703.95 382.711   3
  -6  -1   1 2067.61 338.277   1
  -1   7   1 2097.34 380.762   2
  -7   1   1 2149.29 303.636   3
   6  -7   1 2551.70 405.672   1
   6  -7   1 2485.59 356.525   3
   6  -7   1 1786.84 244.233   2
  -6  -1   1 2812.43 420.033   4
  -6  -1   1 2159.42 410.453   2
  -7   1   1 2003.17 439.109   2
  -7   1   1 2442.25 341.657   1
   1   6   1 2292.24 375.290   4
  -1   7   1 2259.30 386.143   4
  -6  -1   1 2094.17 255.763   3
   1   6   1 1670.25 347.178   2
   7  -6   1 2222.56 401.683   1
   1   6   1 2122.18 305.636   3
  -1   7   1 2491.29 352.954   3
  -7   1   4 8993.55 526.992   1
   7  -6   4 9240.05 777.238   1
   1   6   4 8661.48 793.465   3
  -6  -1   4 8739.46 842.143   2
  -6  -1   4 9074.77 682.164   4
  -1   7   4 8465.24 674.757   4
  -1   7   4 9030.38 777.096   2
  -7   1   4 9973.06 727.100   3
  -6  -1   4 9687.51 655.540   3
   6  -7   4 9381.14 534.515   2
   7  -6   4 9395.29 451.945   2
  -1   7   4 8511.20 790.916   3
   1   6   4 9633.36 698.379   4
  -6  -1   4 8891.45 575.781   1
   1   6   4 8633.08 518.513   1
   1   6   4 10450.5 819.219   2
  -1   7   4 9390.69 459.978   1
   6  -7   4 7821.56 718.751   1
  -1   7   7 4625.87 408.334   1
   1   6   7 4033.97 592.971   4
   1   6   7 5059.11 498.387   1
  -7   1   7 4910.74 727.736   3
  -6  -1   7 3823.59 538.982   4
  -1   7   7 4083.26 766.771   3
   7  -6   7 5349.59 615.763   2
   7  -6   7 4515.60 718.208   1
  -6  -1   7 4634.90 695.978   3
   7  -6   7 4212.10 478.924   2
   6  -7   7 5746.85 652.731   2
   6  -7   7 5109.58 764.401   1
  -7   1   7 4478.88 465.345   1
  -1   7   7 4299.83 603.048   4
   1   6   7 5549.06 859.799   3
   7  -6  10 860.266 747.265   3
  -6  -1  10 487.822 594.674   3
  -7   1  10 2206.77 747.191   3
  -6  -1  10 631.412 448.198   4
   6  -7  10 322.058 627.412   3
   6  -7  10 773.757 632.355   2
  -6  -1  10 1119.06 760.494   2
   6  -7  10 779.708 515.982   1
   7  -6  10 1041.15 673.802   2
  -7   1  10 993.281 485.453   1
   7  -6  10 701.844 581.432   1
  -1   7  10 313.339 633.094   3
   1   6  10 599.949 391.938   1
  -6  -1  10 1110.53 517.198   1
   1   6  10-246.453 704.728   3
  -7   1  10 171.282 456.184   4
  -5  -2  -6 8391.75 539.608   4
  -7   2  -6 7593.92 769.197   1
  -5  -2  -6 8142.70 714.612   1
  -2   7  -3 39546.7 1297.33   2
   2   5  -3 40935.0 1171.55   4
   2   5  -3 39068.0 1464.21   2
  -7   2  -3 39030.9 892.858   4
  -5  -2  -3 38219.7 1071.64   4
  -5  -2  -3 40791.5 1231.82   1
  -7   2  -3 39084.5 1332.39   1
  -7   2  -3 38174.7 756.936   2
   5  -7  -3 39492.1 1408.85   3
  -5  -2  -3 38356.5 1104.00   2
  -2   7  -3 39961.7 954.958   4
   7  -5  -3 38350.8 644.133   1
   7  -5  -3 38966.5 1372.55   3
  -2   7   0 47014.4 980.492   3
   2   5   0 46687.9 1294.33   2
   5  -7   0 45072.6 1033.71   2
  -5  -2   0 46222.8 1158.56   1
   5  -7   0 43566.3 1104.11   4
  -7   2   0 44877.0 1150.01   1
   5  -7   0 45506.4 1144.10   3
  -2   7   0 45885.4 1168.42   4
  -2   7   0 44773.5 1170.38   2
   2   5   0 46467.7 1232.47   4
  -5  -2   0 45701.8 1239.43   2
  -7   2   0 44445.0 1110.01   2
  -7   2   0 45705.8 1091.82   3
   5  -7   0 43294.7 1092.87   1
   7  -5   0 45919.0 1106.82   1
   7  -5   0 45247.6 1195.37   3
   2   5   0 43538.6 711.559   3
  -5  -2   0 44993.9 1215.52   4
  -5  -2   3 47615.6 1138.49   3
  -2   7   3 47290.0 1368.73   4
  -5  -2   3 48384.2 1635.43   2
   7  -5   3 44707.9 1435.29   1
  -2   7   3 47640.9 1556.33   3
  -2   7   3 48499.5 1538.28   2
  -5  -2   3 45569.3 1308.54   4
   2   5   3 46787.8 1325.00   4
  -7   2   3 46620.2 1351.18   3
   2   5   3 48685.1 1534.49   3
  -7   2   3 46776.7 1048.11   1
   5  -7   3 47823.1 1516.05   1
   5  -7   3 47847.0 816.632   4
   2   5   3 50114.5 1471.60   2
  -5  -2   3 46372.9 1220.70   1
   5  -7   3 48624.6 1078.03   2
   2   5   3 47796.2 1145.12   1
   2   5   6 3563.73 683.626   3
   2   5   6 4819.93 505.732   1
  -7   2   6 4525.50 678.604   3
  -2   7   6 4009.81 574.640   4
  -5  -2   6 5272.07 578.939   4
  -7   2   6 4618.11 408.811   1
  -2   7   6 5496.79 770.267   3
   7  -5   6 4574.61 609.897   1
  -2   7   6 4509.56 310.404   1
   7  -5   6 4661.35 438.561   2
  -5  -2   6 4891.73 806.420   2
  -5  -2   6 5389.35 631.690   3
   2   5   6 5161.77 596.482   4
   5  -7   6 5650.61 610.773   2
   5  -7   6 5032.73 690.715   1
  -5  -2   9 11600.7 982.361   1
   5  -7   9 11678.0 1055.23   2
   5  -7   9 11688.2 1311.11   3
   2   5   9 15245.3 1501.31   3
  -2   7   9 10140.1 519.281   1
  -5  -2   9 10089.6 794.869   4
  -5  -2   9 12851.8 1241.70   3
  -7   2   9 11349.3 1185.93   3
  -5  -2   9 11658.4 1327.95   2
   5  -7   9 11425.5 1108.83   1
  -7   2   9 9682.05 709.724   1
   2   5   9 9601.29 848.221   4
   2   5   9 10892.5 813.511   1
  -2   7   9 12237.2 1381.57   3
   7  -5   9 12481.5 1123.33   1
   7  -5   9 12627.7 1439.55   3
  -4  -3  -7 577.137 285.050   4
  -4  -3  -7 179.415 342.872   1
   4  -7  -4 12299.9 905.159   3
  -4  -3  -4 12932.0 673.963   4
  -4  -3  -4 14096.0 760.332   1
  -3   7  -4 13681.2 497.347   4
   7  -4  -4 12850.7 865.586   3
  -4  -3  -4 12979.5 766.312   2
  -7   3  -4 12618.5 832.291   1
  -7   3  -4 12008.4 414.134   4
   4  -7  -1 22680.3 876.255   4
   3   4  -1 22983.0 852.776   4
   4  -7  -1 21296.0 831.901   2
   7  -4  -1 23841.3 899.040   3
  -7   3  -1 22641.2 568.420   2
   7  -4  -1 21552.8 685.773   1
  -4  -3  -1 21462.2 799.524   1
  -3   7  -1 23365.5 702.604   3
  -4  -3  -1 21670.8 819.751   2
  -3   7  -1 22361.5 821.440   2
   4  -7  -1 22711.1 870.917   3
  -3   7  -1 22080.7 759.669   4
  -7   3  -1 22244.0 877.583   1
  -4  -3  -1 23351.2 857.804   4
   3   4   2 5850.66 503.155   4
   3   4   2 6728.37 482.677   1
  -3   7   2 6652.77 570.949   3
  -4  -3   2 6756.86 680.440   2
   3   4   2 6692.11 565.201   2
   4  -7   2 7161.86 476.539   3
   3   4   2 6806.26 560.643   3
  -3   7   2 5309.31 556.655   2
  -4  -3   2 6954.75 323.242   3
  -4  -3   2 5963.99 500.184   4
   4  -7   2 6965.30 603.459   1
  -7   3   2 6659.19 408.834   1
  -3   7   2 6307.08 527.431   4
   7  -4   2 6322.14 538.704   3
   4  -7   2 6565.59 415.534   2
  -4  -3   2 5857.26 473.975   1
   4  -7   2 7006.94 402.145   4
   7  -4   2 6557.72 579.489   1
  -7   3   2 7069.54 539.667   3
  -7   3   5 2464.31 279.642   1
   3   4   5 2644.25 611.924   3
   4  -7   5 1892.52 423.673   2
   7  -4   5 1642.73 452.742   1
   3   4   5 2196.11 395.389   4
  -3   7   5 1993.50 493.773   2
  -7   3   5 1500.67 425.161   3
   3   4   5 2557.92 488.765   2
   7  -4   5 2430.16 299.057   2
  -3   7   5 3105.98 625.205   3
  -3   7   5 2177.88 437.159   4
   3   4   5 1939.29 371.291   1
  -4  -3   5 1919.80 377.142   4
  -4  -3   5 2765.13 600.028   2
   4  -7   5 2808.22 541.131   1
  -3   7   5 1780.70 157.721   1
  -4  -3   5 1763.06 389.606   3
   7  -4   8 2430.69 471.365   2
  -4  -3   8 2652.19 453.110   4
   3   4   8 2962.50 528.630   1
   7  -4   8 3602.44 659.563   1
  -7   3   8 2958.85 726.829   3
  -7   3   8 2276.89 319.312   1
  -4  -3   8 3629.65 618.011   1
   3   4   8 2071.61 460.937   4
  -3   7   8 2042.76 223.787   1
  -4  -3   8 3388.03 702.001   3
  -3   7   8 2960.05 760.615   3
   3   4   8 2171.80 719.103   3
   4  -7   8 2540.76 606.724   1
   4  -7   8 3170.87 614.106   2
   4  -7   8 2682.44 694.068   3
  -7   3   8 2615.16 399.643   1
  -4  -3   8 3404.87 807.990   2
  -7   3  11 758.783 687.554   3
  -4  -3  11 1319.12 593.575   1
  -7   3  11 1370.72 512.848   4
   7  -4  11 1706.31 693.378   1
   4  -7  11 1212.00 687.286   2
   3   4  11 1312.79 540.517   1
   3   4  11 95.5038 702.650   3
   4  -7  11 239.455 710.348   3
  -3   7  11 1207.11 783.857   3
  -4  -3  11 3462.73 957.039   3
  -4  -3  11 651.366 690.812   2
   4  -7  11 859.737 654.055   1
   7  -4  11 2275.81 880.903   3
  -3  -4  -8 2297.59 517.409   1
  -7   4  -5 3025.54 549.981   1
  -3  -4  -5 3092.77 406.659   4
   7  -3  -5 2583.39 512.248   3
   3  -7  -5 2074.01 178.456   1
  -3  -4  -5 2894.43 408.094   1
   3  -7  -2 9188.65 367.378   1
   3  -7  -2 9756.54 646.230   4
   3  -7  -2 8970.62 647.010   2
  -3  -4  -2 9777.52 562.723   1
  -3  -4  -2 8037.43 556.005   4
   4   3  -2 8937.18 384.057   3
  -4   7  -2 10114.8 534.215   2
   4   3  -2 10176.5 778.491   2
   7  -3  -2 9095.94 598.531   3
   3  -7  -2 9404.81 654.190   3
   4   3  -2 9289.81 613.605   4
  -3  -4  -2 8928.22 596.166   2
  -4   7  -2 9330.77 455.940   4
  -7   4  -2 9967.64 660.999   1
   7  -3  -2 8551.36 435.302   1
  -4   7   1 21318.8 847.247   2
  -7   4   1 20534.9 818.643   3
   7  -3   1 19994.2 843.394   1
  -3  -4   1 19769.4 774.523   1
  -7   4   1 20925.5 697.749   1
  -3  -4   1 20090.0 824.740   4
  -3  -4   1 19736.1 911.629   2
   7  -3   1 19493.9 776.308   3
   4   3   1 19442.0 817.728   2
   3  -7   1 21845.3 766.673   2
   3  -7   1 19310.9 713.396   4
   3  -7   1 20413.0 669.591   3
   4   3   1 19925.0 794.758   4
   4   3   1 19867.9 773.023   1
  -4   7   1 20148.5 805.909   3
  -4   7   1 20273.0 807.385   4
  -4   7   4 11462.1 750.337   4
  -4   7   4 9212.17 820.800   3
  -7   4   4 12391.6 839.276   3
  -7   4   4 10881.1 421.005   1
   4   3   4 11920.5 768.891   2
   4   3   4 12546.2 684.859   4
   4   3   4 12583.4 722.235   1
   3  -7   4 12137.8 873.543   1
  -3  -4   4 10588.0 643.648   4
  -3  -4   4 11640.5 665.892   3
   3  -7   4 12406.8 767.243   2
   3  -7   4 11068.1 442.500   4
  -3  -4   4 11364.6 898.294   2
  -4   7   4 12110.0 852.343   2
   7  -3   4 9369.08 707.614   1
   4   3   4 12320.4 932.688   3
   7  -3   4 12463.9 503.322   2
   4   3   7 495.587 535.390   3
   3  -7   7 474.178 437.583   2
   3  -7   7 1202.86 516.754   1
   4   3   7 776.409 332.115   4
   7  -3   7 594.593 429.088   1
   7  -3   7 507.476 295.160   2
  -7   4   7 537.448 190.660   1
  -7   4   7 536.258 208.418   1
  -3  -4   7 301.808 301.635   4
  -4   7   7 191.938 349.681   4
  -7   4   7 1348.31 510.113   3
  -4   7   7 927.933 637.699   3
   4   3   7 1041.42 392.379   1
  -3  -4   7 516.000 396.700   3
   3  -7   7 515.857 401.288   3
  -3  -4   7 264.192 505.346   2
  -3  -4   7 362.668 413.965   1
   3  -7  10 2246.09 713.182   3
   4   3  10 1875.11 561.049   1
   3  -7  10 2979.34 655.026   1
  -3  -4  10 2124.03 626.922   1
   7  -3  10 2484.25 891.788   3
  -3  -4  10 1640.55 754.643   2
  -3  -4  10 1352.01 657.663   3
  -4   7  10 3047.66 895.437   3
   3  -7  10 1744.96 724.857   2
   7  -3  10 2076.57 645.580   1
  -7   4  10 2282.16 793.569   3
   4   3  10 2913.85 881.762   3
  -3  -4  10 2322.41 441.029   4
  -2  -5  -9 8909.71 805.343   1
  -2  -5  -6 5506.85 538.223   1
  -2  -5  -6 5832.90 565.190   4
   2  -7  -6 4976.03 343.640   1
   2  -7  -3 49085.3 1579.72   3
   2  -7  -3 48714.1 1392.22   4
  -7   5  -3 53049.4 1576.90   1
  -2  -5  -3 48373.1 1176.10   1
  -5   7  -3 48639.5 844.428   4
   2  -7  -3 51558.3 1546.00   2
   5   2  -3 48339.5 1172.95   3
  -5   7  -3 49611.1 1140.58   2
  -2  -5  -3 47558.9 1295.71   4
   7  -2  -3 49503.2 1404.75   3
  -2  -5  -3 48618.8 1407.51   2
   2  -7  -3 50481.0 875.349   1
  -7   5  -3 49306.1 821.786   4
   7  -2   0 48866.6 1135.20   3
   5   2   0 50849.9 1271.27   4
  -5   7   0 48609.8 1188.85   3
  -2  -5   0 47865.8 1280.24   2
  -5   7   0 48634.3 1104.06   2
  -5   7   0 47918.1 1148.39   4
   2  -7   0 48040.5 1194.28   4
   2  -7   0 49506.2 1204.00   2
  -2  -5   0 50178.2 1242.49   4
   5   2   0 47861.2 853.718   3
   2  -7   0 48839.5 1014.32   3
   7  -2   0 48025.2 1138.65   1
  -7   5   0 49087.1 1152.82   1
  -7   5   0 49153.2 1239.02   3
  -2  -5   0 49270.2 1158.27   1
   5   2   0 48137.1 1269.71   2
  -7   5   3 38475.1 688.988   1
  -5   7   3 38249.3 1274.47   4
  -2  -5   3 38646.2 1425.69   2
   2  -7   3 39412.5 953.459   4
   7  -2   3 41742.3 931.649   4
  -2  -5   3 40052.4 1134.71   4
   5   2   3 38769.0 1146.90   2
  -2  -5   3 38177.9 925.336   3
   7  -2   3 37615.4 1273.52   1
  -7   5   3 38043.6 1332.60   3
   7  -2   3 39046.9 786.465   2
   5   2   3 38206.0 1173.48   1
   5   2   3 39359.5 1109.12   4
  -5   7   3 40594.3 1405.05   2
   2  -7   3 38728.0 1250.92   2
   5   2   6 8366.50 696.595   1
   7  -2   6 7270.14 702.927   1
   7  -2   6 7692.01 606.082   2
  -7   5   6 7179.72 805.671   3
   5   2   6 7313.33 699.898   2
  -7   5   6 5239.56 283.426   1
  -5   7   6 6742.80 860.968   3
   5   2   6 6591.97 543.122   4
   2  -7   6 7634.95 805.483   1
   5   2   6 6979.69 880.436   3
   7  -2   6 6357.67 312.518   4
   2  -7   6 6925.75 380.998   4
  -2  -5   6 6388.38 758.254   2
  -7   5   6 5873.29 274.062   1
  -7   5   6 7441.28 685.245   4
  -5   7   6 7447.50 708.298   4
  -2  -5   6 7374.18 555.887   4
  -2  -5   6 7045.84 695.956   3
   2  -7   6 8292.65 818.523   2
  -7   5   9 1233.92 193.877   1
  -2  -5   9 1900.82 387.465   4
   2  -7   9 2136.68 623.240   1
   2  -7   9 2005.72 672.722   2
  -5   7   9 3071.80 854.802   3
  -2  -5   9 1175.83 604.660   2
   7  -2   9 2312.03 748.581   3
  -2  -5   9 1974.74 631.581   1
  -2  -5   9 1180.93 602.810   3
   5   2   9 2309.90 600.328   1
  -7   5   9 1149.57 176.681   1
   5   2   9 3122.49 847.266   3
   2  -7   9 2299.84 723.948   3
  -7   5   9 3339.82 790.272   3
   7  -2   9 2138.72 613.534   1
   1  -7  -7 4184.87 416.436   1
  -1  -6  -7 4909.14 567.402   4
  -1  -6  -7 4173.50 485.131   1
   7  -1  -4 9097.92 706.873   3
  -6   7  -4 8325.22 766.105   1
   1  -7  -4 10597.6 717.681   4
  -1  -6  -4 8331.98 626.453   4
   6   1  -4 8809.49 658.632   3
  -1  -6  -4 8566.82 705.210   2
  -1  -6  -4 8547.41 540.816   1
   1  -7  -4 8816.24 473.619   1
   1  -7  -4 9504.46 862.367   3
   1  -7  -4 8540.37 722.804   2
  -7   6  -4 9110.72 786.413   1
   1  -7  -1 1450.91 240.790   1
   6   1  -1 1240.81 312.499   4
   6   1  -1 1520.69 232.416   3
  -7   6  -1 2195.44 209.530   2
   6   1  -1 1767.60 322.126   1
  -6   7  -1 2199.93 374.692   1
   1  -7  -1 1703.28 297.327   3
  -1  -6  -1 1806.62 295.705   3
  -7   6  -1 1787.36 357.754   1
  -6   7  -1 2094.30 300.709   4
   7  -1  -1 1492.38 299.294   1
   6   1  -1 1608.25 414.993   2
  -6   7  -1 1641.84 231.622   2
  -6   7  -1 2311.46 363.369   3
   1  -7  -1 1663.87 354.242   4
  -1  -6  -1 1346.85 326.282   2
  -1  -6  -1 1488.35 266.215   1
  -7   6  -1 1627.61 344.749   3
   7  -1  -1 1986.09 293.782   3
  -1  -6  -1 1670.26 330.572   4
   1  -7  -1 1012.12 329.368   2
  -7   6   2 4912.54 306.163   1
   7  -1   2 4620.80 407.775   4
   1  -7   2 3389.78 440.537   2
   7  -1   2 4093.82 333.273   2
   7  -1   2 4257.88 499.222   1
   6   1   2 4351.23 401.758   2
  -6   7   2 4447.00 460.906   4
  -1  -6   2 4014.05 414.631   4
   6   1   2 4544.87 440.354   4
   6   1   2 3631.60 431.379   1
  -6   7   2 4068.41 499.850   3
  -6   7   2 4588.55 488.099   2
  -1  -6   2 4357.82 536.683   2
  -7   6   2 3692.68 481.148   3
   1  -7   2 4931.94 415.843   4
   1  -7   2 4505.27 297.360   3
  -1  -6   5 4223.02 603.854   2
  -7   6   5 6068.86 707.185   3
   6   1   5 6477.23 632.917   1
  -6   7   5 4664.09 653.821   3
  -6   7   5 6218.55 635.748   4
  -1  -6   5 6320.75 487.378   4
   7  -1   5 6288.79 640.832   1
  -1  -6   5 6431.77 603.224   3
   7  -1   5 7005.10 537.999   2
   6   1   5 6297.30 598.724   2
   7  -1   5 5674.43 386.917   4
   6   1   5 5890.67 471.297   4
   1  -7   5 5467.86 641.624   2
  -7   6   5 6279.64 634.609   4
   1  -7   5 6092.56 423.910   4
   1  -7   8 1924.13 560.326   1
   7  -1   8 2464.07 515.877   2
  -1  -6   8 2255.26 594.637   1
  -1  -6   8 2361.81 629.563   2
  -1  -6   8 2969.92 651.073   3
   1  -7   8 3735.88 726.071   2
  -7   6   8 3253.84 766.954   3
  -1  -6   8 2865.47 395.667   4
   1  -7   8 2250.58 625.249   3
   6   1   8 2740.69 800.877   3
  -6   7   8 1093.09 550.235   3
   6   1   8 2713.44 381.443   4
   7  -1   8 1621.58 180.539   4
   1  -7   8 2066.44 268.216   4
   6   1   8 2795.88 583.790   1
   7  -1   8 3707.42 852.577   3
   7  -1   8 3415.79 642.008   1
   1  -7  11 4420.28 1031.58   3
  -1  -6  11 2570.47 746.167   1
  -1  -6  11 3724.64 937.508   3
   6   1  11 4153.34 1102.16   3
   1  -7  11 3409.46 906.882   2
  -6   7  11 4568.72 1096.81   3
   6   1  11 3565.75 743.014   1
   7  -1  11 1848.68 972.623   3
   1  -7  11 3775.35 837.149   1
  -7   6  11 5109.48 1122.04   3
  -1  -6  11 2339.33 900.964   2
   7  -1  11 3991.06 891.264   1
   0  -7  -8 23534.6 967.731   1
   0  -7  -5 81.1390 207.666   1
   7   0  -5-339.171 326.674   3
   0  -7  -5-425.818 358.263   2
   0  -7  -5 10.8818 295.731   4
  -7   7  -2 27458.5 760.710   4
   0  -7  -2 28466.4 837.377   1
   7   0  -2 28222.8 912.171   1
  -7   7  -2 27475.4 1129.72   1
   0  -7  -2 28213.5 1058.50   4
   7   0  -2 31033.3 927.675   3
   0  -7  -2 29340.5 1112.12   2
  -7   7  -2 28774.8 601.066   2
   0  -7  -2 27908.5 1071.49   3
   0  -7   1-335.626 305.546   2
  -7   7   1 21.3939 239.754   2
  -7   7   1 34.5903 191.358   1
   0  -7   1-46.0129 124.750   3
  -7   7   1 93.0876 260.796   4
   7   0   1 519.632 239.325   3
   7   0   1 390.221 279.658   2
  -7   7   1-334.160 279.266   3
   7   0   1-1.94545 273.886   4
   0  -7   1-83.7343 264.623   4
   7   0   1 163.489 281.124   1
   7   0   4 6605.84 484.312   4
  -7   7   4 6096.18 682.118   3
  -7   7   4 6860.53 651.134   4
   0  -7   4 6543.93 503.405   4
   7   0   4 5740.67 603.130   1
   0  -7   4 6531.92 695.075   2
   7   0   4 6566.34 492.082   2
  -7   7   4 5040.47 614.003   2
   0  -7   7 257.397 220.235   4
  -7   7   7 404.208 548.169   3
   0  -7   7 78.3199 356.844   3
   0  -7   7 19.9424 380.987   1
   0  -7   7-246.237 420.097   2
   7   0   7-213.642 354.861   2
   7   0   7-79.8306 208.545   4
   7   0   7 348.555 506.138   3
   7   0   7-30.9349 387.324   1
   0  -7  10 15410.8 1349.97   1
   0  -7  10 16434.2 1489.93   2
  -7   7  10 16364.8 1573.89   3
   7   0  10 15839.0 1227.89   1
   0  -7  10 15701.5 1460.79   3
   7   0  10 15961.5 1665.69   3
  -8   0  -5 721.411 429.941   1
   0   8  -5 472.057 281.688   4
  -8   0  -5 97.0009 222.184   4
  -8   0  -2 41720.7 1076.50   2
   8  -8  -2 38965.0 1393.89   3
  -8   0  -2 41250.3 1221.18   4
   0   8  -2 47561.4 1524.52   2
   0   8  -2 43731.0 1255.53   4
   8  -8  -2 43638.8 919.346   1
  -8   0  -2 45244.9 1408.94   1
   0   8   1 238.856 245.160   3
  -8   0   1 218.766 271.626   1
   0   8   1 176.731 333.291   2
  -8   0   1-46.2185 328.760   4
   0   8   1 62.9352 302.381   4
  -8   0   1-275.677 228.442   3
  -8   0   1-138.141 358.977   2
   8  -8   1 162.060 175.230   2
   8  -8   1 341.656 359.503   1
   8  -8   1 214.473 275.486   3
   0   8   4 14091.7 987.090   2
  -8   0   4 13958.3 745.598   1
   8  -8   4 12538.8 483.338   2
   0   8   4 14698.0 910.880   4
   0   8   4 14981.6 665.606   1
   8  -8   4 12698.8 941.899   1
  -8   0   4 13799.2 1083.93   2
  -8   0   4 13974.5 891.627   4
   0   8   4 13895.0 1016.78   3
  -8   0   4 14865.3 842.100   3
   8  -8   7 627.955 381.815   2
   0   8   7 111.465 246.883   1
  -8   0   7 859.635 417.756   4
   0   8   7 759.743 541.751   3
  -8   0   7 112.823 266.414   1
   8  -8   7 717.483 502.642   1
  -8   0   7 1334.11 520.720   3
  -8   0  10 4727.53 906.574   3
   0   8  10 6863.12 1162.38   3
  -8   0  10 7285.64 894.919   4
  -8   0  10 7981.16 1313.31   2
   8  -8  10 7579.36 1010.32   1
  -8   0  10 5276.90 693.704   1
   8  -8  10 6906.29 1163.79   3
   8  -8  10 4813.11 772.549   2
  -7  -1  -6 334.957 247.288   4
  -8   1  -6-64.9284 189.865   4
  -7  -1  -6 65.5516 355.194   1
  -8   1  -3 1946.84 330.818   4
   7  -8  -3 2040.12 462.902   3
  -1   8  -3 2839.21 481.155   2
  -7  -1  -3 1789.81 366.192   1
   7  -8  -3 1467.53 145.472   1
  -1   8  -3 2269.91 358.183   4
  -7  -1  -3 2193.08 333.849   2
   1   7  -3 2794.54 507.205   2
  -7  -1  -3 1740.67 333.942   4
  -8   1  -3 1989.08 432.632   1
  -8   1  -3 2299.55 294.429   2
   8  -7  -3 1592.76 408.560   3
   1   7  -3 2244.90 367.536   4
   8  -7  -3 1651.09 177.895   1
  -1   8   0 550.270 268.015   4
  -8   1   0 902.203 282.078   3
   7  -8   0 772.975 253.130   2
   1   7   0 537.793 169.958   3
  -1   8   0 993.562 234.995   3
  -8   1   0 404.195 295.929   2
   1   7   0 1049.52 409.613   2
  -7  -1   0 765.493 324.452   1
  -7  -1   0 983.935 353.861   2
   8  -7   0 664.192 285.248   3
   7  -8   0 773.466 301.362   1
  -1   8   0 1289.94 379.122   2
   7  -8   0 1402.54 355.503   3
  -7  -1   0 486.457 327.640   4
  -8   1   0 652.077 305.833   4
   1   7   0 1015.49 328.094   4
   8  -7   0 861.925 287.026   1
  -8   1   0 821.063 305.546   1
  -8   1   3 20909.5 835.460   1
  -7  -1   3 21391.6 1021.29   4
  -8   1   3 23414.7 961.550   3
  -1   8   3 22006.1 1032.19   4
   1   7   3 23621.0 1133.90   2
   8  -7   3 23574.2 1060.40   3
   1   7   3 21253.8 1082.79   3
  -7  -1   3 19756.5 1160.21   2
   7  -8   3 23815.3 1025.41   3
   1   7   3 20833.0 1008.25   4
   8  -7   3 21011.9 1095.73   1
   7  -8   3 21034.5 1078.94   1
   7  -8   3 21993.2 618.262   2
  -1   8   3 24048.1 1148.08   2
  -7  -1   3 21186.4 824.100   3
  -1   8   3 20393.8 1076.52   3
  -7  -1   3 22021.5 903.899   1
   1   7   3 21690.2 810.909   1
  -7  -1   6 1700.22 475.911   3
  -7  -1   6 1165.28 553.623   2
   1   7   6 1698.08 331.169   1
  -8   1   6 1866.36 506.184   3
  -1   8   6 1615.07 269.150   1
   1   7   6 1433.36 542.190   3
  -8   1   6 1299.87 316.394   1
  -1   8   6 1537.27 450.901   4
   7  -8   6 1740.14 499.494   1
   1   7   6 1093.48 375.972   4
   7  -8   6 1567.60 357.617   2
   8  -7   6 1231.38 345.110   2
  -1   8   6 1774.26 583.719   3
  -7  -1   6 1715.13 338.042   1
  -7  -1   6 1619.13 462.373   4
   8  -7   6 1132.06 444.775   1
   8  -7   9 13883.5 1217.80   1
  -7  -1   9 14601.0 1282.56   3
   1   7   9 15097.1 842.183   1
  -1   8   9 15032.9 1513.36   3
  -8   1   9 13576.4 1061.03   4
  -1   8   9 13238.6 639.199   1
   8  -7   9 15496.0 1078.19   2
  -8   1   9 17016.9 1415.47   3
   1   7   9 15834.8 1553.76   3
  -7  -1   9 14012.9 1520.97   2
   7  -8   9 16537.0 1349.01   1
  -7  -1   9 13465.4 1031.17   1
  -8   1   9 13871.6 932.395   1
   7  -8   9 15020.5 1533.13   3
  -7  -1   9 13057.0 1004.63   4
   7  -8   9 14356.7 1108.56   2
  -6  -2  -7 18009.9 804.768   4
   8  -6  -4 8151.71 753.486   3
   2   6  -4 9621.61 645.771   4
  -8   2  -4 8444.39 462.995   4
  -8   2  -4 8896.20 731.885   1
  -6  -2  -4 7853.20 559.136   4
  -2   8  -4 8939.15 752.888   2
  -6  -2  -4 8760.94 699.589   1
  -2   8  -4 9006.43 510.798   4
   6  -8  -4 8355.72 810.505   3
  -6  -2  -4 8513.66 597.503   2
  -6  -2  -1 11506.6 682.882   1
   6  -8  -1 10199.1 535.568   1
  -6  -2  -1 9776.89 642.676   4
   2   6  -1 10654.1 745.561   2
  -8   2  -1 10408.9 689.098   1
   2   6  -1 11876.2 700.377   4
  -2   8  -1 11491.9 648.590   4
  -8   2  -1 11718.7 534.205   2
  -8   2  -1 10668.1 645.199   4
   6  -8  -1 10884.5 673.914   2
  -6  -2  -1 9623.58 597.333   2
   6  -8  -1 10654.9 674.404   4
   8  -6  -1 11055.4 558.225   1
   8  -6  -1 11419.3 703.808   3
  -2   8  -1 10775.3 480.126   3
  -2   8  -1 10850.4 696.285   2
   6  -8  -1 10787.2 699.936   3
   6  -8   2 17015.7 800.059   3
   6  -8   2 17200.7 633.107   4
   8  -6   2 18284.4 870.752   3
   6  -8   2 17472.0 915.536   1
  -2   8   2 18871.0 947.075   2
  -6  -2   2 17345.4 1011.83   2
  -8   2   2 18318.4 784.259   3
  -8   2   2 18030.7 751.568   1
   2   6   2 18573.1 757.870   1
  -2   8   2 16985.5 877.869   3
   2   6   2 16694.4 860.302   4
   2   6   2 18283.5 927.238   2
  -2   8   2 17078.7 863.954   4
  -6  -2   2 18192.6 603.331   3
  -6  -2   2 17552.6 778.014   1
   6  -8   2 17387.3 595.518   2
  -6  -2   2 17367.5 852.917   4
   2   6   2 19256.8 887.027   3
   8  -6   2 16100.7 861.778   1
   8  -6   5 5137.35 655.708   1
   2   6   5 3606.96 633.216   2
   2   6   5 3938.22 673.234   3
  -6  -2   5 4926.77 540.770   4
  -8   2   5 4510.19 400.753   1
  -6  -2   5 4281.95 701.506   2
   2   6   5 4232.63 544.471   4
   8  -6   5 3948.85 363.397   2
   8  -6   5 4540.99 339.537   2
  -6  -2   5 4544.96 511.185   3
  -6  -2   5 4080.30 458.276   1
  -2   8   5 3862.46 546.865   4
  -8   2   5 3670.58 564.092   3
  -2   8   5 4230.13 722.981   3
   2   6   5 4887.75 459.286   1
  -2   8   5 4404.75 319.915   1
   6  -8   5 4480.02 476.193   2
   6  -8   5 4857.91 657.722   1
   8  -6   8 3566.07 568.780   2
   8  -6   8 4583.96 716.723   1
   6  -8   8 5222.90 811.267   1
  -6  -2   8 4655.55 730.517   3
  -8   2   8 3961.65 761.477   3
   2   6   8 4585.33 559.125   1
  -8   2   8 4464.85 516.743   1
  -8   2   8 4059.94 454.258   1
   6  -8   8 4154.20 653.238   2
  -2   8   8 4073.78 813.834   3
  -6  -2   8 4304.25 676.706   1
   8  -6   8 3777.62 528.364   2
  -6  -2   8 3710.64 812.740   2
  -6  -2   8 4378.32 602.624   4
   2   6   8 3793.49 605.249   4
  -2   8   8 3863.45 323.859   1
   2   6   8 5774.49 1049.46   3
  -8   2  11 6338.08 856.654   4
  -6  -2  11 4551.30 1270.35   2
   6  -8  11 4982.14 864.229   2
  -6  -2  11 4459.74 769.347   1
   6  -8  11 5577.14 963.051   1
   8  -6  11 4318.22 1202.70   3
   8  -6  11 3639.54 919.525   1
   6  -8  11 3944.25 934.699   3
  -6  -2  11 5303.28 1000.38   3
   2   6  11 6399.35 1217.22   3
   8  -6  11 5313.34 890.061   2
  -2   8  11 4828.24 1162.33   3
  -8   2  11 3672.85 956.032   3
  -5  -3  -5 7053.77 541.552   4
  -8   3  -5 7327.93 728.949   1
  -8   3  -5 7030.31 332.768   4
  -5  -3  -5 9111.00 710.750   1
  -5  -3  -5 8732.97 670.271   2
  -3   8  -5 7454.08 412.421   4
  -8   3  -2 5591.66 268.134   2
   8  -5  -2 6468.61 387.087   1
  -8   3  -2 6333.57 572.731   1
  -3   8  -2 6740.14 461.197   4
   3   5  -2 7053.32 676.644   2
  -5  -3  -2 6697.04 514.341   2
   5  -8  -2 6732.40 602.413   3
  -3   8  -2 7095.53 560.562   2
   5  -8  -2 5555.02 559.762   2
  -5  -3  -2 6051.41 506.545   4
   3   5  -2 6069.72 515.368   4
   8  -5  -2 6723.86 591.482   3
  -8   3  -2 7347.54 488.892   4
   5  -8  -2 5911.78 543.046   4
  -5  -3  -2 5833.86 527.957   1
  -3   8   1 24580.8 956.927   4
   5  -8   1 30044.2 857.792   2
   5  -8   1 29429.3 1075.30   1
  -8   3   1 28956.3 982.186   3
   3   5   1 28648.0 1070.41   2
   3   5   1 27595.5 856.084   3
   3   5   1 29487.7 1056.76   4
  -3   8   1 30708.6 1079.31   2
  -5  -3   1 28444.3 1171.64   2
   8  -5   1 29362.8 1062.52   1
  -5  -3   1 27379.0 977.556   1
  -5  -3   1 28119.9 1035.64   4
  -3   8   1 28517.0 963.673   3
   5  -8   1 29185.9 899.460   4
   5  -8   1 28571.5 919.231   3
  -5  -3   1 29216.9 542.221   3
   3   5   1 28596.3 966.853   1
   8  -5   1 30545.9 1055.04   3
  -8   3   1 29097.7 934.137   1
   8  -5   4 23434.2 542.568   2
  -3   8   4 27719.5 1369.41   3
   8  -5   4 24129.9 1162.28   1
   3   5   4 24955.4 950.574   1
  -8   3   4 25112.0 781.860   1
  -5  -3   4 23435.0 1022.28   4
   3   5   4 26490.3 1318.70   3
   5  -8   4 27151.4 1006.39   2
  -8   3   4 26651.1 1178.05   3
   3   5   4 28085.3 1108.58   4
  -3   8   4 25748.8 1260.05   2
   3   5   4 26999.0 1203.76   2
   5  -8   4 26188.6 1271.82   1
  -5  -3   4 26218.9 987.666   3
  -3   8   4 28270.9 1178.89   4
  -5  -3   4 23890.1 1321.63   2
   5  -8   4 25358.5 615.595   4
   5  -8   7 2938.94 587.425   2
  -8   3   7 2795.14 618.837   3
  -8   3   7 2327.42 317.628   1
  -3   8   7 3047.35 687.347   3
   8  -5   7 3633.04 641.276   1
   3   5   7 3050.39 753.240   3
  -5  -3   7 2533.64 517.979   3
   5  -8   7 3408.14 666.336   1
   8  -5   7 2414.35 402.275   2
   3   5   7 3169.84 502.383   4
  -5  -3   7 3394.35 783.062   2
   3   5   7 2953.15 471.992   1
  -5  -3   7 2637.06 460.946   4
  -8   3   7 3132.03 411.621   1
  -3   8   7 1870.65 184.283   1
  -8   3  10 1024.67 563.532   4
   5  -8  10 2800.13 757.857   1
   8  -5  10 2394.16 678.856   2
  -5  -3  10 1744.11 464.393   4
   5  -8  10 1903.07 707.757   2
  -3   8  10 4133.19 983.703   3
   3   5  10 2173.32 543.116   1
  -5  -3  10 2461.11 661.501   1
   8  -5  10 2626.22 962.006   3
  -5  -3  10 1907.36 833.838   2
  -5  -3  10 1440.34 652.206   3
   8  -5  10 2066.07 693.531   1
   3   5  10 2279.20 825.046   3
   5  -8  10 2367.66 843.988   3
  -8   3  10 2136.92 776.509   3
  -4  -4  -6 1601.66 389.937   1
  -4  -4  -6 1721.51 348.054   4
  -4   8  -3 26128.4 986.501   2
   4  -8  -3 27217.6 1232.70   3
   4  -8  -3 27337.9 1198.40   2
   8  -4  -3 26297.5 1114.44   3
  -4   8  -3 26833.9 765.068   4
   8  -4  -3 27407.8 719.649   1
  -4  -4  -3 26206.0 979.248   1
   4  -8  -3 26743.7 549.198   1
  -4  -4  -3 27097.7 992.638   4
   4  -8  -3 25533.4 1069.59   4
   4   4  -3 28447.7 1079.86   4
  -8   4  -3 25688.2 717.544   4
  -4  -4  -3 25406.2 1021.19   2
  -8   4  -3 26799.8 1156.03   1
  -4  -4   0 7153.79 600.557   2
   4  -8   0 6416.19 496.209   2
   4   4   0 6864.38 597.928   2
  -4  -4   0 6746.47 510.788   1
   8  -4   0 6275.09 517.353   3
  -4  -4   0 4700.90 479.740   4
   4   4   0 7100.58 559.304   4
  -8   4   0 6763.83 518.501   1
  -8   4   0 6010.52 509.120   3
   4  -8   0 5727.62 482.701   4
  -4   8   0 6397.88 514.694   4
   4   4   0 6834.82 513.575   1
  -4   8   0 6923.03 486.306   3
   4  -8   0 6519.42 470.474   3
  -4   8   0 7264.15 518.183   2
   8  -4   0 6617.41 512.573   1
  -4   8   3 24281.2 1045.83   4
   4  -8   3 25469.0 940.399   3
  -4  -4   3 25406.5 1265.29   2
   4   4   3 24761.2 931.260   1
   8  -4   3 21850.8 1051.61   1
   4  -8   3 25358.3 734.705   4
  -4   8   3 26970.3 1228.25   3
  -4  -4   3 24671.2 984.484   4
  -8   4   3 24618.6 728.749   1
  -4   8   3 24431.4 1143.16   2
  -4  -4   3 23695.1 737.404   3
   4  -8   3 26461.5 1213.75   1
  -8   4   3 26078.0 1099.24   3
   4   4   3 22660.4 1096.30   3
   4   4   3 25215.9 1032.51   2
   4   4   3 23634.4 969.369   4
   4  -8   3 24860.8 923.983   2
  -4   8   6 1373.98 448.164   4
   4   4   6 691.409 446.858   3
   4  -8   6 1473.54 520.323   1
   4   4   6 931.034 365.456   1
  -4  -4   6 1210.26 336.424   4
   4   4   6 486.567 413.220   2
   4  -8   6 1090.46 427.839   2
  -8   4   6 820.213 202.169   1
   8  -4   6 724.585 406.722   1
  -4  -4   6 1372.19 589.800   2
  -4  -4   6 1694.46 419.791   3
   4   4   6 873.661 334.885   4
  -4   8   6 795.074 430.610   3
   8  -4   6 1569.88 302.659   2
  -8   4   6 916.508 428.299   3
  -4   8   9 3776.04 853.918   3
  -4  -4   9 3669.01 530.837   4
  -4  -4   9 4343.68 752.426   1
  -4  -4   9 5183.74 815.551   3
   8  -4   9 4955.49 823.402   1
   4  -8   9 3395.44 748.792   1
   4   4   9 4555.15 973.750   3
   4  -8   9 4463.48 797.842   2
   8  -4   9 4912.67 1011.45   3
  -8   4   9 2777.96 347.982   1
   4  -8   9 2788.15 767.052   3
  -4  -4   9 4312.80 939.957   2
   4   4   9 4014.06 622.383   1
  -8   4   9 4310.36 879.581   3
  -3  -5  -7 2761.54 484.808   1
  -3  -5  -7 3885.28 485.408   4
  -8   5  -4 24593.5 1206.85   1
   8  -3  -4 25476.9 1176.68   3
   3  -8  -4 24132.1 1204.05   2
   3  -8  -4 26630.2 1148.87   4
   3  -8  -4 23302.7 587.173   1
  -3  -5  -4 25991.0 1026.16   4
  -8   5  -4 23772.5 542.949   4
  -3  -5  -4 26119.9 999.135   1
   3  -8  -4 24981.9 1307.04   3
   5   3  -4 25562.8 992.538   3
  -5   8  -4 23991.2 609.992   4
  -3  -5  -4 25570.3 1114.19   2
   5   3  -1 30595.2 1084.21   4
   5   3  -1 28362.2 979.434   1
  -3  -5  -1 29346.1 963.254   1
   3  -8  -1 29307.1 1008.73   3
   3  -8  -1 31499.7 1111.97   2
  -8   5  -1 29035.4 1030.92   3
   5   3  -1 30962.2 1181.83   2
  -5   8  -1 30108.6 904.151   2
  -5   8  -1 29285.9 907.438   4
  -3  -5  -1 30179.3 1052.30   4
   5   3  -1 30081.4 586.970   3
  -8   5  -1 31416.8 1100.75   1
   3  -8  -1 29684.3 1068.12   4
  -3  -5  -1 30635.9 1056.32   2
   8  -3  -1 27600.3 863.217   1
  -5   8  -1 30368.4 940.962   3
   8  -3  -1 29307.0 1007.31   3
  -5   8   2 6400.26 600.497   3
   3  -8   2 5830.07 427.149   4
   5   3   2 6906.69 535.399   4
  -8   5   2 6567.43 554.768   3
   3  -8   2 6498.85 510.310   2
  -3  -5   2 6655.31 562.348   4
   5   3   2 6579.92 533.049   2
  -5   8   2 6395.79 551.566   4
  -5   8   2 5673.27 561.230   2
   3  -8   2 6611.00 444.955   3
   8  -3   2 5431.42 293.880   2
   8  -3   2 6388.03 579.293   1
   5   3   2 5953.73 508.561   1
  -8   5   2 6523.51 405.853   1
  -3  -5   2 6993.25 663.375   2
   3  -8   5 7756.64 783.695   1
   5   3   5 6793.98 615.389   1
   5   3   5 8036.78 608.866   4
  -3  -5   5 8288.59 636.660   4
   3  -8   5 7677.05 401.636   4
  -5   8   5 7262.74 707.395   4
  -8   5   5 7345.58 343.652   1
  -3  -5   5 8049.22 843.857   2
  -8   5   5 8108.99 783.370   3
  -3  -5   5 7471.74 619.528   3
   8  -3   5 9196.14 517.933   2
  -5   8   5 7792.44 857.986   3
   8  -3   5 8167.45 743.825   1
   3  -8   5 9404.11 764.692   2
   5   3   5 7967.51 700.158   2
   5   3   5 8005.36 881.288   3
   3  -8   8 9485.16 997.157   2
  -3  -5   8 8505.12 1062.20   2
   8  -3   8 10112.3 969.493   1
   3  -8   8 10078.0 1058.06   3
   3  -8   8 9645.27 1011.93   1
  -5   8   8 10216.2 1146.44   3
   8  -3   8 9805.91 789.275   2
   5   3   8 9621.24 838.099   1
  -3  -5   8 8727.43 897.724   1
   5   3   8 6688.43 645.195   4
   5   3   8 9188.66 1147.59   3
  -8   5   8 8816.02 1051.56   3
  -3  -5   8 8061.07 655.561   4
  -3  -5   8 9711.95 989.324   3
   5   3  11 1398.36 558.148   1
   3  -8  11 2534.67 928.668   3
   8  -3  11 1820.90 689.296   1
  -3  -5  11 2914.81 858.749   3
  -3  -5  11 1810.58 858.036   2
  -5   8  11 3682.39 1108.92   3
  -8   5  11 3073.57 926.511   3
   5   3  11 4998.38 1164.20   3
  -3  -5  11 2589.56 742.449   1
   3  -8  11 1846.56 857.186   2
   3  -8  11 1042.73 633.722   1
   8  -3  11 1732.22 955.254   3
  -2  -6  -8 4000.43 545.919   1
   8  -2  -5 3906.43 601.705   3
   6   2  -5 2881.50 504.615   3
  -2  -6  -5 3873.02 571.076   2
  -2  -6  -5 4518.37 473.804   1
   2  -8  -5 3699.50 509.070   4
  -2  -6  -5 3759.35 481.742   4
   2  -8  -5 4308.76 312.156   1
   2  -8  -2 17269.7 887.403   2
  -6   8  -2 19299.8 667.943   2
   8  -2  -2 18571.8 817.661   3
  -6   8  -2 18716.1 677.528   4
   2  -8  -2 17645.2 871.051   4
   6   2  -2 19259.9 1048.71   2
   6   2  -2 18562.4 617.045   3
  -2  -6  -2 18526.2 873.079   4
  -8   6  -2 17560.3 911.116   1
   2  -8  -2 19330.8 645.837   1
   6   2  -2 18951.5 910.240   4
  -2  -6  -2 18409.3 742.955   1
   8  -2  -2 18981.8 725.842   1
   2  -8  -2 16841.3 877.660   3
  -2  -6  -2 20050.1 932.451   2
   2  -8   1 13740.1 545.877   3
   8  -2   1 11767.5 645.755   3
   6   2   1 12929.4 706.469   4
   6   2   1 13136.4 710.616   2
  -2  -6   1 13908.0 823.546   2
   2  -8   1 13543.6 694.845   4
  -6   8   1 14511.9 763.046   4
  -8   6   1 13642.9 618.482   1
   8  -2   1 13274.7 588.240   2
   8  -2   1 12924.8 735.962   1
   2  -8   1 14585.7 748.487   2
  -6   8   1 13420.7 734.730   2
  -8   6   1 12615.3 748.994   3
  -2  -6   1 13886.4 741.039   4
  -6   8   1 13099.0 730.007   3
   6   2   1 12452.3 687.167   1
   8  -2   4 9444.67 503.530   4
   8  -2   4 8695.14 469.530   2
  -6   8   4 9284.07 804.949   3
   8  -2   4 7879.99 706.681   1
  -8   6   4 7088.26 742.094   3
   2  -8   4 8307.55 713.735   2
  -2  -6   4 8842.18 605.893   4
   6   2   4 9916.44 668.346   2
   6   2   4 10017.1 719.906   1
  -2  -6   4 9122.34 871.613   2
  -6   8   4 8549.22 687.231   4
  -2  -6   4 9473.51 588.704   3
   6   2   4 8939.10 600.551   4
  -6   8   4 9104.94 818.909   2
   2  -8   4 9060.01 530.389   4
  -8   6   4 7664.66 289.164   1
  -2  -6   7 21689.8 1252.07   3
  -2  -6   7 20373.3 1438.72   2
   6   2   7 18104.5 1157.63   2
  -8   6   7 18704.8 1362.54   3
   2  -8   7 21062.2 1352.90   1
   6   2   7 20326.2 911.019   4
  -2  -6   7 19369.2 1237.69   1
  -2  -6   7 20185.2 943.734   4
   2  -8   7 20110.8 1314.64   3
   6   2   7 20112.1 1129.59   1
   8  -2   7 20664.4 1238.04   1
   2  -8   7 20866.2 1307.99   2
  -6   8   7 21843.8 1500.47   3
   6   2   7 20265.4 1517.00   3
   8  -2   7 19006.3 992.943   2
   2  -8   7 19064.9 643.348   4
   2  -8  10 3618.41 832.911   2
  -2  -6  10 4152.74 808.463   1
  -2  -6  10 3096.50 437.046   4
   8  -2  10 4936.78 1099.24   3
   2  -8  10 2840.20 828.526   3
  -6   8  10 4703.19 1045.93   3
  -2  -6  10 3356.29 821.806   3
  -2  -6  10 2830.34 854.521   2
  -8   6  10 6331.64 1069.24   3
   8  -2  10 2443.44 657.963   1
   6   2  10 4528.65 1103.23   3
   2  -8  10 3414.32 755.800   1
   6   2  10 3403.26 646.939   1
   1  -8  -6 1514.45 282.639   1
  -1  -7  -6 1890.50 465.687   4
   1  -8  -6 1607.43 447.774   4
  -1  -7  -6 1519.38 329.323   1
  -1  -7  -3 26035.2 1133.44   2
   8  -1  -3 22389.3 961.488   3
  -8   7  -3 23732.5 653.175   4
  -7   8  -3 23894.5 1169.18   1
   1  -8  -3 24355.8 774.946   1
   1  -8  -3 24511.6 1054.40   4
  -1  -7  -3 23736.5 1118.92   3
  -1  -7  -3 24833.5 868.025   1
   1  -8  -3 22131.7 1116.30   2
   1  -8  -3 22239.4 1134.93   3
  -7   8  -3 24088.9 671.622   4
  -7   8  -3 24050.3 710.763   2
  -1  -7  -3 23567.5 1044.96   4
   7   1  -3 23734.7 891.141   3
  -8   7  -3 23459.8 1147.19   1
   1  -8   0 590.902 323.761   4
   8  -1   0 460.729 308.504   1
   1  -8   0 543.935 342.301   2
  -8   7   0 369.567 300.999   3
   1  -8   0 510.647 201.396   3
  -7   8   0 114.160 265.537   1
  -8   7   0 529.096 241.172   2
   8  -1   0 730.477 268.812   3
  -7   8   0 1080.44 327.308   3
   7   1   0 480.295 289.998   1
   7   1   0 543.039 325.809   4
  -7   8   0 533.821 266.307   4
  -7   8   0 545.815 251.887   2
   8  -1   0 724.948 292.882   2
  -1  -7   0 212.731 236.036   1
  -8   7   0 325.790 261.451   1
  -1  -7   0 265.247 295.785   2
  -1  -7   0 678.404 360.742   4
  -1  -7   0 416.111 164.093   3
   7   1   0 578.756 200.186   3
   7   1   0 338.046 319.100   2
  -7   8   3 1872.67 395.572   4
  -7   8   3 2615.37 495.787   2
   1  -8   3 2464.83 371.879   4
  -1  -7   3 1995.00 339.240   4
  -8   7   3 2043.61 209.397   1
   8  -1   3 1881.71 425.513   1
   7   1   3 2509.54 466.000   1
   8  -1   3 2259.99 306.442   2
  -1  -7   3 2970.63 529.549   2
   1  -8   3 2149.84 447.005   2
  -7   8   3 2595.05 515.327   3
   8  -1   3 2821.28 388.232   4
   7   1   3 2462.15 377.146   2
  -8   7   3 3030.00 497.135   3
   7   1   3 2617.91 381.651   4
   7   1   6 487.117 343.984   2
   8  -1   6 387.717 315.288   2
   1  -8   6 455.572 247.705   4
  -1  -7   6 212.435 276.690   4
   7   1   6 818.571 432.070   1
  -1  -7   6 1036.02 524.166   2
   8  -1   6 479.298 439.286   1
   1  -8   6 213.010 406.117   2
   1  -8   6 54.8371 357.785   3
  -7   8   6 1209.90 535.284   3
  -8   7   6 279.799 472.349   3
   7   1   6 470.202 279.059   4
   1  -8   6 603.127 421.442   1
  -1  -7   6 427.937 349.525   3
   8  -1   6 523.038 235.906   4
   7   1   9 3116.97 643.451   1
   8  -1   9 2828.72 664.308   1
   7   1   9 2870.17 784.873   3
   1  -8   9 3159.25 707.971   1
   1  -8   9 1763.91 586.542   2
  -1  -7   9 1816.41 660.676   2
  -8   7   9 4427.09 849.546   3
   1  -8   9 2252.58 250.174   4
   8  -1   9 2842.83 843.543   3
   1  -8   9 3188.55 744.691   3
  -1  -7   9 2882.08 683.330   1
  -7   8   9 2788.40 842.635   3
  -1  -7   9 2848.78 401.168   4
  -1  -7   9 2914.89 685.352   3
   0  -8  -7 407.504 305.905   1
   0  -8  -7 653.981 413.344   4
  -8   8  -4 11582.2 396.839   4
   8   0  -4 12694.3 799.412   3
   0  -8  -4 12692.1 956.922   3
  -8   8  -4 13128.4 977.386   1
   0  -8  -4 13322.4 653.576   1
   0  -8  -4 13189.8 837.885   4
   0  -8  -4 12491.4 876.246   2
  -8   8  -1 97.9610 288.178   3
   0  -8  -1-98.9266 317.938   2
  -8   8  -1 186.057 185.715   2
   8   0  -1 291.519 244.681   3
   0  -8  -1 26.7981 239.313   1
  -8   8  -1-182.204 281.007   1
  -8   8  -1 31.8934 230.819   4
   0  -8  -1-91.3835 298.002   4
   0  -8  -1 318.479 231.256   3
   8   0  -1 288.284 252.522   1
   0  -8   2 44020.7 782.753   3
  -8   8   2 44056.3 1370.41   4
   8   0   2 45659.4 1303.51   4
  -8   8   2 44241.0 950.376   1
   0  -8   2 44137.8 1271.64   4
   8   0   2 44171.3 1153.30   2
  -8   8   2 45005.5 1438.26   3
   8   0   2 43784.6 1362.34   1
   0  -8   2 45206.8 1466.26   2
  -8   8   2 46930.3 1447.81   2
  -8   8   5-10.1191 395.704   3
   0  -8   5 135.357 246.128   4
   0  -8   5 51.0496 429.961   2
   8   0   5-63.3685 348.299   1
   8   0   5 240.012 233.490   4
   0  -8   5 312.719 305.874   3
  -8   8   5 63.0372 328.021   4
   8   0   5 61.9458 253.936   2
   0  -8   8 8410.63 912.409   3
   0  -8   8 6600.39 844.548   1
   8   0   8 6265.77 453.377   4
   8   0   8 7525.29 868.153   1
   0  -8   8 8286.59 1015.41   2
   8   0   8 6075.92 1016.77   3
   8   0   8 4780.85 678.794   2
   0  -8   8 6856.72 530.977   4
  -8   8   8 5670.07 952.148   3
   0  -8  11 62.6672 617.782   3
   8   0  11 542.509 913.897   3
   8   0  11-303.708 564.987   1
  -8   8  11-1124.20 887.654   3
   0  -8  11 620.782 733.988   2
   0  -8  11 6.14239 561.602   1
  -9   0  -6 2615.56 357.231   4
  -9   0  -3 38.1598 352.523   1
   0   9  -3-35.6231 303.317   4
  -9   0  -3 211.209 266.372   2
  -9   0  -3-80.8218 257.061   4
   9  -9  -3-342.063 360.350   3
   0   9  -3 654.442 448.659   2
   9  -9  -3 33.4948 153.654   1
   0   9   0 13143.6 542.814   3
  -9   0   0 13577.1 822.855   4
   0   9   0 14247.9 848.292   4
  -9   0   0 13703.7 805.885   1
   9  -9   0 13512.2 786.457   1
   0   9   0 15268.4 938.865   2
  -9   0   0 13214.9 821.510   2
   9  -9   0 12734.6 812.549   3
   0   9   3 162.735 374.206   2
   0   9   3 329.524 354.630   3
   9  -9   3 216.673 122.236   2
  -9   0   3 57.2688 266.971   1
  -9   0   3-434.383 341.075   4
   0   9   3 206.955 358.376   4
  -9   0   3 198.495 266.405   3
   9  -9   3-64.4488 327.200   3
  -9   0   3 21.2739 430.931   2
   9  -9   3-71.7808 345.241   1
   0   9   6 3576.90 395.329   1
  -9   0   6 2995.78 424.963   1
  -9   0   6 3214.01 721.093   2
  -9   0   6 2504.83 546.852   4
   9  -9   6 3589.44 408.751   2
   9  -9   6 2619.84 597.548   1
  -9   0   6 3714.66 576.313   3
   0   9   6 3014.75 680.315   3
  -9   0   9-478.886 742.465   2
  -9   0   9 545.531 438.351   4
  -9   0   9 227.592 445.363   1
   9  -9   9-317.160 528.541   1
   9  -9   9 636.625 478.640   2
   0   9   9 709.365 659.659   3
   0   9   9 58.2214 279.122   1
  -9   0   9 58.6416 552.300   3
  -8  -1  -7 14764.0 728.500   4
  -9   1  -7 13574.6 584.673   4
  -8  -1  -4 8403.12 572.277   2
  -9   1  -4 8600.54 504.117   2
  -9   1  -4 8160.47 554.251   4
  -8  -1  -4 7694.04 591.948   4
  -1   9  -4 7329.58 540.333   4
   1   8  -4 8536.57 628.278   4
  -1   9  -4 9861.53 865.154   2
   1   8  -4 8326.92 845.426   2
  -8  -1  -4 7624.63 712.263   1
   9  -8  -4 8684.77 832.298   3
  -9   1  -4 9248.77 780.717   1
  -1   9  -1 16541.4 830.729   4
  -9   1  -1 15017.4 715.370   2
  -1   9  -1 16857.3 554.126   3
   1   8  -1 16697.9 868.330   4
   8  -9  -1 17230.3 917.969   3
   8  -9  -1 17218.5 748.953   1
   9  -8  -1 15647.8 696.801   1
  -1   9  -1 17023.5 950.272   2
   1   8  -1 14267.5 365.578   3
  -8  -1  -1 15797.9 841.292   4
  -9   1  -1 15820.7 891.331   1
   1   8  -1 16875.8 982.036   2
  -9   1  -1 16926.5 850.294   4
  -8  -1  -1 17769.2 893.411   1
  -8  -1  -1 15910.3 790.439   2
   9  -8  -1 14047.3 853.611   3
   8  -9   2 7800.20 406.683   2
  -1   9   2 7271.37 620.020   3
  -8  -1   2 7750.33 478.671   3
   1   8   2 6753.56 526.363   1
   1   8   2 7508.14 654.894   4
   1   8   2 7236.31 614.922   3
  -1   9   2 7540.74 677.513   2
  -9   1   2 7731.29 669.144   4
   8  -9   2 7346.70 630.251   3
  -8  -1   2 7533.16 592.600   1
   9  -8   2 7369.62 664.756   3
   8  -9   2 6367.53 638.576   1
   9  -8   2 8370.49 716.532   1
  -1   9   2 7322.08 667.550   4
  -9   1   2 6445.08 693.466   2
  -9   1   2 7899.44 565.145   3
  -8  -1   2 6932.30 753.894   2
   1   8   2 8215.08 728.685   2
  -9   1   2 7215.00 568.419   1
  -8  -1   2 6740.70 642.513   4
  -8  -1   5 11707.8 844.687   3
  -8  -1   5 10971.2 846.660   4
   8  -9   5 11223.8 955.347   1
  -9   1   5 11078.2 854.363   3
  -1   9   5 10326.8 968.291   3
   1   8   5 11844.4 890.426   4
  -9   1   5 10780.4 847.761   4
   1   8   5 12466.5 690.962   1
   9  -8   5 9078.42 450.283   2
   8  -9   5 10580.3 584.521   2
  -8  -1   5 12007.9 735.654   1
  -8  -1   5 9409.64 963.512   2
   1   8   5 9349.70 935.769   3
  -1   9   5 11101.3 565.325   1
  -1   9   5 10523.3 839.690   4
  -9   1   5 10186.2 651.555   1
   9  -8   5 8638.08 866.276   1
  -8  -1   8 4824.49 579.504   1
   8  -9   8 8948.42 1046.10   1
  -1   9   8 6338.83 467.674   1
   9  -8   8 7553.48 952.935   1
   9  -8   8 6331.06 686.742   2
  -1   9   8 6686.46 1035.98   3
  -9   1   8 5184.76 561.395   1
   1   8   8 7376.53 610.238   1
  -8  -1   8 7872.90 861.093   4
  -8  -1   8 7822.55 1091.80   2
   1   8   8 5602.83 953.363   3
   9  -8   8 6368.61 591.915   2
  -8  -1   8 7355.92 877.611   3
  -9   1   8 7350.46 929.295   3
  -9   1   8 7294.21 809.893   4
   8  -9   8 7266.91 751.975   2
  -1   9  11 6080.49 1234.10   3
  -8  -1  11 5273.50 1016.65   3
  -8  -1  11 6108.65 1307.39   2
   1   8  11 6162.36 1239.08   3
  -9   1  11 6249.06 868.709   4
  -8  -1  11 4866.66 795.470   4
  -9   1  11 5133.73 1049.34   3
   8  -9  11 5698.62 1016.59   1
  -9   1  11 6525.53 1343.56   2
   8  -9  11 4860.60 1182.90   3
   9  -8  11 7175.50 1083.56   1
   9  -8  11 7435.48 1405.46   3
  -7  -2  -8 1099.52 304.681   4
  -7  -2  -5 21342.2 1107.08   1
  -7  -2  -5 21258.6 986.463   2
  -9   2  -5 20876.1 720.117   4
  -7  -2  -5 21567.3 908.733   4
  -2   9  -5 21250.7 822.259   4
   7  -9  -2 15420.6 582.605   1
  -7  -2  -2 15700.1 852.634   1
  -7  -2  -2 14946.6 800.614   4
  -7  -2  -2 14982.2 747.019   2
   2   7  -2 15636.5 822.548   4
  -2   9  -2 14008.9 821.345   2
  -9   2  -2 15167.1 752.694   4
   9  -7  -2 15115.3 896.087   3
   7  -9  -2 14376.9 885.429   3
  -9   2  -2 14870.3 873.193   1
  -2   9  -2 14006.0 731.691   4
  -9   2  -2 15080.3 571.849   2
   2   7  -2 14804.3 964.379   2
   9  -7  -2 15980.2 611.345   1
   2   7   1 12960.8 810.734   2
  -2   9   1 13002.9 690.360   3
   7  -9   1 13428.9 738.342   3
  -7  -2   1 14341.6 825.363   4
  -7  -2   1 13966.3 755.910   1
   2   7   1 14454.2 836.577   4
  -9   2   1 13620.9 693.864   3
  -2   9   1 15032.3 854.367   2
  -9   2   1 13749.4 718.083   1
   7  -9   1 14406.2 696.272   4
  -9   2   1 12413.5 795.793   4
  -9   2   1 13115.8 849.082   2
   2   7   1 12992.2 703.042   1
   9  -7   1 13397.9 783.772   3
  -7  -2   1 14101.9 520.006   3
  -2   9   1 11170.2 758.847   4
   7  -9   1 13209.3 593.826   2
   7  -9   1 13276.2 799.844   1
  -7  -2   1 14489.0 930.110   2
   9  -7   1 13853.2 802.705   1
   2   7   1 13413.3 642.479   3
   2   7   4 1659.08 462.463   2
  -2   9   4 1219.11 436.472   3
   7  -9   4 1148.55 439.167   1
   7  -9   4 1317.21 405.386   3
  -2   9   4 1226.37 470.047   2
  -7  -2   4 1146.92 279.296   3
  -9   2   4 1806.76 441.706   3
  -2   9   4 1504.29 419.737   4
  -9   2   4 1431.27 281.446   1
   2   7   4 1224.85 307.610   1
   7  -9   4 790.412 269.910   2
  -7  -2   4 1943.60 358.587   1
   2   7   4 1139.97 412.737   4
   2   7   4 1186.01 452.637   3
  -7  -2   4 1958.77 457.510   4
   9  -7   4 670.134 401.010   1
  -7  -2   4 1477.18 585.616   2
  -7  -2   7 2197.78 504.042   3
  -7  -2   7 2086.51 624.836   2
  -7  -2   7 2065.42 430.624   1
   2   7   7 2297.64 416.907   1
   9  -7   7 2833.97 363.700   2
  -2   9   7 1310.45 622.802   3
  -9   2   7 2431.87 380.295   1
   9  -7   7 2176.52 415.142   2
   7  -9   7 2562.30 626.619   1
   2   7   7 1533.13 657.156   3
  -9   2   7 3189.34 621.837   3
   2   7   7 2345.38 555.036   4
  -7  -2   7 2292.95 521.264   4
   7  -9   7 2978.68 519.426   2
   9  -7   7 2021.54 591.308   1
  -2   9   7 2150.05 269.936   1
  -9   2  10 935.679 392.368   1
  -2   9  10 3016.78 1002.75   3
  -7  -2  10 1980.29 587.355   1
   7  -9  10 1868.08 776.176   1
   2   7  10 4450.51 1046.25   3
   7  -9  10 2756.35 721.473   2
   7  -9  10 2119.50 806.362   3
   2   7  10 2532.04 486.300   1
   9  -7  10 1616.48 537.242   2
  -7  -2  10 1782.73 735.378   3
   9  -7  10 2578.94 715.725   1
  -9   2  10 2394.82 658.560   4
  -7  -2  10 3494.33 1042.41   2
  -7  -2  10 1991.92 531.138   4
  -9   2  10 2865.58 864.553   3
   9  -7  10 2376.68 799.707   3
  -9   3  -6 10339.7 399.493   4
  -6  -3  -6 12795.4 920.007   1
  -6  -3  -6 12674.8 731.707   4
   3   6  -3 4667.55 503.876   4
  -6  -3  -3 5595.82 591.897   1
  -6  -3  -3 4364.73 476.354   2
  -9   3  -3 4518.15 406.300   4
   9  -6  -3 5615.66 602.037   3
  -6  -3  -3 5475.41 531.520   4
  -3   9  -3 5119.14 435.542   4
   6  -9  -3 4286.82 254.371   1
  -9   3  -3 3621.40 246.953   2
   6  -9  -3 4180.89 590.894   3
  -3   9  -3 4935.80 539.776   2
   9  -6  -3 4749.67 331.940   1
  -9   3  -3 5383.70 620.933   1
   3   6  -3 4339.10 621.111   2
  -3   9   0 16896.2 835.022   4
  -9   3   0 15980.6 773.774   3
   6  -9   0 16547.7 762.182   2
  -9   3   0 15520.7 764.673   2
  -6  -3   0 16799.9 888.089   2
   3   6   0 16877.9 865.888   4
  -9   3   0 16829.3 811.472   1
  -3   9   0 18092.7 870.795   2
   6  -9   0 16230.1 795.565   1
   6  -9   0 17038.6 821.913   3
   3   6   0 16445.7 500.801   3
   9  -6   0 15092.6 760.819   1
   6  -9   0 16595.7 799.538   4
   3   6   0 16997.1 935.004   2
  -6  -3   0 17076.1 822.422   1
  -3   9   0 17566.9 729.922   3
  -6  -3   0 17107.4 882.227   4
   9  -6   0 17150.2 857.073   3
   6  -9   3 409.947 221.613   2
  -9   3   3 393.202 251.834   1
  -3   9   3 682.355 403.559   2
   6  -9   3 568.627 425.883   1
   3   6   3 437.235 357.290   3
  -6  -3   3 453.906 326.420   4
   6  -9   3 319.439 293.367   3
   9  -6   3-187.013 338.699   3
   3   6   3 781.690 325.602   1
  -3   9   3 184.043 323.409   4
   6  -9   3 347.077 201.731   4
  -9   3   3 660.261 329.889   3
  -3   9   3-2.41881 384.625   3
   9  -6   3 795.844 396.083   1
  -6  -3   3 415.022 289.525   1
   3   6   3 706.371 366.547   4
  -6  -3   3 226.107 211.629   3
   3   6   3-78.9656 323.797   2
  -6  -3   3 721.441 531.463   2
  -3   9   6 6246.79 852.434   3
   6  -9   6 4955.93 581.706   2
   9  -6   6 6076.52 433.928   2
   3   6   6 6404.34 875.447   3
  -6  -3   6 5426.97 614.427   3
   3   6   6 5458.10 604.771   4
   6  -9   6 6385.34 800.356   1
   3   6   6 6138.32 594.363   1
   9  -6   6 5399.54 452.068   2
  -9   3   6 6862.01 776.924   3
   9  -6   6 6253.34 719.868   1
  -9   3   6 6319.29 468.683   1
  -6  -3   6 6616.10 898.846   2
  -6  -3   6 5212.29 588.644   4
   6  -9   9-367.482 603.791   1
   3   6   9-174.782 666.455   3
  -6  -3   9 266.380 377.954   4
   9  -6   9-256.722 507.532   1
  -9   3   9-288.301 315.830   1
  -6  -3   9 603.231 524.531   3
   3   6   9-150.698 361.570   1
  -6  -3   9-39.1965 722.087   2
   6  -9   9 281.543 488.099   2
  -6  -3   9 278.617 444.808   1
  -3   9   9-143.084 612.100   3
   9  -6   9 402.532 491.503   2
   6  -9   9-38.7978 557.337   3
  -9   3   9-578.306 546.069   3
  -5  -4  -7 14499.2 976.223   1
  -5  -4  -7 16314.0 868.028   4
  -4   9  -4 230.343 193.102   4
   9  -5  -4 158.878 367.828   3
  -9   4  -4 28.1074 170.901   4
  -5  -4  -4 780.379 333.279   2
  -5  -4  -4 67.6137 276.194   4
   4   5  -4 294.364 302.239   4
   5  -9  -4-122.683 366.476   3
  -4   9  -4-178.624 321.489   2
   5  -9  -4 369.895 350.430   4
  -9   4  -4 144.729 327.000   1
  -5  -4  -4 695.811 343.195   1
   5  -9  -1 27946.6 1066.80   4
  -5  -4  -1 28677.3 1058.57   2
  -9   4  -1 28339.0 1078.49   1
  -9   4  -1 27967.7 765.712   2
  -9   4  -1 26984.6 1031.25   3
   4   5  -1 30285.8 1240.78   2
   9  -5  -1 28142.0 907.755   1
  -5  -4  -1 30062.3 1050.25   1
  -4   9  -1 28348.5 1008.22   2
  -4   9  -1 28694.3 900.255   3
   4   5  -1 27592.7 1070.09   4
   5  -9  -1 26663.5 1028.30   3
  -4   9  -1 29145.9 1004.26   4
   5  -9  -1 27342.9 1042.59   2
  -5  -4  -1 28793.5 1069.00   4
   9  -5  -1 29128.3 1091.53   3
   9  -5   2 5620.16 554.866   3
   4   5   2 4899.44 532.873   3
   5  -9   2 5280.82 577.140   1
  -5  -4   2 4934.66 537.137   4
  -4   9   2 5091.86 534.199   3
   9  -5   2 4797.25 538.447   1
  -5  -4   2 4770.15 262.742   3
  -4   9   2 5016.69 566.770   2
   5  -9   2 3871.28 378.772   4
   5  -9   2 5741.07 473.426   3
  -4   9   2 5043.76 531.397   4
  -5  -4   2 5232.52 652.757   2
   4   5   2 4310.18 494.201   4
  -9   4   2 4212.63 399.472   1
   4   5   2 4804.56 531.014   2
   5  -9   2 4989.21 446.384   2
   4   5   2 4661.66 487.509   1
  -5  -4   2 4319.95 472.736   1
  -9   4   2 4573.67 509.950   3
  -5  -4   5 13343.6 794.256   3
   5  -9   5 12297.7 442.760   4
   9  -5   5 13189.6 498.915   2
   5  -9   5 14483.2 1039.99   1
  -9   4   5 13816.9 983.640   3
  -4   9   5 15102.0 970.964   4
   4   5   5 13084.3 1099.69   3
   4   5   5 11311.9 883.541   2
   5  -9   5 14311.9 844.056   2
   4   5   5 14951.2 833.756   1
   9  -5   5 15481.6 1020.84   1
  -5  -4   5 14402.6 1158.37   2
  -9   4   5 13013.5 572.954   1
  -4   9   5 13145.7 1069.58   3
  -5  -4   5 13046.5 826.412   4
   4   5   5 14269.2 870.682   4
   4   5   8 2676.34 508.327   1
   9  -5   8 2694.06 456.754   2
  -4   9   8 1453.66 580.144   3
   5  -9   8 2039.95 579.004   2
  -9   4   8 2043.00 288.847   1
  -9   4   8 2136.36 336.613   1
   9  -5   8 3695.76 703.222   1
  -5  -4   8 3284.89 682.241   3
  -5  -4   8 2255.17 569.117   1
   4   5   8 1968.49 502.074   4
  -5  -4   8 2500.60 490.870   4
   4   5   8 1920.19 710.209   3
   5  -9   8 2361.03 658.648   1
  -5  -4   8 2671.12 758.175   2
  -9   4   8 2654.45 704.945   3
   5  -9  11 9320.28 1146.17   2
  -4   9  11 7209.22 1374.67   3
  -5  -4  11 4679.87 1148.77   2
   5  -9  11 9714.19 1380.97   3
   9  -5  11 8336.08 1095.80   1
  -5  -4  11 7820.86 1142.03   3
  -9   4  11 6679.53 930.773   4
  -9   4  11 8103.05 1275.41   3
   5  -9  11 6727.55 1078.46   1
   4   5  11 8609.84 1371.57   3
   9  -5  11 7808.56 1429.04   3
  -5  -4  11 7402.00 970.290   1
  -4  -5  -8 2796.92 444.057   4
  -4  -5  -8 2329.00 526.666   1
  -4  -5  -5 13265.4 889.490   2
   9  -4  -5 13643.2 1008.75   3
  -4  -5  -5 14411.1 826.878   4
  -4  -5  -5 13364.8 812.691   1
  -5   9  -5 12154.1 451.185   4
   4  -9  -5 14468.1 927.086   4
   4  -9  -2 5145.17 562.760   3
   5   4  -2 6411.85 697.968   2
   5   4  -2 5015.59 277.768   3
  -4  -5  -2 6205.78 558.329   4
  -4  -5  -2 5064.87 533.846   2
  -5   9  -2 5787.80 483.833   2
   5   4  -2 6626.54 579.255   4
  -4  -5  -2 5857.55 524.599   1
  -5   9  -2 6177.83 457.884   4
   4  -9  -2 6199.16 587.619   2
   9  -4  -2 5578.64 428.476   1
   9  -4  -2 6196.73 570.409   3
  -9   5  -2 4027.51 501.914   1
   4  -9  -2 5307.86 538.509   4
  -9   5   1 29515.4 963.097   1
  -5   9   1 28533.7 1078.08   4
   4  -9   1 28906.7 905.127   3
  -9   5   1 28289.7 1064.33   3
   4  -9   1 29418.1 995.661   4
   5   4   1 28387.6 1023.01   1
   5   4   1 28951.0 1089.77   4
   9  -4   1 29178.8 1102.42   1
   9  -4   1 29066.1 1064.33   3
   4  -9   1 30252.3 1008.16   2
   5   4   1 29024.7 1119.37   2
  -4  -5   1 29973.1 1051.61   1
  -5   9   1 28131.6 1021.31   3
  -4  -5   1 27614.4 1096.07   4
  -5   9   1 30074.0 1129.65   2
  -4  -5   1 25633.8 1121.37   2
  -5   9   4-139.894 406.601   3
  -9   5   4-37.7515 318.317   3
   5   4   4 569.736 462.128   3
  -5   9   4 661.400 433.699   2
   9  -4   4 243.947 124.716   2
   4  -9   4 71.8691 327.140   2
   5   4   4 321.624 328.993   2
  -5   9   4 655.988 348.333   4
   4  -9   4-352.024 412.784   1
   4  -9   4 416.939 209.167   4
  -4  -5   4-23.1938 423.754   2
  -4  -5   4 33.1868 290.451   4
   5   4   4 194.726 294.224   4
   9  -4   4 747.505 370.854   1
   5   4   4 189.838 337.339   1
  -9   5   4 332.353 204.305   1
  -4  -5   4 457.653 245.687   3
  -9   5   7 17544.1 1284.05   3
  -9   5   7 13409.4 561.164   1
  -5   9   7 16844.0 1371.28   3
   5   4   7 16566.2 1388.47   3
   4  -9   7 19335.3 1351.10   1
  -4  -5   7 17128.5 966.334   4
  -4  -5   7 18187.2 1402.72   2
   5   4   7 16542.5 957.358   4
   5   4   7 16761.6 992.348   1
  -4  -5   7 16754.8 1089.00   3
   4  -9   7 18624.9 1198.16   2
   9  -4   7 16696.9 846.483   2
  -9   5   7 13738.2 513.438   1
   9  -4   7 17115.3 1206.16   1
   4  -9  10 1714.14 681.974   1
   5   4  10 2187.08 930.451   3
  -4  -5  10 825.261 378.660   4
  -4  -5  10 1826.76 686.175   3
  -9   5  10 1852.20 803.121   3
  -4  -5  10 1560.34 621.316   1
  -5   9  10 1612.26 777.243   3
   5   4  10 1105.32 533.200   1
   9  -4  10 2922.18 1061.86   3
   4  -9  10 3521.79 849.777   2
   9  -4  10 1405.03 639.119   1
  -4  -5  10 768.344 738.658   2
   4  -9  10 1786.21 780.425   3
  -3  -6  -6 6158.96 586.293   1
  -3  -6  -6 7355.28 641.850   4
  -9   6  -3 1096.94 415.805   1
  -3  -6  -3 425.160 318.386   4
  -3  -6  -3 750.735 349.797   1
  -3  -6  -3 418.026 316.658   2
   9  -3  -3-88.9710 338.232   3
  -6   9  -3 451.240 200.347   4
   3  -9  -3 130.962 165.881   1
   3  -9  -3-468.843 382.885   3
   6   3  -3 154.321 196.192   3
   3  -9  -3 35.6599 352.435   2
   9  -3  -3 97.5728 200.015   1
  -6   9  -3 220.503 240.877   2
   3  -9  -3 166.264 303.689   4
   3  -9   0 19961.5 901.481   4
   6   3   0 18564.5 849.548   1
   6   3   0 21027.6 945.710   4
  -9   6   0 21566.6 934.211   3
  -3  -6   0 21241.4 892.069   1
   6   3   0 21036.0 997.979   2
  -9   6   0 19856.8 876.260   1
   9  -3   0 19276.9 848.125   3
  -3  -6   0 21689.3 964.526   4
  -6   9   0 22192.2 910.031   3
   3  -9   0 19497.6 783.881   3
  -3  -6   0 22414.4 1001.72   2
   9  -3   0 20343.4 881.825   1
  -6   9   0 19202.2 856.243   4
  -6   9   0 21982.4 852.672   2
   6   3   0 21216.7 627.894   3
   3  -9   0 19797.4 891.610   2
  -9   6   3 3172.63 506.185   3
   6   3   3 4661.13 501.897   4
  -6   9   3 3846.12 537.889   3
   9  -3   3 4100.29 287.819   2
   6   3   3 5116.06 540.832   2
   3  -9   3 4150.67 404.216   3
  -3  -6   3 4613.09 327.088   3
  -6   9   3 4148.49 526.980   4
   3  -9   3 4129.34 398.421   4
   6   3   3 4372.03 524.341   1
   3  -9   3 4064.54 484.132   2
  -3  -6   3 4574.34 516.348   4
   9  -3   3 4809.15 593.735   1
  -6   9   3 5556.94 643.902   2
  -3  -6   3 5680.71 687.764   2
  -9   6   3 4967.76 357.947   1
  -3  -6   6 13012.1 887.893   3
   6   3   6 13219.4 1165.27   3
  -6   9   6 13118.4 1127.48   3
   3  -9   6 12331.6 532.824   4
  -3  -6   6 12929.4 810.875   4
   6   3   6 12682.6 969.257   2
   3  -9   6 15103.5 1138.64   1
   9  -3   6 12777.8 989.226   1
   6   3   6 13248.1 807.755   4
  -9   6   6 12339.1 1080.77   3
   6   3   6 13897.8 922.080   1
   3  -9   6 10933.4 909.441   2
  -3  -6   6 12942.8 1110.42   2
   9  -3   6 13975.6 714.372   2
   3  -9   9 136.503 499.387   3
  -3  -6   9 77.1731 459.569   1
   9  -3   9 468.674 692.516   3
   3  -9   9 2.18681 520.023   2
  -6   9   9 211.053 601.696   3
  -9   6   9 611.200 703.377   3
   6   3   9-540.780 620.076   3
  -3  -6   9-286.484 497.061   3
  -3  -6   9 34.6675 323.924   4
   6   3   9 112.732 451.424   1
   9  -3   9 1021.27 567.325   1
  -3  -6   9-440.076 725.466   2
   3  -9   9 234.446 566.470   1
   2  -9  -7 1773.17 272.103   1
  -2  -7  -7 2937.82 478.751   1
  -2  -7  -7 2851.29 459.696   4
   2  -9  -4 1556.39 454.772   3
  -2  -7  -4 1391.51 369.128   4
   9  -2  -4 904.264 339.604   3
   2  -9  -4 1446.61 275.243   1
  -9   7  -4 1929.92 482.387   1
  -2  -7  -4 1244.19 356.754   1
  -7   9  -4 1419.79 203.119   4
   2  -9  -4 1108.99 437.320   2
  -9   7  -4 1440.08 199.668   4
  -2  -7  -4 1122.46 405.920   2
   7   2  -4 1822.62 374.277   3
   2  -9  -4 1109.05 395.320   4
  -9   7  -4 1142.79 175.462   4
   2  -9  -1 13085.7 790.303   2
  -9   7  -1 13067.7 466.283   2
  -9   7  -1 12920.1 772.340   1
  -2  -7  -1 13815.4 805.360   2
   7   2  -1 12468.3 866.369   2
  -7   9  -1 15664.1 797.942   3
   2  -9  -1 13307.4 717.168   3
  -2  -7  -1 14905.4 833.315   4
  -9   7  -1 14289.2 791.840   3
   7   2  -1 14047.8 542.756   3
  -7   9  -1 14006.0 625.468   2
   7   2  -1 13411.0 735.222   1
   2  -9  -1 12941.5 788.004   4
   9  -2  -1 14034.0 728.783   3
   9  -2  -1 13811.7 711.855   1
  -2  -7  -1 13122.7 716.076   1
  -7   9  -1 13473.7 666.835   4
   7   2  -1 14359.5 847.711   4
   9  -2   2 13283.7 577.746   2
  -9   7   2 14539.5 606.404   1
   7   2   2 13664.7 767.486   4
   2  -9   2 14126.8 835.010   2
  -2  -7   2 14132.6 779.233   4
  -7   9   2 15272.7 852.758   4
   9  -2   2 13001.9 796.114   1
  -2  -7   2 16146.5 977.390   2
  -9   7   2 14306.4 860.008   3
   2  -9   2 14472.9 730.403   4
   7   2   2 13057.4 784.857   1
   7   2   2 14307.4 760.269   2
  -7   9   2 15617.3 890.003   2
  -7   9   2 14931.8 858.112   3
   2  -9   2 14142.6 581.541   3
   9  -2   5 22572.7 772.128   4
   7   2   5 20727.1 939.197   4
  -9   7   5 20643.5 1242.43   3
  -2  -7   5 20978.7 974.531   3
  -2  -7   5 20561.2 940.017   4
   9  -2   5 21566.3 817.405   2
   9  -2   5 21064.2 1153.68   1
  -7   9   5 20047.1 1122.27   4
   7   2   5 23178.2 1091.41   2
  -7   9   5 21007.3 1324.00   3
   7   2   5 19836.8 1064.33   1
  -2  -7   5 21433.6 1296.38   2
   2  -9   5 21766.0 1183.51   2
   2  -9   5 20652.8 802.099   4
   2  -9   8 2691.09 712.694   1
  -7   9   8 1726.40 696.587   3
  -2  -7   8 1577.19 483.676   3
  -2  -7   8 1435.51 369.885   4
   7   2   8 967.723 457.594   1
   7   2   8 1754.40 664.360   3
   9  -2   8 1863.21 600.725   1
  -2  -7   8 1809.32 610.216   2
  -9   7   8 1952.79 648.620   3
   2  -9   8 1383.15 563.590   2
  -2  -7   8 874.885 461.399   1
   2  -9   8 1645.72 591.385   3
   9  -2   8 1410.07 471.831   2
   7   2   8 921.920 358.330   4
   2  -9   8 777.651 179.933   4
   9  -2  11 6350.58 1320.04   3
  -9   7  11 4950.13 1072.80   3
  -2  -7  11 5504.51 1042.14   3
   7   2  11 6034.83 1305.11   3
   2  -9  11 5210.90 1058.03   2
  -2  -7  11 4259.33 1054.93   2
  -7   9  11 8879.85 1442.48   3
   7   2  11 6403.72 888.430   1
   2  -9  11 6366.02 1120.96   3
  -2  -7  11 6133.15 1020.23   1
   2  -9  11 3909.02 856.073   1
   9  -2  11 6372.42 983.548   1
   1  -9  -8 5127.66 458.062   1
  -1  -8  -8 5642.17 598.886   1
   8   1  -5 10913.2 819.516   3
  -1  -8  -5 9301.60 744.879   4
  -1  -8  -5 11040.1 685.628   1
  -1  -8  -5 10750.7 903.037   2
   1  -9  -5 11048.5 810.973   4
   1  -9  -5 11024.8 587.394   1
   1  -9  -5 10557.6 895.019   2
   9  -1  -5 10353.9 860.274   3
   1  -9  -2 6989.35 684.171   2
  -9   8  -2 6578.39 292.244   2
   1  -9  -2 5718.29 579.698   3
   1  -9  -2 6322.19 618.854   4
   9  -1  -2 7263.86 552.086   1
  -1  -8  -2 6664.60 520.226   1
  -8   9  -2 7452.68 626.818   3
  -8   9  -2 6044.90 454.435   4
   1  -9  -2 6524.68 469.119   1
  -9   8  -2 6853.77 458.708   4
  -9   8  -2 5550.88 602.877   1
  -1  -8  -2 6154.71 609.468   4
  -8   9  -2 7644.63 419.944   2
   8   1  -2 6306.92 528.412   1
   9  -1  -2 6967.80 554.000   3
   8   1  -2 7044.19 480.896   3
  -8   9  -2 5453.55 621.296   1
  -1  -8  -2 6197.09 560.687   3
  -1  -8  -2 6345.81 633.134   2
   1  -9   1 16659.5 845.062   4
  -9   8   1 15175.5 774.610   2
  -1  -8   1 16961.9 945.944   2
   8   1   1 16978.7 750.849   3
  -9   8   1 15362.7 700.499   1
  -9   8   1 16452.3 880.081   3
   1  -9   1 16783.2 904.150   2
  -8   9   1 16615.4 723.623   1
   9  -1   1 15879.0 781.564   3
   9  -1   1 16532.9 842.904   4
   9  -1   1 16133.2 770.604   2
   8   1   1 18672.3 907.785   4
   9  -1   1 16046.9 842.351   1
   8   1   1 15325.9 826.712   1
  -8   9   1 18025.0 916.574   3
   8   1   1 16717.1 833.313   2
  -8   9   1 17651.0 883.356   4
  -8   9   1 17040.0 823.601   2
   1  -9   1 16611.4 574.251   3
  -1  -8   1 16629.0 860.045   4
  -9   8   4 6589.14 738.640   3
  -9   8   4 9287.86 797.159   4
   1  -9   4 8794.76 604.855   4
  -1  -8   4 7967.90 611.271   4
  -1  -8   4 8056.06 813.977   2
  -1  -8   4 8083.46 541.525   3
   9  -1   4 8671.81 782.413   1
   8   1   4 7830.53 604.304   4
  -8   9   4 7769.70 794.787   3
   9  -1   4 8039.09 579.121   4
   8   1   4 8434.02 728.916   1
   8   1   4 7901.58 598.446   2
   1  -9   4 8719.35 786.861   2
   9  -1   4 7420.38 508.045   2
  -8   9   4 7276.95 712.605   4
  -8   9   7 14867.4 1271.85   3
  -9   8   7 13944.7 1244.75   3
  -1  -8   7 15499.7 1216.26   1
   1  -9   7 16827.6 1309.08   1
   8   1   7 14206.5 1038.64   1
   8   1   7 12389.0 920.155   2
   9  -1   7 14162.5 1074.12   1
   1  -9   7 16765.3 1252.28   2
   1  -9   7 17257.0 1191.18   3
   1  -9   7 14807.2 733.899   4
  -1  -8   7 15040.6 1224.38   2
  -1  -8   7 15585.9 835.411   4
   8   1   7 15876.2 1405.11   3
   8   1   7 14651.3 776.109   4
   9  -1   7 15657.7 925.024   2
   9  -1   7 13787.9 630.088   4
  -1  -8   7 15663.6 1089.32   3
  -1  -8  10 3693.78 842.270   1
  -1  -8  10 3754.10 947.337   2
  -9   8  10 3174.98 812.661   3
   1  -9  10 3543.20 810.488   1
   1  -9  10 3578.40 859.093   3
   1  -9  10 2644.07 778.637   2
  -1  -8  10 4296.50 827.986   3
   8   1  10 2966.58 992.721   3
   9  -1  10 3114.97 722.357   1
   8   1  10 4222.99 762.882   1
  -8   9  10 4588.58 1044.48   3
   9  -1  10 5312.32 1164.23   3
   0  -9  -6 4119.45 543.037   4
   0  -9  -6 3625.47 434.504   1
   9   0  -6 3554.46 620.494   3
   0  -9  -3 287.808 370.100   3
   0  -9  -3-264.347 259.941   1
   9   0  -3-66.1940 262.434   1
   0  -9  -3-386.369 344.606   4
  -9   9  -3 8.08231 132.287   2
  -9   9  -3 102.200 197.416   4
  -9   9  -3 122.476 368.137   1
   0  -9  -3 32.0629 329.353   2
   9   0  -3-374.009 274.424   3
  -9   9   0 15252.8 799.670   4
   9   0   0 15210.0 881.440   2
   0  -9   0 14665.0 836.104   4
   9   0   0 15702.4 840.461   1
  -9   9   0 14761.3 689.801   2
   0  -9   0 14892.4 862.984   2
   9   0   0 15797.9 721.703   3
  -9   9   0 15106.0 787.273   1
  -9   9   0 15096.9 858.735   3
   9   0   0 16469.9 899.018   4
   0  -9   0 15107.0 592.888   3
  -9   9   3-111.903 336.270   4
  -9   9   3 274.792 355.549   2
   0  -9   3 177.240 264.799   4
  -9   9   3 140.341 342.140   3
   9   0   3-32.4590 239.440   2
   9   0   3 168.200 274.296   4
   9   0   3-72.7676 376.836   1
   0  -9   3 162.132 171.735   3
   0  -9   3 72.7652 378.679   2
   0  -9   6 2660.76 503.815   3
  -9   9   6 2108.03 666.857   3
   9   0   6 2550.88 404.642   4
   9   0   6 2028.21 400.013   2
   0  -9   6 2943.06 642.329   2
   9   0   6 2747.39 575.024   1
   0  -9   6 2298.61 379.456   4
  -9   9   9 220.748 568.272   3
   0  -9   9 1301.03 624.356   2
   0  -9   9-15.3031 238.380   4
   9   0   9 652.819 642.981   3
   0  -9   9 234.383 453.981   1
   9   0   9 210.490 485.883   1
   0  -9   9 335.696 508.559   3
 -10   0  -7 364.759 292.410   4
 -10   0  -4 53424.1 1353.29   2
   0  10  -4 53934.7 1971.62   2
 -10   0  -4 49545.4 1420.60   4
   0  10  -4 53378.0 1532.53   4
   0  10  -1-239.260 373.412   2
   0  10  -1 108.226 152.345   3
 -10   0  -1 341.102 363.663   1
  10 -10  -1 32.5747 254.284   1
 -10   0  -1 34.1722 306.546   2
  10 -10  -1-348.311 337.692   3
 -10   0  -1-541.549 336.339   4
   0  10  -1-132.341 301.472   4
  10 -10   2 39822.7 855.853   2
 -10   0   2 42553.8 1523.14   4
  10 -10   2 44860.3 1601.36   1
   0  10   2 41303.7 1392.96   3
 -10   0   2 44902.1 1752.18   2
  10 -10   2 40542.7 1437.79   3
   0  10   2 43905.9 1597.16   4
 -10   0   2 41684.2 1376.20   1
 -10   0   2 42800.2 1192.91   3
   0  10   2 40637.6 1594.26   2
  10 -10   5 601.241 436.343   1
 -10   0   5 654.950 368.894   3
 -10   0   5 283.116 317.504   1
 -10   0   5-275.721 484.720   2
   0  10   5 139.088 232.237   1
   0  10   5 635.530 484.750   3
 -10   0   5 208.315 393.485   4
  10 -10   5 78.5787 143.712   2
  10 -10   8 10564.6 1142.41   1
  10 -10   8 10258.2 701.208   2
 -10   0   8 11792.5 1100.82   3
  10 -10   8 11224.1 776.822   2
 -10   0   8 13565.0 1126.38   4
 -10   0   8 13421.7 1419.95   2
   0  10   8 10405.2 648.510   1
   0  10   8 12689.7 1367.78   3
 -10   0   8 8740.20 756.553   1
 -10   0  11 243.390 664.029   3
 -10   0  11-702.784 567.760   4
  10 -10  11 167.455 747.074   1
  10 -10  11-220.697 822.140   3
   0  10  11-797.159 996.537   3
 -10   0  11 598.207 1034.58   2
  -9  -1  -8 38.3927 253.760   4
 -10   1  -8 429.586 196.313   4
  -1  10  -5 3172.59 426.000   4
 -10   1  -5 2622.73 365.231   4
   1   9  -5 3590.33 495.035   4
 -10   1  -5 2470.31 347.379   2
  -9  -1  -5 2001.20 372.763   4
  -9  -1  -5 2867.52 415.501   2
  -1  10  -2 3223.73 522.466   2
  -9  -1  -2 2044.62 376.153   2
 -10   1  -2 2794.85 519.002   1
 -10   1  -2 2652.40 422.424   4
  -1  10  -2 3133.90 442.231   4
   9 -10  -2 2720.15 498.728   3
  -9  -1  -2 2720.92 457.819   4
   1   9  -2 2502.90 423.535   4
   9 -10  -2 2956.34 336.878   1
   1   9  -2 2904.56 578.665   2
  10  -9  -2 2819.02 507.604   3
 -10   1  -2 3116.44 398.079   2
  -9  -1  -2 2302.70 497.509   1
  10  -9  -2 2263.96 317.907   1
  10  -9   1 1408.98 381.643   3
  -9  -1   1 1865.28 307.738   3
   9 -10   1 2013.37 458.210   3
   1   9   1 3012.58 538.991   2
  -9  -1   1 1420.86 367.742   1
   9 -10   1 1815.60 412.827   1
   1   9   1 1753.75 336.739   3
  10  -9   1 1577.08 417.764   1
  -1  10   1 1248.53 431.183   4
 -10   1   1 1124.43 384.375   1
  -1  10   1 1628.28 330.289   3
  -9  -1   1 2013.36 459.148   4
  -1  10   1 1511.26 430.067   2
 -10   1   1 2317.11 460.772   4
   9 -10   1 1511.26 266.931   2
 -10   1   1 1725.79 335.448   3
   1   9   1 1648.63 427.802   4
  -9  -1   1 2627.08 547.061   2
 -10   1   1 1870.81 478.294   2
  -1  10   4 5539.13 678.354   4
  10  -9   4 7234.54 783.461   1
  -9  -1   4 6992.15 610.419   3
 -10   1   4 6173.08 838.725   2
  -1  10   4 5825.01 710.398   3
 -10   1   4 6144.53 553.084   1
   1   9   4 6783.06 781.427   3
   9 -10   4 5670.34 649.835   3
   9 -10   4 6551.45 788.607   1
  -9  -1   4 6163.52 668.464   4
   9 -10   4 5747.08 356.180   2
  -9  -1   4 5488.79 773.852   2
   1   9   4 5726.18 508.932   1
  -9  -1   4 6179.74 575.167   1
 -10   1   4 5074.44 570.522   3
 -10   1   4 5442.31 660.841   4
   1   9   4 5548.50 654.281   4
 -10   1   7 4178.05 659.979   4
 -10   1   7 3855.88 667.939   3
  -1  10   7 4235.68 834.144   3
   1   9   7 5195.15 525.529   1
  10  -9   7 3976.35 414.701   2
  10  -9   7 4140.54 449.020   2
  -9  -1   7 4433.27 570.932   1
 -10   1   7 4221.23 521.623   1
   9 -10   7 4173.20 507.187   2
   9 -10   7 3728.82 689.983   1
  -1  10   7 4340.53 404.109   1
   1   9   7 3865.98 770.766   3
  10  -9   7 6196.62 887.861   1
  -9  -1   7 4377.78 664.219   4
  -9  -1   7 4768.21 669.178   3
  -9  -1   7 4854.97 925.144   2
   9 -10  10 1723.48 785.083   1
  10  -9  10 809.017 586.644   1
   9 -10  10 891.893 798.659   3
   1   9  10 2240.89 969.084   3
  -9  -1  10 848.965 517.278   1
  -9  -1  10 1139.26 644.106   3
 -10   1  10 1258.13 694.575   3
 -10   1  10 1417.68 496.237   1
  10  -9  10 1308.45 469.891   2
  -9  -1  10 2635.97 1063.00   2
 -10   1  10 886.949 835.359   2
 -10   1  10 1518.23 525.861   4
  -9  -1  10 1509.78 583.122   4
  -1  10  10 2256.91 904.574   3
   9 -10  10 1342.73 561.930   2
 -10   2  -6 5442.49 416.623   4
  -8  -2  -6 5017.01 511.207   4
  -2  10  -3 8419.57 766.686   2
 -10   2  -3 7939.89 452.944   2
   2   8  -3 8699.71 674.216   4
  10  -8  -3 8182.50 426.241   1
 -10   2  -3 7755.24 563.058   4
   2   8  -3 7247.07 798.557   2
  -8  -2  -3 7592.95 624.079   4
  -2  10  -3 9341.04 639.963   4
   8 -10  -3 8075.27 372.981   1
  -8  -2  -3 8064.86 618.452   2
  10  -8  -3 8294.72 789.370   3
 -10   2  -3 8130.17 736.023   1
   8 -10  -3 7256.06 769.162   3
  -8  -2  -3 8564.19 720.128   1
  -2  10   0 6989.45 642.111   4
  -2  10   0 6370.79 462.911   3
  10  -8   0 7111.47 573.626   1
  10  -8   0 5243.35 561.072   3
   2   8   0 5561.99 590.482   4
  -2  10   0 6944.62 617.644   2
 -10   2   0 6332.88 568.398   2
   2   8   0 6402.26 654.868   2
   8 -10   0 6263.23 553.740   1
 -10   2   0 6369.53 618.975   4
  -8  -2   0 7096.70 648.309   4
 -10   2   0 6199.83 534.694   3
   8 -10   0 6092.10 599.989   3
   8 -10   0 5766.90 493.686   2
 -10   2   0 6044.62 593.120   1
   2   8   0 6464.79 368.704   3
  -8  -2   0 6967.72 612.314   1
  -8  -2   0 6302.62 640.466   2
  -2  10   3 9965.08 823.568   3
   8 -10   3 8822.25 810.598   1
 -10   2   3 8584.58 673.091   3
   2   8   3 9275.98 783.228   2
 -10   2   3 9340.27 638.645   1
  -8  -2   3 10318.3 942.173   2
  -8  -2   3 10269.3 588.588   3
   8 -10   3 8607.59 686.623   3
  10  -8   3 9203.72 775.674   3
  10  -8   3 9092.80 796.125   1
   2   8   3 9778.72 788.597   4
   2   8   3 9731.91 655.899   1
   8 -10   3 10101.9 499.760   2
  -8  -2   3 9733.40 679.804   1
  -8  -2   3 9819.33 754.665   4
  -2  10   3 8635.24 790.265   2
  -2  10   3 10558.3 817.690   4
   2   8   3 10544.3 837.631   3
  -8  -2   6 1188.58 384.781   1
   8 -10   6 840.222 414.965   1
   2   8   6 290.003 449.211   3
   2   8   6 538.838 283.824   1
  -8  -2   6 390.512 350.095   3
 -10   2   6 375.212 382.202   3
   2   8   6 442.095 413.010   4
   8 -10   6 791.333 340.368   2
  -8  -2   6 547.618 371.435   4
  10  -8   6 1056.74 420.374   1
  10  -8   6 671.545 198.733   2
  -8  -2   6 1349.69 645.337   2
  10  -8   6 355.354 201.260   2
  -2  10   6 400.416 538.604   3
 -10   2   6 787.240 300.460   1
 -10   2   9 5091.13 873.538   3
  -8  -2   9 3618.80 948.453   2
 -10   2   9 3537.42 568.420   1
   2   8   9 6033.91 1099.34   3
   8 -10   9 5650.67 936.509   1
  -8  -2   9 4345.19 751.228   1
  10  -8   9 4801.32 913.761   1
  -2  10   9 2881.30 857.699   3
  -8  -2   9 4984.54 736.160   4
  10  -8   9 4484.89 646.890   2
   8 -10   9 3899.97 661.881   2
 -10   2   9 5279.22 826.344   4
   2   8   9 3870.92 545.458   1
  -8  -2   9 3785.45 769.478   3
  -7  -3  -7 258.448 277.160   4
  10  -7  -4 36427.1 1579.98   3
  -7  -3  -4 41156.4 1482.06   1
  -3  10  -4 38944.1 1122.58   4
   3   7  -4 39654.2 1730.76   2
  10  -7  -4 36046.8 748.646   1
   3   7  -4 39921.9 1376.09   4
  -3  10  -4 40851.2 1528.75   2
  -7  -3  -4 36631.8 1254.02   4
 -10   3  -4 37995.1 1041.72   4
 -10   3  -4 36921.4 1532.08   1
  -7  -3  -4 40977.1 1341.01   2
  10  -7  -1 5492.68 478.277   1
  10  -7  -1 5249.80 566.485   3
   7 -10  -1 6125.97 595.468   3
   3   7  -1 6229.15 664.393   2
  -3  10  -1 5479.26 565.028   2
   7 -10  -1 5222.93 544.367   2
   3   7  -1 5907.76 574.245   4
   7 -10  -1 5370.69 472.263   1
 -10   3  -1 5080.36 535.481   4
 -10   3  -1 5890.77 618.806   1
  -7  -3  -1 5916.74 590.800   4
 -10   3  -1 5460.92 444.355   2
  -3  10  -1 5420.43 418.538   3
  -7  -3  -1 6273.74 578.805   1
  -7  -3  -1 4936.89 533.254   2
   7 -10  -1 5109.02 551.572   4
  -3  10  -1 5183.33 522.536   4
   3   7   2 16697.9 892.597   3
   7 -10   2 16240.7 665.556   2
   3   7   2 15247.0 941.591   2
  -7  -3   2 18015.2 585.343   3
  -3  10   2 15643.7 947.126   2
   7 -10   2 16625.1 853.257   3
  -7  -3   2 18184.0 1100.92   2
 -10   3   2 17397.0 826.587   1
   7 -10   2 17205.1 737.149   4
  -3  10   2 17318.9 924.282   3
  10  -7   2 17256.9 949.465   3
 -10   3   2 17314.5 873.383   3
  10  -7   2 15836.5 931.771   1
   7 -10   2 16754.0 1001.60   1
   3   7   2 15968.8 800.977   1
   3   7   2 17041.2 943.028   4
  -7  -3   2 16551.1 868.200   1
  -7  -3   2 17486.0 948.619   4
  -3  10   2 16419.4 956.636   4
   3   7   5 1190.09 397.728   4
  -7  -3   5 1412.40 363.776   1
  10  -7   5 1377.02 148.851   2
  -7  -3   5 1636.91 429.088   4
 -10   3   5 1856.48 345.716   1
  -7  -3   5 2578.54 411.513   3
  10  -7   5 2176.84 534.305   1
  10  -7   5 1604.48 142.198   2
  -3  10   5 2312.91 563.780   3
   7 -10   5 2356.14 566.183   1
   7 -10   5 2471.24 431.000   2
  -7  -3   5 1313.76 593.515   2
   3   7   5 3012.35 423.073   1
   3   7   5 2477.97 583.680   3
 -10   3   5 2767.05 554.352   3
  -3  10   8 16659.7 1530.28   3
  -7  -3   8 15912.4 1045.13   4
  10  -7   8 14810.1 785.197   2
 -10   3   8 14681.4 1295.99   3
   3   7   8 16247.5 947.709   1
   7 -10   8 14906.6 1025.57   2
  10  -7   8 15112.2 886.214   2
 -10   3   8 13485.2 799.944   1
  -7  -3   8 15395.3 1457.92   2
   7 -10   8 15062.0 1293.84   1
  10  -7   8 16451.2 1280.16   1
   3   7   8 18067.6 1639.01   3
  -7  -3   8 16860.2 1220.63   3
 -10   3   8 12585.9 698.665   1
  -7  -3  11 1322.06 691.790   3
  10  -7  11 504.115 650.336   1
 -10   3  11 593.050 691.697   3
  -7  -3  11 863.064 883.039   2
   7 -10  11 11.8850 708.861   1
   7 -10  11 1183.90 851.775   3
   7 -10  11 585.664 635.209   2
 -10   3  11 1094.00 716.449   4
  10  -7  11-620.597 817.363   3
   3   7  11-1007.94 809.420   3
  -7  -3  11 767.681 544.731   1
  -3  10  11 1241.57 1008.89   3
  -6  -4  -8 4249.88 529.479   4
  -6  -4  -5 12306.1 756.348   4
 -10   4  -5 11138.2 493.413   4
  -4  10  -5 12180.6 580.350   4
  -6  -4  -5 12511.9 862.178   1
  -6  -4  -5 13343.0 847.688   2
  -4  10  -2 12730.5 692.069   4
   6 -10  -2 11488.7 816.399   3
 -10   4  -2 11742.3 686.928   4
  -6  -4  -2 13017.5 787.964   4
   6 -10  -2 13982.0 853.391   4
   6 -10  -2 13270.4 604.334   1
 -10   4  -2 13668.1 864.541   1
  -6  -4  -2 13370.6 800.960   1
   4   6  -2 12347.6 917.747   2
  10  -6  -2 13471.1 866.895   3
  10  -6  -2 12253.0 610.173   1
  -6  -4  -2 11965.1 755.046   2
   4   6  -2 12445.7 789.259   4
 -10   4  -2 13313.9 459.457   2
   6 -10  -2 13233.0 862.728   2
  -4  10  -2 13817.1 802.193   2
  10  -6   1 2854.92 430.685   3
   6 -10   1 2235.25 363.802   4
   4   6   1 2161.37 458.475   2
   4   6   1 2535.10 387.302   1
   6 -10   1 1942.53 336.797   2
 -10   4   1 2863.98 420.266   3
  -6  -4   1 2309.08 526.330   2
  -4  10   1 2236.78 399.652   3
  -4  10   1 2465.22 418.813   2
  -4  10   1 2736.46 450.244   4
   4   6   1 2695.44 450.379   4
  -6  -4   1 2452.55 471.523   4
 -10   4   1 2069.37 364.389   1
   6 -10   1 1950.94 423.039   1
  -6  -4   1 2256.57 413.702   1
   4   6   1 2441.18 343.828   3
  10  -6   1 1960.56 434.438   1
   6 -10   1 2487.46 390.750   3
   6 -10   4 8196.23 587.741   2
  -6  -4   4 8203.89 873.807   2
   4   6   4 9378.33 877.946   3
   6 -10   4 8924.52 467.595   4
 -10   4   4 7432.49 521.318   1
  -6  -4   4 8056.08 664.739   1
   4   6   4 6804.00 574.183   1
  -4  10   4 7846.68 845.973   3
   6 -10   4 8666.92 872.768   1
   6 -10   4 7539.45 640.260   3
 -10   4   4 8963.52 765.771   3
  -6  -4   4 7981.33 689.658   4
  -4  10   4 8777.15 765.964   4
   4   6   4 8614.46 704.329   4
   4   6   4 8231.95 742.225   2
  10  -6   4 8278.53 801.538   1
  -6  -4   4 8753.08 554.325   3
  10  -6   7 1670.31 366.156   2
   4   6   7 2183.97 739.604   3
 -10   4   7 2309.56 625.158   3
   6 -10   7 1372.54 554.104   1
  -6  -4   7 1775.57 460.541   3
   4   6   7 1159.28 442.043   4
  10  -6   7 1490.63 565.579   1
  -6  -4   7 1675.90 703.675   2
   4   6   7 1727.68 431.294   1
  10  -6   7 856.869 255.561   2
  -4  10   7 2507.69 739.313   3
  -6  -4   7 1183.51 411.501   4
   6 -10   7 1552.83 525.400   2
 -10   4   7 1539.12 294.587   1
   6 -10  10 7161.49 923.640   2
   6 -10  10 7059.28 1109.20   3
  10  -6  10 5638.20 749.214   2
  10  -6  10 5466.44 1141.02   3
  -6  -4  10 5350.70 855.599   1
  -6  -4  10 6354.58 716.795   4
  -6  -4  10 6236.85 929.055   3
  -6  -4  10 5108.41 1123.10   2
 -10   4  10 5876.05 1049.82   3
   4   6  10 5809.77 713.704   1
   6 -10  10 8324.35 1140.22   1
   4   6  10 6742.93 1235.06   3
  -4  10  10 8261.84 1306.82   3
  10  -6  10 6472.27 1014.10   1
  -5  -5  -6 4629.96 572.424   1
  -5  -5  -6 4868.53 635.270   2
  -5  -5  -6 4637.15 537.799   4
  10  -5  -3 14283.4 923.568   3
   5   5  -3 13077.6 995.046   2
   5   5  -3 14008.8 868.698   4
   5 -10  -3 13107.4 483.768   1
   5 -10  -3 13590.2 930.099   3
   5 -10  -3 12093.8 874.470   2
  -5  10  -3 13510.6 651.731   4
 -10   5  -3 13321.3 651.544   4
  -5  -5  -3 13448.4 812.567   1
  -5  -5  -3 12454.8 794.743   4
   5 -10  -3 13034.2 865.485   4
 -10   5  -3 13971.9 933.522   1
  10  -5  -3 12973.5 596.065   1
  -5  -5  -3 12844.0 819.108   2
  -5  10  -3 14857.4 812.805   2
 -10   5   0 24069.7 1002.15   3
  -5  -5   0 24442.2 1099.47   2
   5   5   0 23482.0 1040.41   4
  -5  10   0 24668.3 945.077   3
  10  -5   0 23107.7 951.801   1
   5 -10   0 22066.7 918.273   3
 -10   5   0 22311.9 961.213   1
  10  -5   0 21881.8 961.877   3
   5 -10   0 24435.5 1010.26   4
   5   5   0 25158.8 1137.29   2
  -5  10   0 24162.4 997.146   4
   5   5   0 23416.9 988.881   1
   5 -10   0 22934.5 960.347   2
  -5  10   0 24283.4 986.916   2
  -5  -5   0 22558.9 963.906   1
  -5  -5   3 12680.2 823.395   4
  -5  10   3 12359.9 906.206   2
  -5  -5   3 12841.8 1002.93   2
  -5  10   3 12548.7 917.044   3
 -10   5   3 13905.7 883.585   3
  -5  -5   3 13812.3 521.600   3
  -5  -5   3 12561.9 774.669   1
   5   5   3 12684.0 758.694   1
   5 -10   3 13714.5 643.429   4
  10  -5   3 14022.7 930.220   1
   5 -10   3 12429.2 713.900   3
 -10   5   3 11578.1 610.284   1
   5 -10   3 13695.0 745.587   2
   5 -10   3 12724.2 919.176   1
  10  -5   3 13537.4 888.955   3
   5   5   3 12979.7 824.636   4
  -5  10   3 12343.0 852.047   4
   5   5   3 11091.2 794.023   2
   5   5   3 11799.7 883.727   3
  10  -5   6 5292.25 393.319   2
   5   5   6 6017.13 849.215   3
   5 -10   6 6388.85 713.256   2
  -5  -5   6 5808.05 678.568   3
   5 -10   6 4237.58 270.446   4
  -5  10   6 4707.95 768.893   3
 -10   5   6 5515.24 753.470   3
   5   5   6 5326.46 593.667   1
   5   5   6 4697.69 625.427   4
  -5  -5   6 4773.69 776.240   2
  10  -5   6 5365.31 718.224   1
 -10   5   6 4752.62 373.876   1
  -5  -5   6 6197.44 666.940   4
   5 -10   6 5996.63 819.278   1
 -10   5   9 2668.57 297.501   1
   5 -10   9 3807.42 865.844   3
  -5  -5   9 4047.45 961.787   2
   5 -10   9 5814.84 876.766   2
   5   5   9 3543.67 897.544   3
  -5  -5   9 5252.19 808.091   3
  10  -5   9 5233.39 857.831   1
  -5  -5   9 4842.04 627.102   4
  -5  10   9 2837.89 849.618   3
   5 -10   9 4874.05 861.632   1
 -10   5   9 4572.06 852.087   3
  -5  -5   9 5121.72 838.543   1
   5   5   9 5139.61 706.890   1
  -4  -6  -7 1477.12 394.382   4
  -4  -6  -7 2402.64 512.096   1
   6   4  -4 6758.94 526.693   3
 -10   6  -4 7556.75 421.472   4
   4 -10  -4 7808.95 706.965   4
  -4  -6  -4 6767.91 652.013   2
   4 -10  -4 9779.88 871.566   2
  -4  -6  -4 8099.58 662.391   1
  -4  -6  -4 7299.73 653.001   4
  -6  10  -4 7891.06 637.802   2
 -10   6  -4 6127.53 689.658   1
  -6  10  -4 7454.77 444.570   4
  10  -4  -4 6986.03 696.767   3
   4 -10  -4 7332.73 374.699   1
  -4  -6  -1 2302.45 426.741   2
   6   4  -1 2286.90 205.742   3
 -10   6  -1 2183.68 435.049   1
  10  -4  -1 2136.63 357.942   1
 -10   6  -1 2338.38 429.115   3
   6   4  -1 1872.91 379.592   1
   4 -10  -1 2347.82 399.865   3
   4 -10  -1 2631.17 448.635   4
  -4  -6  -1 2099.35 421.788   4
  -4  -6  -1 2218.84 374.762   1
   6   4  -1 2350.96 486.579   2
  -6  10  -1 2750.31 376.312   2
  10  -4  -1 2301.06 402.453   3
  -6  10  -1 2357.44 362.136   3
  -6  10  -1 1895.36 351.357   4
   6   4  -1 1915.29 387.541   4
   4 -10  -1 1633.19 417.645   2
 -10   6   2 11448.5 610.795   1
 -10   6   2 10682.8 746.583   3
  -4  -6   2 11063.2 767.297   4
  -4  -6   2 11269.2 909.083   2
  -4  -6   2 12375.0 766.646   1
  10  -4   2 11617.8 809.641   1
   6   4   2 11857.2 765.104   4
   4 -10   2 11681.0 710.326   2
  -6  10   2 12436.9 823.602   4
  -6  10   2 10961.1 786.619   3
   6   4   2 11361.8 761.427   2
   4 -10   2 11412.0 660.324   4
  -6  10   2 13594.4 883.074   2
  10  -4   2 12466.1 814.233   3
   6   4   2 11492.0 748.544   1
   4 -10   2 11696.8 623.833   3
   6   4   5 13397.5 1113.55   3
  10  -4   5 12057.5 942.092   1
  10  -4   5 11123.2 486.774   2
 -10   6   5 10177.3 459.552   1
 -10   6   5 12239.3 982.876   3
  -4  -6   5 12390.4 737.493   3
   6   4   5 11886.6 809.395   4
   4 -10   5 10889.9 812.802   2
   4 -10   5 11859.7 1010.25   1
   4 -10   5 12428.2 577.331   4
   6   4   5 11748.9 820.427   1
  -4  -6   5 11315.8 778.261   4
   6   4   5 9904.39 800.877   2
  -4  -6   5 11729.4 1035.02   2
  -6  10   5 12151.2 1050.83   3
   4 -10   8 5192.13 838.443   3
  -4  -6   8 4504.60 577.570   4
  -6  10   8 4884.77 932.660   3
   6   4   8 3014.44 526.211   4
 -10   6   8 5246.26 871.144   3
  10  -4   8 4074.59 707.140   1
  -4  -6   8 3414.07 770.182   2
  10  -4   8 3497.26 502.403   2
  -4  -6   8 4412.07 688.440   3
   6   4   8 4796.39 658.197   1
   4 -10   8 4758.49 748.140   2
   6   4   8 5771.68 1032.68   3
   4 -10   8 4473.39 821.421   1
  10  -4  11 1866.72 986.628   3
  -4  -6  11 779.146 832.130   2
  -4  -6  11 911.694 700.813   3
   4 -10  11 2741.62 862.068   3
   6   4  11 185.233 891.518   3
  10  -4  11 612.391 655.558   1
   4 -10  11 384.658 671.339   1
  -6  10  11 219.834 791.212   3
 -10   6  11 904.646 795.264   3
  -4  -6  11 1295.97 674.862   1
   6   4  11-97.1664 509.662   1
   4 -10  11 709.693 715.949   2
  -3  -7  -8 16130.2 996.019   4
  -3  -7  -8 11697.0 870.281   1
  -3  -7  -5 2338.46 462.228   4
 -10   7  -5 1274.50 129.603   4
   7   3  -5 1907.95 441.115   3
  -3  -7  -5 1244.65 413.863   2
  10  -3  -5 1536.10 479.342   3
  -7  10  -5 1764.64 191.384   4
   3 -10  -5 2820.45 521.903   4
   3 -10  -5 1958.91 241.038   1
  -3  -7  -5 1329.07 364.947   1
  -7  10  -2 16593.9 718.581   2
   7   3  -2 14186.7 543.165   3
   3 -10  -2 13476.4 882.450   2
   3 -10  -2 15280.5 883.159   3
 -10   7  -2 16798.2 975.635   1
   3 -10  -2 15621.4 661.881   1
  10  -3  -2 16945.3 887.850   3
  -7  10  -2 15973.3 825.242   3
   7   3  -2 16811.0 958.030   4
   7   3  -2 15221.9 1017.22   2
  -3  -7  -2 16523.0 942.295   2
  10  -3  -2 15077.2 726.722   1
  -3  -7  -2 15809.6 797.279   1
  -3  -7  -2 16105.0 892.280   4
   3 -10  -2 15760.2 907.566   4
  -7  10  -2 16713.9 743.040   4
   7   3   1 5778.03 583.208   2
  -7  10   1 6379.44 579.594   2
  -7  10   1 6382.36 578.036   4
  -3  -7   1 5729.99 571.422   4
  -3  -7   1 4156.16 477.345   1
   3 -10   1 5901.75 437.129   3
 -10   7   1 5980.32 572.527   3
   7   3   1 6003.97 579.854   4
  10  -3   1 6585.88 613.744   1
   7   3   1 6875.71 602.424   1
   3 -10   1 5540.09 535.402   2
 -10   7   1 5238.84 477.327   1
  -7  10   1 5897.43 554.169   3
  10  -3   1 5714.63 548.160   3
   3 -10   1 5891.67 539.537   4
  -3  -7   1 5955.40 636.683   2
 -10   7   4 37388.0 807.883   1
  10  -3   4 38007.1 875.654   2
  -3  -7   4 39324.5 1706.35   2
   7   3   4 38167.1 1382.01   1
  -3  -7   4 38595.6 1031.87   3
  10  -3   4 39371.0 1531.87   1
   7   3   4 38069.1 1364.55   2
   3 -10   4 38242.2 1442.79   2
  -7  10   4 40655.1 1690.72   3
   3 -10   4 39503.0 1226.86   3
   7   3   4 37578.3 1313.22   4
  -3  -7   4 40001.5 1366.36   4
 -10   7   4 38096.3 1565.77   3
   3 -10   4 37748.9 1102.06   4
  -7  10   4 38255.7 1509.94   4
   3 -10   7 120.060 435.461   2
  -7  10   7-857.414 651.014   3
 -10   7   7 586.609 544.349   3
  -3  -7   7-310.104 560.595   2
   7   3   7-217.621 502.505   3
  -3  -7   7 236.678 349.940   3
  10  -3   7-186.591 442.523   1
   3 -10   7 681.195 558.098   1
  10  -3   7-0.29983 306.081   2
  -3  -7   7-282.388 312.689   4
   3 -10   7 236.911 191.423   4
   7   3   7 638.553 374.589   4
   7   3   7-303.698 441.123   1
   3 -10  10 4957.58 956.177   3
   7   3  10 6640.43 1250.18   3
  -3  -7  10 5484.06 885.102   3
  10  -3  10 5332.19 1125.59   3
   3 -10  10 4989.61 944.614   1
  -3  -7  10 4297.74 983.119   2
 -10   7  10 6135.94 1084.00   3
  -3  -7  10 5079.41 882.452   1
  -7  10  10 6176.78 1149.52   3
  10  -3  10 7008.85 972.398   1
   7   3  10 6315.69 846.281   1
   3 -10  10 6096.69 958.576   2
  -3  -7  10 4826.75 598.249   4
   8   2  -6 797.122 442.874   3
   2 -10  -6 772.396 236.363   1
  -2  -8  -6 874.444 437.390   2
  -2  -8  -6 496.729 372.966   1
   2 -10  -6 667.587 362.737   4
  -2  -8  -6 756.155 374.075   4
  -8  10  -3 11137.3 561.719   4
   2 -10  -3 10110.9 800.210   2
   8   2  -3 9364.01 579.782   3
  -8  10  -3 10179.4 548.846   2
  -2  -8  -3 11219.1 853.693   2
  -2  -8  -3 11016.0 660.250   1
 -10   8  -3 10990.9 865.019   1
   2 -10  -3 9711.85 822.171   3
  10  -2  -3 11187.1 654.718   1
   2 -10  -3 9775.87 547.783   1
  -2  -8  -3 11924.9 820.343   4
  10  -2  -3 10277.0 722.207   3
   2 -10  -3 10083.1 773.469   4
  -2  -8   0 7669.63 645.726   4
  -8  10   0 6190.45 577.424   4
  -2  -8   0 7365.68 605.995   1
 -10   8   0 7032.62 617.360   3
  -2  -8   0 6601.10 635.839   2
  -8  10   0 6952.48 588.006   3
   2 -10   0 6495.12 605.521   4
   8   2   0 7111.60 651.250   4
   8   2   0 6447.54 446.060   3
  10  -2   0 6830.98 601.772   1
   8   2   0 6953.89 641.250   2
 -10   8   0 6964.38 562.296   1
  -8  10   0 6983.93 539.378   2
   2 -10   0 6839.29 497.130   3
   2 -10   0 6468.23 623.172   2
   8   2   0 6898.04 607.785   1
  10  -2   0 6325.90 523.411   3
 -10   8   0 6364.14 468.323   2
  -2  -8   3 10524.0 741.429   4
   2 -10   3 9972.70 791.245   2
  -8  10   3 10861.8 854.328   2
  10  -2   3 8907.98 759.091   1
  -8  10   3 8424.87 778.867   3
 -10   8   3 7488.70 736.498   3
  -2  -8   3 11451.8 945.338   2
   8   2   3 10510.1 728.910   4
   2 -10   3 10677.8 560.110   3
 -10   8   3 9797.15 475.547   1
   8   2   3 10203.2 765.970   1
  10  -2   3 9161.17 509.342   2
  -2  -8   3 8881.95 400.968   3
   2 -10   3 9633.10 635.953   4
   8   2   3 8742.98 654.779   2
  -8  10   3 9144.92 740.840   4
   2 -10   6 6942.85 800.427   2
  -2  -8   6 5997.67 612.918   3
   2 -10   6 5553.29 790.363   1
   8   2   6 7162.16 713.960   2
  10  -2   6 5910.55 750.641   1
   8   2   6 5972.96 718.453   1
   8   2   6 5194.02 546.160   4
   2 -10   6 5465.24 472.030   4
  -2  -8   6 5369.76 555.903   4
  -2  -8   6 4553.12 740.596   2
 -10   8   6 6625.04 841.234   3
  10  -2   6 5064.85 481.965   2
  -8  10   6 6749.70 901.105   3
  -2  -8   9 2715.26 802.457   2
   2 -10   9 3526.64 773.820   3
   8   2   9 2745.73 979.395   3
   2 -10   9 3246.30 784.240   2
  -2  -8   9 2634.59 643.837   3
 -10   8   9 3170.18 802.355   3
  -8  10   9 3307.81 901.996   3
   2 -10   9 2542.62 736.290   1
   2 -10   9 1751.91 211.630   4
  10  -2   9 2608.00 888.828   3
  -2  -8   9 2834.89 462.157   4
   8   2   9 3373.93 724.591   1
  -2  -8   9 3436.55 742.249   1
  10  -2   9 3071.24 732.186   1
  -1  -9  -7 4761.73 521.668   1
   1 -10  -7 5189.23 467.492   1
   1 -10  -7 5705.12 687.800   4
  -1  -9  -7 5427.99 685.609   4
  -1  -9  -4 5428.62 638.763   2
   1 -10  -4 5887.46 738.791   3
  -9  10  -4 6134.89 382.605   4
  -1  -9  -4 6216.04 653.994   4
 -10   9  -4 6721.50 391.877   4
   9   1  -4 5950.06 578.883   3
   1 -10  -4 5997.32 489.472   1
   1 -10  -4 6903.07 677.263   4
   1 -10  -4 6594.31 741.459   2
  10  -1  -4 5372.52 593.727   3
  -1  -9  -4 6496.60 554.457   1
 -10   9  -1 2668.34 388.698   4
   9   1  -1 2614.01 348.051   3
  10  -1  -1 2843.50 402.321   3
   1 -10  -1 2961.41 401.882   1
   9   1  -1 2764.60 433.160   1
  -9  10  -1 3421.25 503.009   1
 -10   9  -1 2690.92 481.729   3
 -10   9  -1 3225.44 490.354   1
   1 -10  -1 2860.41 409.840   3
  10  -1  -1 1801.13 395.074   1
  -9  10  -1 2513.96 326.848   2
  -1  -9  -1 2169.28 351.248   1
   9   1  -1 2378.79 503.080   4
  -9  10  -1 3160.09 490.180   3
   9   1  -1 3585.56 556.857   2
   1 -10  -1 2988.36 497.422   2
 -10   9  -1 2851.72 302.674   2
  -9  10  -1 2650.64 405.127   4
   1 -10  -1 2580.90 467.607   4
  -1  -9  -1 3270.82 494.941   4
  -1  -9  -1 2167.85 417.154   2
  -1  -9  -1 2771.60 367.245   3
   9   1   2 2995.55 445.838   2
 -10   9   2 2495.21 519.611   3
   9   1   2 1460.58 426.115   1
  -1  -9   2 1739.64 169.634   3
   1 -10   2 2614.64 291.196   3
  -9  10   2 2495.65 460.890   3
  -1  -9   2 3291.00 556.013   2
  -9  10   2 2035.73 437.680   2
  10  -1   2 2174.95 531.723   1
 -10   9   2 2894.48 344.879   1
   9   1   2 2858.92 449.782   4
  -9  10   2 2730.84 470.195   4
   1 -10   2 2620.48 512.034   2
  10  -1   2 2095.78 402.518   4
  -1  -9   2 1964.27 412.348   4
 -10   9   2 2007.23 433.315   2
  10  -1   2 2450.42 387.457   2
   1 -10   2 2467.02 420.428   4
   9   1   5 2678.55 431.845   4
  10  -1   5 2647.73 411.490   4
   1 -10   5 2742.63 579.154   2
   9   1   5 2958.39 460.868   2
  -9  10   5 3399.73 676.944   3
  -1  -9   5 3343.98 473.766   4
  10  -1   5 2616.66 384.315   2
   1 -10   5 2920.51 433.458   4
  10  -1   5 2195.37 518.432   1
   9   1   5 3063.46 555.541   1
  -1  -9   5 2423.20 417.914   3
  -1  -9   5 2748.79 612.507   2
 -10   9   5 1735.89 547.441   3
   1 -10   8-77.4397 485.765   1
  10  -1   8-269.942 482.628   1
  -9  10   8 90.2064 505.894   3
  10  -1   8 299.464 399.656   2
  -1  -9   8-70.4053 533.613   2
  -1  -9   8 499.666 440.952   1
 -10   9   8 457.438 561.656   3
   1 -10   8 870.969 579.737   2
   9   1   8 339.512 325.362   4
   1 -10   8 896.500 501.253   3
   9   1   8 965.354 516.191   1
   9   1   8 705.101 580.554   3
  -1  -9   8 396.273 296.311   4
   1 -10   8 160.244 253.024   4
  -1  -9   8-29.7214 420.867   3
   1 -10  11 3338.17 928.828   1
  -1  -9  11 2656.16 821.768   3
   1 -10  11 3315.35 894.901   3
  10  -1  11 3780.55 1153.46   3
   9   1  11 3868.55 1152.12   3
   9   1  11 3569.06 792.000   1
 -10   9  11 4722.33 1110.42   3
  -1  -9  11 3414.01 974.292   2
  10  -1  11 2876.70 803.250   1
   1 -10  11 2890.59 865.773   2
  -1  -9  11 2279.37 811.827   1
  -9  10  11 3632.93 1033.80   3
   0 -10  -8 7654.39 612.185   1
   0 -10  -8 10862.8 943.217   4
  10   0  -5 308.778 377.503   3
   0 -10  -5-581.614 409.676   4
 -10  10  -5 45.3743 102.870   4
   0 -10  -5 14.7475 435.389   2
   0 -10  -5 111.903 267.325   1
   0 -10  -2 44083.0 1427.91   3
 -10  10  -2 46383.7 943.835   2
   0 -10  -2 42238.5 1514.66   4
   0 -10  -2 44506.7 1260.60   1
 -10  10  -2 43649.3 1510.05   3
  10   0  -2 44460.3 1366.12   1
   0 -10  -2 41024.8 1542.28   2
  10   0  -2 43504.2 1275.63   3
 -10  10  -2 45131.7 1611.24   1
 -10  10  -2 43630.5 1213.27   4
   0 -10   1-65.9183 343.388   2
  10   0   1 119.289 365.829   1
  10   0   1-144.446 355.266   4
   0 -10   1 165.351 162.618   3
 -10  10   1-248.166 274.937   1
  10   0   1-285.123 315.743   2
 -10  10   1-500.738 385.695   3
 -10  10   1 144.158 278.465   2
 -10  10   1-280.827 281.528   4
  10   0   1 269.635 281.759   3
   0 -10   1 154.233 319.500   4
  10   0   4 52902.8 1519.02   4
   0 -10   4 53045.5 1548.11   4
 -10  10   4 55342.7 1972.99   3
   0 -10   4 50833.7 1895.74   2
   0 -10   4 54315.2 1214.81   3
  10   0   4 50515.7 1394.69   2
  10   0   4 55556.6 1823.55   1
   0 -10   7 333.046 414.816   3
   0 -10   7 83.0935 473.086   1
  10   0   7 195.480 332.127   4
   0 -10   7 36.1082 296.684   4
  10   0   7-8.05420 364.501   2
   0 -10   7-834.341 555.449   2
  10   0   7 122.110 456.950   1
 -10  10   7 488.669 526.234   3
 -10  10  10 10861.6 1422.84   3
   0 -10  10 13036.1 1370.57   2
  10   0  10 9792.60 1081.31   1
   0 -10  10 10785.6 1200.60   3
   0 -10  10 11616.7 1280.06   1
  10   0  10 12172.0 1632.67   3
 -11   0  -8 2877.24 392.422   4
 -11   0  -5 112.735 253.699   2
 -11   0  -5-177.884 294.983   4
   0  11  -5 76.3905 313.789   4
 -11   0  -2 7075.75 665.392   4
 -11   0  -2 7492.48 738.802   1
 -11   0  -2 6862.09 576.173   2
  11 -11  -2 5983.54 728.081   3
   0  11  -2 6864.36 742.905   2
  11 -11  -2 7145.89 526.986   1
   0  11  -2 7163.26 681.961   4
   0  11   1-317.851 269.935   3
 -11   0   1-519.129 394.760   4
   0  11   1-316.574 362.254   4
  11 -11   1-57.7987 329.703   3
 -11   0   1 498.566 368.906   1
  11 -11   1 751.341 337.060   1
   0  11   1 264.898 362.271   2
 -11   0   1 325.697 449.936   2
 -11   0   1 44.9514 244.249   3
 -11   0   4 10692.4 1016.84   2
 -11   0   4 10244.6 899.738   4
 -11   0   4 9663.00 745.324   3
  11 -11   4 8113.70 882.251   1
   0  11   4 10991.1 949.238   3
 -11   0   4 8569.74 698.706   1
 -11   0   7 635.800 672.446   2
  11 -11   7 63.6218 562.672   1
   0  11   7 906.031 599.768   3
   0  11   7 278.199 308.385   1
  11 -11   7-39.6560 213.253   2
 -11   0   7 319.291 362.682   1
 -11   0   7-249.023 412.596   4
 -11   0   7 319.463 456.415   3
 -11   0  10 3245.64 1067.02   2
  11 -11  10 2317.15 796.403   1
 -11   0  10 2524.66 632.423   1
 -11   0  10 3262.84 841.508   3
   0  11  10 1819.59 937.077   3
 -11   0  10 3103.41 727.863   4
 -10  -1  -9 2498.19 374.691   4
  -1  11  -6 1220.59 385.590   4
   1  10  -6 1363.91 427.613   4
 -11   1  -6 668.677 273.512   4
 -10  -1  -6 1018.45 324.634   4
 -11   1  -3 2547.60 548.459   1
 -10  -1  -3 2855.11 466.248   4
  -1  11  -3 3273.75 592.288   2
 -11   1  -3 2303.01 435.538   4
   1  10  -3 2913.27 461.674   4
  10 -11  -3 3229.36 317.702   1
 -10  -1  -3 2706.74 536.565   1
  -1  11  -3 3013.86 473.714   4
   1  10  -3 2722.76 590.694   2
 -11   1  -3 2991.56 374.663   2
 -10  -1  -3 2474.84 394.428   2
  11 -10  -3 2735.69 310.556   1
 -11   1   0 345.964 285.458   3
 -11   1   0 846.875 408.693   1
  10 -11   0 496.677 292.720   2
  10 -11   0 291.350 328.664   3
 -10  -1   0-126.234 333.362   4
 -10  -1   0 214.413 380.143   1
  -1  11   0-0.42735 358.985   2
  -1  11   0-199.942 362.849   4
   1  10   0-196.373 200.401   3
   1  10   0 489.305 363.111   2
 -11   1   0 769.620 385.718   2
  11 -10   0 319.587 372.282   3
   1  10   0 217.142 332.873   4
 -11   1   0 175.303 355.116   4
  11 -10   0 81.5205 297.571   1
  -1  11   0 549.766 244.852   3
  10 -11   0-300.237 311.498   1
 -10  -1   0-60.7278 350.868   2
 -11   1   3 4760.05 636.174   4
 -11   1   3 4772.66 524.132   3
  10 -11   3 4892.90 341.749   2
   1  10   3 4082.74 624.497   2
  11 -10   3 4212.41 591.713   3
  -1  11   3 4376.84 605.525   3
 -10  -1   3 5216.60 669.542   4
 -11   1   3 3555.61 693.585   2
 -10  -1   3 4218.58 740.189   2
  -1  11   3 4694.85 626.987   4
   1  10   3 4391.36 607.725   4
 -11   1   3 4638.72 558.978   1
  10 -11   3 5146.03 693.744   1
 -10  -1   3 4543.23 473.667   3
  11 -10   3 3730.30 584.706   1
  10 -11   3 3649.42 548.088   3
 -10  -1   3 4432.57 547.735   1
   1  10   3 4245.62 586.996   3
  11 -10   6 975.429 179.113   2
   1  10   6 1535.01 630.915   3
 -10  -1   6 1002.40 376.601   1
 -10  -1   6-88.4779 573.486   2
  11 -10   6 919.262 168.841   2
 -10  -1   6 1588.25 464.767   4
 -11   1   6 1922.51 528.184   4
 -10  -1   6 1299.94 428.643   3
 -11   1   6 1936.39 673.795   2
 -11   1   6 667.266 327.939   1
   1  10   6 1298.63 337.548   1
  -1  11   6 1060.67 528.249   3
 -11   1   6 1312.89 464.233   3
  11 -10   6 1977.70 646.065   1
  10 -11   6 2245.67 662.258   1
  10 -11   6 1161.62 275.083   2
   1  10   9 922.843 725.152   3
  10 -11   9 2409.16 752.131   1
 -10  -1   9 2536.62 964.294   2
  11 -10   9 1657.58 725.892   1
  -1  11   9 2195.40 942.398   3
 -10  -1   9 2436.63 731.198   3
 -11   1   9 1754.35 915.943   2
 -11   1   9 2097.47 710.889   3
  11 -10   9 1534.89 432.210   2
 -11   1   9 1931.95 635.567   4
   1  10   9 1361.48 359.424   1
  10 -11   9 2265.71 535.113   2
 -10  -1   9 2820.99 666.237   4
 -11   2  -7 10376.9 536.003   4
  -9  -2  -7 11032.5 732.728   4
   2   9  -4 8620.20 696.728   4
  -9  -2  -4 9966.83 850.989   1
  -2  11  -4 9093.26 650.969   4
  -9  -2  -4 9878.19 701.057   2
 -11   2  -4 8847.36 492.053   2
  -9  -2  -4 10037.5 711.631   4
  11  -9  -4 9224.92 404.734   1
  -2  11  -4 10554.1 910.405   2
 -11   2  -4 9637.00 629.125   4
  -2  11  -1 27908.0 1262.15   2
 -11   2  -1 28202.4 1180.73   4
   9 -11  -1 27659.8 1222.18   3
  11  -9  -1 27666.1 1031.11   1
  11  -9  -1 27196.4 1247.82   3
  -2  11  -1 29077.3 853.139   3
  -9  -2  -1 27044.2 1131.96   2
 -11   2  -1 27276.4 1229.89   1
  -9  -2  -1 28355.0 1209.72   1
   9 -11  -1 26946.7 1122.88   2
  -9  -2  -1 28394.2 1211.57   4
   2   9  -1 27495.9 1187.92   4
   2   9  -1 29135.9 1337.11   2
   9 -11  -1 29152.6 1041.23   1
  -2  11  -1 27885.3 1170.61   4
 -11   2  -1 28582.4 1041.72   2
   2   9   2 9245.51 702.022   3
   9 -11   2 9388.25 531.983   2
   2   9   2 8984.75 664.689   1
  -2  11   2 8540.71 692.669   3
   2   9   2 9347.82 802.335   4
 -11   2   2 9899.31 685.003   3
  -9  -2   2 9668.10 537.140   3
  11  -9   2 8190.31 727.482   3
  -9  -2   2 8516.70 744.891   4
  -9  -2   2 9609.57 714.706   1
 -11   2   2 8516.95 682.182   1
 -11   2   2 8262.99 831.188   2
   9 -11   2 8748.76 721.005   3
  -2  11   2 10300.1 823.300   4
 -11   2   2 8987.82 787.594   4
  -9  -2   2 8354.88 845.378   2
   9 -11   2 9691.53 815.221   1
  11  -9   2 6873.64 716.756   1
  -2  11   2 6602.84 709.126   2
   2   9   2 9139.72 826.147   2
   2   9   5 7911.84 945.468   3
  -2  11   5 7434.34 865.167   3
  -9  -2   5 7506.73 668.155   1
   2   9   5 7548.13 607.210   1
  -9  -2   5 7510.34 964.780   2
  -9  -2   5 8763.31 702.631   3
  -9  -2   5 8003.49 771.010   4
   9 -11   5 8434.13 889.212   1
  11  -9   5 9402.27 922.102   1
 -11   2   5 6469.94 754.336   4
   9 -11   5 8004.09 519.616   2
 -11   2   5 8246.76 637.672   1
 -11   2   5 7477.79 746.032   3
 -11   2   8 5257.20 568.874   1
  11  -9   8 6457.01 547.269   2
   2   9   8 6430.43 611.085   1
  -9  -2   8 7127.69 877.783   3
 -11   2   8 8359.11 958.138   3
  11  -9   8 5559.98 476.394   2
   9 -11   8 7419.77 716.712   2
 -11   2   8 7637.17 884.912   4
  11  -9   8 8165.95 1013.27   1
  -9  -2   8 8275.57 1147.50   2
  -9  -2   8 7934.44 854.531   4
   9 -11   8 10076.2 1119.08   1
   2   9   8 9683.04 1246.05   3
  -2  11   8 7395.54 1108.04   3
  11  -9  11 4109.84 1150.68   3
 -11   2  11 5258.15 914.552   4
 -11   2  11 6223.39 1082.03   3
   2   9  11 2791.61 1108.22   3
   9 -11  11 6149.44 1086.62   1
 -11   2  11 5772.45 1368.48   2
  -2  11  11 7765.90 1398.24   3
  11  -9  11 4435.31 974.139   1
   9 -11  11 5616.42 1239.14   3
  -9  -2  11 4678.22 917.243   3
  -9  -2  11 3214.25 1158.85   2
  -9  -2  11 4284.92 801.444   4
  -8  -3  -8 1844.07 408.950   4
 -11   3  -5 9535.52 567.983   4
  -3  11  -5 8662.91 579.888   4
  -8  -3  -5 9182.15 692.903   4
   3   8  -5 7833.06 700.339   4
  -8  -3  -5 8935.63 707.154   2
   3   8  -2 24031.6 1278.32   2
  -8  -3  -2 24593.9 1041.38   2
   8 -11  -2 26402.1 1238.16   3
 -11   3  -2 25263.6 1038.20   4
  -3  11  -2 24063.4 1018.50   4
   8 -11  -2 21901.2 1116.22   2
   8 -11  -2 22515.3 801.178   1
  -8  -3  -2 24034.3 1102.77   4
  -8  -3  -2 23442.5 1113.47   1
   3   8  -2 24482.2 1111.97   4
 -11   3  -2 25224.7 1199.33   1
  11  -8  -2 24526.5 1198.95   3
  -3  11  -2 24665.9 1167.30   2
  11  -8  -2 23629.4 851.148   1
 -11   3  -2 23605.8 762.688   2
   3   8   1 2233.13 480.568   2
   8 -11   1 2766.03 376.256   2
  -3  11   1 1627.15 418.069   2
   3   8   1 3238.87 537.926   4
 -11   3   1 3229.77 472.971   3
 -11   3   1 2973.88 451.528   1
 -11   3   1 2337.57 457.810   4
 -11   3   1 2123.37 472.516   2
   3   8   1 2924.19 446.169   1
   8 -11   1 2449.24 392.970   4
  -8  -3   1 2569.31 475.148   4
  11  -8   1 2962.55 486.576   3
   8 -11   1 2156.12 441.414   1
  11  -8   1 3328.22 496.298   1
  -3  11   1 2124.37 454.029   4
  -8  -3   1 2442.06 498.057   2
   8 -11   1 2743.65 432.562   3
   3   8   1 2840.33 377.511   3
  -3  11   1 2897.30 407.947   3
  -8  -3   1 2916.37 461.036   1
   3   8   4 7158.36 787.095   3
   8 -11   4 6175.33 681.541   3
  -8  -3   4 6783.98 698.500   4
  -8  -3   4 7152.23 643.659   1
  11  -8   4 7139.55 760.589   1
   3   8   4 7215.53 617.725   1
  -8  -3   4 6572.46 864.347   2
   8 -11   4 6559.38 753.244   1
  -8  -3   4 6828.55 546.244   3
   3   8   4 7193.86 734.635   4
 -11   3   4 6436.19 550.741   1
 -11   3   4 7246.12 706.522   3
   8 -11   4 7250.71 486.487   2
   3   8   4 7176.91 779.555   2
  -3  11   4 6908.69 777.260   3
  11  -8   7 1569.17 255.018   2
   8 -11   7 1519.60 654.261   1
  -8  -3   7 2902.79 576.227   3
   3   8   7 1748.76 705.812   3
  -8  -3   7 2286.29 506.727   4
   8 -11   7 1530.13 422.796   2
  -3  11   7 2294.60 709.595   3
  11  -8   7 1953.71 297.483   2
 -11   3   7 2257.79 659.342   3
  -8  -3   7 1505.68 653.093   2
 -11   3   7 1576.18 379.254   1
   3   8   7 2275.29 444.251   1
  11  -8   7 2596.59 705.772   1
   3   8  10 4204.31 610.871   1
   3   8  10 3995.75 1068.60   3
  -8  -3  10 3929.36 862.382   3
  -8  -3  10 4272.27 784.603   1
 -11   3  10 3897.60 887.108   3
  -8  -3  10 2657.81 915.749   2
  -3  11  10 3609.89 988.524   3
   8 -11  10 3842.14 1011.79   3
  11  -8  10 3459.21 864.860   1
   8 -11  10 2907.80 895.606   1
 -11   3  10 3192.95 748.494   4
   8 -11  10 2148.12 629.996   2
  -8  -3  10 2623.31 630.886   4
  -7  -4  -9 939.934 350.323   4
  -7  -4  -6 336.762 347.611   2
  -4  11  -6 291.556 318.893   4
 -11   4  -6-50.2157 146.953   4
  -7  -4  -6 404.699 318.831   4
  -7  -4  -3 10339.7 747.644   2
 -11   4  -3 9899.92 834.107   1
 -11   4  -3 8271.55 337.424   2
   7 -11  -3 9784.56 873.025   3
  11  -7  -3 9205.67 824.333   3
   7 -11  -3 10830.0 827.824   4
  -7  -4  -3 11096.3 794.878   1
   4   7  -3 10486.9 785.399   4
  -4  11  -3 9648.75 763.012   2
   7 -11  -3 10156.0 850.518   2
   4   7  -3 10238.9 929.169   2
  -4  11  -3 9494.77 622.969   4
   7 -11  -3 9960.40 471.614   1
  11  -7  -3 9844.84 532.737   1
 -11   4  -3 10250.1 648.878   4
  -7  -4  -3 10262.4 745.856   4
 -11   4   0 1009.27 351.029   3
  11  -7   0 735.324 338.078   1
  11  -7   0 374.979 316.060   3
 -11   4   0 809.170 348.684   2
   4   7   0 1132.15 206.999   3
  -4  11   0 372.184 324.300   2
   7 -11   0 512.082 308.614   3
  -4  11   0 891.202 339.804   4
  -7  -4   0 832.806 387.214   4
 -11   4   0 448.228 306.779   1
   7 -11   0 886.089 303.026   2
  -7  -4   0 420.860 327.702   1
  -7  -4   0 1869.34 473.586   2
   7 -11   0 1324.20 389.849   4
  -4  11   0 740.204 293.961   3
   4   7   0 937.175 393.674   4
   4   7   0 1387.97 431.392   2
   7 -11   0 323.149 307.266   1
  11  -7   3 3721.09 574.554   1
   7 -11   3 4586.90 435.382   4
  -4  11   3 4313.51 601.604   2
  -4  11   3 5150.81 680.881   3
  -4  11   3 5068.55 608.873   4
  -7  -4   3 4921.71 547.757   1
  -7  -4   3 4314.74 545.522   4
  11  -7   3 4854.39 604.937   3
  -7  -4   3 5274.90 391.156   3
 -11   4   3 4705.71 486.858   1
 -11   4   3 4666.38 570.325   3
   4   7   3 5731.56 555.548   1
   7 -11   3 4768.76 447.554   2
   4   7   3 4113.59 606.711   4
  -7  -4   3 4059.46 706.253   2
   7 -11   3 5161.20 557.358   3
   4   7   3 3987.78 569.857   3
   4   7   3 5138.38 621.696   2
   7 -11   3 5360.68 706.413   1
   7 -11   6 1697.82 530.300   1
   4   7   6 1131.96 613.683   3
   4   7   6 1160.78 450.334   4
  -4  11   6 1357.75 526.655   3
   4   7   6 716.145 340.297   1
  11  -7   6 944.907 472.981   1
  11  -7   6 445.832 153.594   2
  11  -7   6 694.921 151.140   2
  -7  -4   6 1880.98 699.621   2
 -11   4   6 1007.82 491.051   3
 -11   4   6 710.962 277.090   1
  -7  -4   6 1406.71 461.973   4
   7 -11   6 1264.73 432.382   2
  -7  -4   6 706.082 358.168   3
 -11   4   9 3989.50 469.009   1
   4   7   9 4669.22 1036.92   3
  11  -7   9 5891.73 961.762   1
  -7  -4   9 5022.07 818.685   1
  -4  11   9 6259.37 1103.01   3
   4   7   9 5619.64 698.763   1
  11  -7   9 5330.03 611.671   2
  -7  -4   9 6193.45 759.005   4
 -11   4   9 6894.61 1031.97   3
  -7  -4   9 7094.10 1194.88   2
   7 -11   9 7397.98 1083.96   1
  -7  -4   9 5791.21 820.644   3
   7 -11   9 6900.29 857.382   2
  -6  -5  -7 7964.38 697.671   4
  -5  11  -4 4278.88 539.705   2
  -6  -5  -4 5002.30 591.195   2
  -5  11  -4 4440.52 426.758   4
   5   6  -4 3693.72 538.495   4
  -6  -5  -4 4145.10 558.649   1
   6 -11  -4 3836.85 258.735   1
   6 -11  -4 4854.49 627.213   4
  11  -6  -4 3784.32 627.635   3
  11  -6  -4 5115.67 381.156   1
  -6  -5  -4 4522.87 522.493   4
   6 -11  -4 4342.72 261.502   1
 -11   5  -4 4358.72 402.023   4
  -6  -5  -1 32942.0 1213.14   1
   5   6  -1 32816.5 1277.72   4
   6 -11  -1 33225.5 1244.17   2
  11  -6  -1 33782.2 1289.69   3
   6 -11  -1 32532.3 1256.46   3
   5   6  -1 33780.7 1422.46   2
 -11   5  -1 32420.5 941.382   2
  11  -6  -1 33127.0 1101.89   1
   6 -11  -1 32198.3 1252.99   4
  -5  11  -1 32318.0 1165.64   4
  -5  11  -1 33102.8 1206.59   2
 -11   5  -1 32972.4 1278.13   1
  -6  -5  -1 31175.7 1234.68   2
  -5  11  -1 32566.8 1084.68   3
  -6  -5  -1 33844.7 1284.55   4
 -11   5  -1 32377.0 1227.62   3
   5   6   2 8859.88 665.586   3
   5   6   2 9208.95 746.851   2
  -5  11   2 10191.4 822.349   2
  11  -6   2 9901.72 816.259   1
  11  -6   2 11486.9 806.292   3
  -5  11   2 9863.71 730.063   3
   5   6   2 10109.0 774.026   4
 -11   5   2 8975.04 618.741   1
  -5  11   2 9650.09 761.970   4
   5   6   2 9811.14 710.409   1
   6 -11   2 10031.4 669.142   3
 -11   5   2 10519.8 753.976   3
  -6  -5   2 10205.8 860.663   2
   6 -11   2 10564.7 841.502   1
  -6  -5   2 10567.1 734.586   1
  -6  -5   2 8567.50 293.362   3
  -6  -5   2 11225.5 830.408   4
   6 -11   2 11099.9 674.868   2
   6 -11   2 10260.9 644.423   4
   5   6   5 11063.4 998.754   3
  -6  -5   5 11349.3 706.232   3
 -11   5   5 12168.5 988.520   3
   5   6   5 10751.1 908.401   2
   6 -11   5 11996.2 822.558   2
  -6  -5   5 10420.5 1059.22   2
  -6  -5   5 11066.7 813.879   1
   5   6   5 10159.0 827.763   4
 -11   5   5 11367.5 599.283   1
   6 -11   5 10101.3 790.895   3
  -5  11   5 11870.0 1067.98   3
  -6  -5   5 11692.1 839.706   4
   6 -11   5 10840.4 1009.17   1
   5   6   5 10285.2 748.640   1
   6 -11   5 10341.0 505.480   4
  11  -6   5 10322.1 941.476   1
  11  -6   8 9210.79 643.948   2
  -5  11   8 10582.2 1250.40   3
  11  -6   8 9183.19 681.554   2
  -6  -5   8 10094.5 978.311   3
   5   6   8 10165.8 866.002   1
   5   6   8 9973.05 1225.12   3
 -11   5   8 10728.7 1139.43   3
  -6  -5   8 10501.9 881.138   4
 -11   5   8 7012.50 460.268   1
 -11   5   8 7086.22 488.770   1
   5   6   8 7136.44 799.869   4
   6 -11   8 10645.8 964.130   2
  11  -6   8 10218.4 1058.28   1
  -6  -5   8 12481.3 1295.82   2
   6 -11   8 12061.8 1233.86   1
  -6  -5  11 7382.03 1092.49   3
  11  -6  11 8356.31 1489.79   3
  11  -6  11 7058.44 1079.97   1
 -11   5  11 6560.09 986.092   4
   6 -11  11 5123.15 1069.64   3
  -6  -5  11 6396.59 1307.40   2
   6 -11  11 4555.40 873.342   2
  -6  -5  11 5610.36 953.658   1
   6 -11  11 7622.94 1212.42   1
 -11   5  11 6351.45 1164.20   3
  -5  11  11 6020.22 1260.03   3
   5   6  11 4175.48 1098.76   3
  -5  -6  -8 8167.03 729.301   4
   5 -11  -5 7949.07 300.961   1
  -5  -6  -5 12163.3 899.182   2
 -11   6  -5 10111.8 459.072   4
  -5  -6  -5 10372.3 774.064   4
  -6  11  -5 9702.97 492.303   4
   5 -11  -5 13000.0 933.517   4
  -5  -6  -5 11778.5 861.491   1
  11  -5  -2 10080.3 748.407   3
  -5  -6  -2 9718.84 743.626   4
   5 -11  -2 10717.9 779.947   3
   5 -11  -2 9362.98 772.309   4
  11  -5  -2 9488.02 602.303   1
 -11   6  -2 9077.08 764.218   1
   5 -11  -2 10249.8 777.123   2
  -5  -6  -2 11503.6 752.249   1
   6   5  -2 10674.5 786.795   4
   6   5  -2 10585.7 905.719   2
  -6  11  -2 9778.68 675.346   2
  -5  -6  -2 9710.58 729.563   2
  -6  11  -2 9989.17 646.202   4
 -11   6  -2 7824.27 314.616   2
  -6  11  -2 10847.1 685.804   3
  -5  -6   1 35096.7 1334.93   4
  -5  -6   1 35219.6 1439.60   2
  -5  -6   1 35640.3 1256.83   1
  -6  11   1 34815.6 1230.44   3
  11  -5   1 35709.2 1314.16   1
  -6  11   1 35742.9 1316.39   2
  -6  11   1 34927.6 1302.29   4
   6   5   1 37473.6 1360.63   4
   6   5   1 34675.4 1234.55   1
 -11   6   1 36062.3 1194.36   1
   5 -11   1 35378.8 1123.49   3
  11  -5   1 34921.0 1265.70   3
   6   5   1 34797.4 1375.77   2
 -11   6   1 34668.5 1262.06   3
   5 -11   1 34820.9 1201.23   4
   5 -11   1 34782.0 1186.11   2
  -5  -6   4 5508.28 771.070   2
   6   5   4 6807.40 777.235   3
  -6  11   4 4432.44 699.895   3
  11  -5   4 5184.77 659.662   1
  -5  -6   4 4750.65 402.017   3
 -11   6   4 4941.57 426.519   1
   6   5   4 5271.11 636.066   2
  -5  -6   4 4643.66 565.963   4
   5 -11   4 4416.19 507.209   3
 -11   6   4 5518.57 688.812   3
   5 -11   4 5180.26 441.047   4
   5 -11   4 4718.15 653.673   1
   5 -11   4 5627.61 583.572   2
   6   5   4 5167.61 584.026   4
   6   5   4 4313.23 557.806   1
   6   5   7 9476.59 1115.39   3
  -5  -6   7 9785.46 835.670   3
  11  -5   7 7721.66 899.217   1
  -6  11   7 7386.68 1010.94   3
   5 -11   7 9758.25 1053.67   1
   5 -11   7 8630.67 840.147   2
  11  -5   7 8643.00 552.403   2
  -5  -6   7 8604.32 784.459   4
 -11   6   7 6962.09 398.846   1
   6   5   7 7929.33 783.446   4
 -11   6   7 7554.27 974.880   3
  -5  -6   7 9925.70 1160.85   2
   6   5   7 9643.24 825.518   1
 -11   6   7 6630.62 386.977   1
   5 -11  10 2740.68 823.560   1
   6   5  10 3085.65 984.603   3
   6   5  10 3309.75 689.075   1
   5 -11  10 4230.09 935.074   3
  -5  -6  10 2624.50 717.323   3
  -6  11  10 4202.01 975.284   3
  11  -5  10 1554.16 863.448   3
  -5  -6  10 3379.13 1042.95   2
  -5  -6  10 3027.51 625.855   4
   5 -11  10 3855.91 810.329   2
  11  -5  10 2458.45 754.615   1
  -5  -6  10 3888.62 788.553   1
  11  -5  10 2289.02 585.872   2
 -11   6  10 4235.20 932.410   3
  -4  -7  -6 1581.99 443.047   1
   4 -11  -6 704.146 398.008   4
  -4  -7  -6 1071.16 470.672   2
   4 -11  -6 673.603 142.737   1
  -4  -7  -6 1525.53 439.569   4
  -4  -7  -3 5073.46 582.672   4
   4 -11  -3 4479.35 629.593   2
  -4  -7  -3 4730.39 598.050   2
   4 -11  -3 4729.86 372.609   1
   4 -11  -3 6096.76 675.585   4
  11  -4  -3 5297.58 458.421   1
  -7  11  -3 4684.91 487.038   2
  11  -4  -3 5418.60 616.187   3
   7   4  -3 4521.89 374.161   3
   7   4  -3 3989.67 560.192   4
  -7  11  -3 5272.71 456.781   4
 -11   7  -3 5883.78 698.930   1
   4 -11  -3 5172.50 667.193   3
  -4  -7  -3 4962.56 568.215   1
  -4  -7   0 896.183 388.540   2
   4 -11   0 440.241 304.063   3
 -11   7   0 829.397 350.655   1
  -7  11   0 553.757 318.542   2
  -7  11   0 1098.87 352.912   3
  11  -4   0 95.1883 297.735   3
 -11   7   0 1077.63 389.159   3
   7   4   0 935.827 215.531   3
   4 -11   0 1495.52 404.066   4
   7   4   0 807.254 330.859   1
  -4  -7   0 396.305 324.535   4
   7   4   0 838.408 328.077   4
  11  -4   0 591.589 355.537   1
   4 -11   0 969.053 378.521   2
   7   4   0 1018.72 382.457   2
  -7  11   0 278.328 291.319   4
  -4  -7   0 630.687 319.631   1
  -7  11   3 9930.16 832.714   2
  11  -4   3 11540.6 902.202   1
  11  -4   3 11198.4 870.716   3
   7   4   3 12678.4 815.323   1
   4 -11   3 12315.7 805.527   2
   7   4   3 11489.5 808.958   4
   4 -11   3 11166.2 655.112   3
  -4  -7   3 10407.8 978.751   2
  -4  -7   3 10958.3 789.823   4
   7   4   3 10934.2 788.313   2
  -7  11   3 12631.0 875.876   4
  11  -4   3 8241.18 377.553   2
   4 -11   3 11903.4 688.120   4
 -11   7   3 11032.0 581.985   1
  -4  -7   3 10437.9 383.880   3
  -7  11   3 10098.0 832.112   3
 -11   7   3 10229.7 837.189   3
   4 -11   6-172.287 460.882   1
   7   4   6 1146.76 617.652   3
  -7  11   6 104.753 477.291   3
   4 -11   6 230.105 209.639   4
  -4  -7   6 155.681 283.464   3
   7   4   6 26.3538 398.554   2
 -11   7   6-723.428 507.351   3
  11  -4   6 230.173 218.735   2
   4 -11   6-597.284 448.875   2
 -11   7   6 132.517 120.114   1
   7   4   6-211.068 407.375   1
  11  -4   6 355.368 422.472   1
  -4  -7   6-112.740 501.077   2
  -4  -7   6 359.035 378.444   4
   7   4   6-56.8905 382.478   4
   4 -11   9 1723.12 697.536   1
 -11   7   9 1802.20 757.824   3
  -4  -7   9 1500.54 454.898   4
  -7  11   9 2924.42 839.915   3
   4 -11   9 1410.28 639.651   3
  11  -4   9 1251.84 612.610   1
   4 -11   9 2272.96 655.525   2
   7   4   9 1437.48 539.854   1
  -4  -7   9 779.973 519.654   1
  -4  -7   9 827.431 672.437   2
  -4  -7   9 1940.63 586.430   3
   7   4   9 683.549 638.442   3
  -3  -8  -7 1509.06 450.536   1
   3 -11  -7 1356.33 199.904   1
   3 -11  -4 7670.17 749.037   4
   8   3  -4 6583.37 550.311   3
  -8  11  -4 6938.56 548.342   2
   3 -11  -4 7205.64 761.184   2
  11  -3  -4 6214.74 663.125   3
  -3  -8  -4 7178.66 678.388   4
  -3  -8  -4 7301.48 650.036   1
  -8  11  -4 6888.32 444.437   4
  -3  -8  -4 6091.08 680.141   2
   3 -11  -4 7365.24 472.116   1
 -11   8  -4 7403.25 464.807   4
 -11   8  -1 2353.47 450.041   1
  -3  -8  -1 2732.28 414.043   1
   8   3  -1 2345.64 438.660   1
 -11   8  -1 2371.26 260.082   2
   3 -11  -1 3007.34 505.661   4
   8   3  -1 3169.90 299.555   3
   3 -11  -1 2853.18 418.383   3
  -8  11  -1 2258.94 384.034   4
   3 -11  -1 2340.71 472.307   2
  -8  11  -1 3011.49 480.551   3
  11  -3  -1 1795.22 390.388   1
   8   3  -1 2899.08 503.729   4
   8   3  -1 2601.33 565.163   2
  -3  -8  -1 2628.99 482.032   4
  -8  11  -1 2845.20 393.321   2
  -3  -8  -1 3287.29 511.635   2
 -11   8  -1 2325.55 492.424   3
  11  -3  -1 2509.85 426.990   3
  -8  11   2 22636.5 1133.26   4
  -8  11   2 21700.6 1097.29   2
 -11   8   2 20618.7 1088.13   3
   3 -11   2 21751.9 808.666   3
   8   3   2 21638.4 1058.22   4
  11  -3   2 22561.5 1125.80   1
   8   3   2 20937.8 1038.37   2
  11  -3   2 21015.2 771.494   2
   8   3   2 19765.8 1010.28   1
  -3  -8   2 21448.1 1068.91   4
  -3  -8   2 21492.0 1208.93   2
   3 -11   2 24954.8 1115.76   2
  -8  11   2 22774.8 1128.68   3
 -11   8   2 21524.8 841.773   1
   3 -11   2 22599.7 979.072   4
  11  -3   2 24056.5 1108.33   3
   3 -11   5 11170.2 1000.02   1
  -8  11   5 8517.27 926.135   3
   3 -11   5 8761.75 835.742   2
  -3  -8   5 9337.12 636.131   3
   8   3   5 9010.20 773.732   2
 -11   8   5 8280.93 884.414   3
   8   3   5 9134.75 719.437   4
  -3  -8   5 9034.22 740.755   4
   8   3   5 10016.1 812.483   1
  11  -3   5 8670.90 501.482   2
  11  -3   5 9179.29 880.241   1
  -3  -8   5 9867.47 986.888   2
   3 -11   5 9284.83 610.618   4
   8   3   8 1024.33 532.299   1
   8   3   8 1835.57 744.838   3
   3 -11   8 2368.80 642.267   2
   3 -11   8 3208.96 779.856   1
  11  -3   8 1969.27 460.891   2
   8   3   8 1417.83 448.070   4
  -3  -8   8 3263.93 827.108   2
  -3  -8   8 2343.48 490.516   4
  -8  11   8 3318.47 873.464   3
 -11   8   8 2413.95 702.878   3
  -3  -8   8 3266.51 663.171   3
   3 -11   8 2331.33 634.566   3
  11  -3   8 2336.50 628.738   1
   3 -11   8 1579.89 237.695   4
   3 -11  11 1458.04 806.394   1
   8   3  11 976.486 1033.49   3
  -8  11  11 1530.33 874.661   3
  11  -3  11 1728.68 759.793   1
  -3  -8  11 2483.35 814.133   1
   8   3  11 2361.48 691.053   1
 -11   8  11 932.108 827.874   3
   3 -11  11 1300.29 738.652   3
  -3  -8  11 2298.06 776.975   3
  -3  -8  11 3394.79 1014.62   2
  11  -3  11 1655.56 888.637   3
   3 -11  11 1843.24 791.278   2
  -2  -9  -8 5906.14 641.890   1
   2 -11  -8 4589.30 375.938   1
  -2  -9  -8 6626.75 760.302   4
   9   2  -5 6245.15 648.585   3
  11  -2  -5 7147.77 745.202   3
  -2  -9  -5 8376.42 770.352   4
  -9  11  -5 6355.66 347.721   4
  -2  -9  -5 7886.02 660.149   1
  -2  -9  -5 7948.67 823.830   2
   2 -11  -5 8191.07 523.685   1
 -11   9  -5 6528.59 316.649   4
   2 -11  -5 6563.57 728.208   4
 -11   9  -5 6623.55 335.627   4
   2 -11  -5 8576.20 863.631   2
   2 -11  -2 11929.8 821.092   3
  -2  -9  -2 10142.0 675.536   1
   2 -11  -2 8736.10 772.234   2
   9   2  -2 9604.55 552.749   3
  11  -2  -2 10072.4 683.266   1
   9   2  -2 9748.28 719.406   1
  -2  -9  -2 9621.24 819.359   2
  -9  11  -2 10432.8 748.618   3
 -11   9  -2 9198.08 754.957   3
  -2  -9  -2 10215.2 795.407   4
 -11   9  -2 10463.3 839.210   1
  -9  11  -2 10733.7 576.067   2
   2 -11  -2 8562.71 735.618   4
   2 -11  -2 9968.83 606.413   1
  -9  11  -2 9805.99 616.685   4
 -11   9  -2 9752.40 367.804   2
  11  -2  -2 10302.1 713.820   3
   2 -11   1 28109.2 1158.78   4
  -2  -9   1 26932.0 1184.61   4
  -9  11   1 28602.5 1211.09   3
   9   2   1 27202.6 1146.54   1
  -2  -9   1 28799.4 1177.88   1
   2 -11   1 28907.8 875.259   3
  11  -2   1 28977.3 1113.60   3
   9   2   1 28328.2 998.658   3
  11  -2   1 26507.2 1036.81   2
  -2  -9   1 27989.1 1311.64   2
  11  -2   1 27543.6 1188.41   1
  -9  11   1 29717.9 1212.15   4
   9   2   1 27110.4 1223.02   4
 -11   9   1 27385.3 1071.53   2
   9   2   1 28225.8 1181.35   2
 -11   9   1 29631.1 1073.69   1
  -9  11   1 28554.9 1150.91   2
   2 -11   1 27915.5 1199.65   2
 -11   9   1 27276.3 1202.15   3
  11  -2   4 12025.3 930.522   1
  -2  -9   4 10941.9 555.829   3
   9   2   4 11254.8 766.876   2
  11  -2   4 10452.5 581.065   2
   2 -11   4 10734.1 902.986   2
   2 -11   4 10315.8 695.278   4
   9   2   4 10722.9 774.237   4
  -2  -9   4 9636.66 732.899   4
   9   2   4 9182.96 789.030   1
  -9  11   4 9624.22 911.708   3
 -11   9   4 8964.29 411.877   1
   2 -11   4 10317.1 617.607   3
 -11   9   4 10633.9 919.999   3
  -2  -9   4 9767.50 947.302   2
   2 -11   7 13806.6 1081.05   3
 -11   9   7 11594.2 1173.94   3
  -9  11   7 15069.1 1374.10   3
  -2  -9   7 12535.2 1206.83   2
   9   2   7 10895.3 1231.06   3
   2 -11   7 13053.9 1198.09   1
  11  -2   7 10444.7 738.260   2
  11  -2   7 12031.0 1063.28   1
   9   2   7 11333.3 947.665   1
   9   2   7 10443.7 769.363   4
   2 -11   7 10952.0 1034.44   2
  -2  -9   7 13240.5 988.379   3
  -2  -9   7 11361.4 824.467   4
   2 -11   7 11395.8 663.219   4
   9   2   7 10016.0 894.369   2
   2 -11  10 2084.70 733.065   3
  11  -2  10 2068.85 737.460   1
   2 -11  10 1916.78 745.523   2
  11  -2  10 1930.22 861.464   3
   9   2  10 770.181 809.607   3
  -9  11  10 2330.40 864.744   3
   9   2  10 2327.64 666.621   1
   2 -11  10 1818.87 780.880   1
  -2  -9  10 1056.24 628.221   1
  -2  -9  10 1635.75 691.088   3
 -11   9  10 2001.71 805.098   3
  -2  -9  10 2057.89 854.916   2
  10   1  -6 828.466 452.104   3
   1 -11  -6 1108.52 429.181   4
  -1 -10  -6 1629.06 463.037   4
  -1 -10  -6 1342.85 396.065   1
  -1 -10  -6 241.039 415.067   2
   1 -11  -6 1369.39 328.601   1
   1 -11  -6 1349.19 455.520   2
  -1 -10  -3 3859.17 568.628   3
   1 -11  -3 3995.78 610.016   3
   1 -11  -3 4710.82 449.407   1
  -1 -10  -3 5204.53 504.244   1
   1 -11  -3 3798.65 627.363   2
 -10  11  -3 4347.90 355.795   2
  -1 -10  -3 4203.38 637.924   2
  10   1  -3 4520.56 510.408   1
  -1 -10  -3 4388.72 573.287   4
  11  -1  -3 4828.08 523.190   1
  11  -1  -3 3931.83 485.434   3
   1 -11  -3 4211.44 590.191   4
 -11  10  -3 4768.42 428.709   4
  10   1  -3 4473.34 472.481   3
 -10  11  -3 4205.76 424.719   4
  -1 -10   0 38.0959 273.281   1
  -1 -10   0 740.320 398.710   2
 -11  10   0-73.5261 269.057   1
 -10  11   0 89.2734 278.363   1
   1 -11   0 114.346 243.908   3
 -10  11   0-407.556 287.895   2
  -1 -10   0 132.136 195.868   3
 -11  10   0 486.199 310.406   4
  11  -1   0 55.4121 327.414   1
 -11  10   0-74.6988 241.683   2
 -10  11   0 271.947 355.431   3
  11  -1   0 408.667 309.691   3
 -11  10   0 477.210 368.292   3
  10   1   0-92.5356 307.578   1
  10   1   0 840.918 388.426   4
  11  -1   0 26.2100 346.468   2
  -1 -10   0-501.988 404.229   4
  10   1   0 242.718 361.087   2
   1 -11   0-228.710 354.632   4
 -10  11   0 52.1122 303.404   4
   1 -11   0 245.730 353.363   2
  10   1   0-4.37456 255.034   3
 -10  11   3 2878.26 545.235   3
 -11  10   3 2058.50 575.068   3
   1 -11   3 2065.86 405.602   4
  11  -1   3 2460.29 546.618   1
   1 -11   3 2454.44 287.678   3
  -1 -10   3 2512.71 224.911   3
  -1 -10   3 3400.62 497.383   4
 -10  11   3 2854.87 533.738   2
 -11  10   3 2581.03 518.696   2
  10   1   3 2561.83 541.132   1
  11  -1   3 2958.62 485.178   4
  10   1   3 2232.30 435.513   4
  11  -1   3 2900.01 404.994   2
 -11  10   3 2698.22 318.444   1
   1 -11   3 2301.92 532.684   2
  10   1   3 2699.75 444.778   2
  -1 -10   3 2472.11 545.086   2
  10   1   6 1103.15 529.985   1
   1 -11   6 514.071 364.849   3
  10   1   6 558.713 347.009   2
 -11  10   6 1323.63 626.169   3
   1 -11   6 823.537 516.962   2
  11  -1   6 1764.62 511.017   1
  10   1   6-12.9611 324.809   4
  11  -1   6 691.848 338.772   4
   1 -11   6 1159.75 352.948   4
  -1 -10   6 1413.13 409.187   4
  -1 -10   6 762.084 349.412   3
  -1 -10   6 946.910 501.118   2
 -10  11   6 1355.97 543.125   3
  11  -1   6 1275.98 363.606   2
  11  -1   9 3051.12 940.070   3
   1 -11   9 2668.12 364.195   4
  11  -1   9 3222.22 756.115   1
 -11  10   9 2468.72 774.900   3
  -1 -10   9 4408.10 861.586   1
  10   1   9 3079.71 737.394   1
   1 -11   9 4525.72 887.828   2
  10   1   9 2481.64 832.644   3
  -1 -10   9 3186.32 811.877   2
   1 -11   9 4418.81 820.404   3
   1 -11   9 3733.22 818.451   1
  -1 -10   9 4551.75 823.155   3
  -1 -10   9 3682.26 505.492   4
 -10  11   9 3127.28 839.392   3
   0 -11  -7 110.361 386.385   4
   0 -11  -7 182.511 326.848   1
  11   0  -4 9912.67 747.201   3
   0 -11  -4 10751.7 941.131   2
 -11  11  -4 10383.4 553.318   4
   0 -11  -4 10369.6 677.155   1
   0 -11  -4 11695.3 912.761   4
   0 -11  -1-203.513 354.859   2
   0 -11  -1-82.1588 343.407   4
 -11  11  -1 356.341 245.004   2
  11   0  -1 77.6645 256.718   3
 -11  11  -1 278.084 338.672   3
   0 -11  -1-129.678 288.301   1
 -11  11  -1 142.157 342.038   1
 -11  11  -1 307.043 291.521   4
   0 -11  -1-306.059 286.800   3
  11   0  -1-415.923 338.323   1
  11   0   2 6810.24 704.030   1
   0 -11   2 6626.80 660.475   4
   0 -11   2 5615.80 340.223   3
  11   0   2 6964.87 690.721   4
 -11  11   2 7011.61 699.932   3
   0 -11   2 6101.19 713.291   2
  11   0   2 8505.80 689.819   3
 -11  11   2 6660.86 525.830   1
 -11  11   2 5989.44 647.790   2
 -11  11   2 6712.22 678.475   4
  11   0   2 5823.75 573.912   2
   0 -11   5 294.017 306.947   3
   0 -11   5 500.386 462.902   2
  11   0   5 467.140 312.965   2
  11   0   5 427.620 436.434   1
 -11  11   5 55.2429 430.770   3
  11   0   5 319.728 354.083   4
   0 -11   5-12.6408 301.115   4
   0 -11   8 3737.82 670.474   3
 -11  11   8 3098.93 825.301   3
  11   0   8 2356.91 660.390   1
   0 -11   8 3920.19 550.568   4
  11   0   8 2529.83 432.947   4
   0 -11   8 2867.43 746.039   1
   0 -11   8 2789.83 742.056   2
  11   0  11-163.889 956.936   3
   0 -11  11-141.506 634.822   3
 -11  11  11 929.383 821.962   3
  11   0  11 177.945 637.493   1
   0 -11  11 1117.38 859.877   1
   0 -11  11 385.043 746.483   2
 -12   0  -9 256.086 244.557   4
 -12   0  -6 6846.54 610.246   2
 -12   0  -6 6474.47 601.513   4
   0  12  -6 7297.97 732.402   4
   0  12  -3-457.734 381.203   4
 -12   0  -3 108.461 268.785   2
  12 -12  -3 217.530 216.468   1
   0  12   0 601.697 451.906   2
 -12   0   0 626.061 421.638   1
   0  12   0 708.366 248.202   3
  12 -12   0 839.430 404.739   3
 -12   0   0 374.647 382.185   4
 -12   0   0 478.639 398.776   2
   0  12   0 720.610 384.010   4
  12 -12   0 413.854 359.588   1
 -12   0   3 7.03718 380.070   4
  12 -12   3 1.64382 400.219   1
 -12   0   3 244.971 294.031   3
  12 -12   3-76.7949 133.567   2
 -12   0   3 84.9355 350.314   1
 -12   0   3-461.317 460.195   2
   0  12   3 184.453 349.189   3
 -12   0   6 5696.71 659.595   1
   0  12   6 7704.07 993.677   3
 -12   0   6 8165.02 828.221   3
  12 -12   6 9369.77 1055.79   1
 -12   0   6 8380.67 908.239   4
 -12   0   6 6835.97 1022.09   2
   0  12   9 371.234 747.034   3
  12 -12   9-294.864 682.077   1
 -12   0   9 576.266 532.509   3
 -12   0   9-162.245 505.035   4
 -12   0   9 288.303 710.673   2
 -11  -1  -7 9142.47 680.688   4
 -12   1  -7 8158.78 605.195   4
 -11  -1  -4 12410.0 772.695   2
 -11  -1  -4 12289.0 819.737   4
  11 -12  -4 11188.7 424.987   1
  -1  12  -4 11577.4 803.199   4
   1  11  -4 11931.8 861.976   4
 -12   1  -4 13752.3 726.648   2
  12 -11  -4 11045.3 465.627   1
 -12   1  -4 12942.9 817.833   4
 -12   1  -1 25512.3 1199.72   4
  11 -12  -1 22264.2 1226.84   3
   1  11  -1 23131.4 1295.78   2
  11 -12  -1 24592.0 1045.67   1
  12 -11  -1 24921.2 1276.70   3
  -1  12  -1 22136.9 1261.87   2
   1  11  -1 22634.2 574.345   3
 -12   1  -1 20252.0 1152.97   1
  -1  12  -1 25392.5 767.461   3
 -11  -1  -1 23246.1 1172.84   4
 -12   1  -1 22387.1 1050.60   2
  -1  12  -1 24219.8 1184.54   4
 -11  -1  -1 18860.4 1095.03   1
   1  11  -1 23953.2 1205.13   4
 -11  -1  -1 22530.8 1084.16   2
  12 -11  -1 24847.0 1048.81   1
   1  11   2 17095.2 954.217   3
 -12   1   2 18138.2 891.428   3
  11 -12   2 16102.5 665.248   2
 -11  -1   2 18124.9 1220.72   2
   1  11   2 18160.0 1122.39   4
  -1  12   2 19356.5 1016.79   3
 -12   1   2 18301.2 1213.46   2
 -11  -1   2 16744.6 781.337   3
 -12   1   2 17874.3 1126.72   4
  11 -12   2 18027.0 1122.05   1
  11 -12   2 16888.0 1051.12   3
 -11  -1   2 16765.1 1041.40   4
  12 -11   2 17141.6 1096.19   1
 -12   1   2 18319.4 1011.49   1
  12 -11   2 18056.0 1069.47   3
 -11  -1   2 17803.6 1013.86   1
   1  11   5 5262.69 805.372   3
   1  11   5 5689.20 563.130   1
  -1  12   5 5333.18 796.983   3
 -11  -1   5 5328.22 614.376   1
 -11  -1   5 6279.42 651.153   3
 -12   1   5 5901.07 671.517   3
 -11  -1   5 5688.24 708.798   4
  12 -11   5 6931.54 867.213   1
 -12   1   5 5761.32 730.828   4
 -11  -1   5 5175.06 828.185   2
 -12   1   5 4630.48 873.445   2
  11 -12   5 4719.13 763.277   1
 -12   1   5 4933.38 581.435   1
  11 -12   5 4504.98 327.660   2
  12 -11   8 674.174 242.005   2
 -12   1   8 905.811 502.009   4
   1  11   8 344.245 308.782   1
 -12   1   8 948.112 532.476   3
  12 -11   8 722.241 596.386   1
  11 -12   8 1155.12 628.936   1
 -11  -1   8 1148.86 576.078   4
 -12   1   8 1366.87 849.600   2
   1  11   8 1999.45 793.407   3
  11 -12   8 835.266 340.615   2
 -11  -1   8 1444.19 589.836   3
  -1  12   8 1392.59 795.292   3
 -11  -1   8 224.662 746.509   2
 -10  -2  -8 1039.63 360.591   4
 -12   2  -8 721.388 215.451   4
   2  10  -5 4425.96 599.038   4
 -10  -2  -5 4339.18 535.350   2
 -10  -2  -5 4334.53 536.063   4
 -12   2  -5 4653.82 408.134   2
  -2  12  -5 5726.35 568.031   4
 -12   2  -5 3722.26 451.230   4
 -12   2  -2 9859.46 599.909   2
  12 -10  -2 10475.4 894.722   3
  10 -12  -2 9469.17 845.574   3
  12 -10  -2 9212.61 617.982   1
  -2  12  -2 9922.56 747.911   4
 -10  -2  -2 10304.2 840.113   1
  10 -12  -2 10541.4 628.700   1
   2  10  -2 10864.3 824.897   4
  -2  12  -2 10333.8 870.618   2
 -10  -2  -2 10505.5 801.790   4
 -12   2  -2 11019.0 800.885   4
   2  10  -2 9704.90 901.315   2
 -12   2  -2 10492.2 855.331   1
 -10  -2  -2 10472.8 753.855   2
 -12   2   1 8075.23 792.611   2
  -2  12   1 5695.24 539.933   3
 -10  -2   1 6305.15 687.508   4
  10 -12   1 4731.11 476.767   2
   2  10   1 6908.48 757.575   2
  10 -12   1 5739.03 654.596   1
 -10  -2   1 5879.58 463.283   3
 -12   2   1 6495.78 673.477   1
   2  10   1 5698.75 501.842   3
  10 -12   1 5171.07 587.505   3
  -2  12   1 6777.56 726.897   2
 -12   2   1 5212.23 633.535   4
  -2  12   1 6301.44 706.731   4
 -12   2   1 6095.07 589.375   3
 -10  -2   1 5754.83 635.623   1
 -10  -2   1 7348.69 797.092   2
  12 -10   1 6710.28 681.063   1
   2  10   1 6280.12 694.727   4
  12 -10   1 5879.52 653.222   3
  10 -12   4 2197.69 548.059   1
 -12   2   4 2577.11 563.493   4
 -10  -2   4 2925.55 428.036   3
  10 -12   4 2337.00 279.328   2
 -10  -2   4 3173.15 528.965   1
 -10  -2   4 3085.10 688.194   2
 -12   2   4 3147.80 714.801   2
  12 -10   4 3237.12 605.494   1
 -12   2   4 2132.89 466.309   3
  -2  12   4 2566.71 572.726   3
 -10  -2   4 2666.07 547.214   4
 -12   2   4 2236.29 450.430   1
   2  10   4 2076.91 534.572   3
   2  10   4 2360.91 430.675   1
  12 -10   7 834.597 162.665   2
 -12   2   7 735.153 371.825   1
   2  10   7 1641.94 422.501   1
  12 -10   7 729.078 160.722   2
   2  10   7 996.718 561.694   3
  10 -12   7 788.817 588.032   1
  -2  12   7 515.178 525.516   3
 -10  -2   7-380.996 719.206   2
 -12   2   7 1037.66 536.354   3
  12 -10   7 391.858 521.961   1
  10 -12   7 1503.33 408.566   2
 -10  -2   7 1678.19 499.031   3
 -12   2   7 1938.48 612.447   4
 -10  -2   7 1299.84 532.360   4
   2  10  10 2379.47 964.254   3
  -2  12  10 2016.60 878.810   3
 -12   2  10 3134.19 847.033   3
  10 -12  10 1846.85 785.459   1
 -10  -2  10 1548.43 958.005   2
  12 -10  10 975.725 783.228   1
 -12   2  10 2128.42 725.596   4
 -10  -2  10 2279.80 664.448   4
 -10  -2  10 1192.09 596.015   1
 -10  -2  10 3449.63 841.626   3
 -12   2  10 2782.85 1053.46   2
  -9  -3  -9-69.1307 323.696   4
  -3  12  -6 1631.04 396.801   4
  -9  -3  -6 1711.87 467.427   2
 -12   3  -6 2561.85 363.500   4
  -9  -3  -6 1684.71 393.915   4
 -12   3  -3 132.693 180.807   2
  -9  -3  -3 202.232 326.139   2
  -3  12  -3 343.390 421.858   2
  12  -9  -3-148.653 226.116   1
  -3  12  -3 746.663 339.903   4
  -9  -3  -3 500.291 319.466   4
 -12   3  -3-44.0751 277.364   4
   9 -12  -3 351.697 209.927   1
  -9  -3  -3 16.1687 361.581   1
   3   9  -3 247.682 314.680   4
  12  -9   0 8274.17 693.295   1
 -12   3   0 8668.04 731.736   2
   9 -12   0 7475.42 685.857   3
  -3  12   0 7709.60 562.120   3
  12  -9   0 6767.28 694.357   3
  -3  12   0 6605.59 651.212   4
   3   9   0 6886.95 672.162   4
  -9  -3   0 6411.11 668.421   1
   3   9   0 8230.00 843.002   2
   9 -12   0 8319.69 705.060   1
 -12   3   0 8598.01 744.125   1
 -12   3   0 8223.07 647.468   3
 -12   3   0 7257.30 692.429   4
  -9  -3   0 7562.77 742.533   4
  -9  -3   0 8551.60 775.888   2
  -3  12   0 7546.21 724.266   2
   9 -12   0 6710.76 592.471   2
   3   9   0 8193.77 419.823   3
   9 -12   0 7485.09 665.177   4
   3   9   3 1538.99 442.912   3
   3   9   3 680.209 435.885   2
  -9  -3   3 1249.93 405.526   1
  -3  12   3 912.748 404.044   3
   9 -12   3 971.601 271.322   2
   3   9   3 1503.19 375.204   1
  12  -9   3 1370.04 506.469   1
 -12   3   3 1107.57 376.802   1
 -12   3   3 878.468 368.418   3
   9 -12   3 1363.34 420.211   3
  -9  -3   3 1290.71 545.904   2
  -9  -3   3 1015.24 415.000   4
  -9  -3   3 885.200 268.015   3
   3   9   3 1119.31 407.009   4
   9 -12   3 1050.84 469.855   1
   3   9   6 5688.76 897.666   3
   3   9   6 5582.63 591.965   1
 -12   3   6 6117.13 782.557   3
  12  -9   6 6431.42 832.156   1
 -12   3   6 4975.37 528.125   1
   9 -12   6 6987.45 894.056   1
  -3  12   6 5763.59 897.379   3
   9 -12   6 6096.48 570.004   2
  -9  -3   6 6171.45 930.252   2
  -9  -3   6 6764.55 695.111   3
  -9  -3   6 5107.08 662.192   4
   9 -12   9 267.550 457.422   2
  -9  -3   9 1520.51 743.702   2
   3   9   9 971.550 431.444   1
   9 -12   9 909.948 662.332   1
 -12   3   9-157.392 420.198   1
  12  -9   9 866.541 697.338   1
  -3  12   9 433.615 630.678   3
  -9  -3   9 607.863 513.053   4
   3   9   9 70.2989 763.223   3
 -12   3   9 777.631 529.865   4
 -12   3   9 664.488 517.467   3
  12  -9   9 998.995 352.438   2
  -9  -3   9 620.579 530.574   3
 -12   4  -7 7676.08 373.090   4
  -8  -4  -7 9955.68 778.458   4
   8 -12  -4 9256.14 357.736   1
  12  -8  -4 11446.3 526.883   1
  -8  -4  -4 10482.7 851.201   1
  -4  12  -4 10658.8 878.137   2
 -12   4  -4 8795.79 372.645   2
 -12   4  -4 10479.8 650.679   4
  -8  -4  -4 10836.4 808.414   2
  -8  -4  -4 11231.4 813.015   4
   8 -12  -4 8986.55 339.981   1
  -4  12  -4 8805.33 637.509   4
   4   8  -4 11488.7 856.388   4
   8 -12  -1 31919.3 1303.28   4
   8 -12  -1 33536.6 1167.08   1
   4   8  -1 32999.1 1344.16   4
  12  -8  -1 29757.5 1310.97   3
  -4  12  -1 32485.2 1057.77   3
  -8  -4  -1 32059.1 1328.43   4
  -4  12  -1 35413.7 1319.20   4
 -12   4  -1 30206.5 1316.25   1
 -12   4  -1 32956.7 1283.17   4
   8 -12  -1 31623.6 1265.28   2
   8 -12  -1 31132.0 1304.93   3
  -8  -4  -1 33574.1 1315.99   2
 -12   4  -1 31407.6 1059.18   2
   4   8  -1 29177.5 1390.51   2
  12  -8  -1 31308.2 1123.65   1
  -4  12  -1 34259.4 1357.96   2
  -8  -4  -1 32039.8 1274.87   1
   8 -12   2 4404.03 445.883   2
  -4  12   2 5158.87 594.258   3
   4   8   2 3919.52 513.542   3
  -8  -4   2 4292.08 698.329   2
  -8  -4   2 4686.81 575.876   1
 -12   4   2 4151.19 545.118   3
   8 -12   2 4193.64 521.151   3
  -8  -4   2 4315.73 580.332   4
  12  -8   2 4045.07 587.869   3
  -4  12   2 4694.50 634.625   2
  -8  -4   2 4069.11 295.260   3
   4   8   2 5006.29 663.995   2
   4   8   2 4183.33 596.617   4
   8 -12   2 5128.15 664.139   1
  12  -8   2 3839.57 590.702   1
  -4  12   2 4348.84 580.414   4
 -12   4   2 4869.33 541.697   1
   4   8   2 4205.81 528.768   1
   8 -12   2 3598.41 470.112   4
   4   8   5 20767.4 1378.07   3
  -4  12   5 20148.1 1382.40   3
  -8  -4   5 19730.4 946.899   3
 -12   4   5 17660.1 859.354   1
  -8  -4   5 18900.1 1123.10   4
   8 -12   5 19815.0 1311.57   1
   4   8   5 20273.7 1018.36   1
   8 -12   5 18031.2 881.914   2
  -8  -4   5 17925.1 1376.54   2
  12  -8   5 19598.1 1283.50   1
 -12   4   5 19550.8 1208.57   3
   4   8   8 370.416 681.322   3
  -8  -4   8 1074.35 488.518   3
   8 -12   8 554.380 570.441   1
 -12   4   8-19.1431 536.881   3
 -12   4   8-138.116 311.771   1
   4   8   8 468.790 400.923   1
  12  -8   8 605.551 608.890   1
  -8  -4   8 1446.77 535.246   4
  12  -8   8 428.526 223.454   2
  12  -8   8 140.026 231.931   2
  -4  12   8 115.825 632.417   3
   8 -12   8 716.275 418.581   2
  -8  -4   8 285.841 650.369   2
  12  -8  11 3278.90 1050.14   3
   8 -12  11 4580.27 1151.82   3
   4   8  11 4644.50 1221.31   3
 -12   4  11 6368.34 1164.36   3
  -8  -4  11 4019.48 925.083   3
  -4  12  11 6471.75 1229.90   3
   8 -12  11 5994.74 1136.44   1
  -8  -4  11 5458.18 1296.61   2
  12  -8  11 1888.68 895.529   1
  -8  -4  11 3996.93 873.408   1
 -12   4  11 5765.08 986.286   4
  -7  -5  -8 865.550 379.943   4
  -7  -5  -5 26408.3 1299.36   1
  -7  -5  -5 28158.0 1313.55   2
  -5  12  -5 23830.1 887.401   4
 -12   5  -5 27144.2 868.221   4
  -5  12  -5 24751.0 1284.88   2
  -7  -5  -5 24734.2 1162.26   4
  -7  -5  -2 2312.15 450.706   2
  -5  12  -2 2162.87 379.901   4
   7 -12  -2 2423.65 513.719   3
 -12   5  -2 2791.96 538.570   1
  12  -7  -2 2746.18 504.288   3
   7 -12  -2 1453.60 441.373   4
  -7  -5  -2 1967.80 478.460   1
   5   7  -2 2951.70 492.061   4
   7 -12  -2 1866.25 452.387   2
  -5  12  -2 2207.87 367.600   3
   7 -12  -2 2503.01 386.505   1
 -12   5  -2 2388.00 279.818   2
  -7  -5  -2 3007.53 489.921   4
  12  -7  -2 2224.32 370.192   1
   5   7  -2 2385.90 549.842   2
 -12   5  -2 2529.88 422.636   4
  -5  12  -2 2396.78 469.939   2
   5   7   1 11188.3 633.718   3
   7 -12   1 10603.5 818.100   1
 -12   5   1 11128.6 747.223   1
  12  -7   1 11518.5 831.513   1
   7 -12   1 10594.4 695.639   2
  -7  -5   1 11733.6 811.224   1
   5   7   1 11609.8 845.012   4
 -12   5   1 10819.6 757.359   3
  12  -7   1 11299.0 801.877   3
   7 -12   1 11590.4 764.098   4
   5   7   1 11417.3 879.579   2
   7 -12   1 11615.4 758.928   3
  -7  -5   1 11438.9 849.652   4
  -5  12   1 11363.5 822.707   4
  -7  -5   1 11885.7 960.234   2
  -5  12   1 11712.6 775.864   3
  -5  12   1 11668.7 835.669   2
   5   7   1 11687.3 787.438   1
   5   7   4 5629.81 597.853   1
  12  -7   4 6950.54 785.749   1
  -5  12   4 6246.59 748.908   3
   5   7   4 5830.23 734.403   3
  -7  -5   4 7546.14 509.231   3
 -12   5   4 6080.26 677.377   3
   7 -12   4 6351.57 563.387   2
 -12   5   4 5824.48 517.910   1
   7 -12   4 7034.95 659.363   3
   7 -12   4 6492.02 500.092   4
   5   7   4 6856.34 708.975   4
  -7  -5   4 5401.77 807.101   2
   7 -12   4 6474.51 790.169   1
  -7  -5   4 4976.11 628.356   4
  -7  -5   4 5997.20 644.873   1
   5   7   4 6664.53 748.240   2
  -7  -5   7 5326.38 659.016   3
   5   7   7 7493.36 1087.04   3
  12  -7   7 4890.27 340.259   2
 -12   5   7 6615.64 896.935   3
  12  -7   7 6769.04 888.607   1
   7 -12   7 6330.78 903.880   1
   7 -12   7 7577.41 769.471   2
 -12   5   7 6213.71 507.397   1
  -7  -5   7 5795.85 702.047   4
  -7  -5   7 6541.69 994.173   2
   5   7   7 6562.12 698.214   1
  12  -7   7 4347.23 360.133   2
  -5  12   7 7405.96 1079.24   3
   5   7  10 1520.97 913.362   3
  -5  12  10 2375.79 917.912   3
  -7  -5  10 493.917 519.011   3
   7 -12  10 1534.42 714.461   1
  -7  -5  10 820.506 482.009   4
   5   7  10 2007.51 561.701   1
 -12   5  10 557.652 682.314   3
   7 -12  10 2907.31 985.639   3
  -7  -5  10 1263.23 827.983   2
  12  -7  10 2439.33 812.146   1
   7 -12  10 1078.66 642.122   2
  -7  -5  10 2113.50 699.084   1
  -6  -6  -9 419.831 362.630   4
  -6  12  -6 3811.66 342.616   4
  -6  -6  -6 3196.64 514.160   4
 -12   6  -6 3189.00 242.017   4
  12  -6  -3 973.871 457.435   3
  -6  -6  -3 1526.23 407.664   1
  -6  -6  -3 1257.18 374.008   4
   6   6  -3 1473.63 452.141   4
   6 -12  -3 1736.12 504.548   2
  12  -6  -3 1364.52 315.011   1
   6 -12  -3 907.177 424.567   4
  -6  -6  -3 1323.54 436.238   2
   6 -12  -3 1477.83 479.977   3
  -6  12  -3 1592.61 332.194   4
 -12   6  -3 1057.43 315.082   4
  -6  12  -3 1021.93 344.501   2
   6 -12   0 32512.0 1210.95   3
   6   6   0 37432.3 1346.59   1
  -6  -6   0 33230.4 1264.76   1
  -6  -6   0 35471.4 1442.21   2
   6   6   0 35623.4 1470.33   2
 -12   6   0 35487.3 1311.80   1
  12  -6   0 32623.2 1284.02   3
  12  -6   0 35868.6 1297.98   1
 -12   6   0 33310.6 1291.75   3
  -6  12   0 35014.3 1317.55   4
   6 -12   0 35512.2 1317.34   4
   6   6   0 35639.4 1396.25   4
  -6  -6   0 28450.4 1243.86   4
   6 -12   0 34952.0 1270.76   2
  -6  12   0 35615.8 1309.10   2
  -6  12   0 33885.1 1208.88   3
  12  -6   3 1550.16 449.061   1
 -12   6   3 1193.90 322.770   1
   6   6   3 1967.13 490.408   3
   6   6   3 677.573 346.526   2
   6 -12   3 1466.12 386.688   2
  -6  -6   3 853.452 159.693   3
  -6  -6   3 551.171 302.725   1
   6 -12   3 1274.76 365.203   3
  -6  12   3 777.353 426.755   3
  -6  -6   3 1729.09 614.558   2
   6 -12   3 1237.35 485.250   1
  -6  -6   3 1298.52 407.213   4
   6   6   3 821.045 373.274   4
 -12   6   3 1357.15 454.483   3
   6 -12   3 1459.52 324.669   4
  -6  12   3 1509.74 463.382   4
   6   6   3 796.089 347.022   1
   6 -12   6 4966.15 789.683   1
  12  -6   6 5383.16 754.654   1
  -6  12   6 3747.72 716.230   3
   6   6   6 3180.66 750.653   3
  12  -6   6 2688.64 212.691   2
   6   6   6 4427.70 597.068   1
  -6  -6   6 4503.95 882.362   2
   6   6   6 4604.72 649.520   4
  -6  -6   6 4179.51 584.606   4
   6 -12   6 4343.39 634.569   2
 -12   6   6 4597.61 404.164   1
 -12   6   6 3815.35 648.396   3
   6 -12   6 3695.87 320.763   4
  -6  -6   6 4657.51 546.681   3
  -6  12   9-512.349 629.697   3
   6 -12   9-48.2982 541.049   3
   6   6   9 631.956 489.327   1
   6 -12   9 404.639 485.223   2
  12  -6   9 156.474 356.308   2
  -6  -6   9 485.510 520.239   3
 -12   6   9-421.601 596.659   3
  -6  -6   9-186.773 782.082   2
  -6  -6   9 450.154 552.509   1
   6 -12   9 230.380 641.068   1
  -6  -6   9 488.132 474.714   4
  12  -6   9 419.722 617.621   1
   6   6   9 911.054 768.120   3
  -5  -7  -7 6450.92 697.239   4
  12  -5  -4 5780.45 482.547   1
  -5  -7  -4 6932.14 716.556   2
  -5  -7  -4 5573.73 623.670   1
  -7  12  -4 5943.28 477.770   4
  -5  -7  -4 5952.01 649.723   4
  -7  12  -4 6538.18 632.765   2
 -12   7  -4 6486.21 487.028   4
   5 -12  -4 5188.65 707.860   2
   5 -12  -4 5893.78 705.810   4
  12  -5  -4 6399.93 735.321   3
   5 -12  -4 6330.76 390.424   1
  -7  12  -1 10235.8 704.931   3
   5 -12  -1 10471.9 799.504   2
   5 -12  -1 10085.5 744.634   3
  12  -5  -1 10289.7 772.691   3
   7   5  -1 9983.45 400.138   3
   7   5  -1 10266.3 755.224   1
  -7  12  -1 9136.01 676.653   4
 -12   7  -1 9683.77 757.930   3
  -5  -7  -1 9109.61 769.617   2
   5 -12  -1 10009.5 769.951   4
  12  -5  -1 9857.71 688.521   1
   7   5  -1 10181.7 807.787   4
  -5  -7  -1 10067.1 797.706   4
   7   5  -1 9415.52 839.014   2
 -12   7  -1 10680.8 811.349   1
  -5  -7  -1 9986.53 725.207   1
  -7  12  -1 11159.4 735.970   2
  -5  -7   2 2085.56 472.198   4
  -7  12   2 2247.29 456.373   3
 -12   7   2 2580.56 505.162   3
  -7  12   2 2987.03 546.427   4
   5 -12   2 3226.58 437.849   3
  -7  12   2 2055.42 492.061   2
  12  -5   2 2422.79 531.767   1
  12  -5   2 3065.80 479.926   3
  -5  -7   2 3204.89 630.557   2
   7   5   2 2550.10 453.173   1
   5 -12   2 2813.31 458.696   2
   7   5   2 2811.96 484.240   4
 -12   7   2 3237.51 441.566   1
   7   5   2 2769.44 542.783   2
   5 -12   2 2990.23 437.531   4
  -5  -7   2 2449.83 459.097   1
   7   5   5 22700.5 1248.78   2
  -5  -7   5 25876.2 984.569   3
  -7  12   5 25260.3 1542.41   3
  12  -5   5 24772.6 1385.66   1
 -12   7   5 23501.1 1375.84   3
   5 -12   5 25098.2 898.707   4
   7   5   5 23467.3 1190.75   4
   7   5   5 23704.1 1464.64   3
   5 -12   5 25210.2 1187.69   3
   5 -12   5 24085.1 1463.66   1
  -5  -7   5 22637.3 1497.15   2
   5 -12   5 25375.8 1227.69   2
 -12   7   5 24075.8 790.380   1
  -5  -7   5 25361.8 1226.02   4
   7   5   5 25622.1 1230.52   1
   7   5   8 1744.87 769.658   3
  12  -5   8 1471.41 347.766   2
  -5  -7   8 2529.88 551.406   3
  -7  12   8 1698.10 654.477   3
  -5  -7   8 2068.52 739.447   2
  -5  -7   8 2424.30 562.317   4
   5 -12   8 1604.74 542.683   2
 -12   7   8 1889.77 708.289   3
   5 -12   8 993.203 672.609   1
   7   5   8 1760.10 509.329   1
  12  -5   8 2825.95 738.939   1
   5 -12  11 5947.57 1127.74   3
   7   5  11 8753.67 1545.93   3
  -5  -7  11 4930.05 958.990   3
  -7  12  11 7405.20 1377.08   3
  12  -5  11 5004.90 1335.27   3
 -12   7  11 6251.73 1168.42   3
  -5  -7  11 6101.11 1264.53   2
   7   5  11 6616.64 903.745   1
   5 -12  11 5121.02 1084.48   1
  12  -5  11 4339.83 905.557   1
  -5  -7  11 4080.30 908.478   1
   5 -12  11 3586.02 898.571   2
  -4  -8  -8 289.927 392.877   4
  -8  12  -5 17010.5 643.976   4
  -4  -8  -5 17485.1 1139.83   2
  -4  -8  -5 17063.0 994.207   1
   4 -12  -5 17978.7 1145.00   4
   4 -12  -5 18312.3 647.474   1
 -12   8  -5 16079.5 592.004   4
 -12   8  -5 16905.2 569.977   4
  -4  -8  -5 17652.2 1052.92   4
   8   4  -5 18243.6 946.612   3
   4 -12  -5 15635.2 1158.27   2
  -4  -8  -2 3372.02 559.107   2
  -4  -8  -2 4247.03 520.321   1
   8   4  -2 3231.21 293.220   3
 -12   8  -2 3085.63 230.014   2
  12  -4  -2 3360.84 500.854   3
   8   4  -2 3694.95 667.338   2
  -8  12  -2 3469.58 486.780   3
  -8  12  -2 3843.42 459.048   4
   8   4  -2 3133.38 534.405   4
   4 -12  -2 3654.42 559.934   2
 -12   8  -2 3561.13 574.802   1
 -12   8  -2 2995.29 199.825   2
  -8  12  -2 3914.42 460.248   2
   4 -12  -2 3855.63 564.603   4
  12  -4  -2 3957.99 469.762   1
   4 -12  -2 4179.40 577.305   3
  -4  -8  -2 3081.37 507.433   4
  -4  -8   1 34983.4 1315.62   1
   4 -12   1 35179.6 1108.30   3
   8   4   1 33890.4 1303.47   1
 -12   8   1 32871.8 1326.94   3
  12  -4   1 33191.3 1320.20   1
   4 -12   1 34479.0 1300.97   2
   8   4   1 34875.3 1371.90   4
  12  -4   1 33960.7 1282.49   3
  -4  -8   1 36027.1 1401.57   4
   8   4   1 34542.4 1389.95   2
 -12   8   1 34061.3 1199.53   1
  -8  12   1 34489.5 1334.49   3
  -8  12   1 36310.0 1362.79   2
  -8  12   1 34215.6 1349.17   4
  -4  -8   1 34904.4 1478.23   2
   4 -12   1 35659.7 1304.11   4
  12  -4   4 10663.9 921.596   1
   4 -12   4 10669.4 675.076   4
  -8  12   4 10408.6 947.842   3
   4 -12   4 9539.34 809.912   2
   4 -12   4 9870.92 672.548   3
   8   4   4 9881.87 787.915   4
  -4  -8   4 10194.6 507.062   3
 -12   8   4 11453.4 925.302   3
  12  -4   4 7884.93 392.155   2
  -4  -8   4 9689.51 959.016   2
  -4  -8   4 9182.62 770.649   4
   8   4   4 10499.8 815.057   1
   8   4   4 10051.9 816.213   2
 -12   8   4 10119.4 535.589   1
   8   4   7 13292.9 1334.19   3
  -8  12   7 11808.4 1226.33   3
   4 -12   7 11910.9 1030.25   2
  -4  -8   7 12470.9 918.725   4
 -12   8   7 13222.3 1243.68   3
   8   4   7 8772.67 787.127   4
   4 -12   7 11549.4 1157.04   1
   8   4   7 12612.5 1011.00   1
  -4  -8   7 11900.1 890.904   3
  -4  -8   7 12111.0 1267.12   2
  12  -4   7 11861.9 1080.45   1
  12  -4   7 11494.4 652.060   2
   4 -12   7 10086.1 549.877   4
  12  -4  10 2102.21 906.519   3
   4 -12  10 2931.21 808.996   3
  -4  -8  10 2935.12 737.051   3
  -4  -8  10 712.938 709.903   2
  -8  12  10 1069.04 735.947   3
  -4  -8  10 1494.63 684.899   1
 -12   8  10 634.723 861.257   3
  12  -4  10 2454.66 788.709   1
   8   4  10 1106.98 610.636   1
  -4  -8  10 1218.88 501.822   4
   4 -12  10 1033.72 653.517   2
   8   4  10 1488.89 855.211   3
   4 -12  10 2002.23 834.588   1
  -3  -9  -9 1288.68 512.725   4
   9   3  -6 5019.93 641.864   3
  -3  -9  -6 5105.05 630.642   1
   3 -12  -6 4888.10 391.217   1
  -3  -9  -6 5744.49 754.844   2
  -3  -9  -6 5851.93 698.362   4
   3 -12  -6 6174.83 751.213   4
   3 -12  -3 1062.86 279.831   1
  -3  -9  -3 1091.95 426.504   2
  -9  12  -3 1305.77 298.803   2
  12  -3  -3 796.209 352.859   3
   3 -12  -3 682.173 422.046   2
  12  -3  -3 869.634 300.851   1
   3 -12  -3 754.292 450.949   4
   9   3  -3 906.851 243.746   3
  -3  -9  -3 1080.80 351.190   1
   3 -12  -3 859.964 413.223   3
  -3  -9  -3 890.780 413.634   4
  -9  12  -3 901.218 286.544   4
  -9  12   0 6940.11 592.374   2
  -9  12   0 6745.65 631.676   4
  12  -3   0 6534.54 631.605   1
  -9  12   0 7208.43 662.792   3
 -12   9   0 5967.30 500.589   2
   9   3   0 7533.23 678.727   1
 -12   9   0 6050.59 663.891   3
   9   3   0 5960.05 450.504   3
  -3  -9   0 7615.27 694.598   4
  -3  -9   0 6165.17 609.208   1
   3 -12   0 7183.52 698.117   2
   3 -12   0 7808.66 710.266   4
   3 -12   0 6541.55 541.612   3
   9   3   0 8221.05 770.806   4
  12  -3   0 6145.63 596.988   3
   9   3   0 6876.21 711.089   2
 -12   9   0 6862.20 651.906   1
  -3  -9   0 6908.11 727.923   2
   3 -12   3-401.664 421.081   2
   9   3   3-238.608 318.041   4
  12  -3   3 11.3881 395.469   1
 -12   9   3 355.966 251.908   1
  12  -3   3 162.952 234.824   2
  -9  12   3 113.703 394.556   3
  -3  -9   3 208.471 363.617   4
   3 -12   3 38.6554 236.013   3
  -3  -9   3 32.8671 414.069   2
   9   3   3 754.483 399.197   1
   9   3   3 399.038 345.535   2
   3 -12   3 69.0787 274.395   4
 -12   9   3 896.368 414.220   3
  -9  12   6 1759.14 593.825   3
   9   3   6 1419.46 475.287   2
   3 -12   6 3033.40 702.792   1
 -12   9   6 2571.29 636.548   3
  -3  -9   6 2445.43 458.972   3
   9   3   6 2503.14 552.374   1
   3 -12   6 2011.24 363.855   4
  -3  -9   6 3472.59 776.682   2
  12  -3   6 1883.84 341.959   2
   9   3   6 1836.27 448.008   4
  -3  -9   6 2269.25 470.004   4
   3 -12   6 1871.60 554.947   2
  12  -3   6 2507.37 620.801   1
 -12   9   9 1856.80 745.758   3
   3 -12   9 618.947 563.858   3
   9   3   9-869.412 720.231   3
  -3  -9   9 50.0719 459.073   3
  -9  12   9-389.275 649.731   3
   3 -12   9 816.659 634.656   2
  -3  -9   9 170.861 377.406   4
   9   3   9 205.459 477.576   1
  -3  -9   9 546.099 567.745   1
  -3  -9   9-219.434 640.872   2
   3 -12   9-298.139 585.006   1
  12  -3   9 38.6817 565.237   1
   2 -12  -7 797.170 262.126   1
  -2 -10  -7 854.499 414.062   1
  -2 -10  -7 442.275 400.748   4
   2 -12  -7 1549.73 524.837   4
 -10  12  -4 3007.45 351.222   4
  10   2  -4 2727.74 427.002   3
   2 -12  -4 2886.93 385.378   1
  12  -2  -4 1958.96 490.068   3
   2 -12  -4 2483.91 567.956   2
   2 -12  -4 2149.06 534.552   4
  -2 -10  -4 1738.01 418.217   1
 -10  12  -4 2251.57 337.033   2
  -2 -10  -4 1910.44 515.836   2
 -12  10  -4 2698.10 334.228   4
  -2 -10  -4 3265.95 563.462   4
   2 -12  -1 6984.64 731.661   2
   2 -12  -1 7478.38 621.671   3
 -12  10  -1 7540.03 469.094   2
  12  -2  -1 6362.63 591.877   3
   2 -12  -1 7256.38 708.869   4
 -12  10  -1 7766.38 696.439   3
  10   2  -1 7135.76 522.068   3
 -10  12  -1 7819.38 563.624   2
 -10  12  -1 6674.34 662.043   3
  10   2  -1 6896.05 627.903   1
  -2 -10  -1 7364.94 629.222   1
  10   2  -1 6268.28 686.398   4
  10   2  -1 8139.37 809.523   2
 -12  10  -1 7240.84 712.765   1
  -2 -10  -1 7458.65 715.926   4
 -10  12  -1 7359.57 622.650   4
  -2 -10  -1 6292.85 709.494   2
  12  -2  -1 6766.31 628.612   1
 -10  12   2 9824.76 812.091   4
   2 -12   2 11278.5 787.779   4
   2 -12   2 9133.37 796.495   2
 -10  12   2 10226.0 821.115   2
 -12  10   2 9951.89 838.685   3
   2 -12   2 11002.1 567.750   3
 -10  12   2 9715.61 818.757   3
 -12  10   2 9750.78 799.380   2
 -12  10   2 10581.6 643.500   1
  12  -2   2 10204.2 803.927   3
  12  -2   2 9615.37 817.855   1
  10   2   2 11799.1 876.668   4
  12  -2   2 10872.1 677.759   2
  10   2   2 9660.26 751.059   2
  -2 -10   2 10317.3 802.286   4
  10   2   2 11326.8 858.441   1
  -2 -10   2 9203.06 845.073   2
  -2 -10   5 4763.35 464.532   3
 -10  12   5 3485.79 675.642   3
 -12  10   5 4586.00 713.862   3
  12  -2   5 3873.16 668.577   1
   2 -12   5 3655.17 467.292   3
  10   2   5 4556.04 674.186   1
   2 -12   5 4641.08 518.621   4
  -2 -10   5 5060.85 823.299   2
  -2 -10   5 4743.92 571.378   4
  10   2   5 4711.90 598.664   4
   2 -12   5 4554.03 686.950   2
  10   2   5 3958.80 554.927   2
  12  -2   5 4905.11 459.644   2
  12  -2   8 1829.77 640.556   1
  10   2   8 468.450 676.633   3
   2 -12   8 1701.86 595.605   3
  12  -2   8 1041.72 456.422   2
  -2 -10   8 1138.86 528.046   3
  -2 -10   8 1648.21 476.542   4
   2 -12   8 1130.64 331.954   4
 -10  12   8 538.708 670.376   3
 -12  10   8 2326.37 718.582   3
  10   2   8 1164.25 583.740   1
  10   2   8 1275.20 452.626   4
  -2 -10   8 1713.67 768.470   2
   2 -12   8 1497.39 631.290   1
   2 -12   8 630.585 568.735   2
   2 -12  11 2105.59 835.296   1
 -10  12  11 748.520 906.692   3
  12  -2  11 2574.09 991.906   3
   2 -12  11 788.514 675.060   3
  12  -2  11 1336.81 743.612   1
  -2 -10  11 1225.14 724.863   3
 -12  10  11 1692.10 942.722   3
  10   2  11 376.753 916.769   3
  -2 -10  11 929.141 710.379   1
  10   2  11 1752.33 726.774   1
   2 -12  11 1127.33 723.586   2
  -2 -10  11 564.454 825.660   2
   1 -12  -8 1295.85 341.005   1
  -1 -11  -8 1099.45 412.419   1
  -1 -11  -8 1513.49 482.734   4
   1 -12  -8 696.395 535.863   4
 -11  12  -5 5814.66 386.226   4
  12  -1  -5 4780.57 649.952   3
   1 -12  -5 5957.67 545.569   1
  -1 -11  -5 5710.76 586.668   1
  11   1  -5 5154.58 639.553   3
  -1 -11  -5 6557.81 729.365   4
   1 -12  -5 6710.79 745.217   4
   1 -12  -5 5826.17 810.602   2
  -1 -11  -5 5419.34 772.293   2
 -12  11  -5 5358.34 364.566   4
  -1 -11  -2 15839.2 918.210   3
   1 -12  -2 18196.5 1008.70   3
  -1 -11  -2 17006.1 896.710   1
   1 -12  -2 16663.2 1078.42   2
 -11  12  -2 16263.0 1011.50   3
   1 -12  -2 19494.6 1126.00   4
  11   1  -2 17037.9 827.423   3
  12  -1  -2 17522.8 922.039   3
 -11  12  -2 17911.2 722.740   2
   1 -12  -2 16509.2 853.636   1
  -1 -11  -2 17150.6 1096.65   2
 -12  11  -2 16791.8 1096.88   1
 -11  12  -2 17523.7 1123.06   1
 -12  11  -2 17747.5 868.543   4
 -11  12  -2 17939.4 896.798   4
  11   1  -2 17250.8 963.227   1
  -1 -11  -2 18274.0 1095.90   4
 -12  11  -2 18739.6 631.372   2
 -12  11  -2 16833.4 1042.55   3
  12  -1  -2 16516.4 910.386   1
  -1 -11   1 22197.3 1157.34   4
   1 -12   1 22665.0 1175.78   2
   1 -12   1 22096.3 758.474   3
 -11  12   1 23289.5 1090.69   2
  11   1   1 24142.0 1013.80   3
 -12  11   1 23370.6 1085.48   2
 -12  11   1 21248.5 1097.72   4
 -12  11   1 22856.5 1171.14   3
  12  -1   1 21168.3 995.763   3
  11   1   1 21006.7 1101.66   2
  -1 -11   1 22240.1 1211.50   2
 -11  12   1 24804.0 1221.60   3
 -11  12   1 22358.3 1023.91   1
  11   1   1 25141.8 1260.64   4
 -12  11   1 23273.8 1021.29   1
  12  -1   1 21578.4 1127.46   1
   1 -12   1 23304.9 1148.76   4
  12  -1   1 23055.5 1101.92   2
  11   1   1 23481.8 1169.92   1
 -11  12   1 23224.1 1158.94   4
 -12  11   4 10374.5 997.684   3
 -11  12   4 11291.0 1022.93   3
  11   1   4 11120.4 929.488   1
  12  -1   4 10676.0 778.537   4
   1 -12   4 10883.3 973.315   2
   1 -12   4 12672.2 630.119   3
  -1 -11   4 12095.7 534.697   3
  12  -1   4 10576.1 942.711   1
  11   1   4 11264.5 825.975   4
  -1 -11   4 12312.1 866.695   4
  12  -1   4 10944.9 691.903   2
  -1 -11   4 10817.9 989.631   2
  11   1   4 11239.5 788.380   2
   1 -12   4 12579.3 830.634   4
  -1 -11   4 11574.4 565.605   3
  12  -1   7 7336.98 681.933   2
  12  -1   7 7615.49 925.990   1
  -1 -11   7 10579.5 870.428   3
   1 -12   7 9543.24 1101.03   1
 -12  11   7 9849.54 1118.27   3
  11   1   7 8275.53 785.220   4
   1 -12   7 9718.05 911.007   3
 -11  12   7 9091.52 1108.81   3
  11   1   7 10894.7 1028.42   1
   1 -12   7 10133.5 1088.07   2
  -1 -11   7 9292.84 787.684   4
   1 -12   7 9139.01 692.692   4
  11   1   7 7842.86 791.588   2
  -1 -11   7 10266.1 1143.50   2
  -1 -11  10 4477.36 873.121   3
  11   1  10 3921.76 1206.22   3
 -11  12  10 5946.71 1143.04   3
  12  -1  10 5243.90 911.054   1
 -12  11  10 4089.85 1049.56   3
  -1 -11  10 4208.58 1020.94   2
  11   1  10 4106.11 828.333   1
  -1 -11  10 4765.28 1041.58   1
   1 -12  10 5142.56 950.081   3
   1 -12  10 6145.80 1071.05   1
   1 -12  10 5676.61 1036.94   2
  12  -1  10 5451.12 1183.68   3
   0 -12  -6 6857.77 644.007   1
   0 -12  -6 6963.90 807.807   4
   0 -12  -6 7088.36 865.637   2
   0 -12  -3 618.553 411.007   3
  12   0  -3 285.171 297.783   3
   0 -12  -3 26.2024 377.526   2
 -12  12  -3 40.2928 153.568   2
  12   0  -3-149.650 307.149   1
   0 -12  -3-0.96274 354.366   4
   0 -12  -3 317.251 308.778   1
 -12  12  -3-135.889 249.929   4
   0 -12   0 949.533 385.339   1
   0 -12   0 76.6971 214.034   3
 -12  12   0 0.38260 320.377   4
   0 -12   0 535.278 371.853   2
 -12  12   0 556.172 285.561   2
  12   0   0-7.12378 338.662   1
 -12  12   0 600.106 353.424   1
  12   0   0 315.351 303.513   3
 -12  12   0 962.559 429.406   3
   0 -12   0 219.936 341.953   4
  12   0   0-161.189 398.218   2
   0 -12   3-198.463 425.791   2
 -12  12   3 928.908 454.928   3
   0 -12   3 120.416 152.657   3
   0 -12   3 223.845 363.965   4
  12   0   3 185.274 375.468   4
  12   0   3-280.258 318.727   2
  12   0   3 200.747 380.372   1
   0 -12   6 7178.83 676.865   3
 -12  12   6 7490.75 970.892   3
  12   0   6 7768.16 892.766   1
  12   0   6 6247.49 669.286   4
   0 -12   6 8196.18 998.519   2
   0 -12   6 7461.22 714.001   4
  12   0   6 6297.43 653.050   2
   0 -12   9 714.696 521.795   3
 -12  12   9-414.573 723.635   3
  12   0   9-1069.98 654.903   1
  12   0   9 517.795 778.635   3
   0 -12   9-695.626 629.652   2
   0 -12   9 180.591 367.061   4
   0 -12   9-568.684 620.615   1
 -13   0  -7 493.859 339.354   4
 -13   0  -4 40866.0 1366.01   2
  13 -13  -4 40514.1 953.570   1
   0  13  -4 40117.0 1556.93   4
 -13   0  -4 41599.7 1542.48   4
  13 -13  -1-47.7712 334.619   1
 -13   0  -1 499.563 385.639   4
   0  13  -1 131.165 172.908   3
 -13   0  -1-108.856 334.164   2
   0  13   2 29835.7 1271.62   3
 -13   0   2 27959.2 1105.81   3
  13 -13   2 31744.4 1546.75   1
 -13   0   2 30765.5 1483.61   4
 -13   0   2 29335.6 1595.69   2
   0  13   5 74.9400 512.248   3
 -13   0   5 136.113 376.931   3
  13 -13   5 537.797 508.021   1
 -13   0   5 237.736 644.864   2
 -13   0   5 635.479 504.158   4
   0  13   8 14137.3 1516.20   3
 -13   0   8 14081.9 1531.00   2
  13 -13   8 15224.3 1446.89   1
 -13   0   8 13586.5 1200.03   3
 -13   0   8 13636.2 1224.36   4
 -12  -1  -8 522.176 343.969   4
 -13   1  -8 980.893 321.616   4
  -1  13  -5 1577.82 429.857   4
 -12  -1  -5 848.968 352.452   2
 -13   1  -5 1785.44 341.476   2
   1  12  -5 1285.36 462.990   4
 -13   1  -5 2073.00 411.468   4
 -12  -1  -5 1344.28 402.331   4
 -12  -1  -2 3188.95 559.640   4
  -1  13  -2 3174.33 566.803   4
   1  12  -2 2466.02 513.736   4
 -13   1  -2 3278.75 515.028   4
 -13   1  -2 3183.31 435.426   2
  13 -12  -2 3695.50 463.623   1
  12 -13  -2 3477.78 418.820   1
  -1  13   1 10126.3 685.544   3
 -12  -1   1 9712.17 897.092   4
  12 -13   1 9117.39 815.707   3
  12 -13   1 9672.44 633.076   2
 -13   1   1 9971.99 882.030   4
 -13   1   1 8956.35 875.199   2
 -12  -1   1 9560.55 639.134   3
 -13   1   1 8929.35 800.122   1
  12 -13   1 10733.5 866.044   1
 -13   1   1 9273.33 689.655   3
 -12  -1   1 10494.5 839.533   1
 -12  -1   1 9557.64 930.741   2
  13 -12   1 10403.5 856.931   1
   1  12   1 9758.78 647.421   3
 -13   1   4-134.264 430.199   4
  12 -13   4 1012.82 509.990   1
   1  12   4 825.879 420.893   3
  -1  13   4 739.829 461.634   3
 -12  -1   4 835.531 483.405   4
  13 -12   4 282.213 388.636   1
 -13   1   4 699.394 362.168   3
 -12  -1   4 971.583 352.048   3
 -12  -1   4 1070.53 605.924   2
 -13   1   4 1104.90 537.129   2
 -13   1   4 1169.99 414.055   1
  12 -13   4 707.583 174.169   2
   1  12   7 8379.11 1076.54   3
  -1  13   7 7372.86 1133.84   3
  13 -12   7 7318.01 1028.13   1
 -12  -1   7 7643.29 867.566   3
 -13   1   7 8846.86 945.051   3
 -13   1   7 8595.70 1178.82   2
 -13   1   7 8182.31 959.273   4
 -12  -1   7 8743.50 1250.74   2
 -12  -1   7 7426.41 879.887   4
   1  12   7 8015.09 666.014   1
  12 -13   7 5337.90 404.342   2
  12 -13   7 7885.11 1040.16   1
 -12  -1  10 1168.94 916.422   2
 -12  -1  10 3660.92 862.171   3
  12 -13  10 1580.68 730.182   1
   1  12  10 2467.44 971.041   3
  -1  13  10 2471.03 919.558   3
 -13   1  10 1072.89 711.653   3
 -12  -1  10 1278.52 615.406   1
  13 -12  10 1295.10 778.129   1
 -13   1  10 2262.70 726.570   4
 -13   1  10 1692.63 944.297   2
 -12  -1  10 1355.45 652.849   4
 -11  -2  -9 3921.05 516.083   4
  -2  13  -6 1795.08 438.063   4
 -11  -2  -6 1117.72 394.584   4
 -11  -2  -6 1686.10 418.599   2
   2  11  -6 1329.78 449.626   4
 -13   2  -6 1566.86 359.810   4
 -11  -2  -3 3670.96 502.410   2
 -13   2  -3 3799.46 432.468   2
  13 -11  -3 6387.78 485.431   1
 -13   2  -3 5022.29 586.304   4
   2  11  -3 4318.21 605.757   4
  -2  13  -3 5340.22 605.689   4
 -11  -2  -3 5869.01 657.547   4
  -2  13  -3 4369.29 696.843   2
  11 -13  -3 5245.79 417.903   1
 -13   2   0 242.772 368.103   1
  -2  13   0 550.188 444.457   2
  11 -13   0 1075.12 367.980   1
   2  11   0 739.898 220.809   3
 -13   2   0 243.856 305.697   3
  -2  13   0 1071.06 275.385   3
  13 -11   0 885.087 434.161   3
 -11  -2   0 370.405 377.971   4
  13 -11   0 1242.13 386.458   1
 -11  -2   0 1013.56 435.887   1
  11 -13   0 480.665 279.880   2
 -13   2   0-280.511 402.672   4
   2  11   0 573.335 364.492   4
  11 -13   0 835.235 390.597   3
   2  11   0 494.801 417.367   2
 -13   2   0 1409.69 445.470   2
 -11  -2   0 99.5133 362.786   2
  -2  13   0 304.883 378.142   4
   2  11   3 10389.7 865.066   3
 -11  -2   3 8417.31 757.935   1
 -11  -2   3 10201.2 882.730   4
  11 -13   3 9505.53 543.765   2
 -13   2   3 9382.70 731.329   3
 -13   2   3 9920.13 884.037   4
 -11  -2   3 9992.53 631.323   3
  -2  13   3 9844.92 865.322   3
  13 -11   3 9082.27 885.208   1
 -13   2   3 8361.99 742.591   1
 -11  -2   3 9844.31 1040.06   2
 -13   2   3 10189.3 1041.64   2
  11 -13   3 11610.6 992.525   1
 -13   2   6 2404.16 603.143   4
 -11  -2   6 4218.30 608.653   3
   2  11   6 2183.01 428.104   1
 -13   2   6 2280.93 762.383   2
  11 -13   6 3608.20 698.849   1
   2  11   6 2807.04 704.887   3
  -2  13   6 3490.84 768.635   3
 -13   2   6 2413.79 576.283   3
  11 -13   6 2457.77 328.701   2
 -11  -2   6 3538.35 637.789   4
 -11  -2   6 1430.15 676.702   2
  13 -11   6 4059.51 777.919   1
 -13   2   6 2022.60 483.433   1
   2  11   9 2776.70 971.166   3
 -11  -2   9 2461.60 650.438   3
  13 -11   9 1491.69 694.763   1
 -11  -2   9 2590.33 659.813   4
 -11  -2   9 3877.86 1049.54   2
 -13   2   9 2512.02 877.685   2
   2  11   9 2596.94 501.418   1
  11 -13   9 1713.07 734.793   1
 -13   2   9 3496.11 792.609   4
  -2  13   9 2584.76 951.216   3
 -13   2   9 1454.00 654.322   3
  11 -13   9 2223.90 516.292   2
 -13   3  -7 468.989 239.033   4
 -10  -3  -7 795.988 381.239   4
 -13   3  -4 22150.4 732.413   2
  -3  13  -4 22875.7 1069.27   4
   3  10  -4 22234.2 1175.11   4
 -13   3  -4 22775.5 1031.41   4
  10 -13  -4 20311.4 575.228   1
 -10  -3  -4 23002.3 1136.96   2
 -10  -3  -4 23421.2 1157.77   4
  13 -10  -4 23227.8 746.516   1
  -3  13  -4 22283.0 1328.13   2
  10 -13  -1 1803.66 402.052   1
 -10  -3  -1 1923.38 445.720   2
 -13   3  -1 2724.50 558.595   1
  13 -10  -1 1128.94 395.898   3
  10 -13  -1 863.806 425.628   3
 -10  -3  -1 1826.38 491.226   4
  -3  13  -1 888.265 288.579   3
  13 -10  -1 1129.91 368.068   1
  10 -13  -1 1386.45 407.133   2
 -10  -3  -1 1036.38 463.178   1
  -3  13  -1 1077.34 425.493   4
  -3  13  -1 1705.67 485.767   2
 -13   3  -1 1651.86 457.966   4
 -13   3  -1 1534.48 385.235   2
   3  10  -1 1214.99 495.612   2
   3  10  -1 1571.33 496.377   4
  13 -10   2 42797.7 1673.21   1
  10 -13   2 46382.4 1246.70   2
  -3  13   2 49278.2 1617.93   3
  10 -13   2 49195.4 1804.61   1
   3  10   2 49399.8 1537.33   3
  10 -13   2 44009.7 1563.44   3
 -13   3   2 49815.5 1925.84   2
 -13   3   2 46548.1 1511.29   3
 -10  -3   2 47637.9 1094.22   3
 -13   3   2 45769.6 1524.73   1
 -10  -3   2 46817.9 1720.74   4
 -13   3   2 48109.5 1750.53   4
 -10  -3   2 48759.9 1967.15   2
 -10  -3   2 47609.1 1633.33   1
  10 -13   5 1006.15 255.545   2
 -13   3   5-101.922 381.904   4
  -3  13   5 885.945 617.125   3
 -10  -3   5 2358.46 600.837   4
 -10  -3   5 1763.56 413.703   3
 -13   3   5 670.759 395.682   3
  13 -10   5 689.714 525.484   1
   3  10   5 1965.40 620.503   3
  10 -13   5 1915.79 653.766   1
 -10  -3   5 2133.97 686.888   2
   3  10   5 984.181 374.421   1
 -13   3   5 213.920 319.329   1
   3  10   8 13272.9 1466.91   3
  10 -13   8 11876.4 848.327   2
  -3  13   8 14146.6 1533.09   3
  13 -10   8 14599.9 1348.97   1
 -10  -3   8 14838.9 1163.41   3
 -13   3   8 14116.3 1250.95   3
   3  10   8 13091.5 904.833   1
 -13   3   8 14325.8 1240.63   4
 -10  -3   8 10782.2 1350.57   2
 -10  -3   8 13869.8 1124.31   4
  10 -13   8 15820.9 1451.49   1
  -9  -4  -8 1350.88 426.969   4
  -9  -4  -5 3440.28 541.517   2
 -13   4  -5 3377.48 442.223   4
   4   9  -5 2946.37 570.010   4
  -4  13  -5 3598.68 631.244   2
  -9  -4  -5 2833.90 470.119   4
  -4  13  -5 3060.41 440.411   4
 -13   4  -2 4983.12 596.852   4
  -9  -4  -2 3374.68 552.903   1
  13  -9  -2 3394.24 582.942   3
  13  -9  -2 5294.77 510.821   1
  -4  13  -2 4292.19 432.210   3
   4   9  -2 2887.60 514.883   4
   9 -13  -2 4440.70 468.117   1
  -9  -4  -2 4377.20 572.209   4
  -9  -4  -2 4365.48 568.039   2
  -4  13  -2 4700.11 620.847   2
  -4  13  -2 5024.78 574.173   4
   9 -13  -2 4042.08 645.315   3
   9 -13  -2 3922.58 604.727   2
 -13   4  -2 4360.78 407.670   2
   4   9   1 15127.3 747.613   3
  -4  13   1 14779.9 1024.04   2
  13  -9   1 14171.9 944.489   1
   9 -13   1 16147.2 844.265   2
  -4  13   1 15775.4 879.993   3
 -13   4   1 16866.5 972.022   1
   9 -13   1 13843.7 902.776   3
 -13   4   1 15545.7 918.814   3
  13  -9   1 14233.4 973.046   3
  -9  -4   1 16625.4 1040.55   4
   9 -13   1 14903.5 865.890   4
   4   9   1 15892.8 1055.48   4
   4   9   1 14865.4 1054.29   2
   9 -13   1 17457.9 1049.65   1
  -9  -4   1 16367.2 982.864   1
 -13   4   1 14729.9 987.558   4
  -9  -4   1 15786.1 1122.10   2
 -13   4   1 16414.1 1037.01   2
  -4  13   1 16904.0 1061.30   4
  -4  13   4 10526.4 976.068   3
  13  -9   4 9219.76 914.762   1
   9 -13   4 9409.37 956.314   1
  -9  -4   4 10004.8 611.228   3
 -13   4   4 9505.74 829.426   3
   4   9   4 9844.75 919.170   3
 -13   4   4 9496.83 717.825   1
   4   9   4 9072.95 729.819   1
  -9  -4   4 9804.67 856.046   4
  -9  -4   4 8956.83 985.130   2
   9 -13   4 10110.7 642.980   2
   4   9   7 1070.06 680.276   3
  -4  13   7 1426.01 658.389   3
  -9  -4   7 1767.07 501.105   3
 -13   4   7 1083.09 464.361   3
  13  -9   7 887.235 528.933   1
 -13   4   7 262.008 352.775   1
   4   9   7 562.460 349.639   1
  -9  -4   7 509.334 450.739   4
   9 -13   7 1333.17 638.872   1
  -9  -4   7 172.909 585.718   2
   9 -13   7 1166.49 416.800   2
   4   9  10 1559.64 526.445   1
   4   9  10 1273.20 896.102   3
  -4  13  10 902.881 838.830   3
   9 -13  10 3070.81 901.492   1
   9 -13  10 2384.73 651.127   2
  -9  -4  10 1539.61 640.640   3
  -9  -4  10 1180.57 569.241   1
 -13   4  10 2263.53 815.284   3
  -9  -4  10 1926.65 858.980   2
 -13   4  10 1835.70 726.817   4
  13  -9  10 1755.16 803.429   1
  -9  -4  10 1072.59 523.626   4
  -8  -5  -9 1488.67 441.325   4
  -5  13  -6 3316.22 411.603   4
  -8  -5  -6 3636.57 562.720   4
  -8  -5  -6 4645.14 651.814   2
 -13   5  -6 3233.70 350.642   4
  13  -8  -3 10858.2 626.756   1
  -8  -5  -3 11524.9 855.553   2
   8 -13  -3 13028.1 999.393   2
  -8  -5  -3 11877.8 898.234   1
   5   8  -3 11618.7 896.888   4
   8 -13  -3 12280.1 621.817   1
 -13   5  -3 12202.5 775.440   4
   8 -13  -3 9534.23 849.238   4
  -8  -5  -3 10046.6 795.489   4
  -5  13  -3 10158.5 721.852   4
  -5  13  -3 9409.39 807.892   2
 -13   5  -3 8830.72 365.870   2
   5   8   0 8421.50 436.862   3
 -13   5   0 8667.47 749.602   1
   8 -13   0 9311.06 711.009   2
  -5  13   0 8018.13 736.235   2
   8 -13   0 9043.98 758.490   3
  13  -8   0 8741.04 734.416   1
  13  -8   0 8953.74 761.147   3
   8 -13   0 8681.40 731.104   4
 -13   5   0 8314.77 702.249   2
   5   8   0 9646.58 914.899   2
   8 -13   0 8599.79 716.472   1
  -8  -5   0 8973.28 799.044   4
  -5  13   0 9564.25 795.848   4
  -8  -5   0 8368.58 784.991   2
  -5  13   0 9743.51 681.903   3
   5   8   0 8137.00 761.969   4
 -13   5   0 8503.01 700.078   3
  -8  -5   0 8952.61 746.448   1
  -8  -5   3 8253.89 418.284   3
   5   8   3 7501.00 795.691   4
   8 -13   3 7216.20 681.505   3
  -5  13   3 9714.94 854.783   3
  -8  -5   3 6635.88 861.939   2
  -8  -5   3 7750.62 719.782   1
   5   8   3 7323.90 680.387   1
   5   8   3 7645.58 757.699   3
  -8  -5   3 8201.44 758.070   4
   8 -13   3 9007.41 892.908   1
   5   8   3 8179.06 827.997   2
   8 -13   3 8999.28 626.574   4
 -13   5   3 8467.36 757.503   3
   8 -13   3 7070.56 572.899   2
 -13   5   3 8119.05 657.717   1
  13  -8   3 7744.67 820.123   1
  -8  -5   6 1442.38 467.367   4
   5   8   6 1408.51 586.114   3
  -8  -5   6 2717.66 783.461   2
  -5  13   6 2654.03 679.180   3
 -13   5   6 1947.19 411.299   1
  -8  -5   6 1702.36 393.109   3
 -13   5   6 1394.72 513.844   3
  13  -8   6 1194.17 502.776   1
   8 -13   6 1535.94 591.079   1
   5   8   6 1985.63 435.693   1
   8 -13   6 1367.14 372.928   2
   8 -13   9 1547.58 733.685   1
   5   8   9 2006.71 827.977   3
  -5  13   9 2637.74 846.016   3
  -8  -5   9 1949.82 622.028   3
 -13   5   9 2784.56 805.141   3
   5   8   9 1760.40 514.258   1
  -8  -5   9 2310.33 624.160   4
  -8  -5   9 793.899 689.560   2
 -13   5   9 727.040 282.452   1
   8 -13   9 2462.16 599.488   2
  13  -8   9 2413.64 758.074   1
  -7  -6  -7 95.4884 428.231   2
  -7  -6  -7 433.655 353.728   4
   7 -13  -4 17772.9 1139.30   4
   6   7  -4 15062.1 1050.48   4
   7 -13  -4 15499.9 598.852   1
  -7  -6  -4 15118.5 1002.34   1
  -6  13  -4 17323.4 1033.65   2
 -13   6  -4 16626.3 801.894   4
  13  -7  -4 18297.7 770.520   1
  -7  -6  -4 16594.9 1028.92   2
   7 -13  -4 16102.6 1138.92   2
  -7  -6  -4 16583.8 1006.32   4
  -6  13  -4 16405.4 819.697   4
   7 -13  -4 16092.9 556.998   1
   7 -13  -1 12136.6 850.405   3
  -6  13  -1 12623.5 841.346   4
  13  -7  -1 12047.4 890.789   3
   6   7  -1 11442.7 864.041   4
  -6  13  -1 10945.0 727.871   3
  13  -7  -1 11896.4 763.167   1
 -13   6  -1 10744.7 825.781   3
 -13   6  -1 10058.2 834.517   1
 -13   6  -1 12598.4 692.707   2
   6   7  -1 11131.8 942.613   2
   7 -13  -1 12063.6 883.104   4
  -7  -6  -1 10981.9 859.387   2
   7 -13  -1 10399.6 823.492   2
  -7  -6  -1 11685.8 852.600   1
  -6  13  -1 11590.7 832.171   2
  -7  -6  -1 11796.7 874.475   4
  -6  13   2 9224.96 845.432   2
   6   7   2 9960.92 742.391   3
  13  -7   2 9727.79 827.048   3
 -13   6   2 10448.8 728.565   1
  13  -7   2 11103.9 892.231   1
  -6  13   2 10733.6 843.028   3
   6   7   2 11201.1 903.255   2
   7 -13   2 10965.4 759.131   3
 -13   6   2 9409.65 776.023   3
   7 -13   2 11816.9 747.105   2
  -7  -6   2 9885.17 780.383   1
   7 -13   2 10964.9 922.009   1
   6   7   2 9607.16 751.393   1
  -7  -6   2 10005.4 843.006   4
   6   7   2 9255.52 796.956   4
  -7  -6   2 9541.14 971.364   2
  -6  13   2 10429.0 866.290   4
   7 -13   2 10419.1 716.637   4
   6   7   5 5132.56 819.741   3
  -6  13   5 5327.69 817.405   3
  -7  -6   5 5149.91 672.269   4
 -13   6   5 5074.28 706.402   3
 -13   6   5 4785.29 480.276   1
  -7  -6   5 4435.73 829.374   2
   6   7   5 5059.72 618.220   1
  -7  -6   5 6747.45 541.200   3
  13  -7   5 5862.10 803.345   1
   7 -13   5 4896.29 560.140   2
   7 -13   5 5205.61 445.075   4
   7 -13   5 5980.81 816.652   1
   7 -13   8 3427.69 863.961   1
  -7  -6   8 4303.45 656.097   3
  -6  13   8 4335.95 916.044   3
 -13   6   8 3810.05 784.584   3
  -7  -6   8 4893.21 711.886   4
  13  -7   8 3153.64 700.396   1
  13  -7   8 1974.60 278.301   2
   7 -13   8 3405.13 668.074   2
   6   7   8 3108.74 615.345   1
  -7  -6   8 3374.46 869.557   2
  13  -7   8 2253.81 270.487   2
   6   7   8 6006.28 1111.73   3
 -13   6   8 2775.25 354.447   1
   7 -13  11 398.688 787.635   1
  -6  13  11 1576.66 929.387   3
  -7  -6  11 1338.82 656.951   3
 -13   6  11 1789.19 820.122   3
  -7  -6  11 144.410 794.770   2
 -13   6  11 888.048 810.435   4
  13  -7  11 2916.55 901.893   1
   7 -13  11-97.2107 716.800   3
  -7  -6  11 748.766 681.198   1
  -6  -7  -8 3918.22 588.417   4
   6 -13  -5 4935.96 308.564   1
  -7  13  -5 4945.11 649.385   2
 -13   7  -5 5704.95 433.774   4
  -7  13  -5 5720.90 469.853   4
  -6  -7  -5 5361.11 647.131   4
  -6  -7  -5 6941.05 773.169   2
  -6  -7  -5 5257.87 683.774   1
   6 -13  -5 6618.96 767.510   4
   6 -13  -2 12266.8 924.290   2
  13  -6  -2 11465.4 876.376   3
   7   6  -2 10752.4 993.026   2
   6 -13  -2 12034.4 917.212   3
  -7  13  -2 11304.3 758.976   3
  -7  13  -2 12116.0 765.883   4
  -7  13  -2 11891.6 788.603   2
   7   6  -2 12328.6 917.473   4
  -6  -7  -2 10800.4 847.041   4
 -13   7  -2 10366.2 442.640   2
  -6  -7  -2 11429.3 818.286   1
 -13   7  -2 11250.5 909.085   1
   6 -13  -2 9704.92 818.155   4
  -6  -7  -2 11767.6 856.375   2
  13  -6  -2 11324.9 706.680   1
   6 -13   1 11013.5 735.861   3
  -7  13   1 10568.2 785.646   3
  13  -6   1 9614.70 795.651   1
  -6  -7   1 12074.7 946.106   2
  13  -6   1 12025.2 863.273   3
  -6  -7   1 12139.7 851.520   1
  -7  13   1 10357.1 807.801   2
   7   6   1 10810.1 791.944   1
   7   6   1 11447.6 932.415   2
  -6  -7   1 9385.10 797.633   4
  -7  13   1 11746.5 864.124   4
   6 -13   1 10011.0 745.075   2
   6 -13   1 11601.6 793.363   4
 -13   7   1 11263.2 780.827   1
 -13   7   1 9476.92 778.378   3
   7   6   1 11601.0 874.514   4
   7   6   4 16074.5 1133.06   3
   7   6   4 14978.4 957.446   1
 -13   7   4 14768.3 743.330   1
   6 -13   4 15048.0 901.881   3
 -13   7   4 15514.3 1073.58   3
   7   6   4 15048.1 1014.95   4
  -6  -7   4 15146.5 1003.74   4
  -6  -7   4 16175.8 618.632   3
   6 -13   4 16117.4 1215.19   1
   6 -13   4 15460.1 928.469   2
  13  -6   4 15456.6 1121.05   1
   6 -13   4 15129.6 773.106   4
   7   6   4 15740.5 1075.29   2
  -7  13   4 16889.5 1196.54   3
  -6  -7   4 14708.3 1221.63   2
   7   6   7 859.543 412.191   1
   7   6   7 422.020 593.682   3
  13  -6   7 782.212 498.535   1
  -6  -7   7 1073.20 395.243   3
  -7  13   7 1035.89 725.173   3
 -13   7   7 625.809 531.681   3
   6 -13   7 1079.97 632.534   1
  13  -6   7 493.941 164.800   2
  13  -6   7 355.695 153.767   2
  -6  -7   7 525.668 407.940   4
  -6  -7   7 824.229 715.501   2
 -13   7   7 308.778 191.572   1
   6 -13   7 1358.94 470.326   2
   6 -13   7 551.498 183.910   4
 -13   7  10 4181.09 947.038   3
   6 -13  10 3076.30 855.015   3
   6 -13  10 2899.15 838.128   1
  -6  -7  10 3971.09 825.234   3
   7   6  10 3998.10 703.481   1
  -7  13  10 3485.15 1007.87   3
   7   6  10 1648.66 985.850   3
  -6  -7  10 3939.64 1044.37   2
  13  -6  10 4861.57 946.564   1
   6 -13  10 3193.42 767.386   2
  -6  -7  10 3315.92 663.953   4
  -6  -7  10 4496.46 874.930   1
  -5  -8  -9 1671.01 503.028   4
   5 -13  -6 1329.43 459.354   4
  -5  -8  -6 2209.11 546.896   2
 -13   8  -6 1272.60 162.709   4
   5 -13  -6 1100.92 153.687   1
  -5  -8  -6 1768.06 497.651   1
 -13   8  -6 1411.75 160.913   4
  -8  13  -6 1146.65 215.639   4
   8   5  -3 7416.99 416.877   3
  -5  -8  -3 6711.57 733.017   2
   5 -13  -3 7843.93 789.834   3
  13  -5  -3 7020.98 747.376   3
  13  -5  -3 9343.09 651.082   1
  -5  -8  -3 8256.78 767.348   4
  -5  -8  -3 7821.11 692.125   1
  -8  13  -3 7403.74 638.852   2
   8   5  -3 7399.84 777.877   4
   5 -13  -3 9766.29 858.752   4
   5 -13  -3 8749.02 839.016   2
  -8  13  -3 9123.30 633.374   4
   5 -13  -3 8058.67 513.719   1
   5 -13   0 9138.64 770.073   2
   8   5   0 9133.95 795.771   4
  13  -5   0 8675.79 737.925   3
  -8  13   0 9885.94 751.753   3
  -5  -8   0 9900.75 759.453   1
 -13   8   0 8556.88 766.321   3
   5 -13   0 9370.38 766.364   4
  -5  -8   0 8010.23 755.996   2
  13  -5   0 9597.93 774.558   1
   8   5   0 9745.60 847.347   2
 -13   8   0 8210.34 713.925   1
  -5  -8   0 9891.56 812.801   4
   8   5   0 8727.71 723.237   1
   5 -13   0 9620.31 708.251   3
  -8  13   0 9153.92 749.663   4
  -8  13   0 9702.89 734.992   2
   8   5   0 9752.75 495.781   3
   8   5   3 11965.9 852.463   1
 -13   8   3 13296.2 727.376   1
   8   5   3 13018.1 946.627   2
  -8  13   3 11155.1 951.659   3
  13  -5   3 11094.1 931.490   1
   5 -13   3 11838.5 727.971   3
   8   5   3 12116.6 902.534   4
 -13   8   3 11444.6 890.398   3
  -5  -8   3 11346.9 861.517   4
  -5  -8   3 11896.4 1044.85   2
   5 -13   3 11265.3 801.224   2
   5 -13   3 12542.1 771.210   4
   5 -13   6 4011.42 777.036   1
  -5  -8   6 4139.17 490.628   3
 -13   8   6 4496.44 752.979   3
  13  -5   6 4722.96 787.057   1
   8   5   6 4534.86 629.064   1
   8   5   6 4968.49 843.535   3
 -13   8   6 3145.73 286.510   1
  -5  -8   6 4671.44 861.162   2
  -5  -8   6 5013.94 640.725   4
   8   5   6 3735.92 614.042   4
   5 -13   6 3538.58 594.814   2
  13  -5   6 2620.08 245.574   2
  -8  13   6 3663.29 802.203   3
   5 -13   6 4104.03 420.826   4
  -5  -8   9 1840.47 600.176   3
  -5  -8   9 1560.44 520.409   4
   8   5   9 1731.13 752.529   3
  -8  13   9 1240.45 848.951   3
 -13   8   9 733.963 617.159   3
  -5  -8   9 1120.36 741.627   2
  -5  -8   9 1623.80 609.126   1
   5 -13   9 1966.81 819.433   1
  13  -5   9 2697.65 798.033   1
   5 -13   9 1332.70 656.853   3
   5 -13   9 1242.79 589.178   2
   8   5   9 1428.60 569.981   1
   4 -13  -7 1100.65 480.692   4
   4 -13  -7 522.516 137.116   1
  -4  -9  -7 1227.95 422.047   4
  -4  -9  -7 297.742 428.928   1
  -4  -9  -7 1625.00 596.447   2
  13  -4  -4 10399.3 689.023   1
  13  -4  -4 9100.50 853.478   3
  -9  13  -4 8298.54 569.181   4
  -4  -9  -4 7893.08 813.471   2
   4 -13  -4 9786.85 897.956   2
 -13   9  -4 9313.63 590.330   4
   9   4  -4 9339.88 606.136   3
  -4  -9  -4 9790.81 784.423   1
  -4  -9  -4 10765.8 868.582   4
  -9  13  -4 7922.38 615.825   2
   4 -13  -4 8758.95 860.982   4
   4 -13  -4 9332.87 552.483   1
 -13   9  -1 15839.6 1018.92   1
   4 -13  -1 17157.4 1051.97   2
   4 -13  -1 17397.1 960.832   3
  -4  -9  -1 15820.8 930.150   1
   9   4  -1 16297.3 636.664   3
  13  -4  -1 15853.1 935.166   3
 -13   9  -1 16769.9 662.901   2
  -9  13  -1 16096.5 948.496   3
 -13   9  -1 17042.9 1047.20   3
   9   4  -1 15897.5 958.767   1
   9   4  -1 17693.9 1104.16   4
   9   4  -1 16280.7 1142.21   2
  -4  -9  -1 17791.3 1059.87   4
  -4  -9  -1 15868.0 1037.88   2
  13  -4  -1 16115.1 902.594   1
   4 -13  -1 17323.0 1035.14   4
  -9  13  -1 16913.6 929.883   4
  -9  13  -1 15681.6 842.023   2
   9   4   2 4247.29 580.995   1
  -9  13   2 3578.04 575.072   2
  -4  -9   2 3051.46 629.266   2
  -9  13   2 3889.76 591.916   3
 -13   9   2 4486.78 610.480   3
  13  -4   2 3347.04 618.062   1
  13  -4   2 4066.42 588.414   3
   9   4   2 3860.94 587.651   4
  -4  -9   2 3265.14 543.982   4
   4 -13   2 3229.41 415.241   3
 -13   9   2 4214.78 493.185   1
   4 -13   2 4266.28 551.734   4
   9   4   2 2542.65 530.365   2
   4 -13   2 3263.85 522.367   2
  -9  13   5 3223.06 697.448   3
   9   4   5 3529.22 597.067   1
   9   4   5 2454.82 568.323   2
   4 -13   5 3518.60 455.639   4
 -13   9   5 4219.62 706.236   3
   4 -13   5 2876.62 673.245   1
   4 -13   5 3045.90 470.973   3
   9   4   5 3467.24 591.317   4
  -4  -9   5 3648.30 586.176   4
  -4  -9   5 3047.93 380.659   3
  13  -4   5 2513.28 273.395   2
  -4  -9   5 3755.87 738.431   2
  13  -4   5 3753.63 637.015   1
   4 -13   5 3599.72 616.935   2
 -13   9   5 2687.63 286.373   1
   4 -13   8 2266.77 623.613   3
   4 -13   8 3187.63 718.313   2
  -4  -9   8 1701.89 514.771   3
  -9  13   8 1368.80 736.298   3
  -4  -9   8 2432.62 558.262   4
  13  -4   8 2820.11 788.658   1
   4 -13   8 2776.48 876.046   1
  -4  -9   8 2222.06 794.084   2
   9   4   8 2702.08 646.259   1
 -13   9   8 2454.30 768.529   3
   4 -13   8 1220.54 249.855   4
   9   4   8 3051.41 914.082   3
   3 -13  -8 6731.38 372.924   1
  -3 -10  -8 11585.9 1001.30   4
  -3 -10  -5 436.963 378.531   1
  10   3  -5 810.197 389.488   3
 -13  10  -5 974.317 273.363   4
 -10  13  -5 888.809 251.842   4
  -3 -10  -5 1040.93 483.201   2
   3 -13  -5 1111.72 538.533   2
   3 -13  -5 675.354 294.869   1
  -3 -10  -5 1574.06 519.258   4
 -13  10  -5 623.850 205.738   4
   3 -13  -5 1816.02 483.975   4
   3 -13  -2 49489.3 1685.45   3
  -3 -10  -2 45465.8 1486.17   1
   3 -13  -2 43935.5 1688.06   2
  13  -3  -2 44966.5 1446.52   1
   3 -13  -2 46081.8 1347.51   1
  10   3  -2 44807.2 1139.80   3
  10   3  -2 45637.1 1567.95   1
  13  -3  -2 45043.4 1576.82   3
  -3 -10  -2 42763.9 1623.07   4
 -10  13  -2 45442.9 1408.86   4
 -10  13  -2 46542.6 1617.25   3
 -10  13  -2 47885.6 1335.99   2
 -13  10  -2 46514.1 1691.33   3
 -13  10  -2 43990.6 829.987   2
   3 -13  -2 46717.0 1723.34   4
  -3 -10  -2 45654.3 1724.63   2
  -3 -10   1 1762.91 483.353   2
 -13  10   1 905.607 336.433   1
  10   3   1 1173.52 428.141   1
   3 -13   1 2033.02 343.598   3
 -10  13   1 1430.61 399.936   2
   3 -13   1 1733.69 460.612   2
 -10  13   1 1321.77 434.794   3
  10   3   1 2620.46 547.076   2
  13  -3   1 1026.25 475.596   1
  10   3   1 2458.16 381.677   3
 -13  10   1 1167.66 451.831   3
  13  -3   1 891.029 387.155   3
 -13  10   1 1175.05 364.444   2
  10   3   1 1528.16 439.523   4
  -3 -10   1 1570.64 452.915   4
 -10  13   1 1418.49 411.950   4
   3 -13   1 1626.94 404.892   4
  -3 -10   1 1574.91 442.698   1
  10   3   4 22750.7 1170.09   4
  -3 -10   4 19626.6 618.133   3
  10   3   4 23757.0 1251.18   1
 -10  13   4 21766.1 1360.46   3
 -13  10   4 23117.5 1357.98   3
   3 -13   4 25065.8 996.984   3
  13  -3   4 20299.6 1272.01   1
  -3 -10   4 19661.7 579.771   3
  -3 -10   4 23402.9 1201.52   4
  13  -3   4 20433.6 775.604   2
  -3 -10   4 22896.0 1447.08   2
   3 -13   4 22992.3 1303.43   2
  10   3   4 22858.9 1187.60   2
   3 -13   4 23355.9 1059.33   4
 -13  10   4 21441.9 753.548   1
  13  -3   7 830.435 325.823   2
  -3 -10   7 50.2278 371.995   3
 -10  13   7 536.433 550.046   3
 -13  10   7 1155.32 683.665   3
  13  -3   7-697.686 503.659   1
  10   3   7 506.533 443.997   4
  10   3   7 764.480 577.446   1
  10   3   7 796.036 714.122   3
  -3 -10   7 353.132 390.294   4
   3 -13   7 1062.03 649.992   1
  -3 -10   7-383.730 575.842   2
   3 -13   7 303.669 475.093   2
   3 -13   7 375.597 317.077   4
  13  -3  10 12759.1 1714.33   3
   3 -13  10 11055.7 1256.49   3
 -10  13  10 11172.0 1469.94   3
 -13  10  10 11176.6 1407.70   3
  -3 -10  10 8993.31 1299.22   2
  -3 -10  10 12810.7 1241.49   3
  13  -3  10 12615.9 1319.70   1
  10   3  10 11782.9 1148.71   1
  10   3  10 14196.3 1737.02   3
   3 -13  10 11048.6 1392.26   1
   3 -13  10 11558.3 1254.27   2
  -3 -10  10 11385.2 1294.54   1
  -2 -11  -9 2053.18 606.229   4
  11   2  -6 2002.24 523.064   3
  -2 -11  -6 2430.03 505.472   1
   2 -13  -6 1680.12 356.992   1
  -2 -11  -6 2581.39 645.761   2
   2 -13  -6 3348.24 689.939   2
  -2 -11  -6 4621.32 636.083   4
   2 -13  -6 2662.01 590.394   4
   2 -13  -3 10158.4 888.596   3
  -2 -11  -3 8139.87 847.375   2
  11   2  -3 6634.29 545.434   3
  13  -2  -3 9659.28 717.316   1
  13  -2  -3 7395.05 723.909   3
   2 -13  -3 9792.71 659.752   1
   2 -13  -3 7432.45 807.407   2
 -11  13  -3 9266.41 571.781   2
  -2 -11  -3 8571.32 696.376   1
  -2 -11  -3 9170.96 824.411   4
 -11  13  -3 7475.66 591.796   4
   2 -13  -3 8519.32 840.032   4
 -13  11  -3 8818.22 607.712   4
  -2 -11   0 618.602 445.506   2
   2 -13   0 977.298 298.081   3
   2 -13   0 652.399 398.172   2
 -13  11   0 972.729 388.447   1
 -11  13   0 1473.62 359.832   2
   2 -13   0 653.795 381.392   4
  -2 -11   0 571.102 334.387   1
  -2 -11   0 776.115 450.721   4
 -13  11   0 541.170 284.833   2
 -11  13   0 577.872 398.577   3
  11   2   0 558.343 268.180   3
 -13  11   0 511.115 398.252   3
  11   2   0 788.297 410.096   4
  13  -2   0 466.809 429.242   1
  11   2   0 1489.64 440.645   1
  11   2   0 1196.61 465.645   2
  13  -2   0 961.390 381.612   3
 -11  13   0 832.539 364.608   4
  -2 -11   3 4724.81 638.842   4
 -11  13   3 4083.24 688.968   3
 -13  11   3 4312.89 624.171   3
   2 -13   3 4645.87 413.054   3
   2 -13   3 4520.16 642.586   2
  -2 -11   3 4659.48 746.639   2
  13  -2   3 5292.32 512.529   2
  13  -2   3 4766.45 674.810   1
 -13  11   3 4159.25 423.073   1
  11   2   3 5225.68 661.674   4
  11   2   3 4915.80 620.980   2
   2 -13   3 4685.53 575.767   4
  11   2   3 4225.71 637.939   1
  11   2   6 969.190 491.312   1
 -11  13   6 946.338 569.352   3
 -13  11   6 1244.24 523.739   3
  13  -2   6 1768.98 634.418   1
  -2 -11   6 1758.70 403.341   3
  -2 -11   6 2060.52 455.571   4
   2 -13   6 1423.04 426.665   3
   2 -13   6 2245.16 594.053   2
  11   2   6 715.388 428.671   2
  11   2   6 1509.83 514.187   4
   2 -13   6 1839.71 397.125   4
  -2 -11   6 2494.82 738.986   2
  13  -2   6 1591.02 379.675   2
  11   2   9 4926.56 1201.18   3
  -2 -11   9 5415.54 820.679   3
   2 -13   9 4289.79 798.789   3
  13  -2   9 4454.53 854.155   1
 -13  11   9 3538.17 935.421   3
   2 -13   9 4514.07 967.317   2
 -11  13   9 4563.80 960.933   3
  11   2   9 3242.45 713.439   1
   2 -13   9 5703.94 1013.83   1
  -2 -11   9 4218.41 635.407   4
  -2 -11   9 4184.57 804.959   1
  -2 -11   9 4388.60 987.352   2
  -1 -12  -7 9352.08 1097.11   2
   1 -13  -7 7382.00 612.733   1
   1 -13  -7 9561.51 974.845   4
  -1 -12  -7 7636.85 722.814   1
  -1 -12  -7 9191.85 908.321   4
   1 -13  -4 849.381 332.135   1
  -1 -12  -4 759.487 364.908   1
  12   1  -4 786.082 382.599   3
  13  -1  -4-31.1055 379.757   3
 -13  12  -4 651.473 274.287   4
  -1 -12  -4-192.423 404.745   2
   1 -13  -4 896.027 439.514   2
 -12  13  -4-10.1482 187.232   2
 -12  13  -4 651.465 274.532   4
  -1 -12  -4 645.795 377.337   4
   1 -13  -4 736.472 448.005   4
   1 -13  -1 10243.1 897.916   2
 -12  13  -1 11421.9 804.137   4
  -1 -12  -1 9794.29 650.111   3
   1 -13  -1 9451.06 701.195   3
 -13  12  -1 10115.9 613.558   2
  13  -1  -1 12948.2 887.105   1
   1 -13  -1 9793.95 849.747   4
   1 -13  -1 10592.6 770.796   1
  13  -1  -1 9325.72 717.023   3
  12   1  -1 9769.79 660.403   3
  12   1  -1 10719.6 834.792   1
 -13  12  -1 10369.5 753.890   4
 -12  13  -1 9518.48 825.547   3
 -13  12  -1 10135.7 853.298   3
 -13  12  -1 10182.5 849.376   1
  -1 -12  -1 10336.4 877.338   4
 -12  13  -1 10927.5 878.575   1
  -1 -12  -1 10565.1 778.913   1
  12   1  -1 8919.83 884.480   2
 -12  13  -1 9783.15 637.770   2
  -1 -12  -1 7600.39 787.545   2
  13  -1   2 2810.99 480.339   2
  -1 -12   2 2574.40 561.781   2
  -1 -12   2 1900.01 162.579   3
   1 -13   2 2831.07 547.535   2
  12   1   2 2792.06 520.225   2
   1 -13   2 2735.43 308.577   3
 -12  13   2 2997.11 537.804   2
 -12  13   2 2730.80 568.114   3
 -13  12   2 2634.77 509.406   3
  13  -1   2 2790.12 499.121   3
  12   1   2 3257.96 495.809   3
  12   1   2 2921.54 555.020   4
  13  -1   2 2251.47 500.614   1
 -13  12   2 2355.43 388.966   1
  -1 -12   2 4267.94 603.384   4
   1 -13   2 2895.58 508.496   4
 -13  12   2 2689.55 503.410   2
  12   1   2 2747.27 525.263   1
  -1 -12   5 1849.69 342.335   3
   1 -13   5 1890.79 440.160   4
  12   1   5 1574.53 482.138   2
  13  -1   5 2561.35 643.652   1
  12   1   5 1125.76 442.947   4
  12   1   5 855.216 486.418   1
   1 -13   5 1598.29 337.227   3
  -1 -12   5 1636.02 302.289   3
  13  -1   5 1466.65 435.926   4
 -12  13   5 2319.56 631.618   3
  -1 -12   5 1912.26 443.277   4
  -1 -12   5 1253.32 589.659   2
 -13  12   5 1615.22 618.123   3
  13  -1   5 1524.13 414.920   2
   1 -13   5 2988.22 693.591   2
   1 -13   8 1224.01 526.637   3
  12   1   8 2599.93 867.055   3
  -1 -12   8 370.053 406.842   3
  13  -1   8 722.884 576.632   1
   1 -13   8 1143.09 400.617   4
 -12  13   8 1802.33 708.476   3
 -13  12   8-209.824 561.624   3
  12   1   8-67.3261 524.857   1
  -1 -12   8 2259.62 746.861   2
   1 -13   8 747.003 651.690   1
  -1 -12   8 1403.45 653.004   1
  -1 -12   8 366.564 393.697   4
   1 -13   8 938.347 634.590   2
   0 -13  -8 12524.7 1123.78   4
  13   0  -5-128.233 387.685   3
   0 -13  -5 790.414 390.516   1
 -13  13  -5 461.467 255.736   4
   0 -13  -5 271.843 462.515   2
   0 -13  -5 376.686 382.567   4
   0 -13  -2 26037.7 1247.94   3
   0 -13  -2 29980.6 1489.11   2
 -13  13  -2 27580.7 1369.56   3
  13   0  -2 29286.9 1204.63   3
   0 -13  -2 27735.4 1186.18   1
 -13  13  -2 28547.6 1176.61   4
  13   0  -2 30450.4 1317.83   1
   0 -13  -2 29823.2 1452.63   4
 -13  13  -2 31147.4 949.630   2
  13   0   1 22.4721 406.840   1
   0 -13   1 475.212 429.205   2
 -13  13   1 709.542 367.826   2
 -13  13   1 368.706 330.392   1
 -13  13   1-161.541 378.441   3
  13   0   1 797.115 391.736   3
   0 -13   1 191.343 343.221   4
  13   0   1 120.761 373.983   4
  13   0   1 405.542 439.063   2
   0 -13   1 118.215 187.365   3
   0 -13   4 43441.4 1627.08   4
   0 -13   4 47052.0 1976.26   2
 -13  13   4 42130.8 1881.75   3
   0 -13   4 42989.6 1036.33   3
  13   0   4 42495.2 1780.39   1
  13   0   4 42952.9 1632.48   4
  13   0   4 40981.8 1429.86   2
  13   0   7-182.045 420.072   2
   0 -13   7-25.1138 358.532   3
 -13  13   7 364.184 618.344   3
  13   0   7 654.135 595.655   1
  13   0   7-322.249 392.167   4
   0 -13   7 245.948 360.085   4
   0 -13   7 180.544 536.333   2
  13   0  10 11822.4 1663.67   3
   0 -13  10 12771.9 1257.36   3
 -13  13  10 8213.58 1334.88   3
   0 -13  10 10842.7 1398.27   2
  13   0  10 10356.0 1186.21   1
   0 -13  10 10012.2 1334.64   1
 -14   0  -8 567.958 339.263   4
 -14   0  -5-256.695 332.134   2
 -14   0  -5 666.167 342.396   4
 -14   0  -2 4749.86 589.273   2
  14 -14  -2 7001.95 626.352   1
 -14   0  -2 6048.41 723.568   4
  14 -14   1-502.533 468.396   1
   0  14   1 475.654 313.555   3
 -14   0   1-96.8299 303.538   3
 -14   0   1-314.392 402.436   4
 -14   0   1-575.101 427.777   2
 -14   0   4 1655.27 563.227   4
 -14   0   4 1153.95 586.679   2
   0  14   4 806.745 444.935   3
  14 -14   4 1613.51 591.529   1
 -14   0   4 756.059 365.523   3
   0  14   7 167.627 626.070   3
 -14   0   7-399.581 486.977   4
 -14   0   7 531.283 662.459   2
 -14   0   7-545.234 479.900   3
  14 -14   7 576.476 625.993   1
   0  14  10 1833.29 940.341   3
 -14   0  10 2418.99 830.308   4
  14 -14  10 2289.87 926.183   1
 -14   0  10 3568.15 1178.72   2
 -14   0  10 2449.20 793.628   3
 -13  -1  -9 2254.66 439.559   4
 -14   1  -6 565.008 377.034   4
 -13  -1  -6 820.092 349.473   2
 -14   1  -6 1163.37 360.523   2
  -1  14  -6 504.716 422.992   4
 -13  -1  -6 983.820 390.733   4
 -14   1  -3 7067.66 716.779   4
  13 -14  -3 7779.87 549.764   1
 -13  -1  -3 5594.34 685.920   4
  14 -13  -3 6667.07 528.272   1
 -14   1  -3 6859.08 602.809   2
 -13  -1  -3 6869.65 654.147   2
   1  13   0 3640.65 374.479   3
  13 -14   0 2512.70 499.005   1
  -1  14   0 3339.39 415.390   3
 -14   1   0 3547.55 632.246   4
 -13  -1   0 3395.38 608.127   4
 -13  -1   0 3456.34 589.477   2
 -14   1   0 2174.08 516.989   2
  14 -13   0 3653.94 554.187   1
   1  13   3 6236.25 732.818   3
  -1  14   3 4919.03 652.316   3
  13 -14   3 4739.82 393.104   2
 -14   1   3 5399.66 606.309   3
 -13  -1   3 4374.10 503.656   3
  14 -13   3 5587.38 796.962   1
  13 -14   3 4972.07 725.029   1
 -14   1   3 5590.01 762.904   4
 -13  -1   3 5284.48 744.040   4
 -13  -1   3 4781.34 847.976   2
 -14   1   3 5836.38 840.664   2
  13 -14   6 2459.66 660.340   1
  14 -13   6 675.995 553.555   1
   1  13   6 1969.93 753.155   3
  -1  14   6 1741.88 692.760   3
  13 -14   6 588.044 145.213   2
 -13  -1   6 1765.07 523.449   3
 -14   1   6 1370.59 508.444   3
 -14   1   6 574.424 617.467   2
 -13  -1   6 1084.39 719.346   2
 -14   1   6 1534.25 587.334   4
 -13  -1   6 562.013 475.887   4
   1  13   9 3159.32 1052.46   3
  -1  14   9 2745.46 968.569   3
 -13  -1   9 2065.21 697.405   3
  13 -14   9 1751.35 745.523   1
  14 -13   9 3713.62 932.502   1
 -13  -1   9 3130.42 791.849   4
 -14   1   9 991.474 921.767   2
 -14   1   9 3327.87 813.264   4
 -14   1   9 1596.60 673.675   3
 -13  -1   9 2693.38 1046.38   2
  -2  14  -7 5276.80 656.404   4
 -14   2  -7 5831.45 555.117   4
 -12  -2  -7 6597.64 699.743   4
 -12  -2  -4 4413.53 588.114   2
 -14   2  -4 4387.16 454.166   2
  12 -14  -4 4232.52 336.658   1
 -14   2  -4 4235.34 577.164   4
 -12  -2  -4 4640.54 615.165   4
  -2  14  -4 4415.11 596.978   4
  14 -12  -4 4444.83 381.875   1
  14 -12  -1 12809.1 846.620   1
  -2  14  -1 13605.4 664.955   3
 -14   2  -1 10372.3 878.831   4
 -12  -2  -1 12638.1 963.857   4
 -14   2  -1 13439.0 875.263   2
  12 -14  -1 12856.4 856.009   1
   2  12  -1 11502.7 380.389   3
 -12  -2  -1 12775.4 920.489   2
   2  12   2 7670.99 694.413   3
  14 -12   2 8108.84 829.505   1
 -12  -2   2 6383.20 516.735   3
 -14   2   2 7056.25 730.755   1
 -14   2   2 6503.73 632.760   3
 -12  -2   2 5661.40 842.007   2
 -12  -2   2 5938.52 767.938   4
 -14   2   2 5825.36 765.234   4
 -14   2   2 6663.54 866.433   2
  12 -14   2 7813.01 557.443   2
  12 -14   2 6080.77 742.232   1
  -2  14   2 6499.80 669.935   3
  -2  14   5 21161.1 1437.75   3
 -12  -2   5 19855.1 1073.42   3
   2  12   5 19784.0 1047.25   1
   2  12   5 22818.5 1489.66   3
 -12  -2   5 17960.0 1487.38   2
  12 -14   5 19034.0 1407.95   1
 -14   2   5 17923.9 1464.51   2
 -14   2   5 15494.6 1006.67   1
 -14   2   5 18728.9 1169.83   3
  14 -12   5 20138.8 1430.81   1
 -12  -2   5 18624.2 1257.28   4
 -14   2   5 21652.7 1383.95   4
  12 -14   5 16057.9 637.670   2
   2  12   8 9922.59 1310.37   3
  -2  14   8 9525.94 1300.38   3
 -12  -2   8 9491.51 1008.13   3
 -14   2   8 8072.73 1009.12   3
 -12  -2   8 9340.96 1026.95   4
 -14   2   8 9963.39 1368.68   2
 -14   2   8 7918.94 1060.40   4
 -12  -2   8 8608.54 1267.51   2
  12 -14   8 7756.73 571.714   2
  12 -14   8 8299.91 1119.61   1
  14 -12   8 8626.68 1155.04   1
   2  12   8 8267.43 726.894   1
 -11  -3  -8 1519.79 443.524   4
 -14   3  -8 1035.01 246.312   4
 -11  -3  -5 2758.85 552.313   2
 -14   3  -5 2734.63 320.836   2
  -3  14  -5 1877.65 427.554   4
 -14   3  -5 2879.60 467.163   4
 -11  -3  -5 3280.53 543.665   4
  14 -11  -5 2137.28 234.822   1
  11 -14  -2 5615.92 538.284   1
  14 -11  -2 5825.92 543.795   1
  -3  14  -2 5923.68 456.961   3
 -14   3  -2 5828.77 663.374   4
  -3  14  -2 5331.62 737.211   2
 -11  -3  -2 6397.45 721.440   4
  -3  14  -2 7003.84 713.146   4
 -14   3  -2 5755.06 528.369   2
 -11  -3  -2 5897.73 641.570   2
   3  11   1 4572.36 475.032   3
  11 -14   1 4664.45 500.630   2
 -14   3   1 3849.51 549.734   3
 -11  -3   1 3295.44 652.570   2
 -14   3   1 3353.09 587.097   4
 -14   3   1 3786.19 667.097   2
 -11  -3   1 3872.30 596.212   4
  11 -14   1 4765.29 632.641   1
  11 -14   1 3713.03 571.324   3
 -14   3   1 3375.26 563.717   1
  -3  14   1 4433.52 538.169   3
  14 -11   1 3871.25 605.985   1
   3  11   4 8254.73 879.220   3
   3  11   4 7398.73 663.826   1
  -3  14   4 9297.67 937.893   3
 -11  -3   4 7866.08 987.998   2
 -14   3   4 8196.95 793.869   3
 -11  -3   4 7523.59 601.523   3
  11 -14   4 7850.43 926.944   1
  14 -11   4 7998.45 916.433   1
 -14   3   4 7066.97 705.766   1
 -14   3   4 7468.65 851.592   4
 -14   3   4 8753.04 1008.63   2
 -11  -3   4 7383.42 799.654   4
  11 -14   4 7616.11 523.455   2
  11 -14   7 1590.11 390.049   2
 -11  -3   7 1602.57 822.136   2
 -11  -3   7 2177.41 523.952   3
 -14   3   7 1106.70 563.581   3
   3  11   7 1311.11 426.993   1
  14 -11   7 1806.66 597.082   1
 -11  -3   7 1283.94 518.028   4
 -14   3   7 1541.58 592.411   4
   3  11   7 2845.12 823.000   3
  -3  14   7 804.868 642.882   3
  11 -14   7 1841.38 734.086   1
 -14   3   7 1350.92 460.694   1
 -14   3  10 2017.83 761.085   4
   3  11  10 1895.73 917.898   3
  -3  14  10 1939.48 1049.71   3
  11 -14  10 2309.00 856.615   1
 -11  -3  10 1950.89 745.074   3
  14 -11  10 3300.82 887.207   1
 -11  -3  10 1920.50 1067.57   2
 -11  -3  10 1207.28 588.177   4
 -14   3  10 1412.59 777.180   3
 -10  -4  -9 830.055 412.121   4
 -10  -4  -6 356.595 331.125   4
 -10  -4  -6 461.418 409.300   2
  -4  14  -6 54.5573 304.739   4
 -14   4  -6 474.115 282.738   4
 -10  -4  -3 2965.68 489.898   2
 -10  -4  -3 3417.60 567.155   4
  -4  14  -3 2835.31 623.242   2
  10 -14  -3 3573.60 394.314   1
  14 -10  -3 3816.56 437.961   1
 -14   4  -3 2907.66 465.806   4
  -4  14  -3 2877.39 488.989   4
 -14   4  -3 3812.67 364.775   2
  -4  14   0 142.465 357.464   2
 -10  -4   0 980.329 459.801   2
   4  10   0 402.638 175.429   3
  10 -14   0 705.986 434.430   3
  -4  14   0 377.339 291.991   3
  10 -14   0 190.346 322.075   1
  10 -14   0 397.557 328.643   2
  10 -14   0-152.088 323.796   4
 -10  -4   0 207.476 368.785   4
 -14   4   0 1174.31 475.445   4
 -14   4   0 458.653 381.286   3
  14 -10   0 929.014 416.026   1
 -14   4   0 1068.26 434.988   2
 -14   4   0 1005.16 470.850   1
  -4  14   0 99.1748 347.733   4
   4  10   3 1815.56 463.942   3
  -4  14   3 2464.59 540.855   3
 -14   4   3 2844.63 516.886   3
  10 -14   3 1830.65 350.161   2
 -10  -4   3 2311.54 307.535   3
 -14   4   3 2939.52 485.227   1
  14 -10   3 2709.34 580.897   1
  10 -14   3 2547.38 509.086   3
 -10  -4   3 2842.49 566.973   4
  10 -14   3 3051.79 602.487   1
 -14   4   3 2734.93 652.031   2
   4  10   3 2110.20 451.448   1
 -10  -4   3 2555.14 664.320   2
  -4  14   6 1278.18 610.894   3
 -10  -4   6 1466.40 446.158   3
   4  10   6 1831.26 427.981   1
 -14   4   6 896.789 531.741   3
 -14   4   6 1021.22 422.183   1
  14 -10   6 2500.04 687.809   1
  10 -14   6 1044.51 555.527   1
   4  10   6 2140.79 719.935   3
  10 -14   6 1445.30 366.919   2
 -10  -4   6 2359.33 553.890   4
 -10  -4   6 1594.34 669.800   2
  10 -14   9 2430.17 548.633   2
   4  10   9 1986.20 847.984   3
  10 -14   9 3642.84 932.282   1
  -4  14   9 5523.42 1105.33   3
 -10  -4   9 3573.40 720.305   3
 -14   4   9 2889.93 779.343   3
   4  10   9 3188.61 607.960   1
  14 -10   9 2301.21 803.378   1
 -14   4   9 4505.27 884.532   4
 -10  -4   9 3019.32 984.285   2
 -10  -4   9 2125.38 627.421   4
  -9  -5  -7 8515.25 784.959   4
  -9  -5  -7 8138.69 860.219   2
  -5  14  -7 7207.82 564.486   4
 -14   5  -7 7026.16 426.383   4
   9 -14  -4 2290.47 253.862   1
  -5  14  -4 1293.90 495.237   2
  14  -9  -4 2441.69 337.400   1
  -9  -5  -4 1395.75 434.318   2
  -5  14  -4 2245.76 431.603   4
 -14   5  -4 2176.34 414.519   4
   9 -14  -4 1946.99 259.839   1
  -9  -5  -4 1690.03 454.996   4
 -14   5  -1 7290.47 764.514   1
   9 -14  -1 8932.86 805.065   3
 -14   5  -1 7345.63 603.076   2
  14  -9  -1 7342.26 773.221   3
   9 -14  -1 8163.94 747.197   2
  -5  14  -1 8749.31 644.970   3
  -5  14  -1 8121.58 788.365   2
   9 -14  -1 9102.83 824.141   4
  -5  14  -1 9235.42 755.717   4
  14  -9  -1 8695.31 725.015   1
 -14   5  -1 9247.15 788.986   4
   9 -14  -1 7656.33 662.454   1
  -9  -5  -1 9362.02 835.527   4
  -9  -5  -1 7101.94 730.583   2
   5   9  -1 8340.71 790.501   4
   9 -14   2 8887.58 651.767   2
   5   9   2 8711.02 709.182   3
   5   9   2 8302.88 717.721   1
  -9  -5   2 9008.04 931.587   2
  14  -9   2 8903.92 862.063   1
  -5  14   2 8167.00 754.837   3
   9 -14   2 7123.77 693.595   3
 -14   5   2 6392.74 659.836   3
   9 -14   2 9484.13 718.524   4
 -14   5   2 8432.17 721.873   1
  -9  -5   2 9138.81 830.626   4
   9 -14   2 8401.99 857.530   1
  14  -9   5 14649.1 1170.82   1
   5   9   5 13363.1 1179.92   3
  -5  14   5 12068.7 1151.55   3
 -14   5   5 12438.4 1023.27   3
   5   9   5 12255.5 889.958   1
 -14   5   5 13850.4 853.795   1
  -9  -5   5 12760.9 1235.54   2
  -9  -5   5 12761.6 1010.39   4
  -9  -5   5 14423.1 796.947   3
   9 -14   5 14822.3 1257.81   1
   9 -14   5 12728.3 760.878   2
   9 -14   8 4764.23 945.751   1
   5   9   8 3595.06 996.420   3
  -9  -5   8 4283.99 664.150   3
   5   9   8 3501.73 616.993   1
 -14   5   8 3896.30 805.285   3
  -9  -5   8 3521.66 707.733   4
  14  -9   8 4925.43 922.223   1
  -9  -5   8 3881.89 953.690   2
  -5  14   8 4100.16 946.889   3
   9 -14   8 2871.92 576.308   2
  -8  -6  -8 1552.90 470.134   4
  -8  -6  -5 7375.23 767.578   2
  -6  14  -5 8153.11 609.849   4
  -8  -6  -5 7900.17 746.211   4
  -6  14  -5 6085.15 738.730   2
 -14   6  -5 8233.73 584.127   4
  -8  -6  -2 405.972 350.781   2
   8 -14  -2 739.577 417.191   3
  -6  14  -2 115.644 300.700   4
  -6  14  -2 728.240 397.764   2
  14  -8  -2 335.329 312.966   1
   8 -14  -2 1030.49 410.188   2
  -6  14  -2 424.968 312.082   3
  -8  -6  -2 709.835 382.688   4
   8 -14  -2 377.320 276.824   1
 -14   6  -2 817.137 250.040   2
 -14   6  -2 938.497 393.859   4
   8 -14  -2-163.224 364.600   4
   8 -14   1 31874.6 1254.77   2
  14  -8   1 30076.4 1361.57   1
 -14   6   1 31756.0 1327.19   1
   6   8   1 30614.2 1329.54   1
  -6  14   1 28707.0 1348.63   4
   8 -14   1 32433.1 1455.58   1
  -6  14   1 30853.5 1267.29   3
   8 -14   1 28246.2 1217.11   3
  -6  14   1 31293.5 1424.40   2
  14  -8   1 30534.4 1373.83   3
 -14   6   1 29167.6 1291.99   3
  -8  -6   1 30689.3 1425.47   4
   6   8   1 29402.9 1412.65   4
  -8  -6   1 29822.1 1515.20   2
   6   8   1 30424.3 1486.64   2
   8 -14   1 31964.6 1308.47   4
   6   8   1 31778.9 1080.00   3
   6   8   4 5471.04 743.039   3
  14  -8   4 5868.53 805.553   1
  -6  14   4 5667.74 769.383   3
  -8  -6   4 5226.36 393.966   3
 -14   6   4 6527.45 763.187   3
 -14   6   4 5786.78 579.502   1
   6   8   4 5926.11 652.017   1
   8 -14   4 5596.96 657.582   3
   8 -14   4 6265.57 537.060   4
  -8  -6   4 6643.90 764.610   4
   8 -14   4 4300.54 702.187   1
  -8  -6   4 5886.10 878.565   2
   8 -14   4 5639.24 558.419   2
   6   8   7 1064.61 685.494   3
  -6  14   7 3363.63 869.745   3
  -8  -6   7 989.485 408.314   3
  -8  -6   7 1912.79 732.761   2
   6   8   7 2394.95 561.443   1
  14  -8   7 1805.18 636.263   1
 -14   6   7 3136.13 724.976   3
  -8  -6   7 1957.73 543.205   4
 -14   6   7 1694.54 392.395   1
   8 -14   7 1657.75 650.134   1
   8 -14   7 1901.13 516.968   2
  -8  -6  10 1561.10 924.007   2
   8 -14  10 1278.54 734.803   3
   6   8  10 2125.31 910.393   3
   8 -14  10 1929.08 825.609   1
  14  -8  10 2530.18 845.939   1
  -6  14  10 1504.93 834.816   3
  -8  -6  10 2362.33 662.341   3
 -14   6  10 1613.83 834.260   3
  -8  -6  10 1778.80 721.035   1
   6   8  10 2318.58 593.412   1
  -8  -6  10 1489.92 612.703   4
   8 -14  10 905.701 632.993   2
  -7  -7  -9 1075.08 473.691   4
  -7  -7  -6 1374.49 511.484   2
  -7  14  -6 1306.44 326.191   4
 -14   7  -6 1372.29 254.835   4
  -7  -7  -6 2245.83 511.590   4
  -7  -7  -3 8118.88 777.237   2
  -7  -7  -3 8240.06 764.612   4
   7 -14  -3 8380.26 856.322   2
 -14   7  -3 8782.85 698.057   4
  -7  14  -3 7500.86 691.838   2
  -7  14  -3 7812.27 640.407   4
   7 -14  -3 8330.34 837.628   4
  14  -7  -3 8695.83 629.150   1
  -7  -7   0 938.770 458.611   2
  14  -7   0 1061.27 429.159   1
   7 -14   0 1441.48 403.244   4
  -7  14   0 929.298 392.600   2
   7 -14   0 1480.88 435.994   3
   7 -14   0 1036.47 424.903   2
 -14   7   0 1383.84 462.983   1
  14  -7   0 1934.09 480.649   3
  -7  14   0 1490.43 408.266   3
   7   7   0 574.923 357.937   1
 -14   7   0 676.655 409.267   3
  -7  -7   0 803.348 392.150   1
  -7  -7   0 804.755 422.407   4
   7   7   0 924.475 409.840   4
   7   7   0 178.949 416.920   2
  -7  14   0 675.045 365.519   4
   7   7   3 8434.25 814.405   3
 -14   7   3 7613.43 639.710   1
  14  -7   3 7770.51 851.353   1
  -7  14   3 7455.69 783.049   3
  -7  -7   3 8902.32 948.621   2
 -14   7   3 8218.99 807.253   3
   7 -14   3 7423.92 666.374   3
   7   7   3 8858.34 774.506   1
   7   7   3 6969.62 781.103   2
   7 -14   3 10309.6 1004.38   1
  -7  -7   3 10073.4 882.373   4
   7 -14   3 8300.11 691.423   2
   7 -14   3 9243.48 686.329   4
 -14   7   6 1100.58 324.367   1
   7   7   6 1174.50 635.033   3
  -7  14   6 328.569 551.022   3
  -7  -7   6 1742.39 396.687   3
   7 -14   6 1453.73 435.379   2
  -7  -7   6 1608.60 667.283   2
   7   7   6 766.045 391.440   1
   7 -14   6 1328.48 639.269   1
  -7  -7   6 1466.94 502.562   4
 -14   7   6 1434.95 583.583   3
  14  -7   6 1307.20 551.574   1
   7 -14   6 1269.11 270.040   4
   7 -14   9 766.227 667.409   1
 -14   7   9 2369.78 759.088   3
   7   7   9 1922.04 890.976   3
  -7  -7   9 787.622 512.258   3
  -7  14   9 1433.20 772.696   3
   7   7   9 2302.86 625.117   1
  -7  -7   9 1236.67 530.371   4
  14  -7   9 1678.85 729.668   1
   7 -14   9 3169.99 692.697   2
  -7  -7   9 785.121 806.126   2
  -6  -8  -7 616.543 460.510   2
  -6  -8  -7 2411.11 544.985   4
  -6  -8  -4 6674.69 761.488   2
   6 -14  -4 7122.82 784.116   4
   6 -14  -4 6374.14 440.153   1
   6 -14  -4 6355.02 801.914   2
  -8  14  -4 6767.36 666.013   2
  14  -6  -4 6803.68 553.971   1
 -14   8  -4 6364.69 568.750   4
  -8  14  -4 5742.35 541.389   4
  -6  -8  -4 5684.20 688.901   4
   6 -14  -1 32287.3 1417.20   2
   6 -14  -1 32147.2 1371.98   3
  14  -6  -1 33291.5 1414.43   3
   8   6  -1 31270.9 727.326   3
   8   6  -1 30992.0 1326.81   1
  -8  14  -1 31791.3 1298.87   3
 -14   8  -1 29800.6 1347.30   3
  14  -6  -1 33110.1 1265.79   1
 -14   8  -1 29662.7 1382.66   1
  -8  14  -1 30566.9 1265.60   2
  -8  14  -1 32301.1 1307.43   4
  -6  -8  -1 29340.0 1393.24   4
   6 -14  -1 32419.9 1419.74   4
  -6  -8  -1 31217.0 1408.47   2
   8   6  -1 30852.1 1581.12   2
  -6  -8  -1 31738.3 1342.91   1
   8   6   2 890.321 437.663   1
  -6  -8   2 851.255 376.139   4
   6 -14   2 1702.88 427.694   4
   6 -14   2 1521.34 385.022   3
 -14   8   2 1587.16 392.990   1
 -14   8   2 1373.77 451.322   3
  -6  -8   2 983.688 543.829   2
  -8  14   2 1665.95 474.512   3
   8   6   2 1045.76 418.337   4
   6 -14   2 1249.37 372.919   2
  14  -6   2 1930.86 521.302   1
   8   6   2 1403.77 453.606   2
   8   6   5 8124.57 949.043   3
 -14   8   5 8823.87 941.301   3
  -6  -8   5 7355.54 503.866   3
  -8  14   5 8556.43 972.978   3
  14  -6   5 7285.75 861.270   1
 -14   8   5 6962.32 515.172   1
   6 -14   5 6842.02 690.960   3
  -6  -8   5 8091.15 1000.94   2
  -6  -8   5 8133.73 818.625   4
   6 -14   5 6824.74 712.175   2
   6 -14   5 8312.51 987.934   1
   6 -14   5 7861.97 592.474   4
   8   6   5 9373.76 839.827   1
   8   6   8 1731.55 778.895   3
   8   6   8 2664.22 610.892   1
  -6  -8   8 1834.17 510.395   3
   6 -14   8 1785.29 586.456   2
  -8  14   8 2133.35 807.308   3
 -14   8   8 2613.37 798.872   3
   6 -14   8 1379.28 719.148   1
  14  -6   8 3648.52 807.205   1
  14  -6   8 977.427 220.138   2
  -6  -8   8 2193.28 587.199   4
  -6  -8   8 3554.21 924.916   2
  -5  -9  -8 3447.22 630.532   4
   5 -14  -5 14351.2 1111.75   4
   5 -14  -5 15477.4 1233.91   2
  -5  -9  -5 13432.1 1067.54   2
   5 -14  -5 13121.8 620.886   1
 -14   9  -5 13790.2 659.385   4
  -9  14  -5 13380.7 691.932   4
  -5  -9  -5 12095.2 942.199   4
   5 -14  -2 9025.23 821.138   3
   9   5  -2 8819.72 428.635   3
   5 -14  -2 9955.98 887.232   2
 -14   9  -2 8732.26 374.167   2
  14  -5  -2 8661.14 798.254   3
   5 -14  -2 9833.01 861.139   4
  -9  14  -2 7922.80 709.542   3
 -14   9  -2 8663.51 432.735   2
  -9  14  -2 8959.42 704.660   2
  -5  -9  -2 9073.19 829.824   4
  -9  14  -2 10652.9 756.389   4
  14  -5  -2 9795.62 712.347   1
  -5  -9  -2 8620.24 748.015   1
  -5  -9  -2 9737.21 870.358   2
  -9  14   1 9155.26 803.309   2
  -9  14   1 10075.5 819.173   3
 -14   9   1 9453.23 817.906   3
  14  -5   1 8110.53 737.460   3
   9   5   1 9686.69 799.892   1
   5 -14   1 8883.19 743.085   4
 -14   9   1 9538.54 750.532   1
   5 -14   1 8251.88 651.805   3
  -9  14   1 8811.17 801.410   4
   9   5   1 7841.50 811.123   4
   9   5   1 7979.70 788.039   2
  -5  -9   1 7857.67 859.248   2
  14  -5   1 8697.64 786.883   1
   5 -14   1 8865.49 766.403   2
  -5  -9   1 8221.78 792.794   4
  -5  -9   4 1094.95 165.648   3
  -9  14   4 2575.01 603.291   3
 -14   9   4 1092.33 296.857   1
   9   5   4 1722.96 474.979   2
   5 -14   4 2526.43 446.201   3
   9   5   4 2426.58 532.697   1
 -14   9   4 2917.96 608.452   3
   5 -14   4 2228.34 486.780   2
  14  -5   4 2485.84 607.578   1
   9   5   4 1856.14 514.080   4
  -5  -9   4 2130.89 489.375   4
  -5  -9   4 3205.34 668.499   2
   5 -14   4 1813.33 406.393   4
   9   5   7 8721.35 1180.52   3
   9   5   7 9054.31 901.008   1
  -5  -9   7 8219.47 739.140   3
  -9  14   7 8277.65 1159.10   3
 -14   9   7 8866.22 1067.70   3
  14  -5   7 9808.90 1075.77   1
   5 -14   7 7879.36 544.926   4
  -5  -9   7 7393.39 1095.82   2
  -5  -9   7 9095.43 859.079   4
   5 -14   7 8506.36 1073.75   1
   5 -14   7 7611.10 878.148   2
  14  -5   7 5679.01 384.222   2
   9   5  10 872.147 564.371   1
   5 -14  10 1443.53 735.261   1
   5 -14  10 1236.17 692.094   3
   9   5  10 626.297 875.712   3
  -5  -9  10 1224.33 604.205   3
  -9  14  10 1264.22 879.920   3
 -14   9  10 2808.84 882.725   3
  -5  -9  10 812.111 509.255   4
  -5  -9  10 549.334 562.449   1
  -5  -9  10 69.6268 732.492   2
  14  -5  10-19.9824 612.790   1
   5 -14  10 1863.47 719.476   2
  -4 -10  -9 2973.87 644.395   4
  -4 -10  -6 1856.50 572.156   2
 -10  14  -6 1809.40 261.649   4
   4 -14  -6 1416.19 561.702   2
 -14  10  -6 1265.11 187.372   4
   4 -14  -6 1277.86 290.477   1
 -14  10  -6 1053.10 166.778   4
  -4 -10  -6 1101.45 438.206   4
   4 -14  -6 2215.23 602.910   4
 -10  14  -3 1874.59 383.711   2
  10   4  -3 1881.46 297.214   3
   4 -14  -3 2509.70 548.636   4
  14  -4  -3 1422.63 475.736   3
  -4 -10  -3 2803.19 561.130   2
  14  -4  -3 2218.01 428.380   1
   4 -14  -3 2207.58 527.029   2
   4 -14  -3 2286.11 352.971   1
 -10  14  -3 2720.41 438.023   4
  -4 -10  -3 2573.41 490.523   1
  -4 -10  -3 2163.00 536.770   4
  -4 -10   0 480.865 384.501   2
 -14  10   0 744.110 407.888   1
   4 -14   0 511.218 319.958   3
 -10  14   0 360.183 334.614   2
   4 -14   0 498.558 377.477   2
  10   4   0 1059.38 401.951   1
  -4 -10   0 941.205 403.860   1
  14  -4   0 1067.38 399.983   3
 -10  14   0 426.491 365.405   3
  -4 -10   0 518.082 396.427   4
 -14  10   0-20.2260 366.154   3
  10   4   0 435.422 230.227   3
 -10  14   0 789.829 400.401   4
 -14  10   0 1201.09 318.593   2
  14  -4   0 850.120 392.588   1
  10   4   0 329.387 439.615   2
   4 -14   0 325.946 395.387   4
   4 -14   3 2182.89 536.263   2
   4 -14   3 2737.81 399.487   3
  14  -4   3 4572.27 712.406   1
 -14  10   3 3268.13 575.779   3
 -10  14   3 3110.34 591.819   3
  14  -4   3 2216.54 329.195   2
  10   4   3 3280.75 564.000   4
  -4 -10   3 3504.85 611.773   4
 -14  10   3 3905.45 462.471   1
  -4 -10   3 2777.16 654.853   2
   4 -14   3 2609.76 466.518   4
  10   4   3 2826.10 557.244   2
  10   4   3 3196.33 583.762   1
  10   4   6 844.991 610.722   3
 -14  10   6 454.562 498.131   3
  -4 -10   6 426.762 306.467   3
  -4 -10   6 895.828 719.760   2
 -10  14   6 135.340 515.349   3
   4 -14   6 562.460 418.383   2
   4 -14   6 253.024 360.469   3
   4 -14   6 435.776 516.357   1
  -4 -10   6 404.422 367.843   4
  14  -4   6 214.873 203.537   2
 -14  10   6 58.7280 84.9429   1
  10   4   6 48.7744 436.834   1
   4 -14   6 59.3293 285.872   4
  14  -4   6 268.434 542.240   1
   4 -14   9 1787.54 813.727   1
   4 -14   9 2092.64 662.063   3
  10   4   9 1573.31 806.322   3
  -4 -10   9 1077.03 652.679   1
  -4 -10   9 1669.04 563.823   3
 -10  14   9 1806.80 840.568   3
 -14  10   9 3208.70 806.262   3
  10   4   9 2738.90 664.238   1
  14  -4   9 1438.16 705.770   1
  -4 -10   9 2064.14 536.740   4
  -4 -10   9 160.703 665.067   2
   4 -14   9 2962.78 787.087   2
   3 -14  -7 880.169 481.337   4
   3 -14  -7 749.057 258.521   1
  -3 -11  -7 1464.03 549.756   1
  -3 -11  -7 748.495 523.629   2
  -3 -11  -7 1756.39 542.802   4
  14  -3  -4 8180.66 811.352   3
  -3 -11  -4 7181.87 846.308   2
  14  -3  -4 7962.26 675.324   1
   3 -14  -4 9736.63 961.417   2
  11   3  -4 5917.70 547.763   3
  -3 -11  -4 7888.23 755.378   1
 -11  14  -4 7889.75 584.773   2
 -14  11  -4 7334.04 551.566   4
 -11  14  -4 7678.70 585.268   4
  -3 -11  -4 9239.91 855.320   4
   3 -14  -4 8970.93 646.386   1
   3 -14  -4 8674.33 839.209   4
  11   3  -1 4018.34 709.640   2
   3 -14  -1 3771.69 616.644   2
   3 -14  -1 4306.92 552.469   3
  14  -3  -1 4360.02 564.406   3
  11   3  -1 3970.09 422.097   3
 -11  14  -1 4368.24 605.779   3
 -14  11  -1 5360.87 693.680   3
  -3 -11  -1 4281.88 605.882   4
  11   3  -1 4880.58 614.602   1
 -14  11  -1 4550.53 637.844   1
 -14  11  -1 3959.51 382.531   2
  -3 -11  -1 4091.25 540.487   1
   3 -14  -1 5235.19 668.197   4
 -11  14  -1 3748.25 536.604   4
 -11  14  -1 4107.08 490.393   2
  14  -3  -1 3786.80 561.383   1
  -3 -11  -1 3705.12 615.581   2
  11   3   2 5416.49 695.262   2
 -11  14   2 6246.60 739.011   3
  11   3   2 5191.51 634.234   1
   3 -14   2 5570.00 493.042   3
 -14  11   2 4900.98 636.339   2
   3 -14   2 5087.32 639.020   2
  14  -3   2 4467.34 638.782   1
  14  -3   2 4948.46 518.081   2
  11   3   2 5506.72 674.775   4
 -14  11   2 5577.99 545.397   1
  -3 -11   2 6630.56 725.752   4
  -3 -11   2 5859.69 772.301   2
   3 -14   2 5051.30 607.669   4
 -14  11   2 5779.78 731.858   3
  11   3   5 2152.56 556.602   1
  11   3   5 2797.88 556.358   2
 -11  14   5 3517.25 688.206   3
 -14  11   5 3950.10 701.357   3
  14  -3   5 3077.14 720.698   1
   3 -14   5 2865.19 451.244   3
  -3 -11   5 1765.15 679.740   2
  11   3   5 2729.68 551.103   4
  -3 -11   5 3695.43 597.380   4
 -14  11   5 2977.65 281.263   1
   3 -14   5 2795.49 439.518   4
  14  -3   5 2438.12 364.368   2
   3 -14   5 2092.33 519.881   2
  -3 -11   5 2805.02 334.614   3
   3 -14   8 1210.66 500.167   3
  14  -3   8 1137.89 655.820   1
  -3 -11   8 1839.59 524.476   3
   3 -14   8 564.161 629.035   1
 -11  14   8 1519.37 697.438   3
 -14  11   8 1702.64 689.870   3
   3 -14   8 914.405 558.128   2
  -3 -11   8 1190.07 479.252   4
  11   3   8 84.9905 610.525   3
  11   3   8 1712.88 629.521   1
  -3 -11   8 961.468 666.792   2
   3 -14   8 1107.27 363.443   4
   2 -14  -8 9120.67 987.683   4
  -2 -12  -8 9225.10 969.211   4
 -14  12  -5 17037.8 716.548   4
  -2 -12  -5 18629.8 1297.39   2
  12   2  -5 15736.5 992.216   3
   2 -14  -5 18342.3 1348.18   2
  -2 -12  -5 18918.4 1073.12   1
   2 -14  -5 18337.5 921.620   1
 -12  14  -5 17588.3 750.803   4
  -2 -12  -5 18429.0 1224.77   4
   2 -14  -5 21464.2 1375.34   4
  -2 -12  -2 4861.70 662.290   2
   2 -14  -2 6958.66 719.273   3
   2 -14  -2 6625.16 804.455   2
  -2 -12  -2 6474.79 642.141   1
  12   2  -2 6267.77 567.880   3
  14  -2  -2 5343.07 612.043   3
  14  -2  -2 6843.47 674.569   1
 -14  12  -2 5651.75 579.860   4
 -12  14  -2 7640.00 582.352   2
 -12  14  -2 7385.28 752.912   3
 -14  12  -2 6570.41 772.177   3
  -2 -12  -2 5817.75 708.744   4
   2 -14  -2 6860.92 763.461   4
 -12  14  -2 7236.56 646.925   4
   2 -14  -2 7626.40 641.492   1
 -14  12  -2 6689.59 423.690   2
  12   2  -2 5192.38 644.276   1
 -14  12   1 11941.0 824.960   1
  12   2   1 12662.2 961.167   1
 -12  14   1 11993.5 865.095   2
 -14  12   1 10697.6 894.278   3
 -14  12   1 11833.8 837.566   2
 -12  14   1 9935.70 894.863   3
  14  -2   1 11338.6 840.468   3
  12   2   1 11537.3 747.443   3
  14  -2   1 11286.4 906.152   1
  -2 -12   1 12648.4 1005.88   2
  -2 -12   1 13514.3 988.675   4
  12   2   1 10798.5 915.521   2
   2 -14   1 11327.4 883.529   4
   2 -14   1 10619.3 890.372   2
   2 -14   1 11868.5 668.942   3
  14  -2   1 10290.3 826.109   2
  -2 -12   4 3747.15 282.261   3
   2 -14   4 5486.25 768.317   2
 -12  14   4 4343.16 725.603   3
 -14  12   4 5857.84 779.981   3
   2 -14   4 4349.14 444.486   3
  -2 -12   4 3549.81 267.062   3
  12   2   4 5632.82 739.960   1
  14  -2   4 4891.77 764.773   1
  12   2   4 4554.77 671.920   4
 -14  12   4 4520.86 410.553   1
  -2 -12   4 5581.93 853.218   2
  14  -2   4 4313.39 492.743   2
  -2 -12   4 4926.94 648.346   4
  12   2   4 5732.19 671.875   2
   2 -14   4 4768.42 580.323   4
   2 -14   7 8433.53 861.199   3
  -2 -12   7 7469.00 710.943   3
  -2 -12   7 5169.96 914.563   2
 -14  12   7 7911.61 1041.79   3
 -12  14   7 6599.81 1029.25   3
   2 -14   7 6251.26 1003.69   1
  12   2   7 4760.09 726.422   2
  14  -2   7 6505.89 908.648   1
  12   2   7 4882.06 704.477   4
  12   2   7 6280.64 855.140   1
   2 -14   7 6264.58 909.053   2
  -2 -12   7 8741.11 827.900   4
   2 -14   7 6384.01 646.598   4
  14  -2   7 5978.90 615.796   2
  14  -2  10 1831.52 976.278   3
  12   2  10 5582.18 1274.80   3
   2 -14  10 3041.60 748.134   3
  14  -2  10 4022.20 926.984   1
  -2 -12  10 4288.41 938.543   1
 -12  14  10 3134.29 962.843   3
 -14  12  10 1789.91 789.417   3
  -2 -12  10 2375.57 687.613   3
  12   2  10 2303.49 787.416   1
  -2 -12  10 2767.32 910.817   2
   2 -14  10 3206.94 919.828   2
   2 -14  10 4569.04 1061.26   1
  -1 -13  -9 2308.06 676.556   4
 -13  14  -6 935.709 209.287   4
 -14  13  -6 570.221 188.234   4
  -1 -13  -6 109.142 420.932   4
  -1 -13  -6 1376.26 584.558   2
   1 -14  -6 303.320 426.163   4
   1 -14  -6 1207.00 652.732   2
 -14  13  -6 664.704 175.068   4
  -1 -13  -6 1263.05 487.419   1
   1 -14  -6 544.083 389.430   1
  -1 -13  -3 4348.32 650.829   3
  -1 -13  -3 4533.55 547.162   1
   1 -14  -3 4879.29 690.718   3
  -1 -13  -3 5023.92 745.689   2
  13   1  -3 4871.03 545.736   3
   1 -14  -3 5216.19 740.081   2
 -13  14  -3 4553.45 418.633   2
   1 -14  -3 4194.90 527.003   1
  13   1  -3 5203.91 642.176   1
  -1 -13  -3 4762.25 649.974   4
  14  -1  -3 3681.17 538.317   3
 -14  13  -3 3587.88 293.871   2
  14  -1  -3 6408.42 665.131   1
   1 -14  -3 5034.39 698.179   4
 -13  14  -3 5313.39 562.583   4
 -14  13  -3 4951.40 531.674   4
   1 -14   0 3157.93 405.346   3
 -13  14   0 2888.02 457.790   2
 -14  13   0 3314.10 451.134   2
  13   1   0 3864.59 574.769   1
   1 -14   0 2870.50 561.751   2
  -1 -13   0 2809.30 578.138   2
  14  -1   0 2790.19 476.092   3
  13   1   0 3058.41 445.871   3
 -13  14   0 3495.74 606.924   3
 -14  13   0 3632.42 618.651   3
  -1 -13   0 3403.91 381.080   3
 -13  14   0 3241.62 561.150   1
  13   1   0 3187.63 619.753   2
 -14  13   0 3485.72 563.203   1
  14  -1   0 3148.65 577.649   1
   1 -14   0 2363.59 559.037   4
  -1 -13   0 2730.21 528.159   4
  -1 -13   3 4028.95 243.164   3
 -14  13   3 6224.58 762.576   3
  -1 -13   3 6482.11 737.785   4
 -13  14   3 5584.69 763.361   3
  13   1   3 6809.23 780.338   1
   1 -14   3 5508.53 775.124   2
  14  -1   3 6072.54 690.028   4
 -14  13   3 5883.85 532.370   1
  14  -1   3 5733.92 619.433   2
  13   1   3 5689.02 654.840   2
   1 -14   3 5341.12 631.821   4
  14  -1   3 4623.93 703.867   1
  -1 -13   3 6223.13 840.087   2
   1 -14   3 5902.63 424.772   3
  13   1   6 857.931 436.307   2
   1 -14   6 380.621 326.504   3
  -1 -13   6 390.133 309.562   3
 -13  14   6 2003.64 725.167   3
  14  -1   6 930.476 574.603   1
 -14  13   6 777.376 536.890   3
   1 -14   6 1029.68 428.445   4
  13   1   6 276.444 421.141   4
  13   1   6 239.995 532.789   1
   1 -14   6 633.509 343.299   3
  -1 -13   6 666.281 316.938   3
  -1 -13   6 695.567 645.837   2
  14  -1   6 173.783 371.982   2
  -1 -13   6 1162.44 502.380   4
   1 -14   6 1901.73 673.627   2
  14  -1   9 2866.30 801.345   1
  13   1   9 4591.33 1097.39   3
  -1 -13   9 4600.68 768.010   3
 -13  14   9 3934.65 1015.38   3
 -14  13   9 2022.18 839.938   3
  -1 -13   9 2704.65 880.248   2
  13   1   9 2534.36 760.298   1
  -1 -13   9 2981.81 835.627   1
   1 -14   9 3598.99 718.349   3
   1 -14   9 3795.49 894.883   2
   1 -14   9 2971.03 812.554   1
  -1 -13   9 2574.45 554.591   4
   1 -14   9 3048.00 501.948   4
   0 -14  -7 1294.44 617.755   2
   0 -14  -7-259.279 423.937   1
   0 -14  -7-62.2382 522.450   4
   0 -14  -4 904.539 407.188   1
  14   0  -4 543.457 396.553   3
   0 -14  -4 1458.69 547.149   2
 -14  14  -4 591.567 309.316   4
   0 -14  -4 1004.78 488.792   4
 -14  14  -1 92.8901 327.410   4
   0 -14  -1-56.8366 296.472   3
  14   0  -1-68.1058 374.026   1
   0 -14  -1-21.3076 430.255   2
 -14  14  -1 381.591 283.820   2
  14   0  -1-108.968 302.767   3
 -14  14  -1 5.18412 413.245   3
   0 -14  -1 91.6979 406.827   4
   0 -14   2 4339.48 320.260   3
 -14  14   2 4767.17 744.312   3
  14   0   2 5304.38 639.000   2
 -14  14   2 5833.33 589.339   1
   0 -14   2 4980.08 644.951   4
   0 -14   2 6906.93 842.166   2
  14   0   2 5195.26 686.229   1
   0 -14   5 505.813 295.418   3
   0 -14   5 813.960 589.753   2
 -14  14   5 481.946 497.915   3
   0 -14   5 95.8853 226.128   3
  14   0   5 444.927 509.416   1
   0 -14   5-376.431 380.346   4
  14   0   5 96.7254 385.715   2
  14   0   5 100.691 414.134   4
   0 -14   8 1740.60 522.782   3
 -14  14   8 1555.88 749.944   3
  14   0   8 3578.25 851.337   1
   0 -14   8 844.240 621.553   1
   0 -14   8 1603.75 735.098   2
   0 -14   8 938.364 415.894   4
 -15   0  -6 4513.66 638.990   4
 -15   0  -6 3753.67 520.894   2
 -15   0  -3 311.548 346.618   2
  15 -15  -3-29.8705 290.574   1
 -15   0  -3-48.6427 377.706   4
   0  15   0 16125.1 771.939   3
 -15   0   0 15382.1 1151.02   4
 -15   0   0 14357.5 1117.54   2
  15 -15   0 14640.5 1033.63   1
   0  15   3-270.151 402.928   3
  15 -15   3 1187.14 532.595   1
 -15   0   3-344.713 330.225   3
 -15   0   3-1022.32 625.020   2
 -15   0   3 503.750 430.288   4
 -15   0   6 10567.2 942.300   3
 -15   0   6 10582.4 1103.51   4
 -15   0   6 10994.8 1373.67   2
  15 -15   6 12156.4 1281.66   1
   0  15   6 12088.4 1276.91   3
 -15   0   9 268.335 589.840   3
   0  15   9 117.817 752.306   3
  15 -15   9 786.643 674.389   1
 -15   0   9-193.937 615.044   4
 -15   0   9 612.435 827.762   2
 -15   1  -7 4921.98 607.681   4
 -14  -1  -7 5353.51 650.078   4
 -14  -1  -4 8782.44 730.522   2
 -15   1  -4 7305.68 638.511   2
  14 -15  -4 7058.44 492.352   1
  15 -14  -4 7764.48 537.885   1
 -15   1  -4 7582.28 770.501   4
 -14  -1  -4 9091.33 855.451   4
  -1  15  -1 13406.8 632.034   3
   1  14  -1 11552.3 482.575   3
 -15   1  -1 12791.1 937.156   2
 -15   1  -1 9669.29 906.789   4
 -14  -1  -1 13433.9 1045.98   4
  15 -14  -1 14053.0 936.519   1
 -14  -1  -1 11078.2 923.100   2
  14 -15  -1 13192.1 907.513   1
  15 -14   2 6289.78 817.253   1
   1  14   2 6763.32 695.644   3
  -1  15   2 5685.51 641.535   3
 -15   1   2 5988.04 641.841   3
 -14  -1   2 5396.14 549.914   3
  14 -15   2 6860.91 834.245   1
 -15   1   2 8122.81 971.917   2
 -15   1   2 5978.14 793.026   4
 -14  -1   2 4781.45 749.835   4
 -14  -1   2 6621.86 897.363   2
  -1  15   5 11006.6 1126.72   3
   1  14   5 11300.1 1158.50   3
 -15   1   5 10364.0 904.808   3
 -14  -1   5 10711.4 876.838   3
  15 -14   5 11589.3 1170.16   1
 -15   1   5 10349.7 1049.53   4
 -14  -1   5 10410.2 1025.06   4
 -14  -1   5 11627.9 1261.49   2
 -15   1   5 10786.1 1261.24   2
  14 -15   5 11104.7 1175.34   1
   1  14   8 3732.48 1086.09   3
  -1  15   8 1850.91 939.760   3
 -14  -1   8 2752.43 936.197   2
  14 -15   8 3513.59 887.439   1
 -14  -1   8 2454.63 723.808   4
 -14  -1   8 2880.93 689.856   3
 -15   1   8 3131.22 778.025   3
  15 -14   8 3267.63 893.629   1
 -15   1   8 2483.61 943.259   2
 -15   1   8 3752.12 810.720   4
 -15   2  -8 955.952 346.090   4
 -13  -2  -8 859.895 394.887   4
  15 -13  -5 905.791 183.576   1
 -13  -2  -5 765.076 450.090   2
 -15   2  -5 861.848 303.911   2
 -15   2  -5 940.475 424.934   4
  -2  15  -5 954.278 436.871   4
 -13  -2  -5 1841.47 508.761   4
 -15   2  -2 1769.32 378.909   2
  13 -15  -2 2147.32 401.679   1
 -15   2  -2 2066.31 500.553   4
 -13  -2  -2 2640.03 531.199   2
  15 -13  -2 2137.77 433.268   1
 -13  -2  -2 1913.11 505.168   4
 -13  -2   1 8956.05 884.943   4
   2  13   1 9825.58 658.160   3
  -2  15   1 10584.0 741.644   3
  13 -15   1 10901.1 940.710   1
  13 -15   1 8818.06 678.825   2
 -15   2   1 10804.4 779.628   3
 -15   2   1 8655.26 858.577   4
 -15   2   1 8215.74 913.168   2
 -13  -2   1 9282.37 936.039   2
  15 -13   1 10724.4 896.890   1
   2  13   4 3891.84 699.651   3
  -2  15   4 4101.65 712.920   3
  13 -15   4 3407.27 350.472   2
 -15   2   4 3079.84 561.780   3
 -13  -2   4 2892.78 473.515   3
  15 -13   4 2605.84 607.607   1
 -13  -2   4 3003.32 739.308   2
 -15   2   4 3445.41 639.765   4
 -13  -2   4 3170.47 631.635   4
 -15   2   4 3865.72 797.533   2
  13 -15   4 4880.91 779.118   1
   2  13   7 3520.80 883.935   3
 -13  -2   7 5241.43 719.779   3
  -2  15   7 4640.47 934.588   3
  13 -15   7 3856.28 861.578   1
 -15   2   7 6929.53 890.651   3
   2  13   7 5379.77 643.583   1
 -15   2   7 5197.86 907.828   4
 -13  -2   7 6115.57 867.817   4
 -15   2   7 4978.43 1047.38   2
 -13  -2   7 5560.75 1024.70   2
  15 -13   7 5253.04 921.862   1
  13 -15   7 3556.02 343.753   2
 -15   2  10 731.036 708.602   3
 -15   2  10 974.054 760.490   4
   2  13  10 698.176 837.249   3
  -2  15  10 91.1172 821.107   3
 -13  -2  10-201.815 636.177   3
  13 -15  10-602.700 695.529   1
  15 -13  10 378.830 711.965   1
 -15   2  10-97.6833 837.766   2
 -13  -2  10-184.222 892.786   2
 -13  -2  10 440.109 682.456   4
 -12  -3  -9-195.679 381.320   4
 -12  -3  -6 3303.40 563.656   2
 -15   3  -6 3534.96 526.187   4
  -3  15  -6 3283.43 572.054   4
 -12  -3  -6 3825.95 603.532   4
  -3  15  -3-21.0692 374.149   4
 -15   3  -3 93.3323 241.178   2
 -12  -3  -3 183.709 377.236   2
  15 -12  -3 49.0011 271.738   1
 -15   3  -3 163.277 338.200   4
 -12  -3  -3 244.032 366.922   4
  12 -15  -3 491.773 268.387   1
  15 -12   0 4341.16 607.961   1
  12 -15   0 4568.69 583.094   2
 -15   3   0 3239.01 537.541   3
   3  12   0 4230.02 344.698   3
 -15   3   0 5169.03 678.593   2
 -15   3   0 4957.15 705.120   4
 -12  -3   0 3713.12 630.536   4
  12 -15   0 6231.04 705.782   1
 -12  -3   0 4255.64 683.319   2
  -3  15   0 5941.84 563.789   3
  12 -15   3 3597.97 667.329   1
  12 -15   3 3523.19 415.436   2
  -3  15   3 4478.66 658.116   3
 -15   3   3 4122.63 597.508   3
 -12  -3   3 4132.79 445.693   3
 -12  -3   3 5025.78 830.036   2
 -15   3   3 3873.45 599.612   1
   3  12   3 4358.12 651.827   3
 -15   3   3 3621.32 671.126   4
 -12  -3   3 5423.83 752.770   4
 -15   3   3 3239.76 726.036   2
  15 -12   3 4817.75 757.356   1
 -12  -3   6 2385.81 831.397   2
  12 -15   6 2103.48 688.365   1
   3  12   6 205.405 521.971   3
  12 -15   6 971.099 276.394   2
  -3  15   6 855.816 531.781   3
 -12  -3   6 1193.70 423.068   3
 -15   3   6 1783.41 568.330   3
  15 -12   6 2235.93 658.261   1
 -15   3   6 574.216 421.295   1
   3  12   6 1155.04 409.965   1
 -15   3   6 2507.98 683.477   4
 -15   3   6 998.166 648.322   2
 -12  -3   6 1198.26 524.714   4
 -12  -3   9-485.599 532.604   4
   3  12   9 368.248 673.716   3
   3  12   9 411.611 417.353   1
  12 -15   9 145.050 638.607   1
 -12  -3   9-284.321 578.403   3
  -3  15   9 223.807 740.533   3
  15 -12   9-260.019 650.136   1
 -15   3   9 1661.00 728.281   4
 -15   3   9 1275.89 871.997   2
 -12  -3   9 1697.39 897.445   2
 -15   3   9-666.903 641.835   3
 -11  -4  -7 6853.01 813.545   2
 -11  -4  -7 5920.27 691.659   4
  -4  15  -7 5820.73 621.594   4
 -15   4  -7 4962.14 469.500   4
 -11  -4  -4 9639.42 857.925   2
 -15   4  -4 9926.25 507.186   2
  -4  15  -4 11243.7 839.054   4
  11 -15  -4 10931.1 528.561   1
 -11  -4  -4 11748.1 937.868   4
 -15   4  -4 10174.7 779.634   4
  15 -11  -4 11452.2 629.449   1
 -11  -4  -1 4087.96 592.423   2
  -4  15  -1 4642.38 495.454   3
  11 -15  -1 4205.43 586.224   2
  15 -11  -1 3900.33 542.683   1
 -15   4  -1 4516.02 657.718   4
 -11  -4  -1 4293.52 665.993   4
 -15   4  -1 4352.49 572.104   2
  11 -15  -1 5377.73 591.307   1
  15 -11   2 7536.59 832.595   1
   4  11   2 5941.81 627.986   3
  11 -15   2 5477.62 540.176   2
  -4  15   2 6397.91 684.701   3
 -15   4   2 5865.55 664.678   3
 -15   4   2 6342.68 686.686   1
 -11  -4   2 5328.06 415.999   3
 -15   4   2 5624.38 810.908   2
 -11  -4   2 6667.36 795.695   4
 -11  -4   2 6040.87 868.983   2
  11 -15   2 6003.46 749.635   1
 -15   4   2 4807.64 678.304   4
  -4  15   5 17311.5 1360.21   3
 -11  -4   5 17217.3 929.313   3
 -15   4   5 15268.7 1110.19   3
  15 -11   5 18355.1 1356.14   1
 -15   4   5 16388.3 999.392   1
 -15   4   5 17017.1 1279.60   4
 -11  -4   5 17800.1 1235.65   4
 -11  -4   5 18112.2 1512.02   2
  11 -15   5 17463.2 1376.13   1
   4  11   5 17040.7 1353.58   3
   4  11   5 17914.1 1064.63   1
  11 -15   5 16604.9 801.029   2
   4  11   8 3662.62 889.962   3
  11 -15   8 3603.92 894.890   1
  -4  15   8 4127.72 969.748   3
 -11  -4   8 3614.52 667.259   3
 -15   4   8 3925.14 827.433   3
  15 -11   8 3946.08 872.140   1
   4  11   8 4358.74 660.919   1
 -11  -4   8 4175.56 775.095   4
 -15   4   8 2776.81 730.713   4
  11 -15   8 3120.79 505.238   2
 -11  -4   8 4408.50 942.550   2
 -10  -5  -8 663.504 401.414   4
 -10  -5  -5 8703.95 817.362   2
  -5  15  -5 6738.74 646.041   4
  15 -10  -5 7628.88 487.740   1
 -15   5  -5 7820.50 665.675   4
 -10  -5  -5 8949.45 802.552   4
  10 -15  -2 9654.21 888.263   4
  10 -15  -2 9283.24 858.756   2
  15 -10  -2 8723.37 684.780   1
  -5  15  -2 8107.59 611.844   3
 -15   5  -2 8325.25 770.443   4
  10 -15  -2 8469.65 670.357   1
 -10  -5  -2 8146.22 821.208   4
  -5  15  -2 9202.99 886.798   2
  -5  15  -2 8607.38 773.647   4
 -15   5  -2 7910.81 550.281   2
 -10  -5  -2 6980.26 743.260   2
   5  10   1 22750.9 931.126   3
  15 -10   1 21315.8 1240.55   1
  10 -15   1 22512.6 1063.90   2
 -15   5   1 23219.2 1212.50   1
  -5  15   1 23470.0 1120.31   3
  10 -15   1 21293.4 1170.48   3
 -15   5   1 24683.3 1233.41   3
 -10  -5   1 24015.6 1339.84   4
 -15   5   1 24085.2 1325.59   4
 -15   5   1 23718.4 1353.08   2
 -10  -5   1 23249.8 1395.61   2
  10 -15   1 25347.8 1335.50   1
  10 -15   1 24001.5 1169.68   4
   5  10   4 9243.38 940.714   3
  -5  15   4 9341.95 966.114   3
 -15   5   4 6977.84 781.169   3
 -10  -5   4 8084.64 531.479   3
   5  10   4 8624.78 789.203   1
  15 -10   4 9059.95 965.013   1
 -10  -5   4 7443.28 835.541   4
 -10  -5   4 8755.48 1089.41   2
  10 -15   4 9125.87 978.271   1
 -15   5   4 8926.97 739.738   1
  10 -15   4 9258.45 658.634   2
  10 -15   7 1747.28 450.860   2
  10 -15   7 2192.15 797.774   1
   5  10   7 1015.70 616.999   3
   5  10   7 1444.26 456.153   1
 -15   5   7 717.276 405.654   1
  -5  15   7 1026.85 608.412   3
 -10  -5   7 1010.94 344.756   3
 -15   5   7 2158.10 645.049   3
 -10  -5   7 2081.89 591.919   4
  15 -10   7 1413.22 609.188   1
 -10  -5   7 2191.97 859.682   2
 -15   5  10 1517.66 738.772   4
  15 -10  10 2621.17 888.280   1
   5  10  10 946.562 881.477   3
  10 -15  10 2148.16 970.300   1
  -5  15  10 2965.16 1041.83   3
   5  10  10 974.373 519.748   1
 -10  -5  10 1275.92 669.308   3
 -15   5  10 920.152 686.981   3
 -10  -5  10 2175.71 708.654   4
 -10  -5  10 1896.19 1071.29   2
  -9  -6  -9-210.945 399.665   4
  -9  -6  -6 2469.91 541.482   4
  -9  -6  -6 2017.68 544.885   2
 -15   6  -6 3091.88 400.337   4
  -6  15  -6 1887.27 402.609   4
  -9  -6  -3 1837.53 499.468   4
  -9  -6  -3 2724.66 527.835   2
   9 -15  -3 2022.40 545.179   2
   9 -15  -3 2221.16 358.376   1
 -15   6  -3 2345.22 451.082   4
 -15   6  -3 1595.60 206.579   2
  -6  15  -3 1668.94 428.814   4
  -6  15  -3 1518.76 475.844   2
  15  -9  -3 1734.86 359.695   1
   9 -15  -3 2909.34 590.089   4
   6   9   0 4072.53 347.714   3
 -15   6   0 3495.10 571.459   1
   9 -15   0 4314.09 582.149   2
   9 -15   0 3777.25 561.109   3
  -6  15   0 3869.83 521.391   3
 -15   6   0 4048.08 590.587   3
  15  -9   0 3684.56 571.542   1
  -9  -6   0 2963.46 571.309   2
  -9  -6   0 3276.47 631.519   4
 -15   6   0 4366.97 589.198   2
   9 -15   0 3112.69 548.790   1
  -6  15   0 4307.22 622.542   2
   9 -15   0 3982.56 585.077   4
   6   9   3 2832.79 537.585   1
   6   9   3 2174.72 527.527   3
 -15   6   3 2783.72 490.081   1
  -9  -6   3 2019.07 478.995   4
  -6  15   3 2458.56 555.237   3
   9 -15   3 2067.34 389.578   2
  -9  -6   3 1673.89 198.581   3
 -15   6   3 2053.57 514.977   3
   9 -15   3 1986.01 461.414   3
  15  -9   3 2660.42 632.844   1
  -9  -6   3 2191.52 637.464   2
   9 -15   3 1953.29 554.179   1
   9 -15   3 2008.32 430.144   4
   6   9   6 3152.04 717.133   3
  -9  -6   6 3614.83 499.841   3
  -6  15   6 3107.77 791.816   3
 -15   6   6 3230.98 690.751   3
  -9  -6   6 4148.94 891.053   2
  15  -9   6 2890.63 737.225   1
  -9  -6   6 3428.48 654.434   4
   9 -15   6 4438.45 826.452   1
   9 -15   6 2947.56 505.813   2
   6   9   6 3385.44 559.016   1
 -15   6   6 1810.21 442.781   1
   9 -15   9-113.505 486.072   2
   9 -15   9 1886.87 795.270   1
   6   9   9-24.5645 812.006   3
  -6  15   9 1348.76 783.990   3
   6   9   9 748.633 477.776   1
  -9  -6   9 866.555 513.510   3
 -15   6   9 1590.31 746.543   3
  -9  -6   9 813.511 525.914   4
  15  -9   9 248.233 629.054   1
  -9  -6   9 991.849 823.660   2
  -8  -7 -10 1871.80 524.013   4
  -8  -7  -7 3977.00 733.674   2
 -15   7  -7 2676.86 250.336   4
  -7  15  -7 2944.88 363.958   4
  -8  -7  -7 3715.21 621.006   4
  -8  -7  -4 8383.00 828.442   2
  15  -8  -4 8134.55 608.139   1
  -8  -7  -4 8992.08 815.468   4
   8 -15  -4 9543.73 953.298   2
   8 -15  -4 10699.8 976.812   4
   8 -15  -4 8822.93 489.749   1
   8 -15  -4 9398.79 562.098   1
 -15   7  -4 9609.40 705.726   4
  -7  15  -4 7197.52 738.284   2
  -7  15  -4 8143.31 675.961   4
   8 -15  -1 19747.6 1185.05   3
   8 -15  -1 22859.5 1200.77   2
  -7  15  -1 20643.7 1059.84   3
 -15   7  -1 22024.0 966.057   2
 -15   7  -1 18949.6 1129.16   3
  15  -8  -1 19397.4 1042.73   1
   8 -15  -1 21490.2 1097.67   1
  -8  -7  -1 21852.2 1239.52   4
  -8  -7  -1 19469.3 1161.23   2
   8 -15  -1 23777.4 1270.51   4
  -7  15  -1 22189.1 1156.37   4
  -7  15  -1 21091.4 1167.27   2
   7   8   2 10517.2 783.227   3
 -15   7   2 9326.56 759.752   1
  -8  -7   2 11210.9 1041.94   2
  15  -8   2 10699.7 939.442   1
  -7  15   2 10365.9 879.806   3
   8 -15   2 10116.2 778.360   3
 -15   7   2 8942.51 832.701   3
   7   8   2 11407.5 880.583   1
   8 -15   2 9982.98 924.705   1
  -8  -7   2 9996.07 900.973   4
   8 -15   2 9919.12 774.695   4
   8 -15   2 10006.2 752.094   2
   7   8   5 7460.50 1002.43   3
  15  -8   5 7219.96 915.146   1
  -7  15   5 5502.76 823.833   3
 -15   7   5 5197.83 553.026   1
  -8  -7   5 6213.27 486.680   3
   7   8   5 7559.59 772.201   1
 -15   7   5 5221.33 725.250   3
  -8  -7   5 6255.16 937.406   2
  -8  -7   5 7287.42 808.127   4
   8 -15   5 6665.67 906.675   1
   8 -15   5 5527.44 522.548   4
   8 -15   5 6267.54 660.861   2
   8 -15   8 2829.75 747.651   1
   7   8   8 3292.12 677.163   1
   7   8   8 3320.96 901.235   3
  -8  -7   8 3227.18 583.779   3
  -8  -7   8 1866.95 814.172   2
 -15   7   8 1804.08 790.415   3
  15  -8   8 2920.61 778.186   1
  -8  -7   8 2624.21 598.866   4
  -7  15   8 2822.09 931.832   3
   8 -15   8 2378.21 577.540   2
  -7  -8  -8 2976.84 612.607   4
  -8  15  -5 7816.30 619.875   4
  -7  -8  -5 7674.82 844.081   2
  -7  -8  -5 6009.53 747.166   4
  -8  15  -5 5268.92 686.117   2
 -15   8  -5 4829.34 493.561   4
   7 -15  -5 6270.59 397.148   1
   7 -15  -5 6605.38 429.663   1
   7 -15  -5 8508.26 905.448   4
   7 -15  -2 10559.4 947.666   3
   7 -15  -2 9957.30 917.121   2
  -7  -8  -2 9395.43 874.450   2
  -8  15  -2 10799.2 802.633   3
   7 -15  -2 11776.1 960.569   4
  15  -7  -2 10848.8 765.215   1
  -7  -8  -2 10372.1 898.342   4
  -8  15  -2 10030.6 852.888   2
  -8  15  -2 12613.9 866.454   4
 -15   8  -2 10216.0 515.362   2
   7 -15   1 19516.2 1083.61   2
   7 -15   1 18458.7 1009.68   3
   8   7   1 22278.5 1182.39   1
  15  -7   1 19223.9 1150.38   1
 -15   8   1 19868.6 1147.23   3
   7 -15   1 22205.2 1151.71   4
  -7  -8   1 21237.3 1241.01   4
   8   7   1 17073.1 1181.04   2
  -8  15   1 22024.4 1145.63   3
 -15   8   1 21259.9 1123.51   1
  -8  15   1 19967.5 1162.63   2
  -7  -8   1 18651.7 1254.59   2
   8   7   4 8615.33 919.267   3
 -15   8   4 7947.94 634.141   1
  -7  -8   4 7781.72 987.679   2
  -8  15   4 8990.72 964.072   3
   8   7   4 8182.87 813.965   1
  15  -7   4 9764.89 999.403   1
 -15   8   4 6899.08 817.591   3
  -7  -8   4 6340.19 324.612   3
   7 -15   4 8834.61 751.009   2
   7 -15   4 7667.35 719.307   3
   7 -15   4 9439.22 1022.08   1
  -7  -8   4 10273.7 911.534   4
   7 -15   4 9197.83 696.263   4
  -7  -8   7 3416.04 545.487   3
  15  -7   7 4759.37 873.842   1
 -15   8   7 5374.48 887.069   3
  -8  15   7 4916.75 945.821   3
   7 -15   7 3569.46 829.068   1
  -7  -8   7 5736.92 762.273   4
   8   7   7 5025.02 950.923   3
   7 -15   7 5250.99 733.052   2
   7 -15   7 3311.90 367.139   4
  -7  -8   7 4358.84 936.234   2
   8   7   7 4595.15 696.981   1
 -15   8   7 3655.78 368.688   1
   7 -15  10 4036.95 927.478   3
   7 -15  10 5171.76 1066.42   1
  -7  -8  10 4709.33 828.647   3
   8   7  10 3797.69 1148.33   3
  -8  15  10 2407.03 965.166   3
 -15   8  10 4011.80 953.158   3
   8   7  10 4188.70 763.669   1
  -7  -8  10 3897.00 735.624   4
  -7  -8  10 4961.81 1148.21   2
  15  -7  10 5628.83 1048.60   1
  -7  -8  10 3045.77 838.285   1
   7 -15  10 3760.03 854.876   2
  -6  -9  -9 1275.51 541.764   4
   6 -15  -6 2992.12 629.845   4
   6 -15  -6 1994.99 225.592   1
 -15   9  -6 2638.25 303.026   4
  -9  15  -6 2743.33 358.869   4
 -15   9  -6 3157.13 320.364   4
  -6  -9  -6 3383.90 559.767   4
  -6  -9  -3 2693.07 600.650   2
   9   6  -3 1735.68 222.214   3
  15  -6  -3 2446.50 428.099   1
  -9  15  -3 2372.64 435.360   4
   6 -15  -3 2374.50 376.550   1
   6 -15  -3 2202.29 563.367   2
   6 -15  -3 2352.50 585.224   4
  -6  -9  -3 2749.64 545.640   4
  -9  15  -3 2007.74 447.225   2
   6 -15   0 4858.39 637.306   2
   6 -15   0 4551.24 552.732   3
  -6  -9   0 3760.29 616.924   4
  15  -6   0 3124.51 551.865   3
  -9  15   0 3883.82 575.308   3
 -15   9   0 2908.48 593.505   3
   9   6   0 4769.38 393.875   3
   9   6   0 3678.17 574.444   1
  15  -6   0 4512.43 621.341   1
  -9  15   0 3577.42 540.801   4
 -15   9   0 3272.01 585.089   1
  -6  -9   0 4557.23 685.707   2
   6 -15   0 3000.38 542.995   4
  -9  15   0 4071.31 577.261   2
   9   6   3 1791.49 464.065   1
   6 -15   3 1896.76 508.915   2
  -6  -9   3 1566.99 516.204   4
  -9  15   3 1156.93 490.868   3
 -15   9   3 2106.58 404.063   1
 -15   9   3 1751.03 496.885   3
   6 -15   3 1467.83 377.202   3
   9   6   3 2090.24 563.089   2
  -6  -9   3 2296.78 681.489   2
  15  -6   3 1134.84 501.563   1
   6 -15   3 2144.52 426.135   4
   9   6   6 3939.84 834.767   3
  -6  -9   6 3538.05 456.493   3
  -6  -9   6 3006.22 586.940   4
  -9  15   6 3730.47 792.447   3
   9   6   6 2050.95 537.500   1
 -15   9   6 1675.01 641.592   3
   6 -15   6 2835.76 592.503   2
   6 -15   6 3833.33 839.023   1
  -6  -9   6 2265.82 722.922   2
   6 -15   6 3519.95 441.904   4
  15  -6   6 3186.83 664.283   1
 -15   9   6 2203.06 301.616   1
   6 -15   9 460.477 657.226   1
   6 -15   9 167.325 571.311   3
   9   6   9 701.794 758.907   3
   9   6   9 16.2134 493.907   1
  -9  15   9-131.692 670.768   3
 -15   9   9 725.810 670.276   3
  -6  -9   9 54.9975 513.854   4
  -6  -9   9 412.631 750.094   2
  15  -6   9 460.846 658.320   1
   6 -15   9 631.077 574.866   2
  -6  -9   9 127.776 440.359   3
  -5 -10 -10 844.946 562.847   4
   5 -15  -7 1989.04 609.427   4
  -5 -10  -7 1825.78 619.175   2
  -5 -10  -7 2715.36 581.370   4
  10   5  -4 7848.40 533.963   3
  -5 -10  -4 9126.60 907.689   2
   5 -15  -4 7455.56 905.416   2
  15  -5  -4 7551.42 657.166   1
   5 -15  -4 8481.66 888.826   4
 -15  10  -4 10612.5 733.976   4
 -10  15  -4 8042.31 702.422   2
   5 -15  -4 8372.58 584.939   1
 -10  15  -4 9949.17 688.348   4
  -5 -10  -4 8005.10 813.379   4
  -5 -10  -1 26345.6 1384.81   4
   5 -15  -1 24465.1 1321.18   2
  10   5  -1 24683.4 1244.61   1
  15  -5  -1 21399.1 1189.75   3
  10   5  -1 23476.2 790.711   3
 -15  10  -1 22632.5 834.359   2
 -10  15  -1 24920.7 1247.08   3
 -15  10  -1 23362.4 1265.41   3
   5 -15  -1 24180.6 1195.06   3
  15  -5  -1 23460.9 1147.83   1
   5 -15  -1 22082.5 1255.82   4
 -10  15  -1 24377.6 1196.29   4
 -10  15  -1 24429.3 1140.38   2
  -5 -10  -1 25578.0 1359.25   2
  10   5   2 8192.75 803.422   1
   5 -15   2 7236.77 607.261   3
 -10  15   2 6860.15 769.346   3
 -15  10   2 7790.26 804.657   3
  15  -5   2 7569.97 790.275   1
 -15  10   2 7311.11 665.875   1
  10   5   2 7096.97 800.181   2
  -5 -10   2 7023.77 783.916   4
   5 -15   2 9584.06 791.403   4
   5 -15   2 8351.39 795.694   2
  -5 -10   2 6474.03 860.303   2
  -5 -10   5 8415.59 484.877   3
 -10  15   5 10111.1 1090.11   3
  15  -5   5 8987.85 990.326   1
   5 -15   5 8261.99 738.036   3
 -15  10   5 7888.59 943.554   3
   5 -15   5 8474.75 984.388   1
  -5 -10   5 8962.02 851.201   4
 -15  10   5 7940.87 528.598   1
   5 -15   5 8420.29 701.789   4
   5 -15   5 8794.32 862.533   2
  10   5   5 7746.16 824.473   1
  -5 -10   5 8874.39 1127.86   2
  10   5   8 380.768 681.320   3
  -5 -10   8 1425.40 763.048   2
  -5 -10   8 710.442 462.467   3
 -10  15   8 391.869 577.404   3
 -15  10   8 1664.66 729.091   3
  10   5   8 1498.91 585.181   1
   5 -15   8 1012.40 708.307   1
  15  -5   8 326.546 558.579   1
  -5 -10   8 697.126 444.318   4
   5 -15   8 757.724 512.785   2
   5 -15   8 492.105 244.741   4
  -4 -11  -8 2944.85 642.883   4
  11   4  -5 15233.0 885.902   3
  -4 -11  -5 15952.0 1222.43   2
   4 -15  -5 16385.1 1288.85   2
   4 -15  -5 18498.7 1297.58   4
 -15  11  -5 18874.3 840.044   4
 -11  15  -5 16419.3 785.960   4
   4 -15  -5 18244.8 841.134   1
  -4 -11  -5 15980.4 1137.72   4
 -15  11  -5 16184.7 731.152   4
 -15  11  -2 4459.02 325.953   2
   4 -15  -2 5607.82 691.273   3
  15  -4  -2 4632.22 587.780   1
   4 -15  -2 4869.49 712.341   2
  11   4  -2 5363.44 439.546   3
  11   4  -2 5238.83 647.516   1
   4 -15  -2 4774.33 538.287   1
  15  -4  -2 3706.92 561.135   3
   4 -15  -2 5330.22 674.414   4
 -11  15  -2 5285.66 683.932   3
 -15  11  -2 5876.35 777.325   3
  -4 -11  -2 5160.01 735.636   2
  -4 -11  -2 6499.88 757.599   4
 -11  15  -2 5396.84 562.125   2
 -11  15  -2 5572.76 624.836   4
 -11  15   1 3875.76 615.120   2
   4 -15   1 3230.45 448.522   3
  11   4   1 5169.44 660.385   1
  15  -4   1 3162.76 549.171   3
 -15  11   1 4507.98 558.959   2
  11   4   1 4374.38 475.268   3
 -11  15   1 3284.43 563.010   3
 -15  11   1 3039.01 538.600   3
  15  -4   1 3819.46 604.238   1
  -4 -11   1 3618.23 611.917   4
  11   4   1 3258.85 624.807   2
 -15  11   1 4074.07 574.371   1
  -4 -11   1 3742.18 696.340   2
   4 -15   1 3417.91 563.058   4
   4 -15   1 3383.62 549.573   2
 -11  15   4 10687.7 1049.80   3
 -15  11   4 10324.1 1034.95   3
  15  -4   4 9991.66 994.593   1
  -4 -11   4 10707.4 1082.05   2
 -15  11   4 8075.97 572.844   1
  15  -4   4 7913.84 505.861   2
  -4 -11   4 10529.9 936.387   4
   4 -15   4 9538.48 756.706   4
   4 -15   4 10340.5 937.121   2
  11   4   4 10344.0 905.099   1
  11   4   4 9719.32 894.341   2
   4 -15   4 9310.96 675.902   3
  -4 -11   7 6302.26 664.299   3
  15  -4   7 5391.38 445.520   2
 -11  15   7 6398.82 1068.12   3
 -15  11   7 6381.32 1006.03   3
  15  -4   7 6800.39 964.013   1
  11   4   7 8185.01 1192.02   3
   4 -15   7 7347.58 942.621   2
  11   4   7 6668.41 857.202   1
   4 -15   7 6727.37 987.245   1
  -4 -11   7 7087.39 817.484   4
   4 -15   7 6213.39 581.499   4
  -4 -11   7 6016.23 1001.19   2
   4 -15  10 5158.62 972.039   3
  11   4  10 3473.74 1143.86   3
  15  -4  10 4943.57 938.527   1
  -4 -11  10 3995.10 784.792   3
 -11  15  10 4063.21 1041.91   3
 -15  11  10 4745.43 1093.57   3
   4 -15  10 5645.46 1145.25   1
  -4 -11  10 3103.34 889.446   1
  -4 -11  10 3030.65 1073.46   2
  11   4  10 4150.41 855.188   1
   4 -15  10 3535.92 860.347   2
  -3 -12  -9 197.525 489.740   4
  12   3  -6 743.123 391.976   3
 -15  12  -6 442.869 182.796   4
  -3 -12  -6 727.139 529.139   2
 -15  12  -6 1338.83 226.322   4
   3 -15  -6 928.733 553.481   2
 -12  15  -6 1314.74 266.269   4
   3 -15  -6 1090.70 489.124   4
  -3 -12  -6 999.668 498.689   4
   3 -15  -6 779.903 333.953   1
  -3 -12  -3 4562.15 719.483   2
  12   3  -3 3973.28 452.588   3
  15  -3  -3 3678.92 622.194   3
   3 -15  -3 4968.93 770.972   2
   3 -15  -3 4714.93 529.914   1
  15  -3  -3 4714.20 606.597   1
 -12  15  -3 3983.72 463.448   2
  -3 -12  -3 5741.50 739.802   4
 -12  15  -3 4429.34 540.285   4
   3 -15  -3 4923.12 782.780   4
 -15  12  -3 4480.87 527.720   4
 -12  15   0 5731.28 616.509   2
   3 -15   0 5572.09 586.124   3
 -15  12   0 5190.63 526.569   2
  15  -3   0 4431.02 575.338   3
 -15  12   0 4620.15 607.737   1
 -12  15   0 4381.74 660.455   3
  12   3   0 4151.39 454.005   3
 -15  12   0 5846.87 738.802   3
  12   3   0 5081.81 675.168   1
  12   3   0 5901.04 762.566   2
  -3 -12   0 5262.00 740.698   4
  15  -3   0 5426.71 686.675   1
   3 -15   0 4646.80 656.519   4
  -3 -12   0 6089.70 759.923   2
   3 -15   0 4784.81 689.600   2
   3 -15   3 38.1777 406.711   2
  12   3   3 1007.85 472.661   1
  15  -3   3 49.0295 455.430   1
 -12  15   3 191.575 448.626   3
   3 -15   3 447.899 345.094   4
   3 -15   3 112.036 257.809   3
 -15  12   3 389.821 424.012   3
  -3 -12   3 270.413 431.040   4
 -15  12   3 767.622 312.642   1
  15  -3   3 0.61092 296.030   2
  12   3   3 842.207 473.394   2
  -3 -12   3 371.774 482.371   2
 -15  12   6 3631.67 780.322   3
  15  -3   6 3014.46 703.039   1
 -12  15   6 4076.02 840.324   3
  -3 -12   6 3628.15 445.620   3
  12   3   6 3893.82 714.479   1
   3 -15   6 3069.05 498.633   3
  -3 -12   6 5051.65 923.588   2
  -3 -12   6 3447.75 644.990   4
   3 -15   6 3924.53 542.754   4
  15  -3   6 2723.31 398.303   2
   3 -15   6 4054.95 716.096   2
  12   3   9-30.4185 736.358   3
   3 -15   9 279.397 560.447   3
  15  -3   9 116.324 630.305   1
  -3 -12   9-209.046 445.914   3
  -3 -12   9-1076.79 697.111   1
  -3 -12   9-913.660 731.984   2
 -12  15   9 626.950 661.089   3
 -15  12   9 1538.65 768.357   3
  -3 -12   9 790.034 477.209   4
   3 -15   9 207.702 610.147   1
   3 -15   9 1557.08 730.486   2
  12   3   9 493.128 582.848   1
  -2 -13  -7 6115.63 961.601   2
   2 -15  -7 3073.84 491.402   1
   2 -15  -7 6291.20 978.065   2
  -2 -13  -7 4654.55 794.341   4
   2 -15  -7 5109.02 815.458   4
  13   2  -4 3129.74 497.968   3
  15  -2  -4 3385.74 636.512   3
  -2 -13  -4 3202.97 678.147   2
   2 -15  -4 3431.91 683.272   2
 -13  15  -4 2524.89 348.957   2
   2 -15  -4 3481.84 483.084   1
  -2 -13  -4 2291.71 519.702   1
 -13  15  -4 3284.50 462.519   4
  15  -2  -4 3762.54 557.563   1
  -2 -13  -4 4349.47 702.723   4
   2 -15  -4 4185.01 690.612   4
 -15  13  -4 3372.95 452.843   4
   2 -15  -1 10227.3 922.310   2
   2 -15  -1 9941.02 771.450   3
  15  -2  -1 7492.34 753.674   1
 -15  13  -1 10377.1 641.673   2
  -2 -13  -1 9367.47 921.502   2
  15  -2  -1 8368.06 747.331   3
   2 -15  -1 7819.16 722.998   1
  13   2  -1 8616.82 644.604   3
 -13  15  -1 9049.54 849.335   3
 -15  13  -1 9155.11 864.320   3
 -13  15  -1 9095.97 789.023   4
  13   2  -1 9330.79 818.464   1
  -2 -13  -1 8762.62 863.823   4
   2 -15  -1 9633.36 908.630   4
 -15  13  -1 8223.38 740.244   4
 -13  15  -1 10536.8 739.984   2
  -2 -13   2 1291.25 505.187   2
   2 -15   2 2297.99 573.617   2
   2 -15   2 1092.88 298.158   3
  13   2   2 1255.18 461.305   1
 -13  15   2 1133.42 495.963   3
 -15  13   2 1994.64 565.753   3
  13   2   2 2601.28 498.620   3
   2 -15   2 2145.39 512.496   4
  15  -2   2 853.708 470.573   1
 -15  13   2 1548.61 391.954   1
  15  -2   2 1637.69 433.159   2
  13   2   2 1022.54 460.837   2
  -2 -13   2 2483.20 547.511   4
   2 -15   5 1386.52 581.424   2
  -2 -13   5 1144.81 241.955   3
  15  -2   5 533.909 480.302   1
 -13  15   5 641.926 560.981   3
 -15  13   5 1439.40 619.172   3
  13   2   5 1077.64 480.189   2
   2 -15   5 570.912 289.707   3
  -2 -13   5 1036.65 236.639   3
  -2 -13   5 1080.14 473.454   4
  15  -2   5 764.940 343.946   2
   2 -15   5 1279.77 390.474   4
  13   2   5 109.892 524.936   1
  -2 -13   5 1947.17 707.175   2
  13   2   8 764.032 716.601   3
   2 -15   8 1571.46 562.833   3
  -2 -13   8 401.703 435.466   4
  -2 -13   8 398.546 369.287   3
   2 -15   8 1150.92 680.511   2
 -13  15   8 2108.33 782.535   3
 -15  13   8 1031.44 711.225   3
  13   2   8 1166.97 621.943   1
  15  -2   8 1292.22 706.736   1
  -2 -13   8-172.091 656.344   2
   2 -15   8 1446.66 479.721   4
   2 -15   8 695.585 674.148   1
  -1 -14  -8 2167.27 632.583   4
   1 -15  -8 2506.06 719.162   4
 -15  14  -5 8336.62 593.443   4
  -1 -14  -5 9156.62 1037.99   2
   1 -15  -5 7696.64 958.665   2
  14   1  -5 5989.30 711.836   3
  -1 -14  -5 7387.84 760.313   1
   1 -15  -5 8206.18 733.758   1
 -14  15  -5 8783.92 603.052   4
  -1 -14  -5 9596.07 951.200   4
   1 -15  -5 9065.16 970.369   4
  -1 -14  -2 5506.75 638.008   3
   1 -15  -2 6047.96 711.906   3
  -1 -14  -2 7525.00 893.758   2
   1 -15  -2 6297.07 863.141   2
  14   1  -2 5491.96 591.339   3
  15  -1  -2 5093.29 620.470   3
 -15  14  -2 6375.16 683.098   4
 -14  15  -2 6336.51 790.613   3
 -15  14  -2 4705.36 732.940   3
  15  -1  -2 6297.33 702.713   1
   1 -15  -2 7027.14 699.097   1
  -1 -14  -2 6878.59 799.785   4
  14   1  -2 5590.72 699.026   1
   1 -15  -2 6372.79 823.462   4
 -14  15  -2 6825.30 558.061   2
 -14  15  -2 6879.83 684.744   4
 -15  14  -2 6038.10 477.996   2
  14   1   1 10650.4 933.299   1
  -1 -14   1 8908.91 440.265   3
   1 -15   1 10429.2 606.900   3
 -15  14   1 10526.6 852.941   2
 -14  15   1 11231.3 944.168   3
   1 -15   1 11617.8 975.695   4
 -15  14   1 10151.9 942.020   3
  15  -1   1 9033.27 776.099   3
  14   1   1 10789.3 789.149   3
 -14  15   1 11159.8 887.511   2
  -1 -14   1 9700.59 955.408   2
 -15  14   1 11719.2 885.447   1
  15  -1   1 11235.0 940.300   2
  14   1   1 10971.2 960.654   2
  -1 -14   1 12345.0 1006.54   4
  15  -1   1 11329.5 933.358   1
   1 -15   1 10905.7 983.973   2
  -1 -14   4 7875.16 976.206   2
  15  -1   4 6747.51 679.550   2
 -14  15   4 4976.67 802.713   3
 -15  14   4 7282.40 883.540   3
  -1 -14   4 5605.68 341.702   3
  14   1   4 7068.77 865.138   1
  -1 -14   4 8114.37 833.316   4
   1 -15   4 7416.32 515.320   3
  14   1   4 6879.43 718.388   2
   1 -15   4 8707.16 815.249   4
  15  -1   4 6795.59 852.389   1
   1 -15   4 5682.51 838.150   2
   1 -15   7 7338.99 754.610   3
 -14  15   7 5157.79 1009.61   3
  -1 -14   7 5407.11 642.013   3
  15  -1   7 5263.37 899.571   1
   1 -15   7 8104.22 1059.64   2
  -1 -14   7 6705.75 1011.83   2
  -1 -14   7 6850.29 771.503   4
   1 -15   7 5459.42 685.665   4
 -15  14   7 6710.70 1113.39   3
  14   1   7 5518.20 917.301   1
  15  -1  10 1178.14 1034.45   3
  14   1  10 2072.26 1005.41   3
   1 -15  10-279.479 575.358   3
  -1 -14  10 1172.86 647.870   3
 -14  15  10 773.998 750.771   3
 -15  14  10 1674.95 953.569   3
  15  -1  10 580.325 716.515   1
  14   1  10 1354.43 737.248   1
  -1 -14  10 924.064 734.938   1
   1 -15  10 1828.69 853.769   2
  -1 -14  10 586.992 740.027   2
   1 -15  10 797.057 770.898   1
   0 -15  -9-240.737 546.378   4
   0 -15  -6 10057.6 1133.54   2
   0 -15  -6 10058.4 870.342   1
 -15  15  -6 9041.89 527.082   4
   0 -15  -6 10985.4 1085.72   4
   0 -15  -3-86.9796 449.304   2
  15   0  -3 682.193 394.037   3
  15   0  -3-169.494 332.975   1
   0 -15  -3 800.639 496.895   4
 -15  15  -3-50.0942 306.801   4
 -15  15  -3 52.1463 210.562   2
   0 -15   0 13130.2 718.366   3
  15   0   0 14119.2 1061.34   1
 -15  15   0 14090.9 893.788   2
  15   0   0 11727.9 821.813   3
 -15  15   0 13704.7 1058.34   3
  15   0   0 12240.5 1055.70   2
   0 -15   0 15232.9 1114.69   4
   0 -15   0 14074.3 1091.72   2
   0 -15   3 71.0777 462.020   2
   0 -15   3-73.8471 147.873   3
 -15  15   3 527.392 489.779   3
   0 -15   3 364.683 378.391   4
  15   0   3-311.643 454.782   1
  15   0   3 357.186 377.555   2
   0 -15   6 4327.68 519.305   3
   0 -15   6 4299.45 641.298   4
 -15  15   6 3381.76 832.137   3
   0 -15   6 3674.17 455.413   3
   0 -15   6 5872.37 987.186   2
  15   0   6 4634.65 811.537   1
  15   0   6 3927.17 652.449   2
  15   0   9 482.977 793.847   3
 -15  15   9-106.704 672.295   3
  15   0   9-1403.12 802.032   1
   0 -15   9-352.756 487.615   3
   0 -15   9 742.398 710.494   1
   0 -15   9 545.803 464.839   4
   0 -15   9 75.9505 659.533   2
 -16   0  -7 521.837 394.667   4
 -16   0  -4 8555.73 751.573   2
  16 -16  -4 10730.1 635.710   1
 -16   0  -4 9758.51 909.057   4
  16 -16  -1 303.825 371.073   1
   0  16  -1 435.187 224.203   3
 -16   0  -1 34.7333 434.976   4
 -16   0  -1-134.370 383.624   2
   0  16   2 16555.5 1030.75   3
 -16   0   2 17426.8 991.191   3
 -16   0   2 17308.0 1274.93   4
 -16   0   2 18350.9 1418.23   2
  16 -16   2 20305.8 1375.66   1
   0  16   5-44.7599 492.090   3
  16 -16   5 349.460 588.651   1
 -16   0   5 440.281 433.451   3
 -16   0   5 574.378 562.119   4
 -16   0   5-9.51302 663.326   2
   0  16   8 13242.5 1578.21   3
 -16   0   8 11282.0 1152.62   3
  16 -16   8 11786.5 1452.75   1
 -16   0   8 12109.0 1286.46   4
 -16   0   8 14519.4 1770.29   2
 -16   1  -8 873.322 429.346   4
 -15  -1  -8 804.912 431.433   4
 -16   1  -5 1551.30 459.381   4
  16 -15  -5 839.133 216.579   1
 -15  -1  -5 2194.20 476.887   2
 -16   1  -5 1289.63 375.201   2
 -15  -1  -5 1056.40 411.783   4
  15 -16  -5 938.796 173.806   1
 -16   1  -2 634.352 396.214   2
 -15  -1  -2 1168.96 431.265   2
 -16   1  -2 942.043 484.521   4
 -15  -1  -2 805.042 436.119   4
  15 -16  -2 304.882 317.869   1
  16 -15  -2 406.054 360.481   1
   1  15   1 7719.63 632.738   3
  -1  16   1 7203.84 635.030   3
  16 -15   1 7469.69 838.064   1
 -16   1   1 6251.95 646.822   3
 -15  -1   1 8183.15 954.579   2
 -16   1   1 8021.05 914.848   4
 -15  -1   1 7639.32 891.051   4
 -16   1   1 7148.31 927.386   2
  15 -16   1 8285.60 869.232   1
  -1  16   4-421.684 509.482   3
   1  15   4 690.262 460.760   3
  15 -16   4 1169.45 580.411   1
  16 -15   4 278.222 499.140   1
 -16   1   4 654.910 425.240   3
 -15  -1   4 480.908 406.246   3
 -16   1   4-145.468 577.994   2
 -16   1   4-149.640 463.992   4
 -15  -1   4 1810.33 576.905   4
 -15  -1   4-66.8230 582.854   2
 -15  -1   7 2072.33 826.946   2
   1  15   7 414.841 628.807   3
 -15  -1   7 795.704 562.082   4
  -1  16   7 717.690 652.736   3
  15 -16   7 1883.29 763.903   1
  16 -15   7 1405.76 678.778   1
 -15  -1   7 1177.54 541.958   3
 -16   1   7 1238.99 548.807   3
 -16   1   7 2392.75 985.467   2
 -16   1   7 1669.77 681.292   4
 -14  -2  -9 1452.65 468.897   4
 -16   2  -6 2420.50 510.940   4
 -14  -2  -6 2241.13 515.263   4
 -14  -2  -6 2571.89 550.558   2
 -16   2  -6 1864.43 363.113   2
  16 -14  -3 9293.08 686.835   1
 -14  -2  -3 10008.6 923.724   4
 -16   2  -3 9687.61 875.192   4
 -14  -2  -3 8531.98 776.544   2
 -16   2  -3 9421.25 723.798   2
  14 -16  -3 10340.1 685.408   1
   2  14   0 2314.51 324.538   3
 -16   2   0 1791.13 551.878   4
  -2  16   0 2120.60 382.880   3
  16 -14   0 2160.61 511.259   1
 -14  -2   0 2055.98 591.433   4
 -14  -2   0 1863.88 556.922   2
  14 -16   0 3028.02 583.963   1
 -16   2   0 2748.66 583.888   2
  16 -14   3 11392.0 1095.66   1
   2  14   3 12585.3 1014.51   3
  -2  16   3 13081.5 1026.05   3
  14 -16   3 10888.7 627.922   2
 -16   2   3 10525.7 854.779   3
 -14  -2   3 10312.0 713.344   3
 -16   2   3 10664.8 1052.50   4
 -14  -2   3 11682.2 1058.50   4
 -16   2   3 13135.0 1246.91   2
 -14  -2   3 10363.5 1150.63   2
  14 -16   3 12807.6 1143.82   1
   2  14   6 1226.31 601.139   3
  14 -16   6 1732.15 702.907   1
  16 -14   6 941.488 600.082   1
  14 -16   6 746.795 179.556   2
 -16   2   6 1676.57 561.692   3
 -14  -2   6 1704.66 488.177   3
 -16   2   6 1030.87 561.612   4
 -14  -2   6 1634.99 627.843   4
 -16   2   6 3516.70 914.595   2
  -2  16   6 1001.37 657.061   3
 -14  -2   6 1061.46 734.681   2
 -14  -2   9 3022.52 807.068   4
   2  14   9 1845.72 795.554   3
  -2  16   9 2984.46 1014.20   3
  14 -16   9 1924.91 845.160   1
 -14  -2   9 2651.43 755.347   3
 -16   2   9 2313.90 746.597   3
  16 -14   9 2293.17 787.247   1
 -16   2   9 2436.04 1031.05   2
 -14  -2   9 3197.86 1088.64   2
 -16   2   9 1932.64 692.688   4
 -13  -3  -7 1566.36 525.558   2
 -16   3  -7 1490.93 372.391   4
 -13  -3  -7 1847.86 498.326   4
  13 -16  -4 19532.9 755.181   1
 -13  -3  -4 20268.6 1173.11   2
 -16   3  -4 19194.5 851.756   2
 -16   3  -4 19540.7 1127.76   4
  16 -13  -4 19355.8 827.592   1
 -13  -3  -4 21276.7 1250.38   4
 -13  -3  -1 948.484 475.877   2
  13 -16  -1 1298.33 431.532   1
  -3  16  -1 1006.07 308.703   3
 -16   3  -1 347.939 349.154   2
 -16   3  -1 732.893 425.273   4
  16 -13  -1 1544.73 425.236   1
 -13  -3  -1 324.621 394.243   4
   3  13   2 24462.7 1178.60   3
  -3  16   2 25100.9 1271.44   3
  13 -16   2 22362.6 989.438   2
 -16   3   2 24652.6 1245.88   3
 -13  -3   2 23147.9 932.987   3
 -16   3   2 22323.0 1373.81   4
 -16   3   2 24871.2 1544.54   2
 -13  -3   2 24168.8 1429.07   4
 -13  -3   2 25133.0 1601.66   2
  13 -16   2 24276.5 1421.85   1
  16 -13   2 26498.0 1465.53   1
  13 -16   5 1608.01 687.663   1
   3  13   5 2097.80 665.060   3
  -3  16   5 1031.93 591.350   3
  13 -16   5 1500.27 293.781   2
 -16   3   5 566.820 422.237   3
  16 -13   5 2306.39 725.494   1
 -13  -3   5 1354.31 426.789   3
 -13  -3   5 1206.43 774.024   2
 -16   3   5 1423.85 583.667   4
 -16   3   5 1156.48 659.605   2
 -13  -3   5 929.588 524.650   4
   3  13   5 1580.19 463.465   1
  -3  16   8 6876.69 1171.65   3
   3  13   8 8966.93 839.924   1
 -13  -3   8 7315.31 894.435   3
 -16   3   8 9408.13 1141.12   3
 -13  -3   8 9851.01 1442.00   2
 -16   3   8 8467.53 1349.70   2
 -16   3   8 8190.63 1099.67   4
 -13  -3   8 9722.85 1102.42   4
  13 -16   8 6255.80 1062.71   1
   3  13   8 10791.8 1442.52   3
  13 -16   8 5719.67 478.887   2
  16 -13   8 9306.94 1214.14   1
 -16   4  -8 121.728 246.043   4
 -12  -4  -8 284.560 380.805   4
 -12  -4  -5 4269.24 647.537   2
 -16   4  -5 3816.27 330.686   2
  16 -12  -5 4751.84 392.727   1
 -12  -4  -5 4667.12 657.403   4
  -4  16  -5 3422.52 569.536   4
 -16   4  -5 4840.22 626.248   4
 -12  -4  -2 1943.09 508.051   2
 -12  -4  -2 1764.56 519.341   4
  16 -12  -2 3346.85 494.164   1
  -4  16  -2 2934.38 420.115   3
 -16   4  -2 3164.67 535.559   4
 -16   4  -2 2997.35 451.991   2
  12 -16  -2 2605.48 447.364   1
  16 -12   1 7992.92 837.665   1
   4  12   1 11463.3 695.385   3
  -4  16   1 10086.3 766.600   3
  12 -16   1 11699.7 797.870   2
 -12  -4   1 11622.7 1073.18   2
 -16   4   1 12903.9 918.431   3
  12 -16   1 11327.0 956.019   1
 -16   4   1 10759.6 984.383   4
 -16   4   1 10625.9 983.563   2
 -12  -4   1 11680.9 1026.48   4
  12 -16   4 2265.05 651.091   1
   4  12   4 1601.32 540.881   3
 -16   4   4 1993.51 498.063   1
   4  12   4 2597.75 547.945   1
  -4  16   4 2269.35 656.142   3
  12 -16   4 1677.65 339.439   2
 -12  -4   4 2775.12 707.687   2
 -16   4   4 2249.73 517.678   3
 -12  -4   4 1654.21 361.236   3
  16 -12   4 3304.14 707.402   1
 -16   4   4 1871.74 570.059   4
 -16   4   4 681.588 590.867   2
 -12  -4   4 1888.21 590.885   4
  -4  16   7 6625.03 1062.41   3
   4  12   7 3770.40 866.976   3
 -12  -4   7 6054.97 724.004   3
 -16   4   7 4871.41 822.266   3
 -16   4   7 3914.41 845.265   4
 -12  -4   7 4495.86 777.706   4
 -16   4   7 4433.27 1000.70   2
 -12  -4   7 5317.53 1028.01   2
   4  12   7 4904.65 672.023   1
  12 -16   7 3971.50 456.631   2
  12 -16   7 4861.58 934.675   1
  16 -12   7 4919.14 920.572   1
  16 -12  10-20.1507 678.061   1
   4  12  10 351.659 861.360   3
  -4  16  10 417.123 840.203   3
 -12  -4  10 1452.88 696.580   3
 -16   4  10-525.660 729.956   3
 -16   4  10 1302.37 762.799   4
 -16   4  10 2212.30 1048.25   2
 -12  -4  10 161.859 593.883   4
 -12  -4  10 2300.06 1140.81   2
  12 -16  10 1410.19 799.758   1
 -11  -5  -9 309.139 453.016   4
 -16   5  -6 1777.03 383.809   4
 -11  -5  -6 2399.49 552.263   2
  -5  16  -6 1673.36 428.242   4
 -11  -5  -6 1555.34 488.488   4
  11 -16  -3 1260.31 333.427   1
 -16   5  -3 1185.49 269.427   2
 -16   5  -3 1061.31 446.189   4
 -11  -5  -3 2104.96 513.794   2
  16 -11  -3 803.079 320.817   1
  -5  16  -3 915.746 404.493   4
 -11  -5  -3 810.843 439.860   4
  11 -16   0-117.244 340.910   4
 -11  -5   0-190.209 436.219   2
   5  11   0 823.153 208.639   3
  -5  16   0 592.295 343.665   3
 -11  -5   0 615.535 452.606   4
  11 -16   0 94.9864 364.499   2
  16 -11   0 1391.83 509.249   1
 -16   5   0 138.126 385.077   3
 -16   5   0 1717.35 489.980   4
 -16   5   0 248.404 380.922   2
  11 -16   0 357.694 333.270   1
   5  11   3 2916.94 570.044   3
  11 -16   3 2671.43 451.973   2
   5  11   3 3079.40 544.904   1
  -5  16   3 2757.39 574.001   3
 -11  -5   3 2046.89 273.842   3
 -16   5   3 3568.05 590.183   3
 -11  -5   3 2723.68 603.445   4
  16 -11   3 3145.20 670.597   1
 -16   5   3 1222.09 594.979   2
 -11  -5   3 1285.46 592.235   2
  11 -16   3 1917.25 581.589   1
 -16   5   3 2185.42 527.941   1
  11 -16   6 496.962 537.280   1
 -16   5   6 225.566 419.409   1
   5  11   6-429.307 531.433   3
  11 -16   6-159.024 279.081   2
  -5  16   6-138.973 536.367   3
 -11  -5   6 941.677 362.783   3
 -16   5   6 850.416 551.794   3
  16 -11   6 201.426 519.652   1
 -11  -5   6 270.969 451.699   4
   5  11   6 472.619 401.491   1
 -11  -5   6-795.070 682.024   2
 -16   5   9 2739.93 808.450   4
   5  11   9 1407.03 857.839   3
  11 -16   9 3285.95 873.667   1
 -11  -5   9 1951.45 654.787   4
  -5  16   9 3098.58 1071.91   3
 -11  -5   9 3106.50 685.689   3
 -16   5   9 3151.40 820.269   3
   5  11   9 1980.95 534.266   1
  16 -11   9 3550.70 949.867   1
 -11  -5   9 1769.08 871.171   2
 -10  -6  -7-119.675 451.339   2
  -6  16  -7 94.9771 340.350   4
 -16   6  -7 665.599 267.229   4
 -10  -6  -7-140.646 405.172   4
  16 -10  -4 12567.5 731.794   1
 -10  -6  -4 12170.8 986.525   2
 -16   6  -4 12980.2 874.438   4
  -6  16  -4 11128.3 839.658   4
  10 -16  -4 14116.1 665.776   1
 -10  -6  -4 14405.5 1078.87   4
  10 -16  -1 1793.95 502.625   4
  16 -10  -1 174.928 334.061   1
 -10  -6  -1 862.439 422.462   2
 -10  -6  -1 1443.05 464.667   4
  -6  16  -1 975.410 390.645   3
  10 -16  -1 1137.36 430.604   2
 -16   6  -1 1103.58 450.965   4
 -16   6  -1 789.896 352.348   2
  10 -16  -1 897.967 374.531   1
   6  10   2 8672.87 741.431   3
  10 -16   2 6999.36 659.160   2
  16 -10   2 9288.14 901.856   1
   6  10   2 9295.11 837.469   1
 -16   6   2 7778.98 767.215   1
  -6  16   2 7112.73 775.204   3
  10 -16   2 7268.86 746.238   3
 -16   6   2 8236.19 823.058   3
 -16   6   2 8373.78 935.199   2
 -10  -6   2 8419.50 880.329   4
  10 -16   2 6350.88 801.008   1
 -10  -6   2 8498.48 947.688   2
  10 -16   2 7819.04 717.160   4
  16 -10   5 3880.34 798.915   1
   6  10   5 3890.17 734.068   3
 -10  -6   5 3202.32 417.818   3
  -6  16   5 3454.77 728.496   3
  10 -16   5 3298.17 500.996   2
 -16   6   5 2983.31 651.956   3
   6  10   5 2167.67 518.678   1
 -10  -6   5 3624.98 709.481   4
 -10  -6   5 5066.13 906.445   2
 -16   6   5 1653.26 458.313   1
  10 -16   5 3116.21 721.884   1
  16 -10   8 9535.04 1203.45   1
  -6  16   8 8569.78 1222.33   3
   6  10   8 5547.31 1058.55   3
 -10  -6   8 6836.33 787.438   3
 -16   6   8 6989.33 1016.97   3
   6  10   8 8258.62 875.167   1
 -10  -6   8 7382.24 929.210   4
 -10  -6   8 7178.69 1219.93   2
  10 -16   8 8835.38 1226.04   1
  10 -16   8 6682.75 714.201   2
  -9  -7  -8 2673.84 586.546   4
  -9  -7  -5 8880.43 900.824   2
  -7  16  -5 7427.42 868.036   2
 -16   7  -5 9337.08 679.392   4
  -7  16  -5 8188.13 687.610   4
   9 -16  -5 8008.10 408.039   1
  -9  -7  -5 8212.27 830.756   4
   9 -16  -5 7177.80 384.198   1
  16  -9  -5 9249.62 622.243   1
  -9  -7  -2 12634.4 1015.41   4
   9 -16  -2 13220.2 1045.97   2
  -7  16  -2 11489.9 796.693   3
  16  -9  -2 11655.5 806.940   1
 -16   7  -2 12596.5 957.760   4
   9 -16  -2 12997.7 854.022   1
 -16   7  -2 11901.5 621.079   2
  -7  16  -2 10966.0 942.131   2
   9 -16  -2 12961.8 1042.06   4
  -9  -7  -2 11627.0 966.161   2
  -7  16  -2 12033.6 892.033   4
   7   9   1 3813.75 452.022   3
 -16   7   1 3625.00 602.241   1
   9 -16   1 3202.16 544.496   4
   9 -16   1 3531.65 553.964   2
   9 -16   1 4135.28 601.381   3
   7   9   1 4103.62 607.929   1
  16  -9   1 3848.96 632.904   1
  -7  16   1 4105.80 578.024   3
 -16   7   1 3827.17 599.650   3
   9 -16   1 4254.16 688.652   1
  -9  -7   1 3870.52 667.332   4
  -9  -7   1 3597.66 693.752   2
   7   9   4 4314.07 720.161   3
  16  -9   4 4947.33 757.565   1
 -16   7   4 5022.58 594.626   1
  -7  16   4 4766.13 791.904   3
 -16   7   4 5058.96 717.735   3
  -9  -7   4 4170.50 307.744   3
   7   9   4 5657.95 692.942   1
  -9  -7   4 4727.29 712.710   4
   9 -16   4 5640.48 870.791   1
   9 -16   4 4915.32 578.522   2
   9 -16   4 5256.65 564.273   4
  -9  -7   4 4984.31 909.381   2
   9 -16   7 3244.51 805.372   1
   9 -16   7 2244.61 501.487   2
   7   9   7 3290.12 827.750   3
  16  -9   7 2959.12 803.078   1
   7   9   7 4334.01 679.040   1
  -7  16   7 3547.76 946.963   3
  -9  -7   7 2812.22 474.706   3
 -16   7   7 3309.63 761.746   3
 -16   7   7 1503.86 406.175   1
  -9  -7   7 1236.66 674.773   2
  -9  -7   7 3229.14 650.938   4
   7   9  10 2413.79 993.521   3
   9 -16  10 2674.92 948.264   1
  -7  16  10 2385.92 974.460   3
  -9  -7  10 1662.51 617.124   3
  -9  -7  10 1285.95 942.127   2
   7   9  10 936.928 511.705   1
  16  -9  10 1600.23 854.144   1
 -16   7  10 3086.57 944.190   4
  -9  -7  10 2482.05 687.302   4
 -16   7  10 1211.83 761.213   3
  -8  -8  -9-81.9477 426.462   4
  -8  16  -6 877.953 351.254   4
  -8  -8  -6 1274.85 499.312   2
 -16   8  -6 1219.86 313.883   4
  -8  -8  -6 781.301 426.467   4
  -8  -8  -3 747.465 424.529   4
  -8  -8  -3 1192.08 499.903   2
  16  -8  -3 583.137 323.735   1
 -16   8  -3 92.9471 367.607   4
   8 -16  -3 590.792 401.853   2
  -8  16  -3 102.567 335.682   4
  -8  16  -3 252.350 430.741   2
   8 -16  -3 883.035 468.018   4
   8   8   0 5642.96 441.060   3
   8 -16   0 6217.69 719.140   4
   8 -16   0 4020.07 609.408   2
   8 -16   0 4701.36 621.683   3
   8   8   0 5635.40 663.562   1
  -8  16   0 5594.04 640.255   3
  16  -8   0 5187.67 663.237   1
 -16   8   0 5065.07 679.456   3
   8   8   0 4832.27 368.011   3
  -8  16   0 4597.17 626.668   2
 -16   8   0 5220.92 630.908   2
  -8  -8   0 5747.81 776.109   4
  -8  -8   0 5750.24 786.719   2
   8   8   3 6.01948 369.461   3
   8 -16   3 348.596 332.891   2
   8   8   3 940.390 400.641   1
  -8  16   3 435.988 418.401   3
 -16   8   3 642.143 409.928   3
   8 -16   3 605.680 366.278   3
 -16   8   3 148.033 336.460   1
   8 -16   3 51.2846 433.810   1
  -8  -8   3 656.397 473.510   4
  16  -8   3 390.735 496.066   1
  -8  -8   3 466.048 500.072   2
   8 -16   3 51.1278 311.800   4
   8 -16   6 466.778 438.418   2
  16  -8   6 604.046 543.845   1
   8   8   6 750.915 535.833   3
  -8  16   6 1080.95 633.398   3
  -8  -8   6 1331.39 368.618   3
 -16   8   6 1871.51 598.211   3
  -8  -8   6 774.393 484.916   4
 -16   8   6 904.645 353.431   1
   8   8   6 1301.69 495.766   1
  -8  -8   6 918.378 681.208   2
   8 -16   6 2713.32 785.299   1
   8 -16   6 973.754 331.586   4
   8   8   9 274.517 693.633   3
   8 -16   9 466.414 706.376   1
  -8  16   9 399.491 740.071   3
  -8  -8   9 574.622 462.743   3
 -16   8   9 73.0287 640.166   3
   8   8   9 941.806 535.539   1
  -8  -8   9 366.294 484.227   4
  -8  -8   9 386.338 743.911   2
  16  -8   9 985.742 683.788   1
   8 -16   9-196.138 479.838   2
  -7  -9 -10 800.378 537.200   4
  -7  -9  -7 3038.46 673.040   2
  -9  16  -7 1934.62 300.997   4
  -7  -9  -7 2635.44 598.813   4
  -7  -9  -4 5997.33 762.855   2
   7 -16  -4 6189.77 890.497   2
   7 -16  -4 4583.57 437.325   1
  16  -7  -4 4570.84 541.230   1
 -16   9  -4 4847.51 569.327   4
  -9  16  -4 4200.50 623.436   2
  -9  16  -4 4551.01 540.986   4
   7 -16  -4 5628.59 786.121   4
  -7  -9  -4 5865.97 736.270   4
   7 -16  -1 4300.98 629.101   3
   7 -16  -1 3735.28 652.399   2
   7 -16  -1 4659.45 674.790   4
  -9  16  -1 3377.56 529.077   3
   9   7  -1 3004.46 276.035   3
   9   7  -1 3982.74 623.560   1
 -16   9  -1 2635.67 555.215   3
  16  -7  -1 3786.63 578.060   1
 -16   9  -1 3933.83 497.755   2
  -7  -9  -1 4270.30 642.095   4
  -9  16  -1 3767.00 593.042   2
  -7  -9  -1 3457.49 639.220   2
   7 -16   2 11110.1 844.521   2
  -9  16   2 10714.4 900.127   3
   7 -16   2 10974.5 822.717   3
 -16   9   2 8600.80 855.380   3
  16  -7   2 11850.2 1007.27   1
   9   7   2 10093.8 864.228   1
  -7  -9   2 10448.8 1060.50   2
  -7  -9   2 10850.9 961.285   4
   7 -16   2 10902.8 844.015   4
 -16   9   2 12274.0 870.325   1
  -7  -9   5 8230.03 875.754   4
   9   7   5 9650.29 903.277   1
  -9  16   5 8533.87 1001.00   3
  -7  -9   5 7806.98 452.763   3
  16  -7   5 8431.68 1001.65   1
 -16   9   5 7379.06 918.031   3
  -7  -9   5 7550.27 1095.82   2
   7 -16   5 11376.1 1198.72   1
   7 -16   5 8155.24 802.960   2
   7 -16   5 9221.58 698.747   4
   9   7   5 9591.13 1086.61   3
 -16   9   5 6871.69 597.440   1
   9   7   8 1099.71 664.639   3
  -7  -9   8 1523.51 807.473   2
  -7  -9   8 2298.66 553.002   3
  -9  16   8 3990.53 933.262   3
 -16   9   8 2542.40 788.483   3
   9   7   8 2117.78 625.512   1
   7 -16   8 2876.41 688.406   2
  -7  -9   8 2075.42 602.581   4
  16  -7   8 1162.69 651.955   1
   7 -16   8 2058.76 728.990   1
  -6 -10  -8 9893.19 1100.98   2
  -6 -10  -8 7051.41 851.792   4
  -6 -10  -5 3461.26 700.499   2
   6 -16  -5 3953.86 756.229   2
 -10  16  -5 2215.13 518.135   2
 -16  10  -5 3161.92 455.449   4
 -10  16  -5 2688.04 424.220   4
   6 -16  -5 3077.02 387.761   1
  -6 -10  -5 2970.40 603.755   4
   6 -16  -5 2985.50 667.903   4
  10   6  -2 5952.07 356.566   3
   6 -16  -2 8695.85 885.307   2
 -16  10  -2 7622.20 403.147   2
 -10  16  -2 8372.15 781.607   3
 -16  10  -2 7869.78 481.573   2
  -6 -10  -2 8643.13 879.754   4
 -10  16  -2 7146.42 721.660   2
 -10  16  -2 8513.32 776.446   4
   6 -16  -2 8295.50 860.116   4
  16  -6  -2 6378.11 665.486   1
  -6 -10  -2 8600.25 881.611   2
  -6 -10   1 1023.95 538.826   2
  16  -6   1 979.189 509.733   1
 -16  10   1 1169.43 439.777   1
   6 -16   1 152.727 362.319   2
   6 -16   1 1257.14 439.163   3
 -10  16   1 1107.92 428.885   3
 -16  10   1 1077.84 454.783   3
  10   6   1 561.508 362.740   1
  -6 -10   1 848.513 457.923   4
   6 -16   1 1151.74 444.886   4
  10   6   4 12207.9 977.714   1
 -10  16   4 12554.5 1134.69   3
   6 -16   4 13469.0 998.056   2
 -16  10   4 13329.9 1114.51   3
  16  -6   4 13310.6 1134.44   1
   6 -16   4 12222.9 836.866   3
   6 -16   4 14242.3 1278.59   1
  -6 -10   4 13191.6 1047.78   4
  -6 -10   4 12184.9 1227.35   2
   6 -16   4 11982.3 839.933   4
 -16  10   4 10988.1 741.190   1
   6 -16   7 882.537 534.099   2
 -16  10   7 194.893 120.821   1
  10   6   7 59.9098 614.116   3
  -6 -10   7 838.334 359.733   3
 -10  16   7 596.648 634.917   3
  10   6   7 590.648 545.619   1
 -16  10   7 1259.24 677.849   3
  -6 -10   7 1636.43 518.471   4
   6 -16   7 1226.07 706.172   1
  -6 -10   7 939.123 710.589   2
  16  -6   7 882.602 618.729   1
   6 -16   7 62.2548 282.631   4
  16  -6  10 2607.53 880.781   1
   6 -16  10 2865.99 899.940   1
   6 -16  10 3383.26 893.367   3
  10   6  10 3822.94 1170.20   3
  -6 -10  10 3336.58 714.587   4
  -6 -10  10 3202.14 880.474   1
  -6 -10  10 3677.41 734.352   3
 -10  16  10 3891.87 1128.62   3
 -16  10  10 3464.89 1026.86   3
  10   6  10 2564.32 719.630   1
   6 -16  10 2285.95 751.409   2
  -6 -10  10 4291.00 1169.40   2
  -5 -11  -9 1946.12 620.861   4
   5 -16  -6-104.129 459.463   4
 -16  11  -6 156.769 197.028   4
  -5 -11  -6 463.024 463.420   2
   5 -16  -6 328.794 555.253   2
 -11  16  -6 410.786 276.453   4
  -5 -11  -6-146.257 445.890   4
   5 -16  -6-274.949 270.478   1
 -16  11  -6-3.04836 189.895   4
  11   5  -3 2164.25 311.679   3
   5 -16  -3 3518.18 695.504   2
  16  -5  -3 2323.47 487.741   1
  -5 -11  -3 1799.80 533.322   2
 -11  16  -3 2273.18 480.610   2
   5 -16  -3 3107.65 610.658   4
 -11  16  -3 2727.18 465.536   4
   5 -16  -3 2840.26 426.423   1
  -5 -11  -3 2183.24 548.111   4
  -5 -11   0 181.342 413.275   2
 -11  16   0 289.804 354.044   2
   5 -16   0 264.884 319.047   3
   5 -16   0 22.9911 366.370   2
  -5 -11   0 89.4657 383.223   4
 -11  16   0 360.533 398.513   3
  11   5   0 391.104 241.817   3
 -16  11   0 687.668 473.043   3
 -16  11   0 309.773 298.484   2
  16  -5   0-47.5680 368.557   1
  11   5   0 445.188 421.847   1
   5 -16   0 284.269 361.006   4
   5 -16   3 616.708 439.828   2
  16  -5   3 924.042 535.187   1
 -16  11   3 610.348 341.106   1
 -11  16   3 889.658 457.839   3
   5 -16   3 1155.34 347.312   3
 -16  11   3 1426.69 499.129   3
   5 -16   3 389.204 331.431   4
  11   5   3 1172.45 468.218   1
  -5 -11   3 760.979 447.361   4
  -5 -11   3 987.784 577.263   2
  16  -5   6 1233.61 578.846   1
   5 -16   6 1844.13 597.399   2
  11   5   6 2427.96 638.624   1
  -5 -11   6 1781.64 335.059   3
 -11  16   6 800.556 610.056   3
 -16  11   6 2026.22 617.676   3
   5 -16   6 2262.13 465.019   4
   5 -16   6 1748.74 713.702   1
  11   5   6 1971.29 769.051   3
  -5 -11   6 3190.78 620.387   4
  -5 -11   6 2178.41 739.267   2
 -16  11   6 1173.98 231.341   1
  16  -5   9-56.3151 583.998   1
   5 -16   9 483.968 623.541   3
  11   5   9 474.172 757.088   3
  11   5   9 863.896 626.086   1
  -5 -11   9 297.718 473.892   3
 -11  16   9 1451.08 896.933   3
 -16  11   9 1265.03 775.588   3
  -5 -11   9 1416.72 811.375   2
  -5 -11   9 879.632 509.468   4
   5 -16   9 904.475 710.841   1
   5 -16   9 1206.75 656.934   2
  -4 -12 -10-331.806 587.168   4
   4 -16  -7 2548.40 363.814   1
  -4 -12  -7 4804.58 843.644   2
   4 -16  -7 4104.61 787.604   4
  -4 -12  -7 4505.34 718.955   4
  -4 -12  -4 2927.96 693.095   2
  12   4  -4 2082.78 382.291   3
   4 -16  -4 2661.26 634.079   2
   4 -16  -4 1993.93 404.063   1
   4 -16  -4 2793.13 641.016   4
 -12  16  -4 1278.27 384.730   2
  16  -4  -4 3017.45 507.415   1
 -12  16  -4 2081.52 407.741   4
  -4 -12  -4 2362.91 565.341   4
 -16  12  -4 2231.26 416.475   4
   4 -16  -1 11823.2 998.383   2
   4 -16  -1 11829.9 895.559   3
 -16  12  -1 12844.4 685.324   2
  12   4  -1 10369.8 637.796   3
  16  -4  -1 9873.31 869.089   3
 -12  16  -1 11850.4 959.753   3
 -16  12  -1 9136.70 887.504   3
 -12  16  -1 11407.3 821.856   2
  -4 -12  -1 11570.8 993.630   4
  12   4  -1 12422.6 963.218   1
   4 -16  -1 11365.7 985.904   4
  16  -4  -1 12040.9 922.772   1
  -4 -12  -1 11195.2 1010.98   2
  -4 -12   2 3104.56 698.677   2
 -16  12   2 2397.48 472.035   1
   4 -16   2 2557.65 586.364   2
 -12  16   2 2672.70 632.988   3
   4 -16   2 2193.81 389.393   3
 -16  12   2 1943.49 495.372   3
  16  -4   2 3534.37 689.141   1
  12   4   2 2222.99 517.387   1
  -4 -12   2 1536.73 509.084   4
   4 -16   2 2655.49 539.781   4
  12   4   2 2136.57 584.213   2
  12   4   5 2899.13 678.871   1
  -4 -12   5 3311.24 273.405   3
 -16  12   5 4287.40 791.618   3
   4 -16   5 3402.10 504.960   3
  -4 -12   5 2987.98 242.417   3
  16  -4   5 5958.20 896.767   1
  16  -4   5 3570.50 382.457   2
 -16  12   5 3204.95 380.564   1
  -4 -12   5 4284.83 693.803   4
  -4 -12   5 6110.63 933.628   2
   4 -16   5 5842.96 790.900   2
   4 -16   5 5744.94 632.804   4
 -12  16   5 5608.74 967.954   3
   4 -16   8 734.881 570.353   3
  12   4   8 732.308 669.472   3
  16  -4   8-109.940 599.326   1
  -4 -12   8 598.755 438.559   3
   4 -16   8 1215.81 728.727   1
 -12  16   8-72.5358 733.020   3
 -16  12   8 405.028 624.731   3
  -4 -12   8 159.335 443.044   4
  -4 -12   8 1152.36 717.413   2
   4 -16   8 430.351 334.693   4
   4 -16   8 979.529 615.888   2
  12   4   8-288.839 593.200   1
  -3 -13  -8 8740.17 1153.65   2
  -3 -13  -8 8892.25 1012.06   4
   3 -16  -8 10337.8 1136.04   4
  13   3  -5 317.181 376.980   3
  -3 -13  -5 369.548 511.803   2
   3 -16  -5 1750.58 640.547   2
   3 -16  -5 703.675 426.894   1
 -13  16  -5 1327.38 355.631   4
  -3 -13  -5 1495.14 502.722   4
 -16  13  -5 777.940 308.238   4
   3 -16  -5 1316.03 522.995   4
  -3 -13  -2 25247.6 1455.37   2
   3 -16  -2 24881.0 1168.39   1
   3 -16  -2 24219.9 1309.29   3
  13   3  -2 25392.5 1334.30   1
   3 -16  -2 25586.8 1468.27   2
  16  -3  -2 24655.6 1243.61   1
  13   3  -2 23246.9 994.111   3
  16  -3  -2 21643.0 1237.13   3
 -13  16  -2 22855.0 1343.05   3
 -16  13  -2 23750.8 1394.12   3
   3 -16  -2 28655.7 1499.62   4
  -3 -13  -2 26210.2 1435.91   4
 -13  16  -2 25774.5 1114.21   2
 -13  16  -2 24915.8 1223.53   4
 -16  13  -2 24412.0 1195.91   4
 -16  13  -2 25329.8 813.412   2
  -3 -13   1 1501.26 539.084   2
  -3 -13   1 972.205 495.508   4
   3 -16   1 609.890 427.276   2
  16  -3   1 168.445 422.694   1
   3 -16   1 617.144 301.881   3
 -13  16   1 561.548 413.009   2
 -13  16   1 914.282 453.706   3
 -16  13   1 923.911 447.518   3
 -16  13   1 1089.72 423.015   2
  13   3   1 439.560 301.745   3
  13   3   1 270.733 451.199   2
  13   3   1 952.685 457.422   1
   3 -16   1 1455.43 452.846   4
 -16  13   1 832.832 422.807   1
 -13  16   4 17563.2 1334.70   3
 -16  13   4 17556.4 1327.09   3
   3 -16   4 18112.9 867.825   3
  16  -3   4 19914.1 1354.13   1
  16  -3   4 16226.6 852.263   2
 -16  13   4 16977.8 839.084   1
  13   3   4 15376.1 1122.92   2
  -3 -13   4 20319.8 1277.51   4
  -3 -13   4 17595.1 1432.56   2
   3 -16   4 21101.1 1187.92   4
   3 -16   4 17064.8 1235.99   2
  13   3   4 18848.3 1267.99   1
  13   3   7 1121.98 543.217   1
  -3 -13   7 1544.23 734.580   2
  -3 -13   7 1936.53 444.893   3
  16  -3   7 2871.53 748.716   1
 -13  16   7 1313.48 681.515   3
 -16  13   7 1139.05 689.809   3
   3 -16   7 1068.66 665.429   1
  -3 -13   7 1361.62 521.974   4
   3 -16   7 1587.21 464.077   4
   3 -16   7 3223.18 762.442   2
  13   3  10 6610.04 1377.40   3
  16  -3  10 5246.38 1076.81   1
 -13  16  10 6275.23 1258.40   3
 -16  13  10 5244.07 1229.11   3
  -3 -13  10 5497.00 1039.28   1
   3 -16  10 6380.68 1004.52   3
  13   3  10 4423.75 900.002   1
   3 -16  10 4392.29 953.771   2
   3 -16  10 4835.49 1138.02   1
  -3 -13  10 4746.47 1140.77   2
  -2 -14  -9 531.892 555.709   4
   2 -16  -6 263.064 405.402   1
  14   2  -6 202.063 456.747   3
 -14  16  -6 673.230 273.030   4
  -2 -14  -6 47.6137 490.898   2
   2 -16  -6 9.77907 497.083   2
 -16  14  -6 1092.06 290.971   4
 -16  14  -6 1136.53 269.399   4
  -2 -14  -6 1625.76 638.302   4
   2 -16  -6 1151.15 584.557   4
  -2 -14  -3 11800.7 1104.54   2
   2 -16  -3 10554.9 1023.89   2
  14   2  -3 10557.6 768.542   3
  16  -2  -3 9587.33 902.012   3
  14   2  -3 10703.2 904.326   1
   2 -16  -3 10636.1 815.039   1
  16  -2  -3 12040.6 921.943   1
 -16  14  -3 9627.49 766.990   4
 -16  14  -3 8426.81 395.659   2
 -14  16  -3 10728.7 702.709   2
  -2 -14  -3 12631.9 1096.82   4
 -14  16  -3 10033.5 780.738   4
   2 -16  -3 13331.2 1115.59   4
 -14  16   0 2282.12 496.409   2
   2 -16   0 2029.35 426.390   3
   2 -16   0 1810.20 530.220   4
 -16  14   0 2570.63 461.007   2
  -2 -14   0 2258.32 564.376   2
  16  -2   0 1181.92 469.644   1
   2 -16   0 1474.87 539.877   2
  14   2   0 2641.02 474.243   3
  16  -2   0 811.780 395.641   3
 -14  16   0 2645.93 558.769   3
 -16  14   0 2488.94 586.053   3
  -2 -14   0 1882.85 533.361   4
  14   2   0 1600.59 509.833   1
 -16  14   3 8717.93 697.630   1
   2 -16   3 7938.10 554.648   3
 -14  16   3 9068.84 973.022   3
 -16  14   3 7630.46 909.467   3
  16  -2   3 6629.15 678.718   2
  16  -2   3 9436.84 987.414   1
  -2 -14   3 10613.3 946.957   4
   2 -16   3 8790.59 827.091   4
  -2 -14   3 10590.4 1058.86   2
   2 -16   3 10107.2 976.823   2
  14   2   3 10560.9 993.956   1
  14   2   3 7346.65 832.692   2
  14   2   6 3080.11 730.901   1
  -2 -14   6 2301.22 351.331   3
   2 -16   6 2944.88 592.368   4
 -14  16   6 2638.70 743.600   3
 -16  14   6 2924.50 764.202   3
  16  -2   6 3118.57 721.056   1
  16  -2   6 1564.68 414.935   2
   2 -16   6 2406.15 464.499   3
  -2 -14   6 1851.88 325.176   3
  -2 -14   6 3016.30 595.713   4
  -2 -14   6 1148.04 654.326   2
  14   2   6 1171.41 514.339   2
   2 -16   6 2789.25 718.566   2
  14   2   9 1711.94 861.936   3
   2 -16   9 1626.86 607.888   3
 -14  16   9 1591.78 819.190   3
 -16  14   9 2246.99 909.644   3
  16  -2   9 2023.00 844.019   1
  14   2   9 1207.30 667.010   1
  -2 -14   9 2277.03 598.853   3
  -2 -14   9 2704.72 883.498   1
  -2 -14   9 1628.03 555.725   4
   2 -16   9 2657.81 895.208   1
  -2 -14   9 1043.55 766.149   2
   2 -16   9 2368.90 821.950   2
  -1 -15  -7 566.452 594.010   2
   1 -16  -7-156.186 622.868   2
  -1 -15  -7 1458.52 624.203   4
   1 -16  -7 754.029 587.586   4
  15   1  -4 955.868 473.481   3
  16  -1  -4 366.550 458.376   3
   1 -16  -4 135.407 368.670   1
  16  -1  -4 511.808 372.039   1
  -1 -15  -4 319.202 497.650   2
   1 -16  -4 1086.61 610.019   2
 -15  16  -4-242.649 187.833   2
   1 -16  -4 1271.88 551.852   4
 -15  16  -4 716.509 378.485   4
  -1 -15  -4 604.780 432.914   4
 -16  15  -4 222.383 321.424   4
  -1 -15  -1 5418.55 576.036   3
 -16  15  -1 6830.84 593.410   2
   1 -16  -1 7435.23 691.626   3
  16  -1  -1 6544.03 748.259   1
  16  -1  -1 5141.92 623.431   3
  15   1  -1 5698.03 612.809   3
 -15  16  -1 6981.26 833.517   3
 -16  15  -1 7842.90 881.010   3
  15   1  -1 6732.89 793.689   1
   1 -16  -1 7027.13 860.801   2
  -1 -15  -1 6574.81 824.040   4
   1 -16  -1 7141.09 825.266   4
 -15  16  -1 6583.11 606.617   2
  -1 -15  -1 6946.21 863.251   2
 -16  15   2 938.075 377.310   1
  -1 -15   2 386.369 96.5337   3
  -1 -15   2 1243.37 506.312   2
   1 -16   2 801.889 475.491   2
   1 -16   2 530.309 223.750   3
  16  -1   2 651.843 434.790   2
  15   1   2 737.329 532.809   1
   1 -16   2 717.489 438.190   4
 -15  16   2 166.917 447.048   3
 -16  15   2 1052.66 533.462   3
  -1 -15   2 225.996 368.578   4
  16  -1   2-302.297 422.359   1
  15   1   2 314.757 450.301   2
   1 -16   5 771.599 567.821   2
  -1 -15   5 1311.13 241.594   3
 -15  16   5 1139.74 583.186   3
 -16  15   5 922.392 561.802   3
  -1 -15   5 1229.69 238.582   3
   1 -16   5 1207.65 321.710   3
  16  -1   5 2099.25 637.118   1
  15   1   5 1747.95 607.316   1
  16  -1   5 953.986 436.526   2
  -1 -15   5 2171.34 526.945   4
   1 -16   5 1435.15 426.568   4
  15   1   5 1643.76 533.648   2
  -1 -15   5 1708.65 705.751   2
   1 -16   8 639.756 474.906   3
  -1 -15   8 1659.98 531.088   3
 -15  16   8 47.3409 688.014   3
 -16  15   8 977.458 673.323   3
  16  -1   8 828.649 644.089   1
  15   1   8 1219.86 607.878   1
   1 -16   8 1810.95 902.959   1
  -1 -15   8 913.109 508.883   4
  -1 -15   8 1116.94 722.932   2
   1 -16   8-290.448 650.916   2
   1 -16   8 23.8718 406.154   4
   0 -16  -8 10873.5 1168.63   4
   0 -16  -5-198.118 495.208   4
   0 -16  -5-580.725 557.210   2
 -16  16  -5 192.614 307.397   4
   0 -16  -2 14040.6 1008.16   3
   0 -16  -2 15709.3 1249.36   2
  16   0  -2 14589.3 980.383   3
 -16  16  -2 15435.0 1197.02   3
  16   0  -2 15849.9 1121.79   1
   0 -16  -2 16124.1 1215.37   4
 -16  16  -2 16529.2 839.594   2
   0 -16   1 157.124 221.636   3
   0 -16   1 506.956 466.500   2
  16   0   1 574.034 467.516   2
  16   0   1-3.96851 412.898   1
 -16  16   1 675.833 464.589   3
 -16  16   1 605.746 397.480   1
   0 -16   1-11.1547 414.205   4
   0 -16   4 7032.11 415.212   3
 -16  16   4 9043.39 1033.15   3
  16   0   4 6577.92 737.044   2
  16   0   4 10132.4 1050.85   1
   0 -16   4 10647.1 952.578   4
   0 -16   4 11905.9 1200.81   2
   0 -16   7 526.816 446.392   4
   0 -16   7 847.599 400.449   3
 -16  16   7 1630.51 736.881   3
  16   0   7-239.964 615.331   1
   0 -16   7-484.929 669.129   2
 -17   0  -8 667.080 451.945   4
 -17   0  -5 303.348 371.842   2
  17 -17  -5-83.8873 194.139   1
 -17   0  -5-186.423 390.850   4
  17 -17  -2 7868.83 744.237   1
 -17   0  -2 6636.07 861.996   4
 -17   0  -2 6077.00 748.357   2
   0  17   1 56.8284 300.506   3
  17 -17   1 81.3708 417.025   1
 -17   0   1 6.59834 463.787   4
 -17   0   1 599.111 606.830   2
   0  17   4 2593.68 665.579   3
  17 -17   4 461.473 564.461   1
 -17   0   4 1822.16 503.747   3
 -17   0   4 2499.64 820.616   2
 -17   0   4 228.589 533.013   4
   0  17   7 1448.31 850.472   3
  17 -17   7 511.134 611.271   1
 -17   0   7-257.129 485.995   3
 -17   0   7-197.954 651.896   4
 -17   0   7 1257.88 927.021   2
 -16  -1  -6 2175.31 496.469   2
 -17   1  -6 1573.42 418.906   2
 -17   1  -6 1857.57 524.696   4
 -16  -1  -6 693.943 459.175   4
  16 -17  -3 10230.4 740.563   1
  17 -16  -3 11467.4 793.834   1
 -17   1  -3 12015.1 1039.50   4
 -16  -1  -3 10178.6 1008.40   4
 -16  -1  -3 8711.84 826.979   2
 -17   1  -3 11062.7 856.039   2
   1  16   0 2706.01 376.935   3
  16 -17   0 2079.62 540.859   1
 -16  -1   0 2039.85 565.315   2
  -1  17   0 2536.17 396.242   3
 -16  -1   0 2333.24 590.905   4
  17 -16   0 2423.94 542.399   1
 -17   1   0 3520.56 690.192   4
 -17   1   0 2599.12 630.322   2
   1  16   3 5617.04 749.668   3
  -1  17   3 4487.27 709.003   3
  17 -16   3 3630.64 741.020   1
 -17   1   3 4361.03 644.436   3
 -16  -1   3 4463.05 583.106   3
 -17   1   3 5268.81 854.756   4
 -16  -1   3 4463.89 776.585   4
 -17   1   3 4732.37 920.813   2
 -16  -1   3 4644.56 974.180   2
  16 -17   3 5046.98 817.213   1
   1  16   6 3902.33 873.871   3
  -1  17   6 3514.81 799.890   3
  16 -17   6 2690.94 806.034   1
  17 -16   6 2525.02 700.808   1
 -17   1   6 3020.82 878.020   2
 -17   1   6 3028.94 737.915   4
 -17   1   6 2980.25 638.517   3
 -16  -1   6 2412.78 568.857   3
 -16  -1   6 3967.47 791.340   4
 -16  -1   6 4747.91 1075.36   2
 -17   1   9 3686.81 906.367   4
   1  16   9 4764.72 1131.83   3
 -17   1   9 4047.11 1189.18   2
  -1  17   9 3741.36 1106.48   3
  16 -17   9 4080.88 1012.49   1
 -16  -1   9 3968.20 823.889   3
 -17   1   9 3260.48 817.397   3
  17 -16   9 4349.93 1084.63   1
 -16  -1   9 2418.00 1046.81   2
 -16  -1   9 3321.00 883.669   4
 -15  -2  -7 8157.89 820.741   2
 -17   2  -7 7690.40 781.482   4
 -15  -2  -7 8120.67 840.239   4
 -17   2  -4 1558.30 400.562   2
 -15  -2  -4 375.413 384.486   2
  17 -15  -4 1411.20 359.227   1
  15 -17  -4 1524.33 337.646   1
 -15  -2  -4 1326.36 512.428   4
 -17   2  -4 1631.84 535.875   4
  17 -15  -1 5990.75 722.407   1
  15 -17  -1 6349.81 713.069   1
  -2  17  -1 4721.04 474.648   3
   2  15  -1 4154.18 271.587   3
 -17   2  -1 5406.54 802.151   4
 -15  -2  -1 5278.09 759.459   4
 -17   2  -1 4601.50 669.934   2
 -15  -2  -1 5411.22 728.158   2
   2  15   2 6510.90 673.314   3
  -2  17   2 5445.89 669.445   3
  15 -17   2 5630.60 823.872   1
  15 -17   2 4930.42 530.461   2
 -17   2   2 6451.43 697.158   3
 -15  -2   2 5424.53 556.781   3
 -15  -2   2 6146.27 908.256   2
 -17   2   2 4778.58 771.037   4
 -15  -2   2 6176.73 867.326   4
 -17   2   2 5946.25 903.236   2
  17 -15   2 6948.12 864.607   1
   2  15   5 8475.01 1025.86   3
  -2  17   5 12193.0 1211.59   3
 -17   2   5 9890.83 927.590   3
  17 -15   5 8595.56 1089.34   1
 -17   2   5 6838.57 979.151   4
 -17   2   5 10004.9 1249.04   2
 -15  -2   5 7676.66 951.311   4
 -15  -2   5 6512.00 1170.11   2
  15 -17   5 9612.26 1167.49   1
 -15  -2   5 8808.10 757.843   3
   2  15   8 1140.16 795.229   3
  -2  17   8 624.616 748.376   3
  15 -17   8 2490.58 817.761   1
 -15  -2   8 1810.72 623.935   3
 -17   2   8 3035.30 760.786   3
  17 -15   8 2376.61 851.771   1
 -17   2   8 966.923 691.907   4
 -15  -2   8 770.473 642.325   4
 -17   2   8 2364.22 933.835   2
 -15  -2   8 249.970 815.587   2
 -17   3  -8 1923.09 420.857   4
 -14  -3  -8 953.453 475.492   4
  14 -17  -5 407.598 152.710   1
 -14  -3  -5-97.0132 403.121   2
 -17   3  -5 375.513 248.280   2
  17 -14  -5 517.368 222.858   1
 -17   3  -5 297.392 379.088   4
 -14  -3  -5 693.476 450.052   4
 -17   3  -2 983.252 383.304   2
  14 -17  -2 2407.86 489.674   1
 -14  -3  -2 1916.86 547.712   2
  17 -14  -2 2591.88 497.857   1
  -3  17  -2 2120.77 349.989   3
 -14  -3  -2 1976.32 515.754   4
 -17   3  -2 2319.13 559.601   4
   3  14   1 3477.11 446.845   3
  -3  17   1 3213.17 495.636   3
  14 -17   1 3174.74 502.346   2
  14 -17   1 3616.17 656.376   1
 -17   3   1 2837.17 544.064   3
 -14  -3   1 3531.12 691.024   4
 -17   3   1 3380.86 738.389   2
 -17   3   1 1204.69 560.340   4
 -14  -3   1 3664.59 718.075   2
  17 -14   1 3985.37 688.409   1
   3  14   4 3936.79 713.523   3
  14 -17   4 2914.16 748.175   1
  14 -17   4 4135.05 433.554   2
  -3  17   4 2211.69 608.303   3
 -17   3   4 3331.16 637.492   3
 -14  -3   4 2876.89 442.316   3
 -14  -3   4 4142.28 755.225   4
 -17   3   4 3338.58 745.550   4
 -17   3   4 2663.93 764.165   2
 -14  -3   4 3672.53 912.194   2
  17 -14   4 4142.11 802.890   1
   3  14   7 2069.88 868.575   3
  14 -17   7 1056.14 672.782   1
  -3  17   7 2187.22 854.514   3
  14 -17   7 936.387 246.712   2
 -14  -3   7 829.897 472.292   3
 -17   3   7 1564.14 640.548   3
 -14  -3   7 578.229 561.405   4
  17 -14   7 631.544 616.324   1
 -17   3   7 2508.21 793.627   4
 -14  -3   7 3393.03 986.191   2
 -17   3   7 1769.17 963.612   2
 -13  -4  -9 1487.18 531.580   4
 -13  -4  -6 565.324 434.374   2
 -17   4  -6 977.759 394.950   4
 -13  -4  -6 1124.55 518.311   4
 -17   4  -3 2980.21 571.734   4
 -13  -4  -3 3094.56 557.307   2
  17 -13  -3 2662.41 464.204   1
  13 -17  -3 4109.59 503.910   1
 -13  -4  -3 3265.45 597.610   4
 -17   4  -3 3246.27 435.310   2
  13 -17   0 2577.73 558.534   1
   4  13   0 1110.70 234.059   3
  -4  17   0 1391.58 386.658   3
  13 -17   0 954.065 412.783   2
 -17   4   0 1576.68 472.368   3
 -13  -4   0 1917.71 532.581   2
 -13  -4   0 1816.61 585.241   4
 -17   4   0 1728.65 532.138   4
  17 -13   0 1272.68 499.566   1
 -17   4   0 529.206 408.982   2
   4  13   3 3670.24 616.163   3
 -17   4   3 2441.90 679.812   2
  13 -17   3 3504.59 450.994   2
  -4  17   3 3846.03 635.773   3
 -13  -4   3 3254.19 404.023   3
 -17   4   3 3009.08 563.937   3
  17 -13   3 2988.95 683.046   1
 -13  -4   3 3342.78 680.822   4
 -17   4   3 2946.08 675.149   4
  13 -17   3 4187.47 747.642   1
 -13  -4   3 2748.32 787.398   2
  13 -17   6 365.190 639.317   1
   4  13   6 1005.75 445.763   1
   4  13   6 63.1153 547.941   3
  -4  17   6 703.620 556.964   3
  13 -17   6 813.862 308.714   2
 -17   4   6-376.173 517.504   3
 -13  -4   6 1331.57 464.889   3
  17 -13   6 158.783 580.301   1
 -17   4   6 643.886 569.214   4
 -17   4   6 1223.28 729.502   2
 -13  -4   6 1737.68 599.522   4
 -13  -4   6-222.706 690.984   2
   4  13   9 273.468 831.389   3
  13 -17   9 37.4377 672.318   1
  -4  17   9 1278.09 849.451   3
 -13  -4   9 252.841 512.067   3
 -17   4   9 388.594 681.606   3
 -17   4   9 828.921 684.588   4
  17 -13   9 896.890 774.061   1
 -17   4   9 135.231 897.333   2
 -13  -4   9 356.835 540.694   4
 -13  -4   9 214.183 813.870   2
   4  13   9 5.17044 446.462   1
 -12  -5  -7 5220.41 732.724   2
 -17   5  -7 4561.34 535.793   4
 -12  -5  -7 3923.13 649.555   4
  17 -12  -4 1687.90 380.418   1
 -17   5  -4 1840.50 479.547   4
  12 -17  -4 917.122 290.432   1
 -12  -5  -4 1120.07 466.642   2
 -17   5  -4 1065.43 229.951   2
 -12  -5  -4 968.823 460.153   4
  17 -12  -1 7180.70 753.490   1
  12 -17  -1 8189.45 823.949   2
  -5  17  -1 8741.17 701.987   3
 -17   5  -1 7937.46 877.390   4
 -17   5  -1 9098.36 757.844   2
 -12  -5  -1 8759.09 911.249   4
  12 -17  -1 9921.70 832.414   1
 -12  -5  -1 8550.66 876.727   2
   5  12   2 3368.45 514.337   3
 -12  -5   2 3051.72 789.483   2
  12 -17   2 3201.16 481.574   2
  -5  17   2 2225.54 481.219   3
 -17   5   2 2353.31 685.427   2
 -17   5   2 2266.87 509.083   3
 -17   5   2 3355.12 690.562   4
  17 -12   2 2115.05 531.390   1
 -12  -5   2 2616.98 633.772   4
  12 -17   2 2653.20 630.763   1
  17 -12   5 8445.14 1032.08   1
   5  12   5 7616.18 814.956   1
   5  12   5 8605.01 1035.96   3
  -5  17   5 6532.43 981.911   3
 -17   5   5 7473.94 899.605   3
 -12  -5   5 8803.55 650.616   3
  12 -17   5 8722.20 1115.61   1
 -17   5   5 7612.47 1093.49   2
 -17   5   5 9629.96 1068.73   4
 -12  -5   5 7871.42 951.918   4
 -12  -5   5 8264.98 1223.76   2
  12 -17   5 7801.37 615.329   2
  12 -17   8 611.584 359.324   2
  12 -17   8 1077.26 712.120   1
   5  12   8 2802.02 944.044   3
 -17   5   8 1822.22 979.151   2
  -5  17   8 1546.42 804.714   3
 -12  -5   8 2371.40 639.042   3
 -17   5   8 3747.68 825.884   3
  17 -12   8 1569.38 729.204   1
 -17   5   8 2455.93 823.018   4
   5  12   8 1855.45 571.804   1
 -12  -5   8 2562.08 926.906   2
 -12  -5   8 2136.00 693.071   4
 -11  -6  -8 975.182 503.300   4
 -11  -6  -5 6142.65 807.737   2
  11 -17  -5 4664.91 308.045   1
  17 -11  -5 7321.96 550.898   1
 -17   6  -5 6201.33 657.431   4
  -6  17  -5 5109.64 646.775   4
 -11  -6  -5 6681.09 801.859   4
  11 -17  -5 4821.51 310.708   1
  11 -17  -2 4008.48 644.920   4
 -11  -6  -2 2661.53 569.306   2
 -17   6  -2 3721.96 443.688   2
  -6  17  -2 3220.06 489.908   3
  17 -11  -2 3079.83 516.604   1
  11 -17  -2 2285.98 579.873   2
 -17   6  -2 3389.30 588.799   4
  11 -17  -2 3963.66 544.988   1
 -11  -6  -2 3272.95 573.085   4
   6  11   1 7466.85 595.021   3
  11 -17   1 7251.44 715.163   2
  17 -11   1 7057.16 821.002   1
  -6  17   1 7863.95 753.402   3
 -17   6   1 9113.20 846.602   3
 -11  -6   1 8620.63 975.969   2
 -17   6   1 9756.26 942.167   4
 -17   6   1 6805.84 824.516   2
 -11  -6   1 7356.68 864.594   4
  11 -17   1 7807.80 787.228   4
  11 -17   1 9292.54 917.449   1
   6  11   4 5901.77 825.063   3
  -6  17   4 5649.13 813.891   3
 -17   6   4 4673.86 645.000   1
 -17   6   4 5210.09 771.114   3
 -11  -6   4 3311.98 654.677   4
 -11  -6   4 4023.61 358.468   3
   6  11   4 5074.36 690.808   1
  17 -11   4 4188.42 720.460   1
 -11  -6   4 4578.66 868.536   2
  11 -17   4 4471.16 790.003   1
  11 -17   4 4328.24 534.437   2
  11 -17   7 2183.96 796.446   1
  11 -17   7 723.855 410.130   2
   6  11   7 778.274 664.735   3
  -6  17   7 1653.50 707.795   3
 -11  -6   7 1411.41 461.175   3
 -17   6   7 1517.86 671.465   3
   6  11   7 798.374 459.681   1
  17 -11   7 575.717 587.132   1
 -11  -6   7 1301.98 564.213   4
 -11  -6   7 111.746 721.706   2
   6  11  10 276.326 820.414   3
  11 -17  10 2140.94 970.523   1
  -6  17  10 2321.36 954.368   3
 -11  -6  10 1826.86 660.811   3
 -17   6  10 1531.46 814.839   3
 -17   6  10 2782.81 849.172   4
  17 -11  10 1324.85 872.458   1
 -11  -6  10 1144.12 620.841   4
 -11  -6  10 414.311 921.175   2
 -10  -7  -9 336.028 503.504   4
 -10  -7  -6 1703.68 564.294   2
 -17   7  -6 3111.74 438.941   4
  -7  17  -6 1749.01 472.668   4
 -10  -7  -6 2060.36 511.086   4
  10 -17  -3 2051.76 556.645   4
 -17   7  -3 656.001 190.053   2
 -10  -7  -3 986.499 445.677   2
  10 -17  -3 1452.70 559.169   2
 -17   7  -3 1138.73 437.603   4
 -10  -7  -3 1824.49 513.448   4
  17 -10  -3 1335.05 382.262   1
  10 -17  -3 1607.84 370.386   1
 -10  -7   0 3164.82 655.231   2
   7  10   0 1836.54 269.389   3
  10 -17   0 2868.89 553.456   2
  -7  17   0 3017.34 503.345   3
 -17   7   0 2117.25 539.357   3
  10 -17   0 3080.78 609.194   1
 -17   7   0 2607.49 563.273   2
 -10  -7   0 2921.30 629.940   4
  17 -10   0 2016.16 525.580   1
  10 -17   0 2844.17 550.225   4
   7  10   3 725.025 406.341   3
   7  10   3 1123.86 444.546   1
  10 -17   3 1067.86 391.972   2
  -7  17   3 552.786 433.963   3
 -17   7   3 301.707 398.037   3
  17 -10   3 610.040 539.595   1
 -10  -7   3 475.151 456.494   4
  10 -17   3 517.678 444.053   1
 -10  -7   3 609.991 564.454   2
 -17   7   3 693.129 431.003   1
  10 -17   3 96.6707 322.375   4
 -17   7   6-198.885 397.968   1
   7  10   6 61.2562 544.122   3
  10 -17   6 110.668 329.794   2
   7  10   6 445.477 429.842   1
  -7  17   6-170.768 581.244   3
 -10  -7   6 589.678 341.152   3
 -17   7   6 374.542 471.991   3
  17 -10   6 406.819 590.522   1
 -10  -7   6 1161.11 540.235   4
 -10  -7   6 593.532 663.128   2
  10 -17   6 721.815 596.854   1
  10 -17   9 598.408 469.280   2
   7  10   9 814.998 514.826   1
  10 -17   9 1704.87 885.757   1
   7  10   9 1349.16 827.333   3
  -7  17   9 1980.26 854.159   3
 -10  -7   9 1006.01 518.336   3
 -17   7   9 1010.17 737.227   3
 -10  -7   9 1953.87 692.247   4
  17 -10   9 762.563 702.684   1
 -10  -7   9 2012.07 1002.95   2
  -9  -8 -10 366.766 520.938   4
  -9  -8  -7 1454.83 575.417   2
 -17   8  -7 1690.07 295.720   4
  -9  -8  -7 1706.70 541.707   4
  -9  -8  -4 4033.26 686.742   2
  17  -9  -4 4864.50 564.363   1
   9 -17  -4 4577.88 775.205   2
 -17   8  -4 5097.95 610.551   4
   9 -17  -4 4850.04 497.617   1
  -8  17  -4 3662.18 674.888   2
  -8  17  -4 3726.27 563.943   4
  -9  -8  -4 4894.83 737.263   4
   9 -17  -4 4309.36 424.021   1
   9 -17  -4 5402.32 767.536   4
   9 -17  -1 10283.2 880.066   2
  -8  17  -1 10314.0 820.392   3
 -17   8  -1 10899.7 932.020   3
  17  -9  -1 11564.9 877.338   1
   9 -17  -1 11515.7 907.614   1
 -17   8  -1 11440.1 792.413   2
  -9  -8  -1 11088.5 988.227   4
  -9  -8  -1 10218.1 950.529   2
   9 -17  -1 10304.7 957.435   4
   8   9   2 5661.29 638.547   3
   9 -17   2 5049.74 650.562   2
 -17   8   2 4339.26 662.034   1
  -8  17   2 3981.98 670.937   3
  17  -9   2 5164.96 762.477   1
   9 -17   2 3771.04 595.193   3
 -17   8   2 4603.81 728.189   3
   8   9   2 5225.89 714.991   1
  -9  -8   2 5649.39 811.470   4
   9 -17   2 4150.52 693.262   1
  -9  -8   2 4563.00 838.559   2
   9 -17   2 4903.71 632.749   4
   8   9   5 10866.3 1161.50   3
 -17   8   5 8572.84 739.087   1
  17  -9   5 10271.0 1107.46   1
  -8  17   5 12032.5 1196.31   3
 -17   8   5 7518.95 928.202   3
  -9  -8   5 8027.42 462.990   3
   8   9   5 10705.0 957.624   1
   9 -17   5 8589.29 768.387   2
   9 -17   5 9721.04 721.630   4
  -9  -8   5 10476.9 1020.59   4
   9 -17   5 10448.9 1147.36   1
  -9  -8   5 10134.0 1200.39   2
   9 -17   8 872.514 734.590   1
   9 -17   8 987.195 496.107   2
   8   9   8 712.983 791.483   3
  -9  -8   8 171.268 487.275   4
  -8  17   8 719.601 704.539   3
  -9  -8   8 206.807 374.389   3
 -17   8   8 2011.91 785.158   3
  17  -9   8 1192.22 708.480   1
  -9  -8   8-59.7819 670.766   2
   8   9   8-31.1907 471.705   1
  -8  -9  -8 705.537 631.365   2
  -8  -9  -8 206.457 421.766   4
  -8  -9  -5 8806.16 970.088   2
   8 -17  -5 10518.3 1144.03   2
   8 -17  -5 9222.01 571.749   1
  -9  17  -5 6623.90 807.994   2
 -17   9  -5 11268.1 758.885   4
  -9  17  -5 7319.14 683.204   4
  -8  -9  -5 10213.0 967.791   4
   8 -17  -5 8986.88 526.912   1
   8 -17  -5 10624.1 1075.49   4
  17  -8  -5 10184.3 715.886   1
   8 -17  -2 4562.79 676.239   2
  -9  17  -2 5294.85 642.882   3
  17  -8  -2 5455.24 639.623   1
 -17   9  -2 4480.82 407.982   2
  -8  -9  -2 3509.97 654.469   4
  -9  17  -2 3815.26 646.087   2
   8 -17  -2 4439.70 707.014   4
  -8  -9  -2 4091.50 671.847   2
   8 -17   1 11768.7 927.066   2
   9   8   1 10571.0 724.087   3
   8 -17   1 10564.7 876.875   3
  -9  17   1 10163.6 880.907   3
 -17   9   1 9715.62 911.700   3
  17  -8   1 9801.62 916.563   1
  -8  -9   1 10461.5 977.259   4
  -8  -9   1 10562.1 1043.86   2
   8 -17   1 8433.40 808.014   4
   9   8   1 11067.4 949.660   1
   9   8   4 6012.29 824.380   3
  -9  17   4 4486.60 764.269   3
 -17   9   4 4304.94 718.767   3
   8 -17   4 3904.79 600.594   3
   9   8   4 3494.41 661.823   1
   8 -17   4 4899.98 595.095   4
  -8  -9   4 3869.92 760.262   4
  -8  -9   4 2635.49 765.496   2
   8 -17   4 3026.68 698.077   1
  17  -8   4 3048.99 696.082   1
   8 -17   4 4301.68 611.609   2
 -17   9   4 3937.98 548.310   1
   8 -17   7 2090.80 539.714   2
   9   8   7 3715.59 923.695   3
  -9  17   7 1343.67 682.027   3
  -8  -9   7 2356.66 447.850   3
 -17   9   7 1990.32 694.729   3
   9   8   7 2252.14 589.399   1
  17  -8   7 1546.65 752.693   1
  -8  -9   7 3115.47 878.241   2
   8 -17   7 2602.07 725.892   1
  -8  -9   7 1567.15 567.110   4
   8 -17   7 1831.03 366.793   4
   8 -17  10 1507.48 781.522   3
   8 -17  10 1461.86 875.950   1
   9   8  10 1984.17 974.534   3
  -9  17  10 2457.60 1028.30   3
 -17   9  10 2364.96 877.076   3
  -8  -9  10 413.791 528.846   4
  -8  -9  10 823.243 918.350   2
   9   8  10 1068.80 546.909   1
  17  -8  10 2815.48 989.455   1
   8 -17  10 247.144 553.352   2
  -7 -10  -9 1240.44 578.388   4
   7 -17  -6 379.627 475.873   4
   7 -17  -6 213.248 185.646   1
  -7 -10  -6 1144.16 503.124   4
  -7 -10  -6 615.469 569.309   2
 -17  10  -6 274.403 269.159   4
 -10  17  -6 715.218 338.579   4
   7 -17  -6-2.55452 177.261   1
 -10  17  -3 258.110 377.121   2
   7 -17  -3 416.351 301.502   1
  10   7  -3 176.579 93.7405   3
  -7 -10  -3 716.264 461.252   2
   7 -17  -3 924.790 473.411   2
  17  -7  -3 378.013 342.504   1
   7 -17  -3 1124.74 522.565   4
 -17  10  -3 344.831 340.187   4
 -10  17  -3 224.934 328.973   4
  -7 -10  -3 493.704 455.502   4
  10   7   0 3229.10 583.845   1
   7 -17   0 3226.38 600.280   2
  -7 -10   0 2792.96 623.626   2
   7 -17   0 2860.21 548.160   3
 -10  17   0 3062.38 571.960   3
  17  -7   0 1989.40 523.182   1
  10   7   0 2906.15 342.759   3
 -17  10   0 2426.29 552.708   3
  -7 -10   0 2784.14 614.915   4
   7 -17   0 2995.02 559.753   4
  17  -7   3 1023.33 537.691   1
  10   7   3 2126.61 502.832   1
   7 -17   3 1145.87 448.237   2
 -17  10   3 820.879 372.737   1
 -10  17   3 1084.24 484.460   3
   7 -17   3 1743.72 437.680   3
 -17  10   3 1658.55 509.148   3
   7 -17   3 1773.08 586.303   1
  -7 -10   3 1145.96 519.631   4
  -7 -10   3 1902.40 655.613   2
   7 -17   3 664.483 370.479   4
   7 -17   6 2239.88 573.347   2
  10   7   6 2318.41 748.550   3
  -7 -10   6 2005.04 323.956   3
 -10  17   6 1413.50 657.253   3
 -17  10   6 1975.36 603.916   3
  10   7   6 2893.43 617.784   1
  -7 -10   6 3065.88 652.976   4
 -17  10   6 2200.97 393.334   1
   7 -17   6 2764.11 772.820   1
  -7 -10   6 2842.50 872.811   2
  17  -7   6 2596.83 748.503   1
   7 -17   6 2154.23 447.910   4
  10   7   9-500.749 720.773   3
  -7 -10   9 0.54697 423.660   3
 -10  17   9 878.870 792.778   3
 -17  10   9-7.33111 602.730   3
  10   7   9 258.323 538.559   1
   7 -17   9 1193.25 695.407   1
  -7 -10   9-480.843 512.995   4
  -7 -10   9 495.589 823.736   2
  17  -7   9-1082.92 748.219   1
   7 -17   9-331.175 567.834   2
  -6 -11 -10 660.844 597.567   4
   6 -17  -7 1958.46 637.189   4
  -6 -11  -7 2359.49 690.585   2
  -6 -11  -7 1566.91 522.179   4
  11   6  -4 3585.57 369.241   3
  -6 -11  -4 5469.04 838.525   2
   6 -17  -4 5546.42 880.512   2
   6 -17  -4 4533.28 506.037   1
  17  -6  -4 5854.68 631.403   1
 -17  11  -4 5209.95 601.202   4
 -11  17  -4 4384.58 617.927   2
 -11  17  -4 4585.33 571.856   4
  -6 -11  -4 5419.13 793.053   4
   6 -17  -4 5230.83 772.649   4
   6 -17  -1 8633.27 836.005   3
   6 -17  -1 10080.8 945.887   2
  11   6  -1 7881.12 829.308   1
  17  -6  -1 9129.58 829.816   1
  11   6  -1 8414.55 510.717   3
 -17  11  -1 8991.69 603.140   2
 -11  17  -1 8201.17 836.864   3
 -17  11  -1 8013.67 858.373   3
   6 -17  -1 9018.82 908.578   4
  -6 -11  -1 10616.9 980.651   4
 -11  17  -1 7036.65 732.310   2
  -6 -11  -1 7529.95 836.254   2
  11   6   2 2329.50 574.778   1
  17  -6   2 2396.14 616.422   1
   6 -17   2 2681.80 480.119   3
 -17  11   2 2653.16 499.908   1
 -17  11   2 3080.16 670.916   3
 -11  17   2 2096.70 535.847   3
  -6 -11   2 2960.13 670.784   2
  -6 -11   2 3602.89 626.254   4
   6 -17   2 3519.21 608.985   4
   6 -17   2 3018.62 565.031   2
  11   6   5 6462.54 975.074   3
  11   6   5 5733.56 788.987   1
 -11  17   5 7352.02 980.514   3
 -17  11   5 4563.92 817.041   3
   6 -17   5 5541.61 643.495   3
  17  -6   5 5583.19 882.631   1
   6 -17   5 7776.63 1039.16   1
  -6 -11   5 6490.52 812.592   4
  -6 -11   5 6460.30 988.000   2
 -17  11   5 6256.80 573.105   1
   6 -17   5 6381.63 794.641   2
   6 -17   5 7434.08 714.676   4
   6 -17   8 1176.55 530.238   2
  17  -6   8 1163.85 680.620   1
  11   6   8 1610.31 766.371   3
  -6 -11   8 1732.59 590.417   4
  -6 -11   8-121.405 704.832   2
  -6 -11   8 2073.30 493.192   3
 -11  17   8 2542.55 907.802   3
 -17  11   8 1187.41 712.637   3
  11   6   8 1543.64 619.059   1
   6 -17   8 974.464 326.361   4
   6 -17   8 2310.94 869.941   1
  -5 -12  -8 1511.03 718.867   2
  -5 -12  -8 2581.08 677.768   4
  12   5  -5 5865.06 574.803   3
  -5 -12  -5 7469.41 937.430   2
   5 -17  -5 8570.91 1010.16   2
 -17  12  -5 8586.89 716.831   4
 -12  17  -5 5536.36 633.275   2
 -12  17  -5 6457.67 614.125   4
   5 -17  -5 6074.69 584.687   1
  -5 -12  -5 5640.49 771.641   4
   5 -17  -5 8510.71 959.090   4
 -17  12  -5 6685.39 573.894   4
  17  -5  -2 3406.80 558.001   1
 -12  17  -2 2194.92 504.370   2
 -17  12  -2 2348.56 289.743   2
  12   5  -2 2936.94 547.683   1
  -5 -12  -2 2836.61 642.985   2
  12   5  -2 1388.65 292.581   3
   5 -17  -2 2023.45 617.545   2
  -5 -12  -2 3062.37 650.388   4
 -12  17  -2 1849.95 498.588   3
 -17  12  -2 2181.14 583.778   3
   5 -17  -2 1561.14 531.034   4
   5 -17   1 5732.09 604.313   3
 -12  17   1 6651.51 761.179   3
 -17  12   1 6518.87 795.915   3
  12   5   1 7529.95 633.937   3
  12   5   1 7289.64 813.974   1
  17  -5   1 7387.91 837.527   1
 -17  12   1 7449.85 731.100   2
 -17  12   1 7216.47 775.410   1
  -5 -12   1 7030.79 800.722   4
  -5 -12   1 7846.66 906.761   2
   5 -17   1 7227.06 777.316   4
   5 -17   1 6892.37 782.622   2
 -17  12   4 1102.74 362.440   1
   5 -17   4 1887.60 592.524   2
  17  -5   4 687.327 554.184   1
 -12  17   4 2179.53 615.072   3
 -17  12   4 1385.31 617.185   3
   5 -17   4 320.028 337.992   3
  12   5   4 1877.43 561.906   1
  -5 -12   4 1243.32 531.862   4
  -5 -12   4 1463.53 664.684   2
   5 -17   4 1436.20 451.085   4
  12   5   7 4674.89 993.188   3
  -5 -12   7 5956.76 563.912   3
 -17  12   7 5815.86 1027.17   3
 -12  17   7 4945.89 998.538   3
  17  -5   7 7516.11 1012.45   1
   5 -17   7 6269.97 886.459   2
   5 -17   7 6688.71 1141.99   1
  -5 -12   7 5835.09 1060.18   2
  -5 -12   7 6557.30 849.230   4
   5 -17   7 5897.61 624.512   4
  12   5   7 5755.29 873.522   1
  -5 -12  10 769.129 670.622   1
   5 -17  10 1661.70 755.781   3
  12   5  10 1559.37 1035.69   3
  17  -5  10 887.282 757.304   1
  12   5  10 779.728 695.367   1
 -12  17  10-404.556 838.188   3
 -17  12  10 705.557 801.902   3
  -5 -12  10-142.511 785.803   2
   5 -17  10 1263.98 722.499   2
   5 -17  10-2.36213 812.996   1
  -4 -13  -9 1037.10 658.531   4
  13   4  -6 659.052 418.138   3
   4 -17  -6 510.078 383.373   1
  -4 -13  -6 1435.93 661.394   2
  -4 -13  -6 1601.75 531.986   4
   4 -17  -6 998.007 665.342   2
 -17  13  -6 975.686 284.106   4
 -13  17  -6 704.428 303.225   4
 -17  13  -6 636.235 262.956   4
   4 -17  -6 929.094 491.826   4
  13   4  -3 2696.53 383.282   3
  -4 -13  -3 3755.74 665.983   2
  17  -4  -3 2838.69 554.033   1
   4 -17  -3 3047.60 640.744   2
   4 -17  -3 2969.10 478.175   1
 -13  17  -3 2942.99 527.890   4
 -13  17  -3 2318.18 483.247   2
   4 -17  -3 3536.17 689.328   4
  -4 -13  -3 2809.60 597.543   4
 -17  13  -3 2851.01 496.988   4
  -4 -13   0-296.352 470.349   2
 -13  17   0 1580.63 453.600   2
   4 -17   0 1750.68 448.895   3
   4 -17   0 1407.13 468.669   2
  13   4   0 1677.41 490.194   1
 -13  17   0 2248.47 545.608   3
  13   4   0 1423.53 365.486   3
 -17  13   0 1616.41 397.205   2
 -17  13   0 1243.10 526.318   3
  -4 -13   0 1837.00 573.891   4
  17  -4   0 1652.96 485.777   1
   4 -17   0 1101.35 471.484   4
  -4 -13   3 2702.32 736.711   2
  13   4   3 4126.86 686.634   1
   4 -17   3 3075.27 611.666   2
   4 -17   3 3559.65 477.089   3
  17  -4   3 2379.07 662.341   1
 -13  17   3 3645.12 683.790   3
 -17  13   3 2821.37 695.156   3
 -17  13   3 4402.78 552.040   1
   4 -17   3 2463.55 533.266   4
  -4 -13   3 3366.82 637.625   4
   4 -17   6 1943.88 555.577   2
  -4 -13   6 1371.37 705.869   2
  13   4   6 704.840 528.668   1
  17  -4   6 373.482 558.324   1
  -4 -13   6 701.593 238.876   3
 -13  17   6 1665.66 663.461   3
 -17  13   6 1219.69 635.893   3
   4 -17   6 741.195 410.056   3
  -4 -13   6 405.883 212.821   3
  -4 -13   6 1123.67 543.350   4
  17  -4   6 403.052 219.983   2
   4 -17   6 1252.92 691.451   1
   4 -17   6 958.477 431.036   4
  13   4   9 2219.82 779.347   1
   4 -17   9 1643.64 697.369   3
  13   4   9 2109.76 1060.39   3
  17  -4   9 159.773 721.647   1
 -13  17   9 2855.86 929.149   3
 -17  13   9 2227.76 811.207   3
  -4 -13   9 4674.16 1451.45   2
  -4 -13   9 1255.02 611.392   4
   4 -17   9 1251.57 774.465   1
   4 -17   9 1716.58 763.321   2
  -3 -14  -7 2417.42 754.983   2
   3 -17  -7 135.815 560.746   2
  -3 -14  -7 1340.15 595.226   4
   3 -17  -7 1757.91 589.308   4
  17  -3  -4 3633.13 605.770   1
   3 -17  -4 2816.18 513.894   1
  14   3  -4 2671.11 459.949   3
   3 -17  -4 2721.80 656.881   2
 -14  17  -4 2778.60 412.788   2
 -14  17  -4 3792.51 523.098   4
  -3 -14  -4 3981.17 681.683   4
   3 -17  -4 3942.14 751.474   4
 -17  14  -4 3267.82 516.429   4
  17  -3  -1 3442.96 608.192   1
   3 -17  -1 3059.24 543.918   3
 -17  14  -1 3938.04 466.556   2
 -14  17  -1 2402.01 505.622   2
  -3 -14  -1 2662.05 637.850   2
  14   3  -1 3207.02 466.541   3
   3 -17  -1 3241.57 662.244   2
 -14  17  -1 3483.69 646.617   3
 -17  14  -1 2460.51 627.495   3
  14   3  -1 3344.85 589.672   1
   3 -17  -1 4078.28 706.734   4
  -3 -14  -1 2149.14 540.210   4
  -3 -14   2 1956.26 661.890   2
   3 -17   2 2418.71 622.179   2
   3 -17   2 1844.61 377.571   3
 -14  17   2 1792.01 567.956   3
 -17  14   2 1878.83 571.727   3
  14   3   2 2589.67 589.204   1
  17  -3   2 2208.25 649.659   1
  -3 -14   2 1819.96 531.506   4
   3 -17   2 2668.48 573.492   4
 -17  14   2 2268.96 505.452   1
   3 -17   5 1592.94 634.662   2
  14   3   5 745.989 554.563   1
  -3 -14   5 1497.95 508.257   4
 -14  17   5 471.306 498.351   3
  17  -3   5 344.073 585.920   1
 -17  14   5 589.723 660.062   3
   3 -17   5 520.363 334.310   3
  17  -3   5 91.1621 314.732   2
  -3 -14   5-195.608 551.866   2
   3 -17   5 193.616 383.823   4
  14   3   8 3922.33 1038.94   3
   3 -17   8 1094.90 521.513   3
  -3 -14   8 1975.03 490.448   3
  17  -3   8 1653.41 682.815   1
 -14  17   8 4116.43 959.270   3
 -17  14   8 2523.23 805.722   3
  -3 -14   8 1150.89 750.509   2
   3 -17   8 3449.47 964.690   1
  -3 -14   8 2283.07 605.407   4
   3 -17   8 1288.43 420.078   4
  14   3   8 1615.30 668.598   1
   3 -17   8 1624.98 741.656   2
   2 -17  -8 2365.04 715.377   4
  -2 -15  -8 1432.25 723.943   2
  -2 -15  -8 890.876 582.934   4
  15   2  -5 5868.78 707.124   3
  -2 -15  -5 7914.59 1011.49   2
   2 -17  -5 6988.69 940.557   2
  -2 -15  -5 8401.03 980.621   4
 -15  17  -5 7650.93 648.480   4
   2 -17  -5 7929.52 759.227   1
 -17  15  -5 6814.64 617.850   4
   2 -17  -5 8643.63 1001.12   4
  -2 -15  -2 7306.06 917.655   2
   2 -17  -2 4390.44 654.757   3
   2 -17  -2 6435.43 889.341   2
  15   2  -2 4717.61 580.319   3
  17  -2  -2 4035.21 659.067   3
  17  -2  -2 4893.46 682.409   1
 -15  17  -2 6969.12 855.603   3
 -17  15  -2 7402.35 893.810   3
  -2 -15  -2 5647.27 785.577   4
   2 -17  -2 6425.06 853.690   4
 -15  17  -2 5339.07 580.298   2
  15   2  -2 5966.08 738.265   1
 -17  15  -2 5490.40 492.473   2
   2 -17   1 4560.67 504.261   3
  -2 -15   1 4752.59 761.137   2
  15   2   1 5721.62 730.665   1
 -17  15   1 4847.05 680.573   2
 -15  17   1 5500.98 791.937   3
 -17  15   1 5003.95 787.726   3
  15   2   1 4565.21 586.993   3
  -2 -15   1 4368.56 696.406   4
   2 -17   1 4829.13 705.012   4
  17  -2   1 4967.15 715.397   1
   2 -17   1 4946.72 800.102   2
  -2 -15   4 1416.67 604.654   2
   2 -17   4 1332.74 622.667   2
  15   2   4 681.066 545.454   1
  17  -2   4 1303.32 449.344   2
   2 -17   4 1416.71 325.880   3
 -15  17   4 1403.52 576.003   3
 -17  15   4 913.724 576.353   3
  17  -2   4 1952.54 597.100   1
 -17  15   4 1225.66 372.522   1
  15   2   4 915.509 517.695   2
   2 -17   4 1714.94 521.042   4
  -2 -15   4 1375.86 535.389   4
   2 -17   7 9358.48 858.373   3
  -2 -15   7 8131.58 660.306   3
 -15  17   7 9705.31 1269.90   3
 -17  15   7 9254.27 1187.62   3
   2 -17   7 8051.40 821.262   4
  17  -2   7 7977.48 1054.21   1
  -2 -15   7 8346.09 1193.57   2
  -2 -15   7 9276.10 939.965   4
  15   2   7 9896.95 1116.11   1
   2 -17   7 8706.15 1145.95   2
   1 -17  -9 3265.90 793.673   4
  -1 -16  -9 3027.10 783.647   4
   1 -17  -6 3090.12 769.089   4
  -1 -16  -6 4259.94 874.204   2
   1 -17  -6 5070.43 959.663   2
 -16  17  -6 3064.18 441.597   4
 -17  16  -6 2677.89 402.790   4
  -1 -16  -6 4794.13 798.482   4
  -1 -16  -3 4550.30 834.286   2
  16   1  -3 3321.39 577.349   3
  16   1  -3 3734.73 631.440   1
  17  -1  -3 3191.22 626.937   3
 -16  17  -3 4523.08 495.970   2
   1 -17  -3 3574.07 740.185   2
 -17  16  -3 3279.64 358.013   2
  17  -1  -3 5157.79 680.181   1
  -1 -16  -3 4355.62 761.304   4
   1 -17  -3 4253.15 744.716   4
  -1 -16   0 2498.78 378.962   3
   1 -17   0 2711.07 465.850   3
  -1 -16   0 2480.05 602.430   2
  16   1   0 3407.35 635.073   1
   1 -17   0 2507.90 633.049   2
 -16  17   0 2391.54 509.327   2
 -17  16   0 4503.32 860.200   3
 -17  16   0 1603.63 469.040   2
  16   1   0 2199.81 469.990   3
 -16  17   0 3115.65 688.968   3
  17  -1   0 2132.64 512.116   1
  -1 -16   0 3663.88 702.426   4
   1 -17   0 2522.93 628.385   4
   1 -17   3 7870.50 490.907   3
 -16  17   3 8157.11 983.252   3
 -17  16   3 9657.46 1085.42   3
  17  -1   3 7829.00 821.806   2
  16   1   3 8850.31 923.180   2
  17  -1   3 9711.93 1006.10   1
  -1 -16   3 10650.4 1011.03   4
   1 -17   3 11162.5 1004.08   4
  -1 -16   3 10021.8 1087.69   2
  16   1   3 11095.0 1062.98   1
   1 -17   3 9478.45 1072.58   2
   1 -17   6 2158.93 737.930   2
   1 -17   6 1046.35 369.676   3
  -1 -16   6 934.349 276.901   3
 -16  17   6 1195.06 626.532   3
 -17  16   6 1952.95 687.940   3
  17  -1   6 2140.93 717.493   1
  16   1   6 1898.63 659.271   1
  -1 -16   6 2622.13 607.936   4
   1 -17   6 1633.24 546.540   4
  -1 -16   6-65.6805 610.294   2
  16   1   9 1400.89 1016.43   3
 -16  17   9 1539.18 902.878   3
 -17  16   9 297.966 699.079   3
  -1 -16   9 1826.50 607.726   4
  17  -1   9 2707.13 880.689   1
  16   1   9 2345.41 798.119   1
  -1 -16   9 2660.41 971.265   1
   1 -17   9 1437.73 831.924   1
  -1 -16   9 629.297 719.539   2
   1 -17   9 836.621 778.327   2
   0 -17  -7 124.440 610.171   2
   0 -17  -7 258.051 515.317   4
  17   0  -4 530.896 462.144   3
   0 -17  -4 1040.68 579.308   2
 -17  17  -4 687.315 170.489   2
  17   0  -4 598.828 433.722   1
   0 -17  -4 471.144 522.668   4
 -17  17  -4 1378.59 445.852   4
  17   0  -1 68.2891 416.438   1
   0 -17  -1 225.413 386.238   3
  17   0  -1 459.581 609.459   3
 -17  17  -1-477.279 354.835   2
   0 -17  -1 1014.66 529.958   2
 -17  17  -1 45.2098 523.695   3
   0 -17  -1-92.7330 441.542   4
 -17  17   2 6017.52 826.440   3
  17   0   2 4740.29 747.927   2
   0 -17   2 6304.21 833.305   4
   0 -17   2 4505.32 802.428   2
  17   0   2 5290.63 769.910   1
   0 -17   2 3442.14 300.576   3
   0 -17   5 930.370 652.714   2
   0 -17   5-35.6889 178.321   3
   0 -17   5 13.0397 196.471   3
 -17  17   5-213.897 531.238   3
  17   0   5-24.7838 452.222   2
   0 -17   5 201.531 451.900   4
  17   0   5-0.73475 607.534   1
   0 -17   8 1213.46 497.551   3
 -17  17   8 67.5307 719.513   3
   0 -17   8 734.734 492.306   4
  17   0   8 712.423 747.320   1
   0 -17   8 1839.41 822.369   2
 -18   0  -6 8300.73 769.913   2
 -18   0  -6 10511.5 992.329   4
 -18   0  -3-203.834 395.607   2
 -18   0  -3-487.721 481.154   4
  18 -18  -3 191.334 367.537   1
   0  18   0 7167.67 598.958   3
 -18   0   0 7652.94 926.319   4
 -18   0   0 8475.58 959.440   2
  18 -18   0 8348.10 913.720   1
   0  18   3-29.9091 454.878   3
  18 -18   3 240.819 556.966   1
 -18   0   3-234.187 376.842   3
 -18   0   3-347.388 513.622   4
 -18   0   3-259.089 583.294   2
   0  18   6 7721.92 1158.06   3
 -18   0   6 8688.64 934.362   3
 -18   0   6 8041.85 1104.37   4
  18 -18   6 10115.9 1303.24   1
 -18   0   9 98.9228 636.916   4
   0  18   9 20.9382 766.876   3
 -18   0   9-711.495 684.919   3
  18 -18   9 185.739 770.242   1
 -18   0   9 92.0253 997.821   2
 -17  -1  -7 3629.14 608.512   2
 -17  -1  -7 3916.74 684.326   4
 -18   1  -7 2693.48 572.562   4
  18 -17  -4 1237.80 362.817   1
  17 -18  -4 888.445 336.876   1
 -18   1  -4 1118.13 435.998   2
 -17  -1  -4 1175.07 479.718   2
 -18   1  -4 1287.92 538.336   4
 -17  -1  -4 1981.24 618.007   4
  18 -17  -1 8266.94 825.748   1
  -1  18  -1 7304.17 540.238   3
   1  17  -1 6263.48 394.362   3
 -18   1  -1 6724.90 907.077   4
 -17  -1  -1 6323.96 874.573   4
 -17  -1  -1 8076.52 892.711   2
  17 -18  -1 7340.72 802.835   1
 -18   1  -1 6714.05 800.981   2
  17 -18   2 2566.74 688.000   1
   1  17   2 2266.03 486.350   3
  -1  18   2 2007.31 501.012   3
  18 -17   2 1696.66 614.961   1
 -17  -1   2 1351.97 626.724   2
 -17  -1   2 2595.80 508.748   3
 -18   1   2 2301.17 506.252   3
 -18   1   2 2130.43 657.910   4
 -17  -1   2 1569.60 593.812   4
 -18   1   2 3618.62 780.039   2
   1  17   5 5501.91 923.907   3
  -1  18   5 6472.78 964.583   3
 -18   1   5 5086.67 733.453   3
 -17  -1   5 4853.41 712.644   3
 -18   1   5 5903.84 943.944   4
 -17  -1   5 4882.91 889.123   4
 -17  -1   5 3954.73 944.113   2
  17 -18   5 4596.19 923.170   1
  18 -17   5 6415.96 1012.20   1
 -18   1   5 4714.10 1088.36   2
   1  17   8 5289.06 1152.27   3
  -1  18   8 5140.80 1102.39   3
 -17  -1   8 4806.26 830.490   3
  17 -18   8 5839.49 1114.27   1
 -18   1   8 4275.91 881.951   3
  18 -17   8 4598.56 1025.83   1
 -18   1   8 5457.57 1076.03   4
 -17  -1   8 6948.58 1078.38   4
 -18   1   8 4845.18 1173.37   2
 -17  -1   8 3920.47 1090.45   2
 -18   2  -8 266.250 390.193   4
 -16  -2  -8 379.489 429.602   4
  18 -16  -5 1336.07 315.279   1
  16 -18  -5 1172.64 243.903   1
 -16  -2  -5 1567.03 515.666   2
 -18   2  -5 1239.60 362.677   2
 -18   2  -5 2158.04 539.956   4
 -16  -2  -5 2596.33 600.890   4
  18 -16  -2 4632.92 618.983   1
 -18   2  -2 3997.45 694.063   4
 -16  -2  -2 3516.77 680.122   4
 -16  -2  -2 5793.13 746.152   2
  16 -18  -2 4789.90 605.542   1
 -18   2  -2 4440.82 625.842   2
  16 -18   1 176.169 432.008   1
   2  16   1 718.706 308.302   3
  -2  18   1 412.780 348.810   3
 -16  -2   1-30.4739 531.335   2
  18 -16   1 795.039 506.498   1
 -18   2   1 114.048 382.809   3
 -18   2   1-27.1011 452.345   4
 -16  -2   1 1070.34 559.162   4
 -18   2   1 746.622 503.876   2
 -18   2   4 786.791 710.790   2
  16 -18   4 814.328 603.131   1
   2  16   4 1143.00 526.935   3
  -2  18   4 1116.67 583.872   3
  18 -16   4-352.642 529.017   1
 -18   2   4 1618.08 525.211   3
 -16  -2   4 193.512 357.988   3
 -18   2   4 742.975 566.430   4
  16 -18   4 337.758 234.423   2
 -16  -2   4 596.372 539.961   4
 -16  -2   4 10.2821 661.451   2
 -16  -2   7 555.326 830.105   2
   2  16   7 442.519 682.475   3
  -2  18   7 1435.89 735.611   3
  16 -18   7 2523.12 889.469   1
 -18   2   7 244.688 489.672   3
 -16  -2   7 415.119 487.662   3
  18 -16   7 940.011 754.572   1
 -18   2   7-2.37266 714.636   2
 -18   2   7 1321.57 690.614   4
 -16  -2   7 987.027 653.784   4
 -15  -3  -9 247.260 451.271   4
 -15  -3  -6 2205.97 530.461   2
 -15  -3  -6 2682.57 639.464   4
 -18   3  -6 2852.33 582.269   4
 -18   3  -3 606.607 381.164   2
 -18   3  -3 800.939 491.372   4
 -15  -3  -3-23.7928 391.240   2
  15 -18  -3 935.358 356.098   1
  18 -15  -3 1266.19 412.933   1
 -15  -3  -3 1678.00 503.222   4
  18 -15   0 9188.49 924.536   1
   3  15   0 8602.17 527.896   3
  -3  18   0 9770.07 741.194   3
 -18   3   0 8802.06 957.036   4
 -15  -3   0 9000.40 1020.30   4
 -18   3   0 9575.29 957.636   2
  15 -18   0 10687.1 944.537   1
 -15  -3   0 8707.07 976.592   2
  15 -18   3 1022.57 569.363   1
   3  15   3 498.599 484.406   3
  -3  18   3 210.625 446.811   3
  18 -15   3 1105.06 591.666   1
 -18   3   3 84.9146 416.090   3
  15 -18   3 855.256 358.907   2
 -15  -3   3 8.11235 298.634   3
 -18   3   3 445.777 494.352   4
 -15  -3   3 44.5257 494.475   4
 -18   3   3 1304.71 689.569   2
 -15  -3   3 339.003 619.908   2
   3  15   6 6920.97 1064.65   3
  -3  18   6 5848.55 1027.72   3
  15 -18   6 3866.62 341.796   2
 -18   3   6 4651.39 813.841   3
 -15  -3   6 4050.02 644.409   3
 -18   3   6 5294.10 953.940   4
 -18   3   6 5870.14 1101.66   2
 -15  -3   6 5646.16 872.219   4
  15 -18   6 7129.74 1123.46   1
 -15  -3   6 3820.86 943.311   2
  18 -15   6 6049.70 1004.93   1
 -15  -3   9 264.783 978.272   2
   3  15   9-18.9053 922.018   3
  -3  18   9-390.473 750.728   3
  15 -18   9 684.355 878.744   1
 -15  -3   9 124.150 553.136   3
 -18   3   9 1338.24 739.766   3
  18 -15   9-140.249 678.678   1
 -18   3   9 182.155 678.880   4
 -18   3   9 310.391 891.048   2
 -15  -3   9 1415.62 747.007   4
 -14  -4  -7 1704.87 542.218   2
 -14  -4  -7 3093.71 649.687   4
 -18   4  -7 1624.06 449.108   4
 -14  -4  -4 5466.10 757.602   2
 -18   4  -4 4722.24 494.768   2
 -18   4  -4 5270.31 702.754   4
  18 -14  -4 4240.07 496.402   1
 -14  -4  -4 5828.56 793.648   4
  14 -18  -4 5857.83 506.985   1
  18 -14  -1 2994.33 606.572   1
  14 -18  -1 2679.44 563.439   1
  -4  18  -1 2539.05 437.932   3
  14 -18  -1 2810.92 609.594   2
 -18   4  -1 3096.91 586.734   2
 -14  -4  -1 1808.86 557.379   4
 -14  -4  -1 3835.81 683.508   2
 -18   4  -1 2600.04 622.386   4
  18 -14   2 6890.04 872.056   1
   4  14   2 4401.01 597.161   3
  14 -18   2 6475.06 865.697   1
  -4  18   2 5511.34 689.906   3
 -14  -4   2 6493.49 994.508   2
  14 -18   2 5306.84 597.716   2
 -18   4   2 5471.46 716.232   3
 -18   4   2 8030.61 989.782   4
 -18   4   2 7044.94 971.621   2
 -14  -4   2 5025.40 854.206   4
  14 -18   5 2741.63 726.032   1
   4  14   5 1554.89 653.874   3
  -4  18   5 906.782 647.493   3
  14 -18   5 814.731 304.935   2
 -18   4   5 1920.77 599.326   3
 -14  -4   5 1571.09 399.049   3
  18 -14   5 2546.43 781.286   1
 -18   4   5 3293.26 767.093   4
 -18   4   5 1424.69 775.450   2
 -14  -4   5 1808.28 610.639   4
 -14  -4   5 1829.02 784.904   2
   4  14   8 1677.43 799.400   3
  14 -18   8 2116.86 875.028   1
  -4  18   8 2200.39 921.765   3
 -14  -4   8 2151.87 647.819   3
 -18   4   8 3160.90 782.018   3
  18 -14   8 3180.50 934.142   1
 -18   4   8 3658.16 914.688   4
 -18   4   8 2512.01 1003.64   2
 -14  -4   8 2610.53 768.337   4
 -14  -4   8 1616.76 843.800   2
   4  14   8 1475.02 516.727   1
 -13  -5  -8 3071.60 631.267   4
 -18   5  -5 1098.74 191.015   2
 -13  -5  -5 1665.79 514.831   2
 -13  -5  -5 1106.73 482.504   4
  13 -18  -5 932.883 198.869   1
 -18   5  -5 1147.86 416.686   4
  13 -18  -5 766.726 180.572   1
  18 -13  -5 1025.87 331.683   1
  18 -13  -2 9661.75 806.512   1
  -5  18  -2 10610.8 733.828   3
  13 -18  -2 9262.89 951.636   2
 -18   5  -2 9845.74 923.708   4
 -13  -5  -2 9400.58 967.458   4
 -18   5  -2 8756.93 701.056   2
  13 -18  -2 9734.77 795.359   1
 -13  -5  -2 7972.57 858.642   2
 -13  -5   1 4685.10 785.280   2
  13 -18   1 4120.34 569.807   2
   5  13   1 4230.64 472.703   3
  -5  18   1 4930.40 614.313   3
 -18   5   1 4095.54 619.272   3
  13 -18   1 4421.68 717.897   1
 -18   5   1 3267.78 671.378   4
 -13  -5   1 3999.96 719.635   4
  18 -13   1 3124.55 671.135   1
 -18   5   1 5635.80 822.320   2
  18 -13   4 5286.48 902.306   1
   5  13   4 6758.09 861.038   3
  13 -18   4 5313.79 567.208   2
  -5  18   4 5388.15 819.793   3
 -18   5   4 5334.07 755.143   3
   5  13   4 5506.84 744.762   1
 -13  -5   4 5192.72 451.305   3
 -18   5   4 6369.20 886.587   4
 -18   5   4 4281.86 1014.59   2
 -13  -5   4 6011.85 876.689   4
 -13  -5   4 7612.37 1089.87   2
  13 -18   4 6892.01 983.333   1
  13 -18   7 1462.92 663.654   1
   5  13   7 2811.93 905.957   3
  13 -18   7 1620.10 387.446   2
  -5  18   7 2630.44 862.906   3
 -13  -5   7 1781.96 483.573   3
 -18   5   7 1089.92 614.763   3
  18 -13   7 2569.05 823.736   1
 -13  -5   7 1587.35 637.728   4
 -18   5   7 1942.44 733.404   4
   5  13   7 1152.93 473.501   1
 -18   5   7 2393.85 889.788   2
 -13  -5   7 313.309 752.216   2
 -12  -6  -9 482.020 488.517   4
 -12  -6  -6 3522.90 685.132   2
 -18   6  -6 2948.21 512.872   4
 -12  -6  -6 3131.34 645.744   4
  12 -18  -3 4149.92 539.135   1
  18 -12  -3 2885.21 506.179   1
 -18   6  -3 3810.10 625.472   4
 -12  -6  -3 3142.82 657.125   4
 -18   6  -3 3142.56 381.336   2
 -12  -6  -3 3821.55 679.654   2
  12 -18   0 5470.03 736.069   4
   6  12   0 4585.81 363.656   3
  18 -12   0 5104.41 730.129   1
  12 -18   0 5394.86 688.821   2
  -6  18   0 5290.59 619.908   3
 -12  -6   0 4550.55 734.847   4
 -18   6   0 3822.31 667.159   3
 -18   6   0 5693.87 819.502   4
 -18   6   0 5049.63 687.952   2
  12 -18   0 6914.40 761.047   1
 -12  -6   0 5642.61 800.607   2
   6  12   3 2242.54 561.963   3
   6  12   3 1412.60 476.919   1
  -6  18   3 2434.14 580.660   3
  12 -18   3 2240.76 468.020   2
 -18   6   3 1881.59 517.275   3
 -18   6   3 1200.54 594.885   2
 -18   6   3 967.189 521.443   4
  18 -12   3 1084.70 561.009   1
 -12  -6   3 2178.44 663.934   4
 -12  -6   3 2589.97 746.346   2
  12 -18   3 2780.41 645.903   1
  12 -18   6 926.065 608.871   1
   6  12   6 1309.61 526.531   1
   6  12   6 523.819 644.439   3
  12 -18   6 671.187 362.658   2
  -6  18   6 373.716 546.900   3
 -18   6   6 811.551 551.654   3
 -12  -6   6 634.881 338.671   3
  18 -12   6 1557.16 727.223   1
 -18   6   6 1338.26 626.930   4
 -12  -6   6 92.2533 553.323   4
 -12  -6   6 2142.70 858.108   2
   6  12   9 3445.05 1048.86   3
  12 -18   9 3003.79 938.162   1
  -6  18   9 381.608 716.519   3
 -12  -6   9 2063.57 664.824   3
 -18   6   9 2022.42 784.776   3
 -18   6   9 3101.79 893.774   4
 -18   6   9 3581.37 1257.15   2
  18 -12   9 3499.25 1037.33   1
 -12  -6   9 1509.38 661.823   4
 -12  -6   9 3053.24 1012.55   2
   6  12   9 2104.37 636.349   1
 -11  -7  -7 2636.66 694.244   2
 -18   7  -7 2213.68 402.965   4
 -11  -7  -7 3217.80 644.389   4
 -11  -7  -4 8187.07 893.125   2
 -18   7  -4 8959.04 803.196   4
  11 -18  -4 7692.82 581.104   1
 -11  -7  -4 8345.81 919.810   4
  18 -11  -4 7951.22 666.135   1
  11 -18  -1 4814.48 720.641   2
  -7  18  -1 6096.23 641.685   3
  18 -11  -1 5864.61 693.877   1
 -18   7  -1 5640.92 777.633   4
 -18   7  -1 5538.27 641.192   2
  11 -18  -1 5620.76 704.172   1
 -11  -7  -1 5764.84 822.056   4
 -11  -7  -1 5170.60 727.650   2
  11 -18  -1 6872.79 814.059   4
   7  11   2 10097.7 808.572   3
  11 -18   2 8487.99 763.392   2
  18 -11   2 8468.03 951.823   1
  -7  18   2 9264.17 912.940   3
   7  11   2 8914.41 849.876   1
  11 -18   2 10607.9 872.120   4
 -18   7   2 7162.75 810.748   3
 -18   7   2 9778.86 1079.88   2
  11 -18   2 7896.08 936.901   1
 -11  -7   2 9946.99 1020.86   4
 -11  -7   2 7648.25 1019.48   2
   7  11   5 3564.58 794.346   3
  -7  18   5 2712.18 729.789   3
 -11  -7   5 2121.04 314.945   3
 -18   7   5 3118.86 710.869   3
  18 -11   5 2594.48 781.465   1
 -11  -7   5 2407.71 619.013   4
 -18   7   5 940.236 461.954   1
   7  11   5 2294.27 570.449   1
 -11  -7   5 2227.38 760.857   2
  11 -18   5 3712.00 553.402   2
  11 -18   5 3507.68 775.848   1
   7  11   8 5181.36 1123.97   3
  11 -18   8 2877.89 842.901   1
  11 -18   8 1872.66 517.806   2
  -7  18   8 1721.09 884.510   3
 -11  -7   8 1575.10 503.890   3
 -18   7   8 2529.06 790.100   3
   7  11   8 2900.26 646.867   1
  18 -11   8 1980.31 862.740   1
 -11  -7   8 2776.72 736.798   4
 -11  -7   8 2525.95 938.750   2
 -10  -8  -8 5850.74 895.602   2
 -10  -8  -8 5884.43 824.761   4
  10 -18  -5 3936.29 356.028   1
 -10  -8  -5 3519.71 675.984   2
 -18   8  -5 3737.78 538.870   4
  10 -18  -5 3561.83 364.590   1
  18 -10  -5 4568.50 538.088   1
  -8  18  -5 3853.10 595.600   4
 -10  -8  -5 4142.13 688.171   4
  10 -18  -2 12645.2 1064.97   2
  -8  18  -2 10957.6 851.799   3
 -18   8  -2 13407.6 1031.49   4
  18 -10  -2 11313.8 855.599   1
  10 -18  -2 13237.0 920.450   1
 -18   8  -2 11310.8 664.421   2
 -10  -8  -2 11297.2 1026.34   4
 -10  -8  -2 11367.7 1014.16   2
  10 -18  -2 13657.8 1122.28   4
   8  10   1 10431.1 711.076   3
  10 -18   1 9976.51 868.387   2
  -8  18   1 9233.91 845.119   3
   8  10   1 10159.8 917.563   1
  18 -10   1 9193.48 930.042   1
 -18   8   1 8705.28 875.016   3
 -10  -8   1 8472.70 1027.23   2
 -18   8   1 9677.61 968.740   2
 -10  -8   1 10654.0 1028.61   4
  10 -18   1 11007.8 945.681   4
  10 -18   1 9364.65 951.048   1
   8  10   4 9510.89 989.162   3
 -18   8   4 6633.82 748.276   1
  18 -10   4 9142.53 1034.54   1
  -8  18   4 9320.15 1006.93   3
 -18   8   4 6466.71 840.180   3
  10 -18   4 9542.54 1091.51   1
   8  10   4 7576.13 838.958   1
 -10  -8   4 7928.62 976.203   4
 -10  -8   4 8748.62 1127.49   2
  10 -18   4 7613.65 708.073   4
  10 -18   4 8498.62 765.760   2
  10 -18   7 5391.02 965.703   1
   8  10   7 5628.14 1020.18   3
  -8  18   7 7082.27 1132.63   3
  18 -10   7 6719.21 1106.21   1
 -10  -8   7 5375.42 606.304   3
 -18   8   7 4307.59 898.136   3
   8  10   7 6537.46 871.093   1
 -10  -8   7 5043.07 841.956   4
 -10  -8   7 4656.05 1080.39   2
  10 -18   7 4360.73 659.395   2
  -9  -9  -9 1755.25 596.322   4
  -9  -9  -6 1167.55 593.014   2
 -18   9  -6 989.113 343.008   4
  -9  -9  -6 1462.42 556.390   4
   9 -18  -6 475.086 130.956   1
  -9  18  -6 591.337 399.528   4
  -9  -9  -3 3909.35 647.561   2
   9 -18  -3 3225.21 664.831   2
   9 -18  -3 4867.00 564.251   1
 -18   9  -3 4629.40 677.854   4
  -9  -9  -3 3389.03 649.099   4
  18  -9  -3 4156.54 563.153   1
  -9  18  -3 2898.93 629.610   2
   9 -18  -3 4393.69 749.394   4
  -9  -9   0-48.8528 457.517   2
   9   9   0 130.893 231.115   3
  18  -9   0 622.361 450.748   1
   9 -18   0 417.594 422.847   2
  -9  18   0-2.88215 378.792   3
   9   9   0 198.550 189.876   3
 -18   9   0 221.344 473.982   3
 -18   9   0 790.151 445.517   2
   9 -18   0-123.158 380.278   1
   9   9   0-189.794 372.446   1
  -9  -9   0 912.429 541.379   4
   9 -18   0-138.294 468.280   4
   9   9   3 3925.99 641.427   3
  -9  -9   3 3933.27 716.058   4
  -9  18   3 3651.41 660.298   3
 -18   9   3 3182.06 660.422   3
   9 -18   3 4429.09 781.469   1
   9   9   3 3066.82 614.766   1
  -9  -9   3 5593.83 920.519   2
   9 -18   3 5136.34 671.338   4
  18  -9   3 4005.31 744.894   1
 -18   9   3 3831.32 596.089   1
   9 -18   3 4843.35 632.703   2
   9   9   6 2366.46 588.097   1
   9   9   6 1995.50 742.659   3
   9 -18   6 1011.46 492.005   2
  -9  18   6 1198.29 653.793   3
  -9  -9   6 1094.26 292.671   3
 -18   9   6 1069.94 573.129   3
 -18   9   6 921.574 422.459   1
  -9  -9   6 1976.30 784.707   2
  -9  -9   6 1619.93 555.881   4
  18  -9   6 1211.95 664.683   1
   9 -18   6 1698.81 662.478   1
   9 -18   6 1607.77 418.382   4
   9 -18   9 1982.63 602.802   2
   9 -18   9 161.090 663.508   1
   9   9   9 641.983 868.883   3
  -9  18   9 584.234 741.498   3
 -18   9   9 2186.15 752.019   3
  -9  -9   9 762.495 651.236   4
   9   9   9 671.159 610.406   1
  -9  -9   9-780.372 799.014   2
  18  -9   9 1321.01 719.286   1
  -8 -10  -7 4175.56 826.960   2
 -18  10  -7 4113.55 368.977   4
  -8 -10  -7 4754.22 773.311   4
  -8 -10  -4 6460.39 844.718   2
   8 -18  -4 7046.50 906.108   2
  18  -8  -4 8855.81 738.890   1
 -10  18  -4 6178.59 768.311   2
 -18  10  -4 7707.72 771.697   4
   8 -18  -4 5516.42 521.729   1
 -10  18  -4 5879.49 673.541   4
  -8 -10  -4 8794.20 932.650   4
   8 -18  -4 10080.8 1041.89   4
   8 -18  -1 9229.47 906.786   2
  10   8  -1 8252.77 421.423   3
 -10  18  -1 9082.10 855.799   3
 -18  10  -1 7770.05 869.244   3
 -18  10  -1 10875.1 799.065   2
  18  -8  -1 10047.2 857.145   1
  -8 -10  -1 10384.0 1011.13   4
  -8 -10  -1 8404.83 895.214   2
   8 -18  -1 9733.08 935.360   4
   8 -18   2 10748.3 904.105   2
  10   8   2 10311.4 854.814   3
   8 -18   2 10025.0 849.345   3
 -10  18   2 10131.5 970.720   3
 -18  10   2 10284.7 957.294   3
  18  -8   2 12052.2 1107.95   1
   8 -18   2 11433.3 1078.71   1
  -8 -10   2 12174.3 1057.87   4
  -8 -10   2 8735.90 1069.44   2
   8 -18   2 12663.0 956.159   4
 -18  10   2 9456.33 874.484   1
  10   8   2 10781.1 981.862   1
  10   8   5 5499.77 907.968   3
 -10  18   5 4812.34 830.734   3
  10   8   5 4637.18 757.497   1
 -18  10   5 2733.60 492.063   1
 -18  10   5 2692.62 709.641   3
  -8 -10   5 5337.87 853.871   4
   8 -18   5 4507.70 585.028   4
   8 -18   5 3930.30 633.320   2
  -8 -10   5 3841.82 895.933   2
  18  -8   5 3657.93 785.893   1
   8 -18   5 4884.67 938.441   1
  10   8   8 7982.68 1298.86   3
  10   8   8 6689.27 910.319   1
 -10  18   8 6271.77 1195.84   3
  -8 -10   8 5259.34 648.293   3
 -18  10   8 6980.76 1088.17   3
  18  -8   8 8773.32 1160.47   1
  -8 -10   8 7037.16 1235.40   2
   8 -18   8 6670.10 1133.20   1
  -8 -10   8 6816.37 912.556   4
   8 -18   8 6395.69 873.242   2
  -7 -11  -8 1627.74 696.617   2
  -7 -11  -8 3520.33 742.066   4
  18  -7  -5 2440.13 507.491   1
   7 -18  -5 2176.82 399.607   1
 -18  11  -5 2670.34 479.903   4
  -7 -11  -5 2500.33 743.111   2
   7 -18  -5 774.152 619.657   2
 -11  18  -5 2046.97 553.870   2
 -11  18  -5 2529.12 488.489   4
  -7 -11  -5 3017.90 660.576   4
   7 -18  -5 2146.61 674.922   4
  11   7  -2 6265.61 346.860   3
   7 -18  -2 10774.8 998.494   2
 -18  11  -2 8496.10 478.298   2
 -11  18  -2 8138.08 845.967   3
 -11  18  -2 8283.39 842.069   2
  18  -7  -2 8718.38 792.074   1
 -18  11  -2 9146.31 576.830   2
  -7 -11  -2 8849.74 958.318   4
   7 -18  -2 10288.5 1028.11   4
  -7 -11  -2 9050.18 933.785   2
   7 -18   1 5729.26 727.082   2
   7 -18   1 4029.87 606.005   3
 -11  18   1 6691.34 797.195   3
 -18  11   1 5693.71 753.511   3
  11   7   1 5256.56 507.980   3
  18  -7   1 5950.58 775.685   1
  -7 -11   1 6161.24 819.482   4
  11   7   1 4907.34 689.460   1
  -7 -11   1 4706.36 783.150   2
   7 -18   1 6936.75 789.805   4
  11   7   4 7838.05 934.416   3
 -11  18   4 7186.37 945.263   3
  11   7   4 8694.99 902.374   1
 -18  11   4 9806.28 1015.81   3
   7 -18   4 6377.74 709.916   3
  18  -7   4 5347.51 896.847   1
 -18  11   4 6918.90 667.252   1
   7 -18   4 7491.20 1027.69   1
  -7 -11   4 9003.43 952.704   4
  -7 -11   4 6761.74 1061.03   2
   7 -18   4 8950.68 813.570   4
   7 -18   4 6160.09 763.695   2
   7 -18   7 3320.36 685.901   2
  11   7   7 1772.19 824.048   3
  -7 -11   7 2244.09 400.234   3
 -11  18   7 3061.44 889.070   3
 -18  11   7 2172.22 745.154   3
  11   7   7 3352.06 714.022   1
  -7 -11   7 1976.21 602.921   4
  -7 -11   7 2105.97 880.648   2
   7 -18   7 3748.73 954.477   1
   7 -18   7 2370.06 450.780   4
  18  -7   7 2384.93 755.523   1
  -6 -12  -9 1712.23 655.370   4
   6 -18  -6 1908.62 628.016   4
   6 -18  -6 184.348 322.383   1
  -6 -12  -6 751.746 597.546   2
  -6 -12  -6 706.891 484.434   4
   6 -18  -6 1839.22 699.170   2
 -18  12  -6 1321.12 358.196   4
 -12  18  -6 1051.40 370.393   4
 -18  12  -6 1385.18 340.366   4
  12   6  -3 756.212 202.389   3
  -6 -12  -3 768.460 505.212   2
   6 -18  -3 1893.30 420.164   1
   6 -18  -3 1428.33 547.647   2
  18  -6  -3 996.933 408.820   1
  -6 -12  -3 1447.55 537.584   4
 -12  18  -3 1974.61 492.742   2
   6 -18  -3 703.248 431.745   4
   6 -18   0 4747.16 705.529   2
  -6 -12   0 4081.47 675.994   2
   6 -18   0 5288.95 696.623   3
  12   6   0 4102.45 650.672   1
 -12  18   0 6036.74 736.021   3
  12   6   0 4873.18 463.307   3
 -18  12   0 4855.14 551.300   2
 -18  12   0 5032.32 773.273   3
  18  -6   0 4850.68 683.587   1
  -6 -12   0 5041.15 766.510   4
   6 -18   0 5271.93 723.158   4
 -18  12   3 2974.66 532.129   1
   6 -18   3 3350.69 601.036   2
  18  -6   3 3167.04 727.496   1
 -12  18   3 3251.99 662.713   3
   6 -18   3 2773.48 500.697   3
 -18  12   3 2939.96 667.378   3
  -6 -12   3 3400.48 654.247   4
   6 -18   3 4057.17 607.577   4
  12   6   3 2422.63 601.018   1
  -6 -12   3 3984.78 776.173   2
   6 -18   6 3316.68 708.058   2
  12   6   6 2713.06 784.812   3
  -6 -12   6 2110.74 240.509   3
  -6 -12   6 2131.59 614.135   4
 -12  18   6 2628.76 881.743   3
  18  -6   6 4270.92 876.191   1
 -18  12   6 2068.12 691.998   3
  -6 -12   6 1816.20 217.003   3
  12   6   6 1597.75 629.359   1
 -18  12   6 2221.47 346.781   1
   6 -18   6 4477.69 927.343   1
   6 -18   6 4784.52 604.701   4
  -6 -12   6 2372.10 796.166   2
   6 -18   9 1328.82 679.919   2
   6 -18   9 1237.98 698.554   3
  12   6   9 841.694 854.786   3
  18  -6   9 1529.55 775.600   1
 -12  18   9 1975.56 912.090   3
 -18  12   9 1499.58 772.330   3
  12   6   9 1473.10 656.468   1
  -6 -12   9 427.473 528.035   4
  -6 -12   9 1748.64 966.054   2
   6 -18   9-115.373 668.750   1
   5 -18  -7 2714.13 714.195   4
  -5 -13  -7 1403.56 744.816   2
  -5 -13  -7 1137.81 538.032   4
  13   5  -4 3238.43 405.921   3
  -5 -13  -4 5345.65 864.783   2
   5 -18  -4 3771.72 510.230   1
   5 -18  -4 3810.79 779.892   2
 -13  18  -4 5168.72 643.171   2
  18  -5  -4 5680.47 686.683   1
 -13  18  -4 4500.38 620.023   4
  -5 -13  -4 4492.56 745.791   4
   5 -18  -4 4117.55 770.892   4
 -18  13  -4 4195.96 565.738   4
   5 -18  -1 3121.04 623.818   3
   5 -18  -1 4137.42 712.183   2
 -13  18  -1 3278.79 558.258   2
  -5 -13  -1 3472.15 667.227   2
 -18  13  -1 4567.94 477.835   2
  13   5  -1 3742.08 447.252   3
 -13  18  -1 4505.04 707.427   3
  18  -5  -1 3743.94 616.320   1
  -5 -13  -1 5235.94 766.675   4
 -18  13  -1 2701.63 593.995   3
   5 -18  -1 4729.87 727.475   4
  13   5  -1 4427.78 684.631   1
   5 -18   2 7747.45 700.030   3
 -13  18   2 9985.29 982.130   3
  13   5   2 9387.37 956.927   1
 -18  13   2 8557.61 929.135   3
  13   5   2 7968.61 742.758   3
  18  -5   2 10102.5 1011.59   1
 -18  13   2 7528.90 764.416   1
  -5 -13   2 10391.3 1028.72   4
  -5 -13   2 9352.55 1064.25   2
   5 -18   2 11066.2 952.027   4
   5 -18   2 9496.75 934.223   2
   5 -18   5 2429.15 679.603   2
  18  -5   5 1686.12 693.663   1
 -13  18   5 1553.47 668.816   3
 -18  13   5 1678.88 614.744   3
   5 -18   5 2719.32 549.316   4
  13   5   5 2541.35 651.695   1
   5 -18   5 1038.82 430.848   3
  -5 -13   5 3183.58 689.531   4
 -18  13   5 1113.16 347.178   1
  -5 -13   5 3180.66 820.010   2
  13   5   8 5998.80 1169.45   3
  18  -5   8 4253.48 967.486   1
  -5 -13   8 2998.05 510.029   3
  13   5   8 4037.34 813.883   1
 -13  18   8 3639.65 1101.89   3
 -18  13   8 2734.31 840.811   3
   5 -18   8 4390.67 899.006   2
  -5 -13   8 3418.40 709.595   4
   5 -18   8 4715.89 1071.64   1
  -5 -13   8 3304.52 971.786   2
   5 -18   8 2694.19 469.521   4
  -4 -14  -8 2010.70 803.585   2
  -4 -14  -8 1596.59 617.577   4
  14   4  -5 2046.63 481.705   3
  -4 -14  -5 2411.03 689.211   2
   4 -18  -5 3188.87 770.770   2
   4 -18  -5 1812.44 475.441   1
 -18  14  -5 2888.78 498.018   4
 -14  18  -5 1408.78 428.554   2
 -14  18  -5 1551.64 419.328   4
  -4 -14  -5 2163.23 633.972   4
 -18  14  -5 1419.67 375.257   4
   4 -18  -5 1265.78 489.599   4
   4 -18  -2 5903.85 827.726   2
  18  -4  -2 6498.98 758.865   1
  14   4  -2 5923.52 757.005   1
  14   4  -2 5339.90 535.196   3
 -14  18  -2 6910.92 825.782   3
 -18  14  -2 5885.66 838.785   3
  -4 -14  -2 5566.74 844.732   4
 -14  18  -2 5218.14 622.646   2
   4 -18  -2 7254.33 892.190   4
 -18  14  -2 5747.56 452.120   2
  -4 -14  -2 6606.48 868.429   2
  14   4   1 2004.86 581.056   1
  -4 -14   1 1826.93 672.236   2
   4 -18   1 2246.26 489.211   3
   4 -18   1 2441.05 590.158   2
 -18  14   1 3113.75 587.579   2
  14   4   1 2416.00 467.175   3
 -14  18   1 2071.91 560.190   3
 -18  14   1 2343.81 603.206   3
  -4 -14   1 2108.30 629.927   4
  18  -4   1 2492.90 641.444   1
   4 -18   1 3030.23 613.709   4
   4 -18   4 4404.32 532.622   3
 -18  14   4 4383.72 803.789   3
  18  -4   4 4406.77 797.168   1
 -14  18   4 3394.95 750.323   3
 -18  14   4 4435.72 562.318   1
   4 -18   4 4850.64 667.794   4
  -4 -14   4 4825.29 747.387   4
   4 -18   4 4261.66 757.246   2
  14   4   4 4684.77 793.690   1
  -4 -14   4 4298.41 866.027   2
   4 -18   7 1572.24 732.909   2
  14   4   7 3107.43 944.313   3
  -4 -14   7 2940.49 407.934   3
  14   4   7 2538.00 653.744   1
  18  -4   7 3528.73 842.179   1
 -14  18   7 1245.22 708.896   3
 -18  14   7 2753.20 852.386   3
   4 -18   7 1777.87 783.036   1
  -4 -14   7 3564.36 716.550   4
  -4 -14   7 1861.87 774.808   2
   4 -18   7 2655.70 531.633   4
  -3 -15  -9 98.4360 551.783   4
   3 -18  -6 5333.99 970.123   2
  -3 -15  -6 3781.91 814.069   2
 -18  15  -6 5066.15 531.220   4
 -15  18  -6 3569.17 485.886   4
 -18  15  -6 4739.13 494.773   4
  -3 -15  -6 6480.03 890.153   4
   3 -18  -6 6113.89 904.428   4
  15   3  -3 336.478 339.053   3
  -3 -15  -3 224.529 469.199   2
   3 -18  -3 650.378 488.591   2
  18  -3  -3 672.694 429.074   1
  15   3  -3 1088.26 514.190   1
  -3 -15  -3 443.285 501.197   4
 -18  15  -3 158.764 129.632   2
 -15  18  -3 571.796 367.268   2
   3 -18  -3 919.407 585.504   4
   3 -18   0 8294.69 891.183   4
   3 -18   0 6093.95 668.006   3
 -18  15   0 7538.12 701.716   2
  15   3   0 7450.24 681.561   3
 -15  18   0 9825.74 988.307   3
 -18  15   0 8286.89 915.161   3
  15   3   0 6695.79 817.090   1
  -3 -15   0 8333.76 946.751   4
  18  -3   0 9712.33 942.107   1
  -3 -15   0 7758.66 942.763   2
 -15  18   0 5559.69 686.973   2
   3 -18   0 6175.61 814.853   2
   3 -18   3 1593.90 543.563   2
  -3 -15   3 1538.26 674.073   2
   3 -18   3 1276.49 372.776   3
 -15  18   3 1001.39 575.132   3
 -18  15   3 2196.72 608.645   3
 -18  15   3 916.796 390.137   1
  15   3   3 2921.93 662.923   1
  18  -3   3 2255.85 660.788   1
  -3 -15   3 405.715 457.667   4
   3 -18   3 1293.39 482.018   4
  -3 -15   6 2653.60 261.491   3
 -15  18   6 4132.44 959.994   3
 -18  15   6 3494.25 800.286   3
  18  -3   6 4453.64 842.841   1
  15   3   6 5439.64 905.757   1
  -3 -15   6 4442.69 746.953   4
   3 -18   6 4024.06 648.322   4
   3 -18   6 5571.62 916.373   2
  -3 -15   6 4614.13 975.941   2
  15   3   9 1078.12 688.572   1
  15   3   9 2376.92 1038.02   3
   3 -18   9 352.207 579.839   3
 -15  18   9 1291.91 778.287   3
 -18  15   9-169.358 803.334   3
  18  -3   9 115.034 676.826   1
  -3 -15   9-47.5103 517.949   4
   3 -18   9 768.676 769.075   1
  -3 -15   9-422.205 855.056   2
   3 -18   9 324.066 730.138   2
  -2 -16  -7 1271.98 736.942   2
   2 -18  -7 44.8069 632.759   2
  -2 -16  -7 118.300 502.108   4
   2 -18  -7 1351.09 653.212   4
  18  -2  -4 1429.21 512.950   1
  16   2  -4 863.063 448.810   3
  -2 -16  -4 1330.93 675.125   2
   2 -18  -4 235.362 561.650   2
 -16  18  -4 777.441 300.807   2
 -16  18  -4 555.275 366.769   4
  -2 -16  -4 1511.79 653.887   4
   2 -18  -4 666.824 479.906   4
 -18  16  -4 1426.98 447.523   4
   2 -18  -1 352.069 409.496   3
 -16  18  -1 186.088 363.431   2
  -2 -16  -1 379.804 494.147   2
   2 -18  -1 578.079 504.071   2
 -18  16  -1 379.475 306.333   2
  16   2  -1 547.322 403.190   3
  16   2  -1 180.455 441.423   1
 -16  18  -1-10.9522 418.200   3
 -18  16  -1 613.581 454.224   3
  18  -2  -1-24.3487 406.471   1
  -2 -16  -1-120.891 479.453   4
   2 -18  -1 284.132 465.747   4
  16   2   2 4037.38 743.947   1
   2 -18   2 3627.41 421.778   3
  18  -2   2 3379.75 716.139   1
 -16  18   2 3688.74 692.566   3
 -18  16   2 1938.03 602.135   3
 -18  16   2 2639.07 558.133   1
  18  -2   2 2685.80 610.492   2
  -2 -16   2 5455.55 798.727   4
   2 -18   2 5230.76 738.332   4
  -2 -16   2 4054.93 811.751   2
   2 -18   2 3569.22 754.341   2
  -2 -16   5 1429.09 750.396   2
  16   2   5 607.798 557.039   1
   2 -18   5 1805.49 688.508   2
 -16  18   5 956.862 710.945   3
 -18  16   5 1601.76 708.873   3
   2 -18   5 481.825 327.636   3
  18  -2   5 2222.81 649.782   1
  18  -2   5 901.792 461.675   2
  -2 -16   5 499.336 429.899   4
   2 -18   5 1262.24 492.924   4
   2 -18   8 228.564 479.816   3
 -16  18   8-76.7314 638.724   3
 -18  16   8 488.182 753.599   3
  18  -2   8-744.406 721.954   1
   2 -18   8 5.56671 666.636   1
  -2 -16   8 542.857 462.496   4
   2 -18   8 321.060 451.831   4
  16   2   8 488.901 652.652   1
  -2 -16   8-370.300 771.156   2
   2 -18   8 1475.62 822.172   2
  -1 -17  -8 5247.90 1088.32   2
  -1 -17  -8 6099.99 1027.84   4
   1 -18  -8 5999.60 976.634   4
  -1 -17  -5 5390.32 961.167   2
   1 -18  -5 4348.75 873.408   2
 -18  17  -5 4114.69 560.312   4
  -1 -17  -5 5111.16 824.598   4
   1 -18  -5 5801.76 905.219   4
 -17  18  -5 3123.80 535.229   4
   1 -18  -2 1642.49 540.593   3
 -17  18  -2 1730.53 447.860   2
 -18  17  -2 1074.95 351.807   2
  -1 -17  -2 2337.48 634.520   2
  18  -1  -2 2527.74 624.365   1
  17   1  -2 1618.91 506.368   3
   1 -18  -2 2369.31 677.740   2
 -17  18  -2 1366.54 546.990   3
 -18  17  -2 2806.86 700.663   3
  17   1  -2 1827.36 521.619   1
  -1 -17  -2 1959.28 622.509   4
   1 -18  -2 3064.87 712.317   4
  -1 -17   1 5006.44 376.859   3
   1 -18   1 6541.55 546.782   3
  17   1   1 7706.19 901.241   1
  -1 -17   1 7678.62 940.976   4
 -17  18   1 6746.10 889.436   3
 -18  17   1 5485.69 847.141   3
   1 -18   1 7337.81 907.575   4
  -1 -17   1 7668.16 972.530   2
   1 -18   1 7490.29 891.321   2
  18  -1   1 5477.25 812.739   1
  -1 -17   4 1357.84 657.249   2
  17   1   4 629.068 537.220   1
   1 -18   4 330.132 535.099   2
   1 -18   4 460.351 230.522   3
 -17  18   4 804.277 560.260   3
 -18  17   4 924.830 629.925   3
  18  -1   4 979.498 497.928   2
  18  -1   4 2040.88 701.006   1
  17   1   4 820.445 544.057   2
  -1 -17   4 736.399 494.161   4
   1 -18   4 1356.29 553.167   4
   1 -18   7 3007.45 877.773   2
  -1 -17   7 2597.01 430.759   3
   1 -18   7 2451.66 504.453   3
 -17  18   7 4066.50 992.041   3
 -18  17   7 3667.12 965.898   3
  -1 -17   7 2774.79 643.567   4
  18  -1   7 4430.74 906.002   1
  17   1   7 2462.72 730.368   1
   1 -18   7 3540.02 686.453   4
  -1 -17   7 3750.11 921.269   2
   0 -18  -9-6.33017 625.086   4
   0 -18  -6 8856.68 1144.86   2
   0 -18  -6 9884.30 1176.41   4
  18   0  -3-130.967 468.308   3
   0 -18  -3 336.234 529.280   2
  18   0  -3 1029.94 478.332   1
   0 -18  -3 370.235 528.286   4
 -18  18  -3 118.199 302.929   2
   0 -18   0 5726.80 549.858   3
 -18  18   0 5954.23 724.078   2
  18   0   0 6762.82 852.441   1
   0 -18   0 8281.81 972.618   4
 -18  18   0 8186.61 984.425   3
   0 -18   0 6453.98 948.452   2
  18   0   3 31.0613 483.340   1
   0 -18   3-696.832 597.284   2
 -18  18   3 178.117 498.177   3
   0 -18   3 1030.32 533.910   4
 -18  18   6 11665.6 1375.31   3
  18   0   6 13725.4 1362.61   1
   0 -18   6 12959.8 1152.58   4
   0 -18   6 11022.6 1323.95   2
 -18  18   9 20.2659 862.438   3
  18   0   9-168.538 654.463   1
   0 -18   9 619.751 807.440   1
   0 -18   9 1326.46 813.177   2
 -19   0  -7 119.050 410.387   2
 -19   0  -7-206.673 457.091   4
 -19   0  -4 704.113 450.297   2
 -19   0  -4 327.659 475.959   4
  19 -19  -4 1.37765 331.952   1
  19 -19  -1-286.529 478.540   1
   0  19  -1-19.0075 216.966   3
 -19   0  -1 310.742 511.360   4
 -19   0  -1 298.240 523.611   2
   0  19   2 9619.69 880.770   3
 -19   0   2 8090.46 790.803   3
 -19   0   2 9422.56 1111.37   4
 -19   0   2 7284.37 1136.75   2
  19 -19   2 10963.3 1132.42   1
   0  19   5-407.474 647.454   3
  19 -19   5 481.906 633.233   1
 -19   0   5 470.724 509.739   3
 -19   0   5-1307.64 672.571   4
 -19   0   5-41.8741 710.348   2
   0  19   8 3038.84 1044.80   3
  19 -19   8 3264.72 988.182   1
 -19   0   8 2965.28 759.612   3
 -19   0   8 3614.29 896.479   4
 -19   0   8 3293.30 1102.65   2
 -19   1  -8-45.6060 436.301   4
 -18  -1  -8 511.606 467.995   4
 -18  -1  -5 25.7736 438.721   2
 -19   1  -5-35.6007 358.205   2
  18 -19  -5-153.481 246.361   1
  19 -18  -5 270.987 246.657   1
 -19   1  -5 681.452 501.491   4
 -18  -1  -5-478.150 532.605   4
 -19   1  -2 1285.09 507.902   2
 -18  -1  -2 715.499 458.391   2
  18 -19  -2 1016.45 435.330   1
  19 -18  -2 1287.30 481.369   1
 -19   1  -2 1290.03 588.378   4
 -18  -1  -2 1095.18 542.038   4
  18 -19   1 2013.94 661.603   1
   1  18   1 1875.78 423.159   3
  -1  19   1 1155.90 397.088   3
  19 -18   1 2159.01 615.564   1
 -19   1   1-30.5762 548.556   4
 -18  -1   1 850.458 548.503   4
 -19   1   1 1552.60 675.546   2
 -18  -1   1 1519.25 662.849   2
   1  18   4 1717.57 600.087   3
  -1  19   4 1407.60 584.278   3
  18 -19   4 1562.86 701.616   1
  19 -18   4 1636.88 656.719   1
 -19   1   4 1029.37 514.832   3
 -18  -1   4 1677.02 523.991   3
 -19   1   4 2022.80 684.796   4
 -18  -1   4 1911.40 676.601   4
 -19   1   4 2813.14 892.054   2
 -18  -1   4 1880.24 776.618   2
 -19   1   7 2227.36 809.220   4
   1  18   7 242.131 743.149   3
  -1  19   7 291.108 639.468   3
  18 -19   7 507.622 721.556   1
  19 -18   7 43.0001 664.397   1
 -19   1   7-57.3994 520.467   3
 -18  -1   7 122.486 480.954   3
 -18  -1   7 204.090 600.430   4
 -19   1   7 597.365 841.302   2
 -18  -1   7 2190.40 1017.46   2
 -17  -2  -6 1561.83 563.447   2
 -19   2  -6 1328.93 385.393   2
 -19   2  -6 1446.89 546.235   4
 -17  -2  -6 2048.55 623.324   4
 -17  -2  -3 2867.99 695.276   4
 -19   2  -3 1960.05 504.428   2
 -17  -2  -3 1782.28 527.352   2
  17 -19  -3 2577.70 480.584   1
 -19   2  -3 2268.75 601.593   4
  19 -17  -3 2516.49 511.206   1
  17 -19   0 1916.27 562.769   1
   2  17   0 1821.63 336.733   3
  -2  19   0 2362.92 426.528   3
  19 -17   0 2031.57 591.746   1
 -17  -2   0 2081.40 658.062   4
 -19   2   0 2451.32 675.584   4
 -19   2   0 2335.82 616.575   2
 -17  -2   0 1431.17 598.563   2
   2  17   3 3579.13 673.368   3
  17 -19   3 3751.88 788.670   1
  -2  19   3 2733.58 639.341   3
 -19   2   3 4773.10 722.045   3
  19 -17   3 2994.22 782.365   1
 -19   2   3 2402.74 719.569   4
 -17  -2   3 2304.17 451.299   3
 -17  -2   3 1052.40 586.065   4
 -19   2   3 3854.95 960.548   2
 -17  -2   3 3634.54 870.089   2
   2  17   6 2095.36 791.626   3
  -2  19   6 1547.37 662.548   3
 -17  -2   6 3522.41 667.118   3
  19 -17   6 1329.07 624.609   1
 -19   2   6 313.571 516.305   3
 -19   2   6 3465.34 830.789   4
 -17  -2   6 2527.53 784.812   4
 -19   2   6 3549.77 1034.42   2
 -17  -2   6 2959.15 875.715   2
  17 -19   6 4450.07 1050.23   1
 -19   2   9 4237.36 971.520   4
   2  17   9 1983.19 1039.58   3
  -2  19   9 2135.45 1035.96   3
 -19   2   9 3018.87 1270.04   2
  17 -19   9 3456.51 1122.28   1
 -19   2   9 1517.64 738.392   3
 -17  -2   9 582.681 597.954   3
  19 -17   9 4562.89 1080.50   1
 -17  -2   9 2874.09 1139.02   2
 -17  -2   9 540.275 714.178   4
 -16  -3  -7 953.895 517.093   2
 -19   3  -7 834.446 476.763   4
 -16  -3  -7 1838.45 582.629   4
  16 -19  -4 5026.45 525.133   1
  19 -16  -4 4308.49 553.653   1
 -19   3  -4 3995.05 694.903   4
 -16  -3  -4 4524.88 781.105   4
 -19   3  -4 3804.63 524.285   2
 -16  -3  -4 4284.79 711.440   2
 -16  -3  -1 1134.49 547.271   2
  16 -19  -1 1303.71 516.732   1
  -3  19  -1 1803.85 409.319   3
  19 -16  -1 1526.98 501.216   1
 -19   3  -1 2147.93 654.543   4
 -16  -3  -1 1809.84 666.250   4
 -19   3  -1 2742.66 578.641   2
   3  16   2 6085.88 690.686   3
  -3  19   2 4589.08 662.894   3
  16 -19   2 4122.51 547.531   2
 -19   3   2 5738.95 739.974   3
 -19   3   2 4949.95 942.849   2
  16 -19   2 6001.54 881.100   1
 -19   3   2 4278.98 798.099   4
 -16  -3   2 5436.92 869.042   4
 -16  -3   2 6435.32 1031.21   2
  19 -16   2 5016.57 832.363   1
  16 -19   5 1409.85 677.069   1
   3  16   5 809.480 544.885   3
 -16  -3   5 2837.96 870.459   2
  -3  19   5 1611.41 667.036   3
  19 -16   5-220.913 616.029   1
 -19   3   5 1534.41 639.261   3
 -16  -3   5 1075.25 431.296   3
  16 -19   5 838.206 276.473   2
 -19   3   5 889.702 610.961   4
 -16  -3   5 501.286 502.671   4
 -19   3   5 1977.47 805.491   2
   3  16   8 5150.55 1167.29   3
  -3  19   8 5556.84 1127.64   3
 -19   3   8 4082.15 863.915   3
 -16  -3   8 3579.23 738.767   3
  19 -16   8 5447.42 1107.93   1
 -16  -3   8 5368.66 978.804   4
 -19   3   8 4348.96 1002.27   4
 -19   3   8 5513.96 1262.13   2
 -16  -3   8 3475.66 1057.41   2
  16 -19   8 5530.52 1127.83   1
 -15  -4  -8-170.926 442.747   4
  19 -15  -5 3509.08 432.001   1
 -15  -4  -5 2609.61 667.886   4
 -19   4  -5 2910.09 366.985   2
  15 -19  -5 2313.61 292.841   1
 -15  -4  -5 3365.50 664.187   2
 -19   4  -5 3813.89 660.859   4
 -15  -4  -2 3372.21 655.280   2
  19 -15  -2 4053.20 628.103   1
  -4  19  -2 3672.11 464.754   3
 -15  -4  -2 5008.99 809.644   4
 -19   4  -2 2753.36 645.658   4
 -19   4  -2 3292.88 560.481   2
  15 -19  -2 3483.63 573.208   1
  15 -19   1 2385.26 655.212   1
   4  15   1 1363.65 357.263   3
  -4  19   1 1234.43 458.254   3
 -15  -4   1 2656.01 664.761   4
  15 -19   1 1096.01 426.539   2
 -19   4   1 1695.52 522.307   3
  19 -15   1 2001.72 599.238   1
 -19   4   1 1375.85 541.049   4
 -19   4   1 1204.92 608.739   2
 -15  -4   1 1167.73 617.036   2
 -19   4   4 509.056 640.733   2
  15 -19   4-163.955 523.314   1
   4  15   4 115.277 483.175   3
  -4  19   4-131.149 484.354   3
  15 -19   4 307.563 277.157   2
 -19   4   4 517.171 487.286   3
  19 -15   4 112.946 520.687   1
 -15  -4   4-130.586 324.271   3
 -19   4   4-434.127 563.846   4
 -15  -4   4-198.965 540.045   4
 -15  -4   4 518.774 703.079   2
   4  15   7 2248.45 781.992   3
  15 -19   7 1578.24 854.406   1
  -4  19   7 1062.80 831.469   3
 -19   4   7 2617.09 726.062   3
 -15  -4   7 1928.21 526.301   3
  19 -15   7 2188.06 799.892   1
 -19   4   7 2107.74 795.597   4
 -19   4   7 2942.14 1068.31   2
 -15  -4   7 2421.92 751.603   4
 -15  -4   7 1774.28 833.666   2
 -14  -5  -9 766.703 508.567   4
 -14  -5  -6 1044.42 524.349   2
 -19   5  -6 652.051 379.224   4
 -14  -5  -6 1214.60 531.211   4
  19 -14  -3 6898.15 710.920   1
 -19   5  -3 7522.76 884.058   4
 -14  -5  -3 7357.73 900.208   4
 -14  -5  -3 4933.70 736.590   2
  14 -19  -3 7555.43 685.354   1
 -19   5  -3 7486.14 604.596   2
 -14  -5   0 466.797 491.047   2
  14 -19   0 777.942 444.854   1
   5  14   0 761.877 216.608   3
  -5  19   0 1094.26 402.083   3
  14 -19   0 1792.67 530.715   2
 -19   5   0 1794.42 547.410   3
 -19   5   0 2040.13 606.576   4
 -14  -5   0 1534.57 568.333   4
  19 -14   0 1768.23 541.219   1
 -19   5   0 1550.37 568.039   2
  19 -14   3 7590.39 981.488   1
   5  14   3 6879.37 797.510   3
  14 -19   3 5397.65 602.088   2
  -5  19   3 6118.25 846.131   3
 -19   5   3 5846.33 812.059   3
  14 -19   3 6694.05 927.240   1
 -19   5   3 7594.46 974.104   4
 -19   5   3 4750.37 901.758   2
 -14  -5   3 5953.19 873.672   4
 -14  -5   3 5590.58 953.735   2
  14 -19   6 498.675 701.225   1
   5  14   6-177.061 459.882   1
   5  14   6 204.356 633.793   3
  -5  19   6-2.76812 545.786   3
  14 -19   6-45.8243 312.581   2
 -19   5   6 212.900 518.328   3
 -14  -5   6 25.4360 374.708   3
  19 -14   6 258.954 632.557   1
 -19   5   6 38.1724 575.555   4
 -19   5   6-30.3125 679.067   2
 -14  -5   6-776.302 819.910   2
 -14  -5   6-528.011 563.939   4
   5  14   9 1075.50 846.999   3
  14 -19   9 1608.80 873.842   1
  -5  19   9 1683.87 951.752   3
 -19   5   9 2955.80 906.336   3
   5  14   9 1169.48 543.390   1
  19 -14   9 2215.26 876.793   1
 -19   5   9 2400.84 941.493   4
 -19   5   9 2469.17 1140.62   2
 -14  -5   9 1159.87 681.218   4
 -14  -5   9 2299.75 1122.73   2
 -13  -6  -7 2617.27 676.455   2
 -19   6  -7 2675.08 502.451   4
 -13  -6  -7 2517.67 675.129   4
 -13  -6  -4 4467.46 743.314   2
 -19   6  -4 2578.24 293.582   2
 -19   6  -4 3389.10 635.625   4
  13 -19  -4 3476.11 461.849   1
 -13  -6  -4 4515.58 755.930   4
  19 -13  -4 3274.09 517.295   1
  13 -19  -1 2672.51 546.318   1
 -13  -6  -1 2906.23 671.084   2
 -19   6  -1 2736.04 541.777   2
  19 -13  -1 3131.00 608.535   1
  13 -19  -1 3264.15 651.511   2
  -6  19  -1 3096.61 507.663   3
 -19   6  -1 3268.80 689.498   4
 -13  -6  -1 2774.27 664.506   4
   6  13   2 10520.1 842.009   3
  19 -13   2 10197.0 1030.35   1
  13 -19   2 10401.9 834.962   2
  -6  19   2 9885.26 903.875   3
 -19   6   2 9650.25 943.294   3
 -19   6   2 10984.2 1116.64   4
 -19   6   2 11544.0 1175.92   2
 -13  -6   2 10419.1 1070.85   4
  13 -19   2 13031.5 1183.43   1
 -13  -6   2 10697.0 1185.49   2
 -13  -6   5 2169.00 645.118   4
 -19   6   5 194.816 693.142   2
  13 -19   5 2194.37 741.074   1
 -19   6   5 2044.94 686.063   4
   6  13   5 1244.01 608.623   3
   6  13   5 1696.69 541.618   1
  -6  19   5 2413.12 690.214   3
  13 -19   5 1181.63 406.051   2
 -19   6   5 1946.33 655.055   3
 -13  -6   5 1143.76 329.111   3
  19 -13   5 1347.77 653.906   1
 -13  -6   5 400.449 665.738   2
  13 -19   8 2562.02 936.018   1
   6  13   8 4102.58 1073.22   3
  -6  19   8 2942.84 1062.55   3
 -13  -6   8 3409.13 665.102   3
 -19   6   8 4156.92 920.394   3
   6  13   8 2920.50 663.337   1
 -19   6   8 3804.73 897.948   4
  19 -13   8 3797.12 920.729   1
 -19   6   8 5315.25 1294.64   2
 -13  -6   8 3542.49 827.725   4
 -13  -6   8 4466.97 1116.14   2
 -12  -7  -8 1466.80 684.035   2
 -12  -7  -8 1091.62 544.742   4
 -12  -7  -5 4805.34 770.892   2
  19 -12  -5 4889.77 550.383   1
  12 -19  -5 4945.10 391.587   1
 -12  -7  -5 4434.86 723.196   4
 -19   7  -5 5693.48 665.920   4
  12 -19  -5 4418.19 391.287   1
  12 -19  -2 2018.60 564.867   4
 -12  -7  -2 1511.86 561.494   2
  19 -12  -2 1201.62 445.295   1
 -19   7  -2 539.460 338.957   2
  12 -19  -2 1404.06 567.781   2
  -7  19  -2 1652.89 410.714   3
 -19   7  -2 1321.01 572.809   4
 -12  -7  -2 1629.96 550.031   4
  12 -19  -2 1156.97 435.979   1
   7  12   1 4511.54 487.822   3
  12 -19   1 4732.94 652.963   2
  19 -12   1 5050.40 805.153   1
  -7  19   1 4078.70 622.864   3
 -19   7   1 4989.95 726.449   3
 -19   7   1 4725.56 770.359   4
 -19   7   1 6130.65 846.153   2
  12 -19   1 6168.03 852.956   1
 -12  -7   1 4999.21 808.653   4
 -12  -7   1 6096.54 878.138   2
  12 -19   1 5661.84 757.425   4
  -7  19   4 2512.49 630.664   3
  12 -19   4 1192.36 401.505   2
 -19   7   4 2334.54 648.673   3
   7  12   4 2029.36 572.050   3
  19 -12   4 1108.76 592.373   1
 -19   7   4 2537.44 791.150   2
 -12  -7   4 2317.94 665.422   4
   7  12   4 1691.88 516.148   1
 -12  -7   4 1666.76 692.223   2
  12 -19   4 1039.29 638.889   1
  12 -19   7 1972.84 787.777   1
   7  12   7 1691.82 833.271   3
  12 -19   7 1603.91 479.546   2
  -7  19   7 581.893 628.051   3
 -19   7   7 890.868 653.188   3
 -12  -7   7 468.837 371.766   3
 -19   7   7 1702.64 689.182   4
  19 -12   7 471.714 662.424   1
 -12  -7   7 779.693 561.266   4
 -12  -7   7-368.425 785.188   2
   7  12   7 632.908 508.319   1
 -11  -8  -9 1158.46 579.091   4
 -11  -8  -6 901.113 574.205   2
 -19   8  -6 554.955 362.500   4
 -11  -8  -6 1143.44 609.354   4
  11 -19  -3 2481.90 671.042   4
  19 -11  -3 2923.85 540.249   1
  11 -19  -3 1949.44 620.244   2
 -19   8  -3 2340.35 566.621   4
  11 -19  -3 2385.93 463.360   1
 -11  -8  -3 2719.24 647.083   4
 -19   8  -3 1759.42 274.812   2
 -11  -8  -3 3574.67 676.186   2
  11 -19   0 1699.48 540.705   4
 -11  -8   0 758.517 547.707   2
  19 -11   0 708.578 449.615   1
   8  11   0 663.435 214.687   3
 -19   8   0 718.965 456.775   2
  11 -19   0 1226.62 460.765   2
  -8  19   0 332.430 367.329   3
 -19   8   0 1156.64 470.072   3
   8  11   0 433.447 186.791   3
 -19   8   0 1622.54 578.502   4
 -11  -8   0 1370.38 562.392   4
  11 -19   0 849.329 459.313   1
   8  11   3 4449.16 681.088   1
   8  11   3 2803.40 600.112   3
  19 -11   3 4554.22 777.933   1
  -8  19   3 4736.20 752.237   3
  11 -19   3 2982.64 536.426   2
 -19   8   3 3372.63 622.900   3
  11 -19   3 4523.50 868.421   1
 -11  -8   3 4908.66 783.920   4
 -11  -8   3 3582.27 882.688   2
  11 -19   3 4905.74 648.583   4
   8  11   6 1367.34 673.992   3
  11 -19   6 194.163 375.880   2
  -8  19   6 422.608 655.504   3
 -19   8   6-214.617 518.792   3
 -11  -8   6 75.4237 246.429   3
 -11  -8   6-301.496 527.369   4
   8  11   6-381.927 506.336   1
  19 -11   6-684.997 692.964   1
 -11  -8   6-19.5504 648.014   2
  11 -19   6 503.301 690.969   1
  11 -19   9 1859.96 957.163   1
   8  11   9 2361.18 1022.12   3
  -8  19   9 2907.13 1095.29   3
 -19   8   9 1732.80 813.404   3
   8  11   9 1536.74 602.972   1
 -19   8   9 1248.18 835.744   4
 -11  -8   9 2287.72 757.113   4
  19 -11   9 1902.58 888.663   1
 -11  -8   9 2899.53 1067.66   2
 -19   9  -7 1632.46 343.419   4
 -10  -9  -7 1857.98 617.376   4
  10 -19  -4 2651.38 415.981   1
  19 -10  -4 3361.78 526.097   1
 -10  -9  -4 3595.31 722.807   2
  10 -19  -4 4265.05 822.134   2
  10 -19  -4 2968.88 476.403   1
 -19   9  -4 3075.85 565.983   4
 -10  -9  -4 3309.60 690.859   4
  10 -19  -4 4403.05 793.449   4
 -10  -9  -1 2310.64 614.190   2
  10 -19  -1 3879.51 648.146   2
  -9  19  -1 5127.90 666.590   3
  19 -10  -1 3051.66 618.428   1
 -19   9  -1 3825.38 653.379   3
 -19   9  -1 4778.03 734.756   4
  10 -19  -1 3755.33 633.229   1
 -19   9  -1 3617.13 576.292   2
 -10  -9  -1 2675.70 661.666   4
  10 -19  -1 4658.77 756.961   4
   9  10   2 7484.65 743.112   3
   9  10   2 6813.70 838.615   1
  10 -19   2 6047.41 730.782   2
  -9  19   2 6272.55 796.393   3
  19 -10   2 7649.84 917.756   1
 -19   9   2 6548.90 831.041   3
  10 -19   2 7012.84 929.633   1
 -10  -9   2 7414.53 909.638   4
 -10  -9   2 6137.39 944.710   2
  10 -19   2 7021.07 763.036   4
   9  10   5 917.835 583.140   3
  10 -19   5 1826.70 528.572   2
  -9  19   5 1633.54 620.501   3
   9  10   5 1654.02 575.906   1
 -19   9   5 1445.29 630.694   3
 -19   9   5 1264.25 492.929   1
 -10  -9   5 2604.50 625.034   4
  19 -10   5 2341.52 724.160   1
 -10  -9   5 1665.41 831.329   2
  10 -19   5 3009.90 784.440   1
  10 -19   5 2153.02 473.225   4
  10 -19   8 758.589 724.232   1
  10 -19   8 1198.80 547.357   2
   9  10   8 432.243 840.768   3
   9  10   8 1858.10 619.346   1
  -9  19   8 1547.24 836.445   3
 -10  -9   8 229.527 375.810   3
 -19   9   8 1052.30 711.939   3
 -10  -9   8 246.400 546.493   4
  19 -10   8 1980.57 815.303   1
 -10  -9   8 155.781 759.995   2
  -9 -10  -8 819.739 634.189   2
  -9 -10  -8 1116.12 570.361   4
   9 -19  -5 2804.09 746.327   4
  -9 -10  -5 2278.13 638.671   2
   9 -19  -5 1007.56 315.530   1
   9 -19  -5 2647.89 736.831   2
 -10  19  -5 1077.33 463.494   4
   9 -19  -5 2092.93 387.862   1
  -9 -10  -5 1596.18 590.891   4
 -19  10  -5 2644.52 515.381   4
  19  -9  -5 1807.23 447.832   1
   9 -19  -2 7507.82 890.525   2
 -10  19  -2 7966.75 813.890   3
 -19  10  -2 7969.99 572.292   2
  19  -9  -2 7112.73 746.591   1
  -9 -10  -2 8819.44 958.623   4
 -19  10  -2 7523.78 849.381   4
   9 -19  -2 6632.05 852.064   4
  -9 -10  -2 6046.09 820.483   2
  10   9   1 2572.30 438.461   3
   9 -19   1 4374.47 648.477   2
  10   9   1 3384.79 667.710   1
 -10  19   1 4236.20 672.568   3
 -19  10   1 4330.49 722.282   3
  19  -9   1 4318.40 760.343   1
   9 -19   1 3652.71 690.546   1
  -9 -10   1 4280.81 766.560   4
  -9 -10   1 5150.65 870.412   2
   9 -19   1 3431.32 608.471   4
  10   9   4 3707.05 723.468   3
  10   9   4 2476.64 635.849   1
 -10  19   4 1978.24 643.419   3
 -19  10   4 3166.52 570.673   1
 -19  10   4 2416.66 640.723   3
  -9 -10   4 3193.06 686.729   4
   9 -19   4 2031.34 742.683   1
   9 -19   4 4420.11 612.882   4
  -9 -10   4 3490.03 862.667   2
  19  -9   4 3616.82 787.132   1
   9 -19   4 3522.89 598.698   2
   9 -19   7 2882.51 609.142   2
  10   9   7 2683.74 860.148   3
 -19  10   7 3576.17 933.233   3
 -10  19   7 2114.05 793.756   3
  -9 -10   7 2020.06 371.722   3
  -9 -10   7 3069.98 717.039   4
  -9 -10   7 3056.41 909.869   2
  19  -9   7 2726.01 809.696   1
   9 -19   7 3173.46 485.222   4
   9 -19   7 2923.56 875.234   1
  10   9   7 3759.99 709.123   1
  -8 -11  -9 686.144 561.318   4
   8 -19  -6 1242.04 615.603   4
   8 -19  -6 133.915 254.350   1
  -8 -11  -6 576.109 490.909   2
 -19  11  -6 122.444 309.366   4
 -11  19  -6 348.128 387.039   4
   8 -19  -6 260.805 224.174   1
  -8 -11  -6 78.2525 441.484   4
  -8 -11  -3 4307.13 753.728   2
  19  -8  -3 3874.72 571.685   1
  -8 -11  -3 5125.63 800.416   4
   8 -19  -3 4383.23 794.085   2
 -19  11  -3 4310.86 696.748   4
 -11  19  -3 3891.08 692.222   2
   8 -19  -3 4167.07 810.543   4
  -8 -11   0 933.845 487.803   2
  11   8   0 877.559 450.738   1
   8 -19   0 804.620 437.161   2
  19  -8   0 1280.01 506.195   1
 -11  19   0 713.859 488.135   3
  11   8   0 884.074 288.175   3
 -19  11   0 1596.32 555.875   3
  -8 -11   0 136.080 434.629   4
   8 -19   0 1438.82 510.056   4
  11   8   3 2127.26 543.897   3
  19  -8   3 2548.50 656.702   1
   8 -19   3 1995.37 524.005   2
 -19  11   3 1564.24 491.197   1
  11   8   3 2380.82 587.234   1
 -11  19   3 2268.23 614.269   3
   8 -19   3 1626.12 497.706   3
 -19  11   3 1845.85 567.314   3
   8 -19   3 3184.77 766.545   1
  -8 -11   3 2149.86 600.824   4
   8 -19   3 2487.36 565.180   4
  -8 -11   3 1837.49 676.703   2
  11   8   6 705.549 602.447   3
   8 -19   6 1567.19 559.733   2
 -11  19   6 179.097 633.632   3
 -19  11   6-1192.43 574.970   3
  -8 -11   6 91.2997 92.7033   3
  -8 -11   6-47.7133 89.4879   3
  11   8   6 1060.13 580.018   1
   8 -19   6 1140.97 625.461   1
  -8 -11   6 122.004 645.241   2
  19  -8   6 1559.91 712.537   1
  -8 -11   6 430.751 544.030   4
   8 -19   6-121.358 350.537   4
   8 -19   9 2104.03 897.166   1
   8 -19   9 1420.46 611.908   2
  11   8   9 2070.47 984.024   3
 -11  19   9 2866.44 958.026   3
 -19  11   9 1994.15 774.729   3
  11   8   9 1147.57 626.508   1
  -8 -11   9 1231.47 596.973   4
  -8 -11   9 763.633 882.584   2
  19  -8   9 2462.69 832.848   1
   7 -19  -7 1094.12 618.088   4
  -7 -12  -7 945.221 678.668   2
 -19  12  -7 308.207 207.115   4
   7 -19  -7 747.391 184.620   1
  -7 -12  -7 1427.07 568.951   4
   7 -19  -4 758.031 354.684   1
  19  -7  -4 1637.14 476.177   1
  -7 -12  -4 2090.13 662.139   2
 -19  12  -4 1741.21 524.160   4
 -12  19  -4 1144.51 539.967   2
  -7 -12  -4 1070.84 488.957   4
   7 -19  -4 2424.45 650.966   4
  -7 -12  -1 3322.95 715.451   2
  12   7  -1 3078.14 361.929   3
  12   7  -1 4891.21 728.690   1
 -19  12  -1 3056.89 435.711   2
 -12  19  -1 4446.95 702.469   3
   7 -19  -1 2671.45 573.915   2
 -19  12  -1 4026.44 719.014   3
  -7 -12  -1 4419.48 737.925   4
  19  -7  -1 4102.34 675.213   1
   7 -19  -1 4514.39 740.571   4
  -7 -12   2 2980.99 747.304   2
  19  -7   2 2515.60 654.317   1
   7 -19   2 1261.16 531.274   2
   7 -19   2 1295.42 465.286   3
  12   7   2 3113.52 614.284   1
 -12  19   2 1116.66 556.331   3
 -19  12   2 1097.42 498.997   3
  -7 -12   2 1934.45 595.832   4
   7 -19   2 1334.32 497.760   4
  12   7   5 4712.48 841.242   3
  19  -7   5 4307.08 846.147   1
  12   7   5 6262.72 865.467   1
 -19  12   5 5672.30 897.610   3
 -12  19   5 4496.90 892.711   3
   7 -19   5 5013.28 961.271   1
  -7 -12   5 7030.74 896.439   4
  -7 -12   5 7336.24 1077.87   2
 -19  12   5 4460.20 558.723   1
   7 -19   5 5288.80 656.507   4
   7 -19   5 5971.81 836.126   2
   7 -19   8 962.588 600.523   2
  19  -7   8 1729.77 709.388   1
  12   7   8-389.866 779.923   3
  -7 -12   8 1431.97 590.014   4
 -12  19   8 950.678 819.029   3
 -19  12   8 475.901 651.518   3
  12   7   8 1221.20 612.699   1
  -7 -12   8 1129.47 812.285   2
   7 -19   8 1572.81 855.005   1
  -6 -13  -8 5268.76 1009.08   2
  -6 -13  -8 4976.17 839.167   4
  13   6  -5 292.637 294.257   3
   6 -19  -5 1067.06 406.798   1
  19  -6  -5-103.701 356.850   1
  -6 -13  -5 2094.56 760.528   2
   6 -19  -5 1275.97 627.515   2
 -19  13  -5 768.085 430.093   4
 -13  19  -5 840.553 480.226   2
 -13  19  -5 1042.23 443.794   4
  -6 -13  -5 911.554 527.993   4
   6 -19  -5 1476.42 657.840   4
 -19  13  -5 709.817 389.573   4
 -19  13  -2 8982.10 529.815   2
   6 -19  -2 8942.93 966.819   2
  13   6  -2 8505.00 529.102   3
 -13  19  -2 11133.8 1004.40   3
 -19  13  -2 10749.2 1087.71   3
 -19  13  -2 9879.50 635.052   2
  -6 -13  -2 11192.7 1080.30   4
 -13  19  -2 9381.10 892.197   2
   6 -19  -2 12109.1 1130.01   4
  -6 -13  -2 9877.93 1036.39   2
  19  -6  -2 9596.26 864.356   1
  -6 -13   1 2325.56 649.635   2
   6 -19   1 1671.06 505.528   3
   6 -19   1 3475.39 629.878   2
  13   6   1 2756.06 462.836   3
 -13  19   1 1520.42 563.776   3
 -19  13   1 1760.81 625.419   3
  19  -6   1 2617.32 654.837   1
  13   6   1 2117.41 577.513   1
  -6 -13   1 3273.14 678.225   4
   6 -19   1 2211.66 513.414   4
 -19  13   4 1844.23 472.077   1
   6 -19   4 2716.54 661.563   2
 -13  19   4 2945.48 730.399   3
   6 -19   4 2682.33 548.539   3
 -19  13   4 3268.92 745.849   3
  19  -6   4 4523.21 848.037   1
  -6 -13   4 3445.94 745.467   4
  13   6   4 3485.41 660.637   1
   6 -19   4 3624.03 625.772   4
  -6 -13   4 4197.12 852.069   2
  13   6   7 4459.18 860.130   1
   6 -19   7 2434.70 708.796   2
  13   6   7 3823.91 927.980   3
  19  -6   7 3836.35 875.640   1
 -13  19   7 3549.70 902.360   3
 -19  13   7 2346.16 765.345   3
  -6 -13   7 2605.35 693.205   4
   6 -19   7 2129.80 877.570   1
  -6 -13   7 2717.97 882.804   2
   6 -19   7 2173.81 504.908   4
  -5 -14  -9 1034.84 641.876   4
  -5 -14  -6-88.4288 557.914   2
   5 -19  -6 303.637 576.076   2
 -19  14  -6 197.682 318.718   4
  -5 -14  -6 187.188 474.024   4
   5 -19  -6 845.835 571.975   4
  14   5  -3 3314.98 413.125   3
   5 -19  -3 5015.31 792.696   2
  -5 -14  -3 4346.66 783.148   2
  19  -5  -3 5195.30 695.596   1
 -14  19  -3 4524.88 627.402   2
  -5 -14  -3 5186.44 790.224   4
  -5 -14   0 913.655 533.124   2
   5 -19   0 973.714 470.915   3
   5 -19   0 1201.35 541.996   2
  -5 -14   0 1261.03 623.317   4
  14   5   0 866.256 354.966   3
 -14  19   0 1379.39 568.364   3
 -19  14   0 551.972 366.132   2
 -19  14   0 757.617 484.487   3
  14   5   0 750.941 406.218   1
  19  -5   0 1083.69 496.963   1
   5 -19   0 1576.53 527.602   4
  14   5   3 6615.57 848.712   1
   5 -19   3 5114.88 607.391   3
 -14  19   3 7700.62 957.111   3
 -19  14   3 7278.24 912.969   3
  19  -5   3 6032.15 901.264   1
 -19  14   3 6050.86 697.789   1
  -5 -14   3 8592.08 985.962   4
  -5 -14   3 7362.98 1038.57   2
   5 -19   3 9130.53 891.791   4
   5 -19   3 8093.72 936.070   2
   5 -19   6 318.232 545.301   2
  19  -5   6 631.168 641.869   1
 -14  19   6-295.887 545.953   3
 -19  14   6 241.778 676.634   3
  14   5   6 1878.46 691.088   1
   5 -19   6 1863.97 796.660   1
  -5 -14   6 157.582 486.164   4
   5 -19   6 490.901 382.413   4
  -5 -14   6 147.590 629.032   2
   5 -19   9 1293.47 670.603   2
   5 -19   9 352.952 582.786   3
  14   5   9 308.064 837.003   3
  19  -5   9 1444.16 853.374   1
 -14  19   9 58.1046 752.350   3
 -19  14   9 2704.77 916.250   3
  14   5   9 587.777 626.683   1
  -5 -14   9 2329.04 720.456   4
   5 -19   9 1077.65 756.281   1
  -5 -14   9 2214.09 913.654   2
  -4 -15  -7 3261.07 863.145   2
   4 -19  -7 2184.80 874.408   2
  -4 -15  -7 1061.81 642.364   4
   4 -19  -7 2952.20 779.243   4
  15   4  -4 42.3170 317.373   3
  19  -4  -4 515.886 392.866   1
  -4 -15  -4-691.601 548.326   2
   4 -19  -4-67.2566 566.632   2
 -15  19  -4 250.091 371.514   2
  -4 -15  -4 505.904 511.617   4
   4 -19  -4 286.451 495.639   4
 -19  15  -4 57.7204 371.838   4
  15   4  -1 2048.42 557.528   1
 -15  19  -1 1455.25 510.058   2
   4 -19  -1 1777.72 541.701   3
  -4 -15  -1 2472.19 639.776   2
   4 -19  -1 1714.79 612.889   2
 -19  15  -1 1235.12 378.660   2
  15   4  -1 539.881 338.099   3
  19  -4  -1 2267.08 580.230   1
 -15  19  -1 1760.21 564.797   3
 -19  15  -1 2310.69 592.607   3
  -4 -15  -1 1762.71 585.846   4
   4 -19  -1 2494.15 643.961   4
  -4 -15   2 2963.78 736.455   2
   4 -19   2 3678.43 524.295   3
  15   4   2 3329.75 693.545   1
 -15  19   2 4608.53 743.092   3
  -4 -15   2 3940.01 735.389   4
 -19  15   2 3734.29 726.452   3
  19  -4   2 2752.20 716.571   1
   4 -19   2 3856.03 668.369   4
   4 -19   2 4384.01 761.639   2
   4 -19   5 2813.33 727.421   2
  -4 -15   5 4166.51 744.695   4
 -15  19   5 3972.50 854.437   3
  15   4   5 3465.03 758.130   1
 -19  15   5 3586.39 814.458   3
   4 -19   5 2452.74 499.513   3
  19  -4   5 4969.84 892.063   1
 -19  15   5 3135.33 456.705   1
   4 -19   5 4030.90 680.610   4
  -4 -15   5 4390.76 919.513   2
   4 -19   8 655.806 651.530   2
   4 -19   8 513.469 535.672   3
  15   4   8-783.327 796.841   3
  15   4   8-95.5875 561.669   1
  19  -4   8 244.839 677.246   1
 -15  19   8-606.934 745.091   3
 -19  15   8 182.260 715.379   3
   4 -19   8-355.165 796.913   1
  -4 -15   8 438.579 517.016   4
  -4 -15   8-361.836 874.048   2
   4 -19   8 615.434 459.286   4
  -3 -16  -8 4777.11 1033.24   2
  -3 -16  -8 5615.25 963.295   4
   3 -19  -8 4601.47 944.792   4
  16   3  -5 711.124 458.618   3
  -3 -16  -5 1203.56 621.407   2
   3 -19  -5 843.986 581.223   2
 -16  19  -5 642.465 416.109   4
  -3 -16  -5 834.847 546.597   4
 -19  16  -5 683.942 397.195   4
   3 -19  -5 1033.36 593.576   4
  -3 -16  -2 4341.55 802.368   2
  16   3  -2 3810.07 710.738   1
   3 -19  -2 6265.45 883.184   2
  16   3  -2 3691.79 575.378   3
  19  -3  -2 3233.97 643.511   1
 -16  19  -2 4643.34 802.112   3
 -19  16  -2 4524.54 773.832   3
  -3 -16  -2 4344.29 771.875   4
 -16  19  -2 4519.86 632.961   2
   3 -19  -2 5462.06 875.791   4
 -19  16  -2 3802.11 455.802   2
  19  -3   1 826.146 517.253   1
  -3 -16   1 1696.62 606.530   2
   3 -19   1 1700.97 455.283   3
   3 -19   1 1671.26 594.819   2
 -16  19   1 1289.91 494.670   3
 -19  16   1 1921.98 603.533   3
  16   3   1 1579.49 443.683   3
  -3 -16   1 2331.12 616.352   4
   3 -19   1 3232.01 682.884   4
  16   3   1 2137.63 603.086   1
  -3 -16   4 3525.14 786.895   2
   3 -19   4 3330.52 738.130   2
   3 -19   4 2916.97 446.076   3
  16   3   4 2153.05 670.673   1
 -16  19   4 2263.43 678.903   3
 -19  16   4 1824.72 613.048   3
  19  -3   4 3751.42 779.422   1
  19  -3   4 2908.31 585.900   2
 -19  16   4 3698.31 560.665   1
  -3 -16   4 4287.52 767.803   4
   3 -19   4 5039.04 730.354   4
   3 -19   7 2612.37 846.951   2
   3 -19   7 1915.46 525.709   3
  16   3   7 659.338 606.617   1
 -16  19   7 1114.23 761.402   3
 -19  16   7 1062.98 684.296   3
  19  -3   7 2159.41 793.370   1
   3 -19   7 3146.79 950.638   1
  -3 -16   7 530.653 573.725   4
   3 -19   7 1512.57 527.435   4
  -3 -16   7 1196.76 810.102   2
   2 -19  -9 1833.30 745.365   4
  -2 -17  -9 2787.54 871.019   4
  -2 -17  -6 2000.00 808.648   2
   2 -19  -6 3730.22 904.598   2
  -2 -17  -6 2154.65 671.475   4
   2 -19  -6 3396.45 831.680   4
  17   2  -3 1226.61 476.602   3
  -2 -17  -3 3128.11 761.962   2
   2 -19  -3 2697.66 748.049   2
  17   2  -3 2961.35 639.004   1
 -19  17  -3 2391.64 318.401   2
  19  -2  -3 2638.26 617.859   1
  -2 -17  -3 3699.16 791.060   4
   2 -19  -3 3779.44 776.376   4
 -17  19  -3 2500.22 487.967   2
  17   2   0 1796.04 563.972   1
   2 -19   0 1610.53 428.557   3
  -2 -17   0 2503.78 746.304   2
   2 -19   0 1536.02 617.839   2
 -19  17   0 1137.34 451.599   2
  17   2   0 717.103 419.268   3
  19  -2   0 1352.76 544.043   1
 -17  19   0 1524.99 585.975   3
 -19  17   0 1444.42 582.144   3
  -2 -17   0 1470.63 603.044   4
   2 -19   0 2622.10 672.121   4
  -2 -17   3 1673.33 689.414   2
   2 -19   3 2835.12 744.569   2
   2 -19   3 1483.10 329.381   3
  17   2   3 3670.87 735.570   1
 -17  19   3 2017.63 643.280   3
 -19  17   3 3174.47 766.114   3
  19  -2   3 1838.95 561.970   2
 -19  17   3 2073.05 529.350   1
   2 -19   3 3956.57 701.096   4
  19  -2   3 2800.74 733.382   1
  -2 -17   3 1918.86 626.595   4
   2 -19   6 3386.96 853.967   2
   2 -19   6 1866.32 425.398   3
  17   2   6 1803.65 699.894   1
 -17  19   6 1860.98 785.513   3
 -19  17   6 2570.35 816.939   3
  19  -2   6 2889.14 808.157   1
  -2 -17   6 2630.34 642.620   4
   2 -19   6 2853.72 630.695   4
  -2 -17   6 793.819 670.577   2
   2 -19   9 1760.35 832.938   2
  17   2   9 1132.33 715.626   1
  17   2   9 3816.49 1230.30   3
 -17  19   9 649.164 849.717   3
 -19  17   9 1216.19 832.699   3
  19  -2   9 646.054 820.107   1
  -2 -17   9 2780.45 1008.70   1
   2 -19   9 641.967 832.824   1
  -2 -17   9 244.377 812.128   2
  -1 -18  -7 1017.87 752.741   2
   1 -19  -7 23.8312 632.709   2
  -1 -18  -7 146.013 596.842   4
   1 -19  -7 393.059 555.650   4
  18   1  -4 898.848 510.880   3
  -1 -18  -4 1114.19 684.065   2
   1 -19  -4 1648.56 659.353   2
 -18  19  -4 1165.18 281.398   2
  19  -1  -4 1219.04 533.269   1
  -1 -18  -4 1647.99 620.190   4
   1 -19  -4 1954.31 696.805   4
   1 -19  -1 1856.26 504.736   3
 -18  19  -1 1509.24 509.455   2
 -19  18  -1 866.233 403.935   2
  -1 -18  -1 1663.26 605.644   2
  18   1  -1 1956.12 585.337   1
   1 -19  -1 741.257 562.028   2
  18   1  -1 634.137 443.461   3
 -18  19  -1 978.887 541.814   3
 -19  18  -1 1410.40 589.102   3
  -1 -18  -1 918.779 519.595   4
   1 -19  -1 1309.95 550.079   4
  19  -1  -1 1055.48 537.608   1
  -1 -18   2 1819.47 650.039   2
   1 -19   2 489.114 242.849   3
   1 -19   2 682.020 548.820   2
  19  -1   2 1842.19 660.606   1
 -18  19   2 2219.51 742.742   3
 -19  18   2 517.307 577.801   3
  18   1   2 628.052 525.662   1
  -1 -18   2 2125.97 675.446   4
   1 -19   2 163.383 470.880   4
  18   1   5-161.795 592.654   1
  -1 -18   5-461.223 662.617   2
   1 -19   5 756.709 606.709   2
   1 -19   5-98.3800 197.490   3
 -18  19   5 922.702 600.262   3
 -19  18   5 596.198 642.190   3
  19  -1   5 49.1363 585.659   1
  -1 -18   5-208.435 513.850   4
   1 -19   5 131.443 468.751   4
   1 -19   8 1157.47 804.109   2
 -18  19   8 422.671 719.306   3
 -19  18   8 411.411 775.998   3
  19  -1   8-472.019 670.937   1
   1 -19   8-166.386 746.917   1
  -1 -18   8 744.883 487.022   4
   1 -19   8 14.7021 481.391   4
  18   1   8 397.137 742.592   1
  -1 -18   8 483.097 745.745   2
   0 -19  -8 3038.87 960.138   2
   0 -19  -8 4088.13 924.333   4
   0 -19  -5 249.903 604.536   2
   0 -19  -5-43.0106 516.624   4
   0 -19  -2 8969.55 1127.42   2
 -19  19  -2 6843.43 682.660   2
 -19  19  -2 8267.16 1104.66   3
  19   0  -2 9699.60 1028.53   1
   0 -19  -2 10210.9 1113.61   4
   0 -19   1 273.797 250.196   3
   0 -19   1-143.028 486.529   2
 -19  19   1 1178.25 566.603   3
  19   0   1 853.631 577.104   1
   0 -19   1 876.124 566.490   4
  19   0   4 1794.00 675.609   1
   0 -19   4 987.668 656.558   2
 -19  19   4 936.117 602.061   3
   0 -19   4 753.434 468.456   4
   0 -19   7 413.238 747.930   2
 -19  19   7 9.96774 656.130   3
  19   0   7 32.6794 677.675   1
   0 -19   7 638.118 596.879   4
 -20   0  -8 132.199 530.445   4
 -20   0  -5 369.096 442.664   2
  20 -20  -5-148.947 284.747   1
 -20   0  -5 106.989 499.235   4
 -20   0  -2 768.748 550.061   2
  20 -20  -2 1708.95 542.494   1
 -20   0  -2 392.165 524.360   4
 -20   0   1 56.1205 539.587   4
   0  20   1-169.509 325.755   3
  20 -20   1 178.273 527.842   1
 -20   0   1-189.390 580.174   2
 -20   0   4-82.2244 549.397   4
   0  20   4 123.622 518.695   3
  20 -20   4 757.624 631.466   1
 -20   0   4 503.322 464.328   3
 -20   0   4 337.036 821.573   2
   0  20   7 102.653 691.948   3
 -20   0   7 475.553 630.883   4
  20 -20   7-421.880 717.912   1
 -20   0   7 55.3919 572.369   3
 -20   0   7 226.385 858.814   2
 -19  -1  -6 1363.22 523.629   2
 -20   1  -6 1232.58 456.795   2
 -20   1  -6 869.614 513.592   4
 -19  -1  -6 2067.43 679.770   4
  19 -20  -3 4077.52 592.336   1
 -20   1  -3 3095.40 598.987   2
 -19  -1  -3 1874.65 554.182   2
 -20   1  -3 4124.96 788.437   4
 -19  -1  -3 3427.47 733.648   4
  20 -19  -3 3621.65 574.538   1
   1  19   0 2578.47 419.743   3
  -1  20   0 3687.49 519.240   3
  19 -20   0 3897.11 736.330   1
 -20   1   0 5083.92 868.066   2
 -19  -1   0 1907.64 642.565   4
 -20   1   0 2741.07 743.435   4
 -19  -1   0 3293.04 786.551   2
  20 -19   0 4718.98 792.798   1
   1  19   3 3025.13 626.014   3
  19 -20   3 2450.59 736.189   1
  -1  20   3 3367.94 668.870   3
  20 -19   3 2662.57 790.447   1
 -20   1   3 1607.03 509.139   3
 -19  -1   3 2312.72 493.839   3
 -20   1   3 1905.56 729.465   4
 -19  -1   3 1506.11 717.339   4
 -20   1   3 2687.70 876.876   2
 -19  -1   3 1967.05 812.993   2
   1  19   6 2455.66 783.900   3
  -1  20   6 2397.36 856.456   3
  19 -20   6 627.458 718.183   1
  20 -19   6 2508.28 911.319   1
 -20   1   6 1108.05 586.774   3
 -19  -1   6 1654.83 590.209   3
 -20   1   6 1445.37 699.739   4
 -19  -1   6 2375.87 780.451   4
 -20   1   6 1431.93 900.540   2
 -19  -1   6 1371.84 880.289   2
 -18  -2  -7 833.728 503.285   2
 -20   2  -7 435.851 441.434   4
 -18  -2  -7 113.251 480.774   4
 -20   2  -4-24.5456 466.028   4
 -20   2  -4-184.845 373.024   2
 -18  -2  -4-320.091 456.610   2
  20 -18  -4-668.598 367.770   1
  18 -20  -4-17.1211 326.451   1
 -18  -2  -4-106.873 528.715   4
  20 -18  -1 7453.28 845.212   1
  -2  20  -1 6744.04 583.520   3
 -20   2  -1 6593.78 947.438   4
 -18  -2  -1 7318.27 957.828   4
 -20   2  -1 6560.81 815.589   2
 -18  -2  -1 5422.07 850.483   2
  18 -20  -1 7104.24 861.736   1
  18 -20   2 474.172 554.481   1
   2  18   2 1573.68 463.751   3
  -2  20   2 615.890 422.492   3
  20 -18   2 744.184 621.147   1
 -20   2   2 1239.23 492.441   3
 -20   2   2 491.133 618.804   4
 -18  -2   2 1292.39 665.112   4
 -20   2   2 945.752 638.849   2
 -18  -2   2 986.389 672.287   2
  -2  20   5 4770.01 918.476   3
   2  18   5 3976.75 842.117   3
  18 -20   5 3571.14 920.200   1
 -18  -2   5 3768.13 618.387   3
  20 -18   5 4165.07 918.561   1
 -20   2   5 3604.04 722.379   3
 -18  -2   5 3948.30 878.640   4
 -20   2   5 2525.72 805.753   4
 -20   2   5 4775.00 1098.21   2
 -18  -2   5 3136.84 959.525   2
   2  18   8 1202.12 867.312   3
  -2  20   8 2997.80 1003.32   3
  18 -20   8 1432.13 886.207   1
 -20   2   8 680.095 742.702   3
 -18  -2   8 832.790 590.012   3
  20 -18   8 1360.36 857.400   1
 -20   2   8 2481.53 881.875   4
 -18  -2   8 2100.59 805.315   4
 -20   2   8 3259.04 1102.89   2
 -18  -2   8 752.969 907.933   2
 -17  -3  -8 1484.65 592.314   4
  17 -20  -5 479.661 253.172   1
  20 -17  -5 1133.27 359.794   1
 -17  -3  -5-771.272 480.994   2
 -20   3  -5 314.792 329.812   2
 -20   3  -5 1749.81 516.396   4
 -17  -3  -5-521.625 527.564   4
 -20   3  -2 384.643 421.134   2
 -17  -3  -2 1373.32 538.230   2
  17 -20  -2 1365.50 478.604   1
 -17  -3  -2 1097.20 624.350   4
 -20   3  -2 666.375 504.855   4
  20 -17  -2 484.914 436.902   1
  17 -20   1 264.288 464.972   1
   3  17   1 1466.51 352.278   3
  -3  20   1 698.055 423.800   3
 -17  -3   1 778.513 583.810   2
  20 -17   1 1232.24 582.190   1
 -20   3   1 1377.04 500.669   3
 -20   3   1 1408.68 607.829   4
 -17  -3   1 1436.16 657.961   4
 -20   3   1 322.756 543.336   2
  17 -20   4 3106.52 811.275   1
   3  17   4 2877.24 661.703   3
  -3  20   4 2107.33 615.914   3
  17 -20   4 2164.63 389.111   2
  20 -17   4 2256.98 739.824   1
 -20   3   4 2056.22 562.091   3
 -17  -3   4 1983.91 450.393   3
 -20   3   4 3178.89 826.402   4
 -17  -3   4 2971.79 741.286   4
 -20   3   4 2466.10 853.225   2
 -17  -3   4 2343.36 965.167   2
   3  17   7 556.457 743.338   3
  -3  20   7-799.647 732.052   3
  17 -20   7 753.007 657.787   1
 -20   3   7 1114.71 633.894   3
 -17  -3   7 1496.83 561.471   3
  20 -17   7 835.152 724.122   1
 -17  -3   7 414.265 640.595   4
 -20   3   7 596.721 859.028   2
 -17  -3   7 198.519 812.331   2
 -20   3   7-129.129 653.165   4
  20 -16  -6 2432.32 283.347   1
 -16  -4  -6 3529.55 723.174   2
 -20   4  -6 3610.40 651.860   4
 -16  -4  -6 4249.95 733.880   4
 -20   4  -3 821.231 397.962   2
 -16  -4  -3 749.247 520.523   2
  20 -16  -3 685.815 416.356   1
  16 -20  -3 737.003 384.868   1
 -20   4  -3 1236.78 565.438   4
 -16  -4  -3 1692.95 646.902   4
  20 -16   0 4340.19 748.062   1
  16 -20   0 5184.22 756.809   1
   4  16   0 3764.32 370.643   3
  -4  20   0 2613.51 497.493   3
 -20   4   0 5179.86 838.278   4
 -16  -4   0 3538.74 738.946   4
 -20   4   0 2729.78 629.702   2
 -16  -4   0 3536.78 728.332   2
  16 -20   3 4180.22 797.398   1
   4  16   3 3189.33 620.591   3
  16 -20   3 3782.57 531.574   2
  -4  20   3 3260.78 644.286   3
 -20   4   3 3929.38 734.825   3
  20 -16   3 2658.17 759.321   1
 -20   4   3 4705.83 895.320   4
 -16  -4   3 3421.38 744.576   4
 -20   4   3 4175.02 904.273   2
 -16  -4   3 3885.37 968.706   2
  16 -20   6 1333.01 728.357   1
   4  16   6 66.9495 588.652   3
  -4  20   6 886.183 633.653   3
 -20   4   6 710.061 588.437   3
  16 -20   6 444.202 245.837   2
 -16  -4   6 691.555 435.588   3
  20 -16   6 1659.78 798.638   1
 -20   4   6 1214.53 694.962   4
 -16  -4   6 133.225 547.579   4
 -20   4   6 1026.11 790.582   2
 -16  -4   6 331.661 780.889   2
 -15  -5  -7 3320.04 735.368   2
 -20   5  -7 2138.61 544.771   4
 -15  -5  -7 1800.16 618.356   4
 -15  -5  -4 2704.18 677.790   2
  15 -20  -4 2335.38 418.980   1
 -20   5  -4 3933.42 676.505   4
  20 -15  -4 2523.55 492.834   1
 -15  -5  -4 2881.86 655.448   4
 -20   5  -4 2333.50 395.055   2
  20 -15  -1 9421.92 907.584   1
  -5  20  -1 9722.06 784.487   3
  15 -20  -1 9207.41 939.928   2
 -20   5  -1 11018.2 1096.88   4
 -15  -5  -1 10314.1 1094.25   4
 -20   5  -1 9702.74 904.360   2
  15 -20  -1 9781.20 925.419   1
 -15  -5  -1 8695.51 989.184   2
  15 -20   2 849.716 516.871   1
   5  15   2 1613.36 475.744   3
  -5  20   2 974.070 503.606   3
  15 -20   2 1326.32 462.215   2
 -20   5   2 894.130 490.402   3
  20 -15   2 1152.26 549.869   1
 -20   5   2 1161.22 614.828   4
 -15  -5   2 916.661 592.096   4
 -20   5   2 599.090 659.911   2
 -15  -5   2 1512.06 741.625   2
  20 -15   5 6518.17 1067.38   1
   5  15   5 7700.81 1055.66   3
  15 -20   5 4931.81 535.588   2
  -5  20   5 6634.76 974.226   3
 -20   5   5 6760.91 909.018   3
 -15  -5   5 6127.93 563.177   3
 -20   5   5 7071.65 1043.89   4
 -20   5   5 6949.95 1218.74   2
 -15  -5   5 8154.23 1050.73   4
  15 -20   5 6362.92 1021.15   1
 -15  -5   5 7938.26 1257.43   2
   5  15   8 2638.48 927.750   3
  15 -20   8 1495.33 900.876   1
  -5  20   8 904.664 797.244   3
 -20   5   8 878.231 735.039   3
  20 -15   8 161.516 680.287   1
 -20   5   8 1139.62 790.389   4
 -15  -5   8 887.475 669.493   4
 -20   5   8 2508.69 1078.92   2
 -15  -5   8-977.015 852.485   2
 -14  -6  -8 224.891 559.952   2
 -14  -6  -8 141.488 494.134   4
  20 -14  -5 1659.97 403.449   1
  14 -20  -5 1376.19 276.388   1
 -14  -6  -5 2052.29 589.300   2
 -20   6  -5 1999.91 524.633   4
 -14  -6  -5 3346.63 681.304   4
  14 -20  -5 2149.31 318.081   1
  14 -20  -2 8357.92 971.805   2
  -6  20  -2 6632.95 675.648   3
  20 -14  -2 9166.38 876.478   1
 -20   6  -2 7942.23 924.330   4
 -14  -6  -2 7392.98 920.471   4
  14 -20  -2 8583.12 817.829   1
 -20   6  -2 8056.37 698.183   2
 -14  -6  -2 5396.76 778.483   2
   6  14   1 3756.36 472.215   3
  20 -14   1 4206.45 739.037   1
  14 -20   1 3910.03 668.825   2
  -6  20   1 3323.85 632.839   3
 -20   6   1 3211.00 651.650   3
 -20   6   1 4104.04 782.360   4
 -20   6   1 4577.72 822.070   2
 -14  -6   1 3741.42 785.752   4
  14 -20   1 4532.09 751.797   1
 -14  -6   1 2905.77 724.536   2
  14 -20   4 2180.07 726.158   1
   6  14   4 2258.78 618.606   3
  -6  20   4 1158.57 535.794   3
  14 -20   4 1631.78 435.036   2
 -14  -6   4 1350.98 289.772   3
 -20   6   4 1003.26 505.069   3
 -20   6   4 2628.09 742.492   4
  20 -14   4 1701.23 733.039   1
 -20   6   4 382.352 678.193   2
 -14  -6   4 1132.84 627.841   4
 -14  -6   4 1138.67 648.735   2
  14 -20   7 1920.02 791.726   1
   6  14   7 3020.99 931.144   3
  -6  20   7 1782.98 839.125   3
  14 -20   7 960.136 398.426   2
   6  14   7 2353.29 652.129   1
 -20   6   7 2085.69 778.812   3
 -14  -6   7 1155.38 468.918   3
  20 -14   7 2107.98 872.497   1
 -20   6   7 1932.01 806.033   4
 -20   6   7 1618.72 943.367   2
 -14  -6   7 1747.52 713.678   4
 -14  -6   7 2881.84 995.608   2
 -13  -7  -9 1396.85 598.392   4
 -13  -7  -6 4978.10 867.012   2
 -20   7  -6 4377.91 605.682   4
  13 -20  -3 1344.44 400.869   1
 -20   7  -3 1212.85 347.419   2
 -13  -7  -3 840.211 489.197   2
  13 -20  -3 1239.77 570.428   2
  20 -13  -3 820.839 394.944   1
 -13  -7  -3 835.160 505.826   4
 -20   7  -3 1330.50 545.232   4
  13 -20   0 3969.90 717.052   4
 -13  -7   0 2191.05 661.203   2
   7  13   0 2973.04 307.180   3
  13 -20   0 4324.75 679.797   2
  20 -13   0 3457.19 707.357   1
  -7  20   0 3538.59 606.954   3
 -20   7   0 4121.25 712.963   3
 -20   7   0 4839.72 803.791   4
 -20   7   0 5021.04 777.931   2
 -13  -7   0 4781.32 770.745   4
  13 -20   0 3173.54 647.980   1
   7  13   3 976.294 420.978   3
   7  13   3 1154.66 574.340   1
  -7  20   3 1508.73 581.808   3
  13 -20   3 1711.49 467.867   2
 -20   7   3 831.730 496.991   3
 -20   7   3 2075.82 774.683   2
 -20   7   3 2008.45 688.171   4
  20 -13   3 3233.54 775.981   1
 -13  -7   3 679.418 649.510   2
 -13  -7   3 2421.67 643.186   4
  13 -20   3 1244.68 632.209   1
  13 -20   6-436.279 657.534   1
   7  13   6-89.6947 569.834   3
  13 -20   6 1449.98 453.302   2
  -7  20   6 122.561 638.736   3
 -20   7   6-33.3152 507.123   3
 -13  -7   6 738.792 301.803   3
   7  13   6 733.845 462.716   1
 -20   7   6 609.807 574.594   4
 -20   7   6 1857.86 849.407   2
  20 -13   6 1385.72 711.732   1
 -13  -7   6 295.380 525.123   4
 -13  -7   6 1766.05 852.095   2
  13 -20   9-140.632 727.093   1
   7  13   9 1328.58 937.252   3
  -7  20   9 1330.27 902.006   3
   7  13   9 1092.65 575.179   1
 -20   7   9 533.416 718.356   3
 -20   7   9 1530.14 775.031   4
 -20   7   9 1507.27 1102.11   2
  20 -13   9 2462.77 921.526   1
 -13  -7   9 770.926 636.713   4
 -13  -7   9 1362.23 1010.17   2
 -12  -8  -7 3478.89 796.927   2
 -20   8  -7 2200.16 442.644   4
 -12  -8  -7 2822.34 694.257   4
  12 -20  -4 1210.45 385.754   1
 -12  -8  -4 1372.16 575.372   2
  20 -12  -4 1185.47 417.326   1
 -20   8  -4 1498.22 488.091   4
 -12  -8  -4 1547.80 594.730   4
  12 -20  -1 5529.30 794.709   2
  -8  20  -1 6666.80 743.877   3
  20 -12  -1 5746.31 757.200   1
 -20   8  -1 6899.75 886.662   4
 -20   8  -1 5997.60 708.148   2
  12 -20  -1 7213.53 803.516   1
 -12  -8  -1 5575.49 833.309   4
 -12  -8  -1 6537.18 884.402   2
  12 -20  -1 6805.09 847.409   4
  12 -20   2 2913.12 586.909   4
   8  12   2 2106.25 489.159   3
  -8  20   2 3606.03 657.005   3
 -20   8   2 3371.58 736.575   3
  12 -20   2 2533.80 510.406   2
 -20   8   2 4468.23 848.782   2
   8  12   2 2694.83 643.811   1
 -12  -8   2 3458.07 722.185   4
  20 -12   2 3778.47 752.539   1
  12 -20   2 3009.32 751.828   1
 -12  -8   2 2023.84 757.719   2
   8  12   5 2005.80 715.158   3
   8  12   5 2794.64 616.091   1
  -8  20   5 1417.96 707.239   3
 -12  -8   5 1566.87 198.805   3
 -20   8   5 2118.34 644.438   3
  20 -12   5 3338.95 834.127   1
 -12  -8   5 2245.84 669.317   4
 -12  -8   5 1446.53 807.550   2
  12 -20   5 2894.13 548.638   2
  12 -20   8 784.497 742.202   1
   8  12   8 563.181 697.943   3
  12 -20   8 260.127 452.184   2
  -8  20   8 75.1013 803.590   3
 -20   8   8 1732.24 784.527   3
 -20   8   8-33.2070 641.888   4
 -12  -8   8 1539.67 666.823   4
  20 -12   8 959.120 734.701   1
   8  12   8 1102.49 587.338   1
 -12  -8   8-251.065 892.143   2
 -11  -9  -8 2471.63 763.199   2
 -11  -9  -8 1713.60 599.813   4
 -11  -9  -5 2379.84 676.268   2
  20 -11  -5 2741.78 501.387   1
  11 -20  -5 2803.71 402.289   1
 -20   9  -5 3397.77 561.245   4
 -11  -9  -5 3113.38 721.254   4
  11 -20  -5 2126.69 348.356   1
  11 -20  -2 3980.03 720.224   4
 -11  -9  -2 2650.07 665.149   2
  11 -20  -2 2762.75 705.919   2
  -9  20  -2 2397.90 537.277   3
  20 -11  -2 1521.61 475.938   1
 -20   9  -2 2575.97 677.562   4
 -20   9  -2 3320.87 464.721   2
 -11  -9  -2 4049.01 790.148   4
  11 -20  -2 2418.62 541.527   1
   9  11   1 5354.54 560.907   3
  11 -20   1 5886.94 753.906   2
   9  11   1 6109.75 821.291   1
  -9  20   1 4410.32 687.059   3
  20 -11   1 4892.09 774.388   1
 -20   9   1 5816.08 794.455   3
 -20   9   1 5874.90 880.462   2
  11 -20   1 5852.31 862.533   1
 -11  -9   1 4766.39 834.064   4
 -11  -9   1 5387.44 861.642   2
  11 -20   1 5279.52 752.083   4
   9  11   4 2609.85 637.249   1
   9  11   4 3103.38 691.865   3
  11 -20   4 2531.33 561.830   2
  -9  20   4 1816.95 643.780   3
 -20   9   4 3093.27 695.786   3
 -11  -9   4 2555.71 702.554   4
  20 -11   4 3687.38 828.835   1
 -11  -9   4 1464.65 755.149   2
  11 -20   4 1865.65 662.537   1
  11 -20   4 2466.28 499.633   4
  11 -20   7 2898.46 906.195   1
   9  11   7 1609.36 783.719   3
  11 -20   7 2569.76 601.046   2
  -9  20   7 1162.11 714.647   3
 -20   9   7 2729.23 803.344   3
 -11  -9   7 1151.65 340.763   3
   9  11   7 2168.27 666.720   1
 -11  -9   7 3096.22 782.091   4
  20 -11   7 3094.32 937.695   1
 -11  -9   7 3505.44 1036.04   2
 -10 -10  -9-105.127 529.349   4
  10 -20  -6 1284.65 233.062   1
 -20  10  -6 1587.42 444.539   4
 -10 -10  -6 2030.69 586.272   4
  10 -20  -3 731.875 539.156   4
 -20  10  -3 296.985 139.616   2
  20 -10  -3-73.1055 367.660   1
 -10 -10  -3-141.950 498.755   2
 -20  10  -3 53.9368 107.166   2
  10 -20  -3 54.8391 495.207   2
 -20  10  -3 663.758 459.560   4
  10 -20  -3 660.113 384.550   1
 -10 -10  -3 86.4952 502.255   4
  10  10   0 3024.62 378.638   3
 -10 -10   0 2964.05 693.068   2
  20 -10   0 2366.73 608.544   1
  10  10   0 2359.23 316.063   3
  10 -20   0 2616.52 589.875   2
 -10  20   0 2930.61 578.141   3
 -20  10   0 2888.58 685.491   3
  10 -20   0 2670.12 662.565   1
 -20  10   0 2923.25 626.622   2
 -10 -10   0 2500.15 667.441   4
  10 -20   0 2820.48 637.079   4
  10  10   3 835.741 528.209   1
  10  10   3 898.412 523.338   3
  10 -20   3-76.4100 405.222   2
 -10  20   3-82.3360 474.834   3
 -20  10   3 1056.04 574.092   3
 -10 -10   3-911.022 672.470   2
 -10 -10   3-1124.83 622.670   4
  10 -20   3-188.904 589.074   1
  20 -10   3-133.395 528.443   1
  10 -20   3 263.993 409.315   4
  10  10   6 2476.14 734.691   3
  10 -20   6 2185.63 593.796   2
  10  10   6 2776.64 649.554   1
 -10  20   6 2334.26 765.374   3
 -20  10   6 1846.98 649.804   3
 -10 -10   6 2119.64 676.073   4
  20 -10   6 2101.67 694.733   1
 -10 -10   6 2522.49 828.743   2
  10 -20   6 538.352 649.472   1
  10 -20   6 1712.96 461.102   4
  10 -20   9 794.490 790.851   1
  10  10   9-172.927 812.748   3
  10  10   9 629.947 586.341   1
 -10  20   9 1760.63 974.224   3
 -20  10   9 292.719 784.383   3
 -10 -10   9-61.7033 607.750   4
 -10 -10   9 493.075 931.434   2
  20 -10   9 1122.39 832.667   1
  -9 -11  -7 2834.27 745.559   2
 -20  11  -7 1887.42 376.458   4
  -9 -11  -7 1798.48 705.282   4
   9 -20  -4 2106.41 639.289   4
  -9 -11  -4 2811.05 714.972   2
   9 -20  -4 3119.25 719.563   2
   9 -20  -4 2795.73 531.853   1
 -20  11  -4 3143.10 601.895   4
  -9 -11  -4 2324.16 657.558   4
   9 -20  -4 1982.59 436.353   1
  20  -9  -4 1585.59 481.220   1
  11   9  -1 3343.86 287.490   3
   9 -20  -1 4481.45 728.515   2
  11   9  -1 4320.88 321.623   3
 -11  20  -1 5068.79 723.274   3
 -20  11  -1 5026.66 783.474   3
 -20  11  -1 7184.74 733.046   2
  20  -9  -1 4511.36 671.424   1
  -9 -11  -1 5670.79 849.527   4
  -9 -11  -1 6523.05 847.237   2
   9 -20  -1 5652.83 832.133   4
  -9 -11   2 2098.97 761.668   2
  11   9   2 3751.41 598.923   3
  20  -9   2 4266.53 762.086   1
   9 -20   2 3272.20 629.845   2
 -11  20   2 2058.04 578.781   3
 -20  11   2 2150.33 661.674   3
   9 -20   2 3545.59 726.316   1
  -9 -11   2 3144.73 663.765   4
  11   9   2 3506.52 701.333   1
   9 -20   2 3001.24 605.377   4
  11   9   5 3060.72 814.901   3
   9 -20   5 2118.11 561.266   2
  11   9   5 2331.67 617.508   1
 -20  11   5 1542.10 476.486   1
 -11  20   5 2054.54 740.620   3
 -20  11   5 2156.71 696.106   3
  -9 -11   5 1325.62 579.975   4
   9 -20   5 2884.25 841.884   1
  -9 -11   5 1698.40 784.768   2
  20  -9   5 3623.53 890.018   1
   9 -20   5 2178.85 508.903   4
  11   9   8 3358.92 1072.60   3
 -11  20   8 4354.43 1049.20   3
 -20  11   8 3029.39 918.457   3
  -9 -11   8 2649.69 781.043   4
   9 -20   8 3810.30 779.341   2
  -9 -11   8 3052.42 1002.97   2
  20  -9   8 2629.32 835.061   1
   9 -20   8 5388.92 1096.95   1
  11   9   8 2986.49 742.814   1
  -8 -12  -8-350.490 634.476   2
  -8 -12  -8-79.9616 517.033   4
   8 -20  -5 2149.01 714.449   4
 -12  20  -5 2700.13 677.567   2
  20  -8  -5 2701.24 525.071   1
   8 -20  -5 3788.50 912.843   2
  -8 -12  -5 2706.58 737.841   2
   8 -20  -5 1702.62 424.329   1
 -20  12  -5 3405.12 566.910   4
  -8 -12  -5 1273.85 581.784   4
  20  -8  -2 2424.02 566.489   1
 -20  12  -2 2639.17 345.508   2
  -8 -12  -2 1611.87 553.815   2
   8 -20  -2 2193.22 633.564   2
 -12  20  -2 1605.96 515.970   3
 -20  12  -2 2713.53 389.478   2
  -8 -12  -2 2932.51 693.054   4
   8 -20  -2 2447.83 674.268   4
   8 -20   1 5892.62 799.716   2
 -12  20   1 5666.88 817.877   3
 -20  12   1 4909.66 826.746   3
  12   8   1 5447.18 540.988   3
  20  -8   1 5649.63 835.071   1
  -8 -12   1 6965.56 921.529   4
  -8 -12   1 7049.44 988.159   2
  12   8   1 6862.29 896.875   1
   8 -20   1 7268.54 900.855   4
  12   8   4 1453.63 557.840   3
  20  -8   4 1206.94 610.576   1
  12   8   4 420.323 472.503   1
   8 -20   4 1848.66 574.911   2
 -20  12   4 1290.75 504.816   1
 -12  20   4 1446.78 628.374   3
 -20  12   4 1885.29 639.047   3
   8 -20   4 1503.53 694.868   1
  -8 -12   4 409.582 532.209   4
  -8 -12   4 1144.08 731.787   2
   8 -20   4 1571.74 508.998   4
  20  -8   7 3036.96 885.809   1
  12   8   7 3548.07 1011.14   3
   8 -20   7 1239.43 619.890   2
 -12  20   7 5216.86 1019.77   3
 -20  12   7 2963.91 889.398   3
  -8 -12   7 3095.21 743.896   4
  12   8   7 2634.44 693.271   1
  -8 -12   7 2948.16 936.059   2
   8 -20   7 2845.74 872.683   1
   8 -20   7 2080.51 476.656   4
  -7 -13  -9 1127.27 672.725   4
   7 -20  -6 452.101 594.812   4
  -7 -13  -6 954.080 614.650   2
   7 -20  -6 170.805 631.862   2
 -20  13  -6 242.594 320.061   4
  -7 -13  -6 673.026 538.100   4
  13   7  -3 576.580 164.412   3
  -7 -13  -3 140.619 475.546   2
   7 -20  -3 1161.09 549.181   2
  20  -7  -3 950.626 451.550   1
  -7 -13  -3 2001.38 631.247   4
 -13  20  -3 1829.65 598.750   2
   7 -20  -3 1509.19 585.642   4
   7 -20   0 4647.28 748.692   2
  13   7   0 3528.85 444.282   3
 -20  13   0 2712.30 509.722   2
 -20  13   0 4256.63 748.601   3
 -13  20   0 3073.14 625.758   3
  20  -7   0 3986.85 690.258   1
  -7 -13   0 5273.41 824.122   4
   7 -20   0 5229.29 808.169   4
  -7 -13   0 4205.00 806.933   2
  13   7   0 4489.70 776.008   1
  -7 -13   3 1482.48 808.481   2
  13   7   3 1536.70 550.984   1
   7 -20   3 782.746 490.530   2
  20  -7   3 1795.29 692.715   1
  -7 -13   3 142.481 475.712   4
   7 -20   3 1018.18 470.665   3
 -13  20   3 219.149 472.479   3
 -20  13   3 1439.68 584.395   3
   7 -20   3 752.884 455.656   4
  13   7   6 3273.59 956.589   3
  13   7   6 5582.61 852.719   1
 -13  20   6 4623.45 946.483   3
 -20  13   6 5159.07 968.045   3
  20  -7   6 6598.20 1102.57   1
   7 -20   6 6299.55 1104.90   1
  -7 -13   6 4935.47 819.289   4
   7 -20   6 5368.42 862.912   2
   7 -20   6 5000.91 666.617   4
  -7 -13   6 2384.49 816.465   2
   7 -20   9 820.398 643.147   2
  13   7   9 1177.01 885.834   3
  20  -7   9 492.159 789.226   1
 -13  20   9 2666.92 1040.66   3
 -20  13   9 2360.64 945.390   3
  13   7   9 1946.04 771.063   1
  -7 -13   9 1897.13 680.401   4
  -7 -13   9 802.480 913.256   2
   7 -20   9 1208.57 746.546   1
   6 -20  -7 2215.13 734.961   4
  -6 -14  -7 1595.92 721.341   2
  -6 -14  -7 1009.95 555.641   4
   6 -20  -4 641.473 394.942   1
  14   6  -4 439.405 269.370   3
  -6 -14  -4 1328.03 676.333   2
   6 -20  -4 1118.65 612.723   2
  20  -6  -4 1691.19 518.618   1
 -14  20  -4 1175.55 538.178   2
  -6 -14  -4 871.824 545.005   4
   6 -20  -4 1522.12 655.789   4
   6 -20  -1 3435.36 739.811   2
  14   6  -1 4393.10 725.267   1
  -6 -14  -1 3139.63 729.179   2
 -20  14  -1 4690.78 524.261   2
  14   6  -1 3202.68 437.354   3
 -14  20  -1 4501.87 794.871   3
 -20  14  -1 3225.03 695.041   3
  -6 -14  -1 3535.59 744.281   4
  20  -6  -1 3946.15 693.555   1
   6 -20  -1 5059.65 773.094   4
   6 -20   2 5387.44 679.780   3
 -14  20   2 6836.37 885.518   3
 -20  14   2 5918.23 890.041   3
  14   6   2 6291.19 857.912   1
  20  -6   2 8717.27 1025.06   1
  -6 -14   2 8558.98 997.201   4
  -6 -14   2 6874.78 994.134   2
   6 -20   2 7026.63 849.083   4
   6 -20   2 8070.60 952.057   2
   6 -20   5 1431.93 650.617   2
  20  -6   5 2248.14 766.367   1
 -14  20   5 1157.39 672.089   3
 -20  14   5 1579.67 689.303   3
  14   6   5 2639.13 689.798   1
   6 -20   5 2166.50 785.096   1
  -6 -14   5 1858.22 601.392   4
   6 -20   5 2144.86 530.659   4
  -6 -14   5 2730.98 855.042   2
 -20  14   5 2198.17 489.602   1
   6 -20   8 325.780 607.676   2
  14   6   8 788.516 874.233   3
  20  -6   8 1185.40 771.053   1
 -14  20   8 711.427 737.971   3
 -20  14   8 485.255 725.643   3
  14   6   8 567.626 662.300   1
  -6 -14   8-335.805 546.140   4
   6 -20   8-800.976 766.472   1
  -6 -14   8 279.560 793.730   2
   5 -20  -8 902.085 655.530   4
  -5 -15  -8 370.137 698.385   2
  -5 -15  -8 57.2167 569.868   4
  15   5  -5 3345.52 503.434   3
  20  -5  -5 6569.20 798.835   1
   5 -20  -5 6250.68 1008.89   2
  -5 -15  -5 4925.90 898.519   2
 -20  15  -5 7274.96 757.323   4
 -15  20  -5 3698.86 573.157   2
  -5 -15  -5 5886.50 907.291   4
   5 -20  -5 6361.68 988.753   4
 -15  20  -2 839.365 510.664   2
  15   5  -2 9.08333 416.532   1
  -5 -15  -2 922.430 535.808   2
 -20  15  -2 821.468 279.606   2
  15   5  -2 751.653 347.780   3
   5 -20  -2 1719.72 605.657   2
 -15  20  -2 914.396 550.415   3
 -20  15  -2 1117.49 528.480   3
  20  -5  -2 870.896 438.713   1
  -5 -15  -2 1384.63 546.903   4
   5 -20  -2 741.298 553.515   4
   5 -20   1 7076.07 764.730   3
 -15  20   1 9394.92 972.477   3
 -20  15   1 8038.63 967.825   3
  15   5   1 7901.76 727.834   3
  15   5   1 9964.93 1069.26   1
  -5 -15   1 9846.71 1117.94   2
  20  -5   1 10949.3 1083.14   1
  -5 -15   1 10367.0 1069.46   4
   5 -20   1 10131.2 1015.07   4
   5 -20   1 8518.08 971.051   2
  -5 -15   4 1587.26 636.131   2
   5 -20   4 3739.08 725.844   2
 -15  20   4 3946.73 899.053   3
   5 -20   4 1684.42 472.452   3
  20  -5   4 2589.80 782.872   1
 -20  15   4 1896.37 638.354   3
  15   5   4 3015.05 725.253   1
  -5 -15   4 2911.93 661.835   4
 -20  15   4 2161.61 542.773   1
   5 -20   4 2672.62 611.789   4
   5 -20   7 3353.23 769.857   2
  15   5   7 3242.81 985.617   3
 -15  20   7 3514.47 924.153   3
 -20  15   7 3914.59 933.292   3
  15   5   7 2539.01 780.799   1
  20  -5   7 5364.52 1099.13   1
  -5 -15   7 4290.06 848.963   4
   5 -20   7 2260.50 869.130   1
  -5 -15   7 3204.94 990.236   2
   5 -20   7 2087.95 514.537   4
  -4 -16  -6 178.623 576.426   2
   4 -20  -6-42.4647 575.988   2
 -20  16  -6 302.434 390.841   4
  -4 -16  -6-114.068 520.953   4
   4 -20  -6 306.207 595.465   4
  -4 -16  -3 3287.43 852.843   2
   4 -20  -3 4149.40 828.293   2
  16   4  -3 2189.19 454.541   3
  20  -4  -3 3424.00 641.185   1
  -4 -16  -3 4245.99 807.084   4
   4 -20  -3 3726.21 844.773   4
 -16  20  -3 1720.49 526.775   2
   4 -20   0 4681.03 821.888   2
   4 -20   0 3253.08 601.898   3
 -20  16   0 3978.91 600.673   2
  -4 -16   0 3683.30 774.758   2
  16   4   0 2649.12 507.361   3
 -16  20   0 3051.06 682.343   3
 -20  16   0 3200.25 775.646   3
  16   4   0 3724.70 683.567   1
  -4 -16   0 5568.86 889.529   4
  20  -4   0 3640.22 725.089   1
   4 -20   0 3967.22 718.737   4
  -4 -16   3 657.515 726.972   2
   4 -20   3 610.118 483.334   2
   4 -20   3 1090.69 409.074   3
 -16  20   3 358.222 486.844   3
 -20  16   3 1795.41 664.226   3
  20  -4   3 1383.12 647.105   1
  16   4   3 871.868 492.420   1
  -4 -16   3 1770.55 616.086   4
 -20  16   3 963.389 498.050   1
   4 -20   3 1980.91 596.767   4
   4 -20   6 4641.46 883.007   2
 -16  20   6 5023.96 980.771   3
  16   4   6 3582.53 757.520   1
 -20  16   6 3604.80 885.232   3
  20  -4   6 1812.10 748.743   1
   4 -20   6 5565.49 784.015   4
  -4 -16   6 3184.93 708.891   4
  -4 -16   6 2644.81 886.853   2
  -3 -17  -7 1047.48 766.860   2
   3 -20  -7 638.487 696.149   2
  -3 -17  -7 738.173 592.666   4
   3 -20  -7 899.468 615.540   4
  17   3  -4 671.973 424.768   3
  -3 -17  -4 1839.11 682.164   2
   3 -20  -4 2786.52 771.785   2
  20  -3  -4 2887.28 610.949   1
 -17  20  -4 1041.73 412.264   2
  -3 -17  -4 3513.35 720.656   4
   3 -20  -4 2686.40 759.542   4
   3 -20  -1 603.915 480.162   3
 -17  20  -1-169.883 420.960   2
  -3 -17  -1 1549.39 589.242   2
 -20  17  -1 1060.81 386.309   2
   3 -20  -1 356.552 530.876   2
  17   3  -1 175.305 406.907   3
 -17  20  -1 1357.09 565.598   3
 -20  17  -1 1358.35 583.979   3
  20  -3  -1-720.249 481.606   1
  17   3  -1 803.943 471.111   1
  -3 -17  -1 129.573 505.810   4
   3 -20  -1 1211.17 577.948   4
  -3 -17   2 1064.45 683.141   2
   3 -20   2 51.1681 467.511   2
   3 -20   2 343.426 323.794   3
 -17  20   2 1061.94 615.784   3
 -20  17   2 72.4494 529.722   3
  17   3   2 890.266 605.015   1
  -3 -17   2 649.863 542.188   4
   3 -20   2 1375.67 584.027   4
  20  -3   2 980.325 625.051   1
  -3 -17   5 1924.18 796.463   2
   3 -20   5 147.530 584.772   2
  17   3   5 1628.62 661.793   1
 -17  20   5 293.544 546.055   3
 -20  17   5 319.638 624.462   3
  20  -3   5 389.749 618.768   1
  -3 -17   5 658.221 562.001   4
   3 -20   5 544.034 433.601   4
   3 -20   8 1471.05 815.043   2
  17   3   8 1255.67 888.485   3
  17   3   8 1554.98 731.290   1
 -17  20   8 2401.79 990.823   3
 -20  17   8-722.119 732.173   3
  20  -3   8 1896.13 806.069   1
  -3 -17   8 1280.57 609.786   4
   3 -20   8 1136.64 575.052   4
  -3 -17   8 94.7983 770.229   2
   3 -20   8-769.654 762.745   1
  -2 -18  -8 1191.41 760.503   2
   2 -20  -8-214.446 709.746   2
  -2 -18  -8 1068.21 718.632   4
   2 -20  -8 1452.91 692.810   4
   2 -20  -5 5815.39 1045.29   2
  -2 -18  -5 4275.47 908.654   2
  -2 -18  -5 4450.77 838.047   4
   2 -20  -5 3768.35 846.126   4
 -18  20  -2 658.017 451.568   2
 -20  18  -2 841.375 368.384   2
  18   2  -2 335.087 487.345   1
  20  -2  -2 431.867 453.750   1
  -2 -18  -2 1040.10 642.750   2
  18   2  -2 465.541 449.420   3
   2 -20  -2 254.489 518.966   2
 -18  20  -2 783.839 564.156   3
 -20  18  -2 1630.73 647.028   3
  -2 -18  -2 1625.88 643.514   4
   2 -20  -2 29.7415 528.633   4
   2 -20   1 4802.07 556.227   3
  18   2   1 5705.49 841.532   1
 -18  20   1 4765.48 850.936   3
 -20  18   1 3825.86 782.612   3
  -2 -18   1 5124.31 826.159   4
   2 -20   1 5139.83 824.247   4
  -2 -18   1 5246.77 925.135   2
  20  -2   1 5701.69 894.116   1
   2 -20   1 5433.70 892.197   2
  -2 -18   4 1059.91 610.244   4
  -2 -18   4-406.094 672.087   2
  20  -2   4 574.035 528.060   2
   2 -20   4-388.444 572.271   2
   2 -20   4 108.813 257.888   3
  18   2   4-1285.38 612.954   1
 -18  20   4 1243.49 697.547   3
 -20  18   4 360.123 652.514   3
  20  -2   4 142.202 551.386   1
   2 -20   4 618.720 520.788   4
   2 -20   7 1269.27 719.359   2
  18   2   7 2421.82 832.189   1
 -18  20   7 1289.72 768.231   3
 -20  18   7 4233.11 1028.86   3
  20  -2   7 1283.74 764.125   1
  -2 -18   7 1459.57 617.679   4
   2 -20   7 927.207 571.463   4
  -2 -18   7 1726.81 840.490   2
  -1 -19  -6 572.523 693.696   2
   1 -20  -6 1858.18 859.669   2
  -1 -19  -6 2355.12 744.619   4
   1 -20  -6 1643.77 723.007   4
  19   1  -3 3916.48 745.479   1
  20  -1  -3 3011.73 699.640   1
  19   1  -3 1415.36 564.040   3
  -1 -19  -3 3026.60 750.390   2
   1 -20  -3 2942.14 762.670   2
  -1 -19  -3 3284.25 797.003   4
   1 -20  -3 2900.04 802.705   4
 -19  20  -3 2488.83 493.480   2
 -20  19  -3 2012.91 396.122   2
   1 -20   0 2745.54 508.340   3
  -1 -19   0 2800.00 765.026   2
  19   1   0 3205.01 761.850   1
 -19  20   0 4405.56 882.643   3
 -20  19   0 2681.51 748.782   3
  20  -1   0 2903.78 727.497   1
  -1 -19   0 4775.29 839.677   4
   1 -20   0 5824.86 889.475   4
   1 -20   0 5044.15 887.137   2
  20  -1   3 4215.58 839.699   1
  -1 -19   3 3398.68 812.149   2
   1 -20   3 3743.27 781.672   2
 -19  20   3 4487.95 886.292   3
  19   1   3 3921.57 805.256   1
 -20  19   3 3594.18 781.840   3
   1 -20   3 4838.83 799.825   4
  -1 -19   3 3615.24 750.492   4
  -1 -19   6 2774.92 878.079   2
   1 -20   6 1593.21 748.851   2
  19   1   6 1580.70 704.915   1
 -19  20   6 837.684 676.057   3
 -20  19   6 1084.88 790.896   3
  20  -1   6 2189.60 773.443   1
  -1 -19   6 1793.85 683.010   4
   1 -20   6 1522.77 586.675   4
   0 -20  -7 1387.35 801.073   2
   0 -20  -7-478.354 619.708   4
  20   0  -4 1453.36 630.571   1
   0 -20  -4-377.466 618.592   2
   0 -20  -4 155.998 582.643   4
   0 -20  -1 503.640 439.592   3
  20   0  -1 238.699 520.846   1
 -20  20  -1 182.568 430.121   2
   0 -20  -1-435.898 588.163   2
 -20  20  -1 734.651 572.926   3
   0 -20  -1 614.566 532.696   4
   0 -20   2 737.124 159.630   3
   0 -20   2 1639.66 686.096   2
  20   0   2 533.061 521.776   1
 -20  20   2 2293.47 704.498   3
   0 -20   2 1995.84 716.224   4
  20   0   5 758.738 654.924   1
   0 -20   5 350.060 637.462   2
 -20  20   5-191.536 611.923   3
   0 -20   5-486.155 561.657   4
   0 -20   8-327.828 738.907   2
 -20  20   8 1271.53 836.602   3
   0 -20   8 293.958 536.750   4
  20   0   8-294.267 647.814   1
 -21   0  -6 1519.79 532.440   2
 -21   0  -6 1561.50 643.940   4
 -21   0  -3 53.5233 470.766   2
 -21   0  -3 1031.58 637.241   4
  21 -21  -3-91.6975 410.372   1
   0  21   0 10318.0 713.332   3
 -21   0   0 12227.6 1286.82   4
 -21   0   0 11304.0 1246.27   2
  21 -21   0 11845.7 1162.98   1
   0  21   3 1369.03 537.167   3
  21 -21   3-166.767 603.175   1
 -21   0   3-6.99177 435.430   3
 -21   0   3-1436.77 688.953   4
 -21   0   3-262.688 682.423   2
   0  21   6 4913.04 1012.94   3
  21 -21   6 5616.15 1103.65   1
 -21   0   6 2798.93 738.428   3
 -21   0   6 4819.63 1020.67   4
 -20  -1  -7-64.0068 502.776   2
 -21   1  -7 472.220 535.769   4
 -20  -1  -7 75.7785 555.021   4
  21 -20  -4 568.715 414.278   1
 -21   1  -4 189.536 424.492   2
 -20  -1  -4 543.231 463.369   2
 -21   1  -4 527.041 538.048   4
 -20  -1  -4-294.872 580.348   4
  20 -21  -4-11.6593 366.541   1
 -20  -1  -1-236.836 520.058   2
  20 -21  -1 1623.19 589.294   1
  -1  21  -1 275.522 291.692   3
   1  20  -1 415.876 168.776   3
  21 -20  -1 676.762 515.736   1
 -21   1  -1 561.711 626.554   4
 -20  -1  -1 1437.73 662.672   4
 -21   1  -1 1691.49 649.198   2
   1  20   2 861.620 461.734   3
  20 -21   2 2180.50 713.148   1
  -1  21   2 716.592 412.460   3
  21 -20   2 1490.64 667.227   1
 -21   1   2 975.404 659.622   4
 -20  -1   2 1232.09 662.274   4
 -21   1   2 1200.70 702.883   2
 -20  -1   2 2131.15 786.954   2
   1  20   5 1350.43 669.840   3
  -1  21   5 1762.52 714.389   3
  20 -21   5 1880.79 812.712   1
  21 -20   5 1207.04 704.066   1
 -21   1   5 1115.44 575.503   3
 -20  -1   5 1027.70 516.157   3
 -20  -1   5 1242.53 693.684   4
 -21   1   5 77.0971 627.222   4
 -21   1   5 1359.40 909.799   2
 -20  -1   5 1112.61 908.991   2
 -19  -2  -8 1365.79 589.739   4
  19 -21  -5 520.986 291.176   1
 -19  -2  -5 142.655 488.096   2
 -21   2  -5 476.068 376.370   2
 -19  -2  -5-436.920 562.264   4
  21 -19  -5 1142.86 368.112   1
 -21   2  -2 2668.33 587.760   2
 -19  -2  -2 502.892 492.516   2
  19 -21  -2 1663.90 551.605   1
 -21   2  -2 2777.40 732.102   4
 -19  -2  -2 548.478 556.569   4
  21 -19  -2 2139.27 555.426   1
  19 -21   1 2191.47 670.030   1
   2  19   1 1168.00 377.804   3
  -2  21   1 1147.37 439.397   3
  21 -19   1 1201.85 626.051   1
 -21   2   1 1544.16 677.253   4
 -19  -2   1 2585.89 755.886   4
 -21   2   1 407.853 613.855   2
 -19  -2   1 989.127 707.473   2
   2  19   4 98.6018 498.587   3
  19 -21   4-161.853 666.249   1
  -2  21   4 545.379 582.636   3
  21 -19   4-137.292 638.740   1
 -21   2   4 916.773 544.707   3
 -19  -2   4-49.9061 400.738   3
 -21   2   4-576.197 596.650   4
 -19  -2   4 1594.59 720.633   4
 -21   2   4 493.925 771.671   2
 -19  -2   4 677.461 783.473   2
   2  19   7 1085.46 846.647   3
  -2  21   7 1295.40 824.982   3
  19 -21   7 1906.55 837.276   1
 -21   2   7 1180.73 691.731   3
  21 -19   7 976.462 901.668   1
 -19  -2   7 1729.47 608.166   3
 -21   2   7 739.120 759.751   4
 -19  -2   7 1306.03 673.847   4
 -21   2   7-43.0267 830.779   2
 -19  -2   7 715.936 894.755   2
 -18  -3  -6 4878.28 794.113   2
 -21   3  -6 3323.15 445.014   2
 -21   3  -6 5173.14 791.478   4
 -18  -3  -6 4952.15 827.941   4
  21 -18  -3-341.191 398.196   1
 -21   3  -3-530.938 444.100   2
 -18  -3  -3 190.249 490.297   2
  18 -21  -3 1004.85 421.872   1
 -21   3  -3 297.882 501.937   4
 -18  -3  -3 223.784 536.023   4
  21 -18   0 10427.7 1084.43   1
   3  18   0 9357.12 571.986   3
  -3  21   0 8537.95 735.101   3
 -21   3   0 10008.0 1113.47   4
 -18  -3   0 11715.1 1262.71   4
 -21   3   0 10952.9 1119.69   2
 -18  -3   0 8102.77 1054.24   2
  18 -21   0 11489.4 1082.22   1
  18 -21   3 1073.63 634.897   1
   3  18   3 1241.38 470.867   3
  -3  21   3 100.980 416.268   3
  21 -18   3 460.279 617.849   1
 -21   3   3 940.856 515.953   3
 -21   3   3 394.520 615.069   4
 -18  -3   3 959.383 596.422   4
 -21   3   3-788.563 759.546   2
 -18  -3   3 523.381 651.723   2
   3  18   6 4386.81 994.726   3
  -3  21   6 4659.53 1047.08   3
 -21   3   6 5433.60 897.446   3
 -18  -3   6 3789.94 620.562   3
 -21   3   6 6515.42 1140.08   4
 -18  -3   6 5488.87 1029.80   4
 -18  -3   6 7092.78 1345.76   2
 -21   3   6 5017.75 1281.10   2
  18 -21   6 7631.48 1256.17   1
  21 -18   6 6450.08 1108.42   1
 -17  -4  -7 1222.99 600.662   2
 -21   4  -7 174.449 425.987   4
 -17  -4  -7 1009.83 581.686   4
 -21   4  -4 510.144 512.867   4
 -21   4  -4 457.016 331.362   2
 -17  -4  -4 426.488 491.350   2
  17 -21  -4 235.683 336.218   1
  21 -17  -4 967.543 414.089   1
 -17  -4  -4 100.165 453.989   4
 -17  -4  -1 266.506 530.017   2
  17 -21  -1 2607.43 628.709   1
 -17  -4  -1 1865.30 641.374   4
  -4  21  -1 1264.70 426.952   3
 -21   4  -1 2211.38 682.852   4
  21 -17  -1 1015.74 514.918   1
 -21   4  -1 2178.54 611.360   2
  17 -21   2 2528.91 657.334   1
   4  17   2 1368.70 438.034   3
  -4  21   2 1761.95 524.302   3
 -21   4   2 1127.53 494.757   3
  17 -21   2 2273.01 484.636   2
  21 -17   2 1292.36 605.301   1
 -21   4   2 876.356 575.224   4
 -17  -4   2 1951.48 631.431   4
 -21   4   2 543.081 673.974   2
 -17  -4   2-430.019 644.084   2
  17 -21   5 2791.99 828.967   1
   4  17   5 1966.94 716.130   3
  -4  21   5 3465.11 805.826   3
 -21   4   5 1506.79 663.248   3
  17 -21   5 1137.95 310.666   2
  21 -17   5 2165.38 782.279   1
 -17  -4   5 2850.53 500.588   3
 -21   4   5 2451.32 846.636   4
 -17  -4   5 2000.61 700.371   4
 -21   4   5 1764.32 840.950   2
 -17  -4   5 1908.05 920.017   2
   4  17   8-689.072 875.878   3
  17 -21   8 1361.92 861.679   1
  -4  21   8 1000.52 905.098   3
 -21   4   8 961.761 707.117   3
  21 -17   8 1661.15 861.571   1
 -21   4   8 1880.46 823.933   4
 -17  -4   8 837.940 709.042   4
 -17  -4   8 978.551 973.947   2
 -21   4   8-212.343 871.768   2
 -16  -5  -8 1133.75 638.291   2
 -16  -5  -8 847.670 581.072   4
 -16  -5  -5-147.130 519.665   2
 -21   5  -5-215.140 215.399   2
  21 -16  -5-255.565 338.171   1
  16 -21  -5-445.636 269.303   1
 -21   5  -5 473.248 507.205   4
 -16  -5  -5-373.242 522.353   4
 -21   5  -2 1810.10 523.767   2
  21 -16  -2 1975.88 560.225   1
 -16  -5  -2 1581.53 569.166   2
  16 -21  -2 1814.05 514.393   1
  -5  21  -2 2126.22 470.251   3
 -21   5  -2 1992.06 661.641   4
 -16  -5  -2 2092.35 599.510   4
  16 -21   1 232.205 487.139   1
   5  16   1 503.272 322.202   3
  -5  21   1-52.8748 426.855   3
  16 -21   1 57.6057 372.384   2
 -21   5   1 460.764 477.545   3
 -21   5   1 643.055 554.719   4
  21 -16   1 591.693 578.992   1
 -21   5   1 826.972 633.216   2
 -16  -5   1 539.983 501.948   4
 -16  -5   1 1237.47 636.788   2
   5  16   4 4091.49 787.686   3
  16 -21   4 2596.25 742.636   1
  16 -21   4 2522.76 485.000   2
  -5  21   4 2678.31 665.607   3
 -16  -5   4 2164.86 387.638   3
 -21   5   4 3435.11 758.084   3
  21 -16   4 2505.64 779.822   1
 -21   5   4 2826.29 727.834   4
 -16  -5   4 3469.81 804.035   4
 -21   5   4 2628.26 958.546   2
 -16  -5   4 4338.77 1017.03   2
  16 -21   7 375.492 685.021   1
   5  16   7-613.067 779.039   3
  -5  21   7 125.105 692.256   3
 -21   5   7 822.778 625.547   3
 -16  -5   7-210.463 410.627   3
 -21   5   7 249.128 705.613   4
  21 -16   7 1159.55 759.642   1
 -21   5   7-1170.66 936.838   2
 -16  -5   7 177.625 576.976   4
 -16  -5   7 340.443 820.628   2
 -15  -6  -6 8081.83 1030.04   2
 -21   6  -6 8237.95 861.099   4
 -15  -6  -6 8705.64 999.244   4
  21 -15  -6 7907.24 563.292   1
 -21   6  -3 1659.79 426.768   2
  15 -21  -3 1928.89 465.244   1
 -15  -6  -3 1605.26 614.565   2
  21 -15  -3 1549.97 506.680   1
 -21   6  -3 2026.91 657.267   4
 -15  -6  -3 3172.98 751.764   4
 -15  -6   0 2385.53 699.216   2
  15 -21   0 1771.87 551.239   1
   6  15   0 1105.09 226.527   3
  -6  21   0 2359.52 530.049   3
  15 -21   0 1819.64 556.281   2
 -21   6   0 1423.21 606.481   3
 -21   6   0 1798.25 643.836   4
 -15  -6   0 2099.38 689.042   4
 -21   6   0 1961.59 601.745   2
  21 -15   0 1571.30 555.857   1
  15 -21   3 923.629 571.864   1
   6  15   3 745.862 466.857   3
  -6  21   3 5.30759 488.903   3
  15 -21   3 331.155 366.223   2
 -21   6   3 217.163 501.059   3
 -21   6   3 1448.81 709.730   4
  21 -15   3 446.535 593.463   1
 -21   6   3 1287.53 769.162   2
 -15  -6   3-175.637 518.542   4
 -15  -6   3 2144.08 884.708   2
  15 -21   6 299.593 602.469   1
   6  15   6 1911.65 792.181   3
  -6  21   6-100.844 616.692   3
  15 -21   6 498.498 347.954   2
 -21   6   6 362.720 548.922   3
 -15  -6   6 206.559 323.225   3
  21 -15   6 1015.92 766.414   1
 -21   6   6-123.161 621.984   4
 -21   6   6-1768.45 896.118   2
 -15  -6   6 1068.51 575.999   4
 -15  -6   6-77.3585 742.680   2
 -14  -7  -7 374.792 575.709   2
 -21   7  -7 762.665 436.373   4
 -14  -7  -7 1384.10 616.444   4
  21 -14  -4 1206.48 431.567   1
  14 -21  -4 895.339 379.517   1
 -14  -7  -4 776.886 581.768   2
 -21   7  -4 683.098 211.163   2
 -21   7  -4 659.696 527.771   4
 -14  -7  -4 1111.72 576.155   4
  14 -21  -1 1028.04 491.100   1
 -21   7  -1 574.493 432.193   2
  21 -14  -1 148.368 445.382   1
 -14  -7  -1 622.704 592.841   2
  -7  21  -1 1604.85 477.254   3
  14 -21  -1 1384.17 510.553   2
 -21   7  -1 1791.01 582.450   4
 -14  -7  -1 626.731 550.823   4
   7  14   2 3156.62 552.713   3
  21 -14   2 3791.45 855.651   1
  14 -21   2 2675.92 589.980   2
  -7  21   2 2532.18 626.037   3
 -21   7   2 2534.26 647.066   3
 -21   7   2 3274.03 787.094   4
 -21   7   2 2872.33 810.935   2
 -14  -7   2 3615.55 783.235   4
 -14  -7   2 2453.90 873.989   2
  14 -21   2 3403.56 743.155   1
  14 -21   5 1891.34 783.919   1
   7  14   5 2493.54 721.965   3
   7  14   5 1665.29 568.644   1
  -7  21   5 2771.60 798.471   3
  14 -21   5 1153.08 444.556   2
 -21   7   5 587.137 617.447   3
 -14  -7   5 1093.01 233.357   3
 -21   7   5 2255.09 746.190   4
 -21   7   5 2143.10 863.677   2
  21 -14   5 80.7335 590.348   1
 -14  -7   5 2870.88 749.184   4
 -14  -7   5 1512.50 735.204   2
   7  14   8 1917.97 662.234   1
  14 -21   8 3233.79 960.221   1
   7  14   8 3035.82 1069.57   3
  -7  21   8 4157.60 1054.84   3
 -21   7   8 2418.35 857.471   3
 -21   7   8 2033.64 834.271   4
 -21   7   8 3627.69 1150.41   2
  21 -14   8 3493.34 972.694   1
 -14  -7   8 3114.93 890.528   4
 -14  -7   8 1395.53 856.778   2
 -13  -8  -8 2327.23 821.739   2
 -13  -8  -8 1255.45 634.010   4
  21 -13  -5 428.617 395.167   1
  13 -21  -5 705.466 279.012   1
 -13  -8  -5-366.477 501.319   2
 -21   8  -5 551.661 449.967   4
 -13  -8  -5-153.826 447.011   4
  13 -21  -2 9838.04 1086.95   2
  -8  21  -2 8779.09 825.954   3
  21 -13  -2 7993.78 843.835   1
 -21   8  -2 9559.54 1052.66   4
  13 -21  -2 7567.96 797.793   1
 -13  -8  -2 9485.32 1078.51   4
 -21   8  -2 9430.70 740.472   2
 -13  -8  -2 7482.70 953.321   2
 -13  -8   1 1490.26 615.579   2
  13 -21   1 1746.81 582.215   4
   8  13   1 1875.47 383.438   3
  -8  21   1 2294.75 531.468   3
  13 -21   1 2762.78 597.975   2
 -21   8   1 2384.21 641.921   3
 -21   8   1 3209.72 684.187   4
 -21   8   1 3608.46 781.558   2
 -13  -8   1 992.715 569.710   4
  21 -13   1 2736.36 705.092   1
  13 -21   1 1561.03 560.554   1
  13 -21   4 3535.88 612.973   2
   8  13   4 3653.32 752.464   3
   8  13   4 3569.27 758.245   1
  -8  21   4 2895.46 729.071   3
 -21   8   4 2993.37 717.960   3
 -21   8   4 4514.79 905.060   4
 -13  -8   4 5927.39 936.532   4
 -21   8   4 3053.18 909.436   2
  21 -13   4 3008.76 821.571   1
 -13  -8   4 2553.82 883.695   2
  13 -21   4 3467.05 865.421   1
  13 -21   7-84.9153 651.864   1
   8  13   7 1806.16 826.242   3
  13 -21   7 2098.30 540.353   2
  -8  21   7 476.552 655.096   3
   8  13   7-17.6282 493.696   1
 -21   8   7-333.882 599.342   3
 -21   8   7 686.313 652.474   4
 -21   8   7-109.804 913.211   2
 -13  -8   7-22.2635 556.427   4
  21 -13   7 300.798 671.029   1
 -13  -8   7 937.014 776.558   2
 -12  -9  -6 1176.10 588.612   2
 -12  -9  -6 1474.04 633.654   4
 -21   9  -6 932.058 427.709   4
  12 -21  -3 3456.82 765.875   4
 -12  -9  -3 3701.63 717.249   2
  12 -21  -3 4589.22 864.955   2
 -21   9  -3 3769.80 716.649   4
  21 -12  -3 3570.44 628.630   1
 -12  -9  -3 3070.36 690.977   4
 -21   9  -3 2817.65 343.380   2
  12 -21  -3 2463.52 535.314   1
  12 -21   0 3253.77 672.317   4
   9  12   0 2534.41 309.475   3
  21 -12   0 3582.81 720.668   1
  -9  21   0 4489.72 686.325   3
 -12  -9   0 3928.28 801.126   4
   9  12   0 2608.17 292.893   3
  12 -21   0 2538.48 615.785   2
 -21   9   0 2014.15 584.969   3
 -21   9   0 4281.00 837.788   4
 -21   9   0 4088.96 742.136   2
  12 -21   0 5518.66 809.346   1
 -12  -9   0 3708.76 790.725   2
   9  12   3 5111.32 736.087   3
   9  12   3 3466.58 699.502   1
  -9  21   3 2131.00 590.247   3
  12 -21   3 2411.51 553.615   2
 -21   9   3 2938.49 713.392   3
 -21   9   3 4666.91 967.154   2
 -12  -9   3 3364.58 805.314   4
  21 -12   3 2998.39 794.090   1
  12 -21   3 3223.16 790.149   1
  12 -21   3 3185.62 613.237   4
 -12  -9   3 2673.87 771.209   2
   9  12   6 2089.99 611.789   1
   9  12   6 3046.37 826.365   3
  12 -21   6 1174.33 501.770   2
  -9  21   6 2198.79 783.880   3
 -21   9   6 2536.78 732.448   3
 -12  -9   6 1918.43 738.973   4
  21 -12   6 4046.63 912.463   1
 -12  -9   6 1070.46 821.687   2
  12 -21   6 3015.45 860.734   1
 -11 -10  -7 718.786 673.872   2
 -21  10  -7 788.106 385.346   4
 -11 -10  -7 1408.69 671.960   4
  11 -21  -4 3152.01 756.881   4
  11 -21  -4 2297.01 458.057   1
  21 -11  -4 4466.71 601.585   1
 -11 -10  -4 3456.80 763.413   2
  11 -21  -4 3492.58 790.175   2
 -21  10  -4 4462.20 722.372   4
  11 -21  -4 3756.27 550.389   1
 -11 -10  -4 3816.62 779.952   4
  21 -11  -1 2700.21 621.388   1
  11 -21  -1 2431.12 672.338   2
 -10  21  -1 3055.42 641.315   3
 -21  10  -1 2218.49 664.524   3
  11 -21  -1 3571.55 668.659   1
 -21  10  -1 3416.95 701.770   4
 -21  10  -1 2449.24 527.246   2
 -11 -10  -1 3085.66 683.375   4
 -11 -10  -1 3884.99 791.617   2
  11 -21  -1 2367.96 647.701   4
  10  11   2 6171.82 719.605   3
  11 -21   2 6242.93 767.831   2
  10  11   2 6833.69 892.158   1
 -10  21   2 6552.52 864.031   3
  21 -11   2 9120.57 1046.65   1
 -21  10   2 5862.63 839.626   3
  11 -21   2 7839.81 1028.33   1
 -11 -10   2 7187.93 981.043   4
 -11 -10   2 7346.22 1066.55   2
  11 -21   2 8299.71 898.016   4
  10  11   5 771.710 633.311   3
  11 -21   5 862.275 475.079   2
 -10  21   5 185.957 564.244   3
 -21  10   5-287.053 546.056   3
 -11 -10   5-202.750 565.736   4
  10  11   5 1962.01 634.793   1
  21 -11   5 1007.80 722.948   1
 -11 -10   5-971.827 750.165   2
  11 -21   5 1234.78 723.526   1
  11 -21   5 773.098 429.329   4
  10  11   8 2687.94 1047.22   3
  11 -21   8 2839.78 629.782   2
 -10  21   8 3863.48 1141.87   3
 -21  10   8 2913.75 847.107   3
  10  11   8 3032.02 735.230   1
  11 -21   8 5371.88 1178.00   1
 -11 -10   8 3409.76 864.793   4
 -11 -10   8 1885.83 1031.06   2
  21 -11   8 4707.28 1119.67   1
 -10 -11  -8 3816.39 918.384   2
 -10 -11  -8 3357.28 765.245   4
  10 -21  -5 156.430 534.252   4
 -10 -11  -5 1856.70 691.612   2
  10 -21  -5-79.6666 543.697   2
  21 -10  -5 1158.71 391.190   1
 -21  11  -5 686.948 434.313   4
  10 -21  -5 425.475 331.195   1
  10 -21  -5 667.444 340.343   1
 -10 -11  -5 737.881 496.743   4
  10 -21  -2 6871.64 932.386   2
 -21  11  -2 5793.58 485.287   2
 -11  21  -2 6134.73 841.894   3
 -21  11  -2 8223.35 951.314   4
  10 -21  -2 6857.66 829.091   1
 -21  11  -2 7912.66 623.713   2
 -10 -11  -2 7898.74 997.138   4
  21 -10  -2 6517.93 797.198   1
  10 -21  -2 9115.17 1064.89   4
 -10 -11  -2 8543.48 1029.27   2
  11  10   1 3277.14 501.313   3
 -10 -11   1 2044.45 675.938   2
  21 -10   1 3468.26 746.477   1
  10 -21   1 2987.60 623.180   2
  11  10   1 2524.17 417.960   3
 -11  21   1 2568.29 597.952   3
 -21  11   1 2243.63 667.427   3
  11  10   1 2394.51 626.192   1
  10 -21   1 2564.97 687.966   1
 -10 -11   1 2951.83 729.370   4
  10 -21   1 3117.84 652.955   4
  11  10   4 2070.98 667.352   3
 -11  21   4 5425.11 893.931   3
  10 -21   4 3631.89 642.241   2
  21 -10   4 4568.69 926.456   1
 -21  11   4 3760.94 809.810   3
  11  10   4 4615.53 824.339   1
  10 -21   4 4977.82 981.838   1
 -10 -11   4 3368.72 764.016   4
  10 -21   4 4924.92 709.182   4
 -10 -11   4 4173.37 946.133   2
  10 -21   7 1098.39 429.529   4
  11  10   7 2198.50 902.859   3
  10 -21   7 103.604 489.878   2
  11  10   7 1919.37 645.292   1
 -11  21   7 447.334 710.682   3
 -21  11   7 640.368 683.546   3
 -10 -11   7 1423.48 710.289   4
 -10 -11   7 535.922 822.740   2
  21 -10   7 1677.38 786.292   1
  10 -21   7 2222.17 814.588   1
   9 -21  -6 631.332 621.680   4
  -9 -12  -6 1446.04 689.197   2
 -21  12  -6 1197.30 454.070   4
   9 -21  -6 1302.77 341.689   1
  -9 -12  -6 1646.85 604.201   4
  21  -9  -3 3128.15 605.781   1
  -9 -12  -3 2373.86 682.963   2
   9 -21  -3 2712.12 733.025   2
 -21  12  -3 3683.08 709.133   4
  -9 -12  -3 2586.47 685.611   4
   9 -21  -3 3384.14 751.126   4
  12   9   0 2493.78 403.059   3
  -9 -12   0 4196.44 794.199   2
  12   9   0 2977.83 689.648   1
  12   9   0 2508.80 370.793   3
   9 -21   0 2881.76 640.863   2
  21  -9   0 3027.03 688.963   1
 -12  21   0 2339.25 615.685   3
 -21  12   0 3640.71 687.802   3
 -21  12   0 4275.74 747.310   2
  -9 -12   0 2927.58 714.565   4
   9 -21   0 2745.79 663.663   4
  12   9   3 2980.21 656.403   3
  21  -9   3 3981.55 854.933   1
 -12  21   3 1766.71 652.756   3
 -21  12   3 2869.84 699.293   3
   9 -21   3 5195.09 945.722   1
  12   9   3 3949.69 744.599   1
  -9 -12   3 4860.55 904.356   4
   9 -21   3 3801.71 687.258   4
  -9 -12   3 4509.26 944.431   2
   9 -21   3 4707.16 738.029   2
  21  -9   6 2326.09 762.639   1
  12   9   6 2152.42 803.030   3
  12   9   6 2831.65 729.251   1
   9 -21   6 2364.63 651.965   2
 -12  21   6 4061.55 914.713   3
 -21  12   6 2492.73 789.434   3
  -9 -12   6 4287.28 831.750   4
   9 -21   6 3206.40 920.554   1
  -9 -12   6 2346.11 934.233   2
   9 -21   6 1632.91 516.428   4
  -8 -13  -7 294.434 668.170   2
  -8 -13  -7 127.494 567.064   4
  -8 -13  -4 3576.76 773.700   2
  21  -8  -4 3937.71 650.020   1
   8 -21  -4 2648.97 533.669   1
   8 -21  -4 3275.13 759.919   2
 -21  13  -4 3752.65 673.340   4
  -8 -13  -4 3199.34 706.819   4
   8 -21  -4 4672.82 897.082   4
  -8 -13  -1 1909.37 611.162   2
  13   8  -1 1045.26 270.042   3
   8 -21  -1 2271.60 634.163   2
 -13  21  -1 2055.06 615.166   3
 -21  13  -1 1718.11 423.234   2
  13   8  -1 2014.29 608.666   1
 -21  13  -1 1327.95 684.653   3
 -21  13  -1 1893.53 506.361   2
  -8 -13  -1 2071.09 650.713   4
  21  -8  -1 1092.57 522.927   1
   8 -21  -1 2243.94 655.660   4
   8 -21   2 8355.67 949.314   2
 -13  21   2 9058.75 1030.38   3
 -21  13   2 8107.42 1012.66   3
  13   8   2 6840.53 715.232   3
  21  -8   2 9854.30 1097.80   1
  13   8   2 8710.72 996.022   1
  -8 -13   2 9461.26 1055.15   4
  -8 -13   2 7081.08 1032.71   2
   8 -21   2 9580.01 974.174   4
  13   8   5 316.646 483.224   1
  13   8   5 175.714 571.979   3
  21  -8   5-1476.92 715.490   1
   8 -21   5-250.807 487.682   2
 -13  21   5 163.331 574.368   3
 -21  13   5-740.653 676.156   3
  -8 -13   5 252.370 551.392   4
   8 -21   5 356.261 679.587   1
  -8 -13   5-490.618 757.331   2
   8 -21   5 303.635 441.457   4
   8 -21   8 3191.21 812.668   2
  13   8   8 1602.29 931.352   3
  21  -8   8 1783.78 789.182   1
 -13  21   8 5214.78 1156.81   3
 -21  13   8 1466.97 826.546   3
  -8 -13   8 1069.32 676.343   4
  13   8   8 2406.86 756.815   1
  -8 -13   8 3448.32 1097.10   2
   8 -21   8 2574.42 883.029   1
  -7 -14  -8 2584.19 914.377   2
  -7 -14  -8 2748.88 788.858   4
  -7 -14  -5 1041.69 704.744   2
   7 -21  -5 2188.40 759.222   2
 -21  14  -5 1684.05 562.898   4
  21  -7  -5 1135.05 518.622   1
  -7 -14  -5 1336.74 625.317   4
   7 -21  -5 1914.25 649.935   4
 -21  14  -2 2350.22 353.501   2
  -7 -14  -2 2486.24 696.811   2
  14   7  -2 1512.85 289.746   3
  21  -7  -2 2012.26 572.442   1
   7 -21  -2 2253.64 670.716   2
 -14  21  -2 2837.72 589.610   3
 -21  14  -2 3761.87 482.657   2
  -7 -14  -2 2613.53 707.112   4
   7 -21  -2 3369.12 699.248   4
  -7 -14   1 320.709 563.090   2
   7 -21   1 1096.83 489.188   3
   7 -21   1 382.753 505.485   2
 -14  21   1 1120.02 610.852   3
 -21  14   1 1222.57 635.386   3
  14   7   1 1564.49 442.562   3
  21  -7   1 1979.10 659.029   1
  -7 -14   1 1262.31 637.358   4
  14   7   1 1076.32 532.702   1
   7 -21   1 1349.03 549.690   4
  14   7   4 1469.67 610.486   1
 -21  14   4 198.005 445.969   1
   7 -21   4 1902.14 606.219   2
  21  -7   4-798.797 653.251   1
   7 -21   4 605.203 454.010   3
 -14  21   4 1764.93 694.836   3
 -21  14   4 440.402 537.588   3
   7 -21   4 430.713 614.541   1
  -7 -14   4 1017.72 544.494   4
   7 -21   4 942.789 464.317   4
  -7 -14   4 867.321 686.115   2
  14   7   7 726.643 800.972   3
   7 -21   7 1484.34 656.712   2
  21  -7   7-1063.54 737.764   1
 -14  21   7 2910.50 931.290   3
 -21  14   7 1570.33 894.143   3
  14   7   7 854.874 632.087   1
  -7 -14   7 1542.61 672.736   4
   7 -21   7 1302.73 823.195   1
  -7 -14   7 1351.16 859.484   2
   7 -21   7 822.354 468.320   4
  -6 -15  -6 792.551 654.940   2
   6 -21  -6 715.457 732.882   2
 -21  15  -6 688.332 434.527   4
  -6 -15  -6 1247.02 650.637   4
   6 -21  -6 308.682 606.973   4
  21  -6  -3 314.176 434.283   1
  15   6  -3 781.690 277.726   3
  -6 -15  -3 427.750 650.987   2
   6 -21  -3 605.294 604.039   2
  -6 -15  -3 877.563 551.850   4
 -15  21  -3-251.160 528.243   2
   6 -21  -3 429.268 515.532   4
  15   6   0 2471.23 644.685   1
  -6 -15   0 806.612 587.872   2
   6 -21   0 1248.16 569.442   2
  15   6   0 996.517 359.598   3
 -21  15   0 1219.03 445.375   2
 -15  21   0 1034.91 486.755   3
 -21  15   0 1466.81 637.661   3
  -6 -15   0 1503.67 599.520   4
  21  -6   0 998.600 531.299   1
   6 -21   0 1727.25 553.903   4
  -6 -15   3 3742.88 891.279   2
  15   6   3 2534.09 679.915   1
   6 -21   3 2784.18 670.224   2
   6 -21   3 1019.48 456.283   3
 -15  21   3 2140.68 728.138   3
  21  -6   3 1598.62 714.497   1
 -21  15   3 1837.96 655.631   3
  -6 -15   3 1841.68 674.988   4
   6 -21   3 2614.32 622.106   4
  15   6   6 8370.30 1253.25   3
  15   6   6 12455.9 1261.17   1
 -15  21   6 10773.3 1306.48   3
 -21  15   6 8341.82 1197.14   3
  21  -6   6 10694.4 1321.30   1
   6 -21   6 9908.24 1366.12   1
  -6 -15   6 8698.23 1079.54   4
  -6 -15   6 8583.35 1329.91   2
   6 -21   6 7705.83 830.182   4
   6 -21   6 8424.56 1067.53   2
  -5 -16  -7 748.328 727.445   2
   5 -21  -7 412.693 670.988   2
  -5 -16  -7 1052.38 660.017   4
   5 -21  -7-259.695 594.647   4
  16   5  -4 1680.16 409.777   3
  -5 -16  -4 2450.66 812.678   2
   5 -21  -4 933.360 625.603   2
 -16  21  -4 1057.14 511.062   2
  -5 -16  -4 2247.65 739.230   4
  21  -5  -4 1052.20 503.597   1
  -5 -16  -1-87.2288 532.730   2
   5 -21  -1 282.941 498.643   2
  16   5  -1 495.045 342.908   3
 -21  16  -1-104.039 323.796   2
  21  -5  -1 1100.64 548.394   1
  16   5  -1 756.274 496.380   1
 -16  21  -1-63.6432 508.795   3
 -21  16  -1 109.972 557.924   3
  -5 -16  -1 846.974 572.786   4
   5 -21  -1 609.015 516.549   4
  -5 -16   2 2173.67 763.538   2
  16   5   2 2488.93 697.557   1
   5 -21   2 1653.66 611.659   2
   5 -21   2 1534.49 474.116   3
 -16  21   2 2283.73 645.504   3
 -21  16   2 1825.51 624.013   3
  21  -5   2 2671.99 687.973   1
  -5 -16   2 2781.46 721.896   4
   5 -21   2 2736.76 672.265   4
  -5 -16   5 44.1488 680.204   2
   5 -21   5 1030.01 628.013   2
 -16  21   5 1680.11 707.674   3
 -21  16   5 1140.38 626.694   3
  21  -5   5-316.145 622.190   1
  16   5   5 21.4597 517.484   1
  -5 -16   5 143.800 504.802   4
   5 -21   5-30.8428 447.177   4
   5 -21   8 2029.27 868.600   2
  16   5   8 1221.96 818.099   3
 -16  21   8 2414.03 944.073   3
  21  -5   8 271.586 678.229   1
 -21  16   8 1943.52 880.035   3
  16   5   8 3004.87 782.275   1
  -5 -16   8 2290.03 766.379   4
   5 -21   8 1910.79 897.022   1
  -5 -16   8 848.660 859.373   2
   4 -21  -8 819.244 688.552   4
  -4 -17  -8 289.849 794.480   2
  -4 -17  -8-318.004 662.710   4
  21  -4  -5 1485.19 540.454   1
  -4 -17  -5 2319.58 772.319   2
   4 -21  -5 1566.44 700.613   2
  -4 -17  -5 2410.16 690.430   4
   4 -21  -5 2317.12 785.475   4
 -17  21  -2 1017.69 524.574   2
  17   4  -2 973.852 571.987   1
 -21  17  -2 1420.99 380.057   2
  -4 -17  -2 791.236 598.686   2
  17   4  -2 448.028 420.500   3
   4 -21  -2 1586.14 657.379   2
 -17  21  -2 2359.90 704.805   3
 -21  17  -2 1293.86 637.222   3
  -4 -17  -2 3165.10 784.694   4
  21  -4  -2 1328.76 514.362   1
   4 -21  -2 1827.94 626.447   4
  21  -4   1 1632.43 658.394   1
  -4 -17   1 1042.62 659.692   2
   4 -21   1 1532.87 494.103   3
  17   4   1 1042.67 559.332   1
   4 -21   1 1539.03 614.351   2
 -17  21   1 277.541 528.187   3
 -21  17   1 1249.15 633.588   3
  -4 -17   1 1046.96 582.878   4
   4 -21   1 1692.07 600.736   4
  -4 -17   4 2232.17 844.252   2
   4 -21   4 1257.20 662.659   2
 -17  21   4 618.066 604.873   3
 -21  17   4 562.442 566.214   3
  17   4   4 2376.77 703.053   1
  21  -4   4 583.199 583.503   1
  -4 -17   4 55.9997 502.937   4
   4 -21   4 783.285 532.319   4
   4 -21   7 228.486 645.811   2
 -17  21   7 112.861 666.086   3
 -21  17   7 1477.71 874.490   3
  17   4   7 1893.41 714.888   1
  21  -4   7 179.005 719.238   1
   4 -21   7 699.526 824.393   1
  -4 -17   7-525.031 588.688   4
   4 -21   7 938.186 601.948   4
  -4 -17   7 530.669 760.773   2
   3 -21  -6 5812.06 1067.82   2
  -3 -18  -6 4802.54 979.406   2
 -21  18  -6 4927.01 656.982   4
  -3 -18  -6 5144.58 979.532   4
   3 -21  -6 5620.41 979.285   4
  18   3  -3 700.954 561.791   1
  18   3  -3 752.451 456.021   3
  -3 -18  -3 935.431 571.563   2
   3 -21  -3 152.883 577.845   2
  21  -3  -3 913.676 490.959   1
  -3 -18  -3-533.118 564.199   4
 -18  21  -3-317.104 444.300   2
   3 -21  -3 616.160 569.022   4
 -21  18  -3 309.086 207.553   2
   3 -21   0 9595.94 1083.43   2
  21  -3   0 9881.24 1063.35   1
   3 -21   0 8458.77 811.290   3
 -18  21   0 11143.6 1150.98   3
 -21  18   0 10020.7 1110.11   3
  18   3   0 11698.8 1134.24   1
  -3 -18   0 10888.9 1156.10   4
   3 -21   0 11043.3 1158.69   4
  -3 -18   0 11992.6 1284.69   2
  -3 -18   3-298.724 589.638   2
   3 -21   3 929.918 623.411   2
   3 -21   3 348.657 331.783   3
 -18  21   3 581.672 586.749   3
 -21  18   3 1157.52 587.133   3
  18   3   3 831.854 538.711   1
  21  -3   3 53.4207 552.171   1
  -3 -18   3-1029.19 590.947   4
   3 -21   3 398.253 473.790   4
 -18  21   6 5884.90 1103.14   3
 -21  18   6 6712.27 1144.24   3
  18   3   6 4530.29 938.353   1
  21  -3   6 5992.32 1031.47   1
  -3 -18   6 5909.29 894.641   4
  -3 -18   6 5239.30 1153.19   2
   3 -21   6 5543.83 827.178   4
   3 -21   6 4866.36 1032.20   2
  -2 -19  -7 1820.08 896.336   2
   2 -21  -7 809.533 713.779   2
  -2 -19  -7 42.7721 655.524   4
   2 -21  -7 1493.40 692.683   4
  21  -2  -4-359.115 461.781   1
  -2 -19  -4 748.697 627.760   2
   2 -21  -4 51.4262 665.293   2
  -2 -19  -4 196.689 562.896   4
   2 -21  -4-524.121 547.517   4
   2 -21  -1 1696.34 559.101   3
  -2 -19  -1 1136.73 709.774   2
 -21  19  -1 807.134 418.778   2
   2 -21  -1 2159.09 694.095   2
 -19  21  -1 2514.76 707.898   3
 -21  19  -1 1222.50 643.248   3
  19   2  -1 1698.05 595.651   1
  -2 -19  -1 1095.96 585.548   4
  21  -2  -1 1853.72 572.298   1
   2 -21  -1 748.022 577.610   4
  -2 -19   2 817.302 629.892   2
   2 -21   2 1338.56 354.173   3
   2 -21   2 1385.06 624.880   2
  21  -2   2 1578.45 643.185   1
 -19  21   2 2134.89 726.124   3
 -21  19   2 2202.61 733.905   3
  19   2   2 1531.87 612.261   1
  -2 -19   2 1086.99 551.517   4
   2 -21   2 2027.22 628.109   4
  -2 -19   5 491.400 657.121   2
   2 -21   5 1345.65 694.710   2
  19   2   5 592.315 605.424   1
 -19  21   5 1304.88 737.994   3
 -21  19   5 1239.85 731.904   3
  21  -2   5 1435.78 726.773   1
  -2 -19   5 1273.42 546.688   4
   2 -21   5 365.154 498.418   4
  -2 -19   8 1930.80 915.138   2
   2 -21   8 253.989 723.195   2
  19   2   8 1858.91 761.653   1
 -19  21   8 670.213 950.082   3
 -21  19   8 1068.91 765.483   3
  21  -2   8 1121.48 856.581   1
   2 -21   8 60.3211 766.911   1
  -2 -19   8 1012.27 663.713   4
   2 -21   8 952.169 571.158   4
  -1 -20  -5 117.375 689.322   2
   1 -21  -5 1964.33 799.096   2
  -1 -20  -5 1362.32 754.115   4
   1 -21  -5 2175.21 783.123   4
 -20  21  -2 928.012 468.609   2
 -21  20  -2 1380.11 459.739   2
  -1 -20  -2 917.631 604.070   2
   1 -21  -2 760.798 661.161   2
  21  -1  -2 1237.94 506.527   1
 -20  21  -2 502.695 667.779   3
 -21  20  -2 828.093 662.193   3
  -1 -20  -2 1178.61 639.531   4
   1 -21  -2 268.255 564.188   4
  20   1  -2 739.607 511.659   1
   1 -21   1 819.768 336.782   3
  -1 -20   1 604.846 617.763   2
   1 -21   1 1604.54 603.172   2
 -20  21   1 891.040 604.575   3
 -21  20   1 1159.56 617.146   3
  21  -1   1 568.064 607.608   1
  20   1   1 648.679 544.465   1
  -1 -20   1 473.730 563.835   4
   1 -21   1 1306.79 694.917   4
  21  -1   4 1473.91 646.364   1
  -1 -20   4 1023.92 693.077   2
   1 -21   4 76.6975 610.768   2
  20   1   4 1946.48 690.369   1
 -20  21   4 787.487 686.131   3
 -21  20   4 1406.16 731.979   3
  -1 -20   4 1081.35 591.495   4
   1 -21   4 495.267 551.603   4
  -1 -20   7 579.494 723.126   2
   1 -21   7-168.536 695.055   2
  20   1   7 745.628 687.401   1
 -20  21   7-297.457 718.555   3
 -21  20   7 799.035 820.444   3
  -1 -20   7 1035.47 672.015   4
  21  -1   7 953.751 721.613   1
   1 -21   7 379.503 562.317   4
   0 -21  -6 5972.92 1106.36   2
   0 -21  -6 5806.48 1043.25   4
   0 -21  -3 44.0675 642.161   2
  21   0  -3 1201.54 613.906   1
   0 -21  -3-555.040 612.183   4
  21   0   0 9813.35 1098.95   1
 -21  21   0 9527.30 1163.67   3
   0 -21   0 10819.3 1218.38   4
   0 -21   0 10092.8 1181.85   2
   0 -21   3 270.624 594.127   2
  21   0   3 626.776 664.013   1
 -21  21   3-111.261 623.139   3
   0 -21   3-824.705 546.650   4
  21   0   6 1142.83 686.610   1
   0 -21   6 2690.08 902.661   2
 -21  21   6 234.928 725.993   3
   0 -21   6 2878.50 767.669   4
 -22   0  -7 60.6992 591.532   4
  22 -22  -4-248.333 404.265   1
 -22   0  -4 469.965 488.675   2
 -22   0  -4-1.66371 551.634   4
 -22   0  -1 558.958 624.182   2
   0  22  -1-212.014 220.100   3
  22 -22  -1 560.455 605.175   1
 -22   0  -1-253.087 610.236   4
   0  22   2 1008.16 480.189   3
  22 -22   2 1132.22 716.520   1
 -22   0   2-26.6732 613.723   4
 -22   0   2 48.4355 717.620   2
   0  22   5-177.120 630.445   3
  22 -22   5 445.238 713.464   1
 -22   0   5 117.740 474.951   3
 -22   0   5-214.220 629.355   4
 -22   0   5 1060.91 934.686   2
  21 -22  -5 1518.26 403.589   1
 -21  -1  -5 1247.98 604.405   2
 -22   1  -5 191.184 445.658   2
  22 -21  -5 874.715 405.549   1
 -22   1  -5 2072.35 691.343   4
 -21  -1  -5 1177.46 662.856   4
 -22   1  -2 514.039 533.838   2
 -21  -1  -2-31.4625 501.181   2
  21 -22  -2 1224.21 531.998   1
  22 -21  -2 20.3219 465.589   1
 -22   1  -2 629.138 611.067   4
 -21  -1  -2 1360.07 694.465   4
  21 -22   1 1740.94 660.992   1
   1  21   1 1440.00 440.680   3
  -1  22   1 2267.96 529.400   3
  22 -21   1 1020.73 609.636   1
 -22   1   1 2985.32 773.161   4
 -21  -1   1 2659.69 814.945   4
 -22   1   1 1073.31 679.015   2
 -21  -1   1 873.314 638.519   2
   1  21   4-344.325 531.775   3
  -1  22   4-203.482 509.665   3
  21 -22   4 1761.65 769.076   1
  22 -21   4 383.582 651.124   1
 -22   1   4 1333.83 552.396   3
 -21  -1   4 798.423 470.959   3
 -22   1   4 921.969 721.769   4
 -21  -1   4 1171.97 792.975   4
 -22   1   4 907.146 838.361   2
 -21  -1   4 1209.09 882.792   2
   1  21   7 1045.41 818.738   3
  -1  22   7 12.6089 803.622   3
  21 -22   7 686.703 788.876   1
  22 -21   7 2573.07 970.127   1
 -22   1   7 512.342 627.085   3
 -22   1   7 826.538 682.328   4
 -21  -1   7 2436.95 915.468   4
 -22   1   7 2152.24 1052.90   2
 -21  -1   7 1094.83 1014.39   2
 -20  -2  -6-444.899 526.470   2
 -22   2  -6 1226.69 641.041   4
 -20  -2  -6 253.527 558.614   4
  20 -22  -3 3715.29 640.262   1
 -22   2  -3 2701.43 628.227   2
 -20  -2  -3 2913.07 709.984   2
  22 -20  -3 3853.04 641.337   1
 -20  -2  -3 4283.76 922.972   4
 -22   2  -3 2856.13 764.129   4
  20 -22   0 794.500 588.547   1
   2  20   0 1146.57 296.256   3
  -2  22   0 801.347 381.790   3
  22 -20   0 927.577 604.433   1
 -20  -2   0 1401.47 640.649   4
 -22   2   0-147.195 558.067   2
 -22   2   0 1226.07 738.611   4
 -20  -2   0 1816.16 687.878   2
   2  20   3 5167.04 798.916   3
  -2  22   3 4544.99 773.578   3
 -22   2   3 2991.15 674.439   3
 -22   2   3 5977.42 986.584   4
 -20  -2   3 3504.47 853.297   4
 -22   2   3 4609.59 1112.95   2
  20 -22   3 5387.27 1005.53   1
 -20  -2   3 3492.33 1079.23   2
  22 -20   3 5399.57 1016.61   1
   2  20   6 2429.79 846.014   3
  -2  22   6 2669.41 894.793   3
  20 -22   6 2326.91 920.718   1
  22 -20   6 3462.24 1042.25   1
 -22   2   6 1912.43 661.430   3
 -20  -2   6 514.587 475.730   3
 -22   2   6 1460.60 807.664   4
 -20  -2   6 1222.04 633.013   4
 -22   2   6 2962.19 1069.81   2
 -20  -2   6 1348.00 961.418   2
 -19  -3  -7 580.332 592.377   2
 -22   3  -7-104.946 500.159   4
 -19  -3  -7 444.339 554.980   4
 -22   3  -4-644.348 428.151   2
 -19  -3  -4 1492.99 586.799   2
  22 -19  -4 105.344 391.854   1
 -22   3  -4 503.205 581.764   4
  19 -22  -4 813.646 400.668   1
 -19  -3  -4 883.099 636.297   4
 -19  -3  -1-89.2223 528.162   2
  19 -22  -1 1838.53 625.924   1
  -3  22  -1 1399.80 406.883   3
 -22   3  -1 596.763 605.409   4
  22 -19  -1 1489.96 570.590   1
 -19  -3  -1 1469.61 662.287   4
 -22   3  -1 1061.70 585.595   2
  19 -22   2 1641.50 724.415   1
   3  19   2 1600.43 432.982   3
  -3  22   2 1865.15 601.911   3
  22 -19   2-192.067 551.725   1
 -22   3   2 1067.22 556.025   3
 -22   3   2 1487.83 708.434   4
 -19  -3   2 789.824 654.914   4
 -22   3   2 1067.57 710.073   2
 -19  -3   2 1350.38 778.056   2
   3  19   5 1786.19 720.907   3
  19 -22   5 617.198 683.836   1
  -3  22   5 654.792 640.005   3
  22 -19   5 1405.78 745.501   1
 -22   3   5 402.648 550.716   3
 -19  -3   5 514.979 405.363   3
 -22   3   5-102.482 649.633   4
 -19  -3   5 615.441 596.441   4
 -22   3   5 833.086 843.379   2
 -19  -3   5 1056.61 828.235   2
 -18  -4  -8-380.777 550.877   2
 -18  -4  -8 539.379 590.685   4
  22 -18  -5 1052.21 402.276   1
 -18  -4  -5 1455.12 615.045   2
 -22   4  -5 860.359 377.285   2
 -22   4  -5 1629.72 619.269   4
  18 -22  -5 1168.15 338.388   1
 -22   4  -2 446.680 479.209   2
 -18  -4  -2 946.955 553.804   2
  18 -22  -2 995.639 526.160   1
 -22   4  -2 2586.87 660.914   4
 -18  -4  -2 1291.29 605.262   4
  22 -18  -2 1809.75 574.374   1
  18 -22   1 1610.72 652.610   1
   4  18   1 1480.56 380.948   3
  -4  22   1 815.493 466.328   3
 -22   4   1 1363.62 590.967   3
  22 -18   1 2146.42 708.971   1
 -22   4   1 1538.68 686.237   4
 -18  -4   1 1546.16 715.283   4
 -22   4   1 1204.80 660.530   2
 -18  -4   1 3474.82 858.550   2
  18 -22   4-449.532 597.638   1
   4  18   4 218.861 490.109   3
  -4  22   4-246.308 552.566   3
 -22   4   4 605.611 545.058   3
  22 -18   4-525.855 677.528   1
  18 -22   4 492.720 354.767   2
 -22   4   4 297.090 602.327   4
 -18  -4   4 207.520 639.490   4
 -22   4   4 1056.84 752.165   2
 -18  -4   4 33.0277 801.490   2
   4  18   7 450.702 800.035   3
  18 -22   7 1401.79 871.010   1
  -4  22   7-1005.92 897.227   3
 -22   4   7 1156.90 690.587   3
  22 -18   7 1160.75 923.581   1
 -22   4   7 740.285 739.727   4
 -18  -4   7 249.154 625.463   4
 -22   4   7-609.153 825.504   2
 -18  -4   7 9.32487 813.175   2
 -17  -5  -6 817.714 606.800   2
 -17  -5  -6 765.622 568.357   4
 -22   5  -6 559.615 512.147   4
 -17  -5  -3 2986.00 687.584   2
  22 -17  -3 3425.11 628.325   1
 -17  -5  -3 3559.45 816.891   4
 -22   5  -3 4253.34 766.107   4
  17 -22  -3 3265.13 584.779   1
 -22   5  -3 3166.99 548.218   2
 -17  -5   0-495.256 556.186   2
  17 -22   0 345.711 477.490   1
   5  17   0 15.7229 165.938   3
  -5  22   0 712.425 412.926   3
 -22   5   0 817.932 616.015   4
 -17  -5   0 915.821 628.287   4
  22 -17   0 1867.09 622.965   1
 -22   5   0 1127.24 617.548   2
   5  17   3 3710.36 688.162   3
  17 -22   3 1642.34 718.518   1
  -5  22   3 2876.69 694.207   3
  17 -22   3 2045.66 487.508   2
 -22   5   3 2802.88 708.577   3
  22 -17   3 4262.06 925.862   1
 -22   5   3 2452.52 770.755   4
 -17  -5   3 2660.95 727.104   4
 -22   5   3 2013.25 848.976   2
 -17  -5   3 2558.44 899.313   2
  17 -22   6 1060.65 790.275   1
   5  17   6 329.660 703.832   3
  -5  22   6 95.6776 682.938   3
 -22   5   6 665.675 650.296   3
 -17  -5   6 1536.00 446.493   3
  22 -17   6 3017.11 888.649   1
 -22   5   6 286.319 685.742   4
 -17  -5   6 1440.82 735.089   4
 -22   5   6 573.885 867.969   2
 -17  -5   6 1161.33 922.099   2
 -16  -6  -7-218.501 564.454   2
 -22   6  -7 370.524 459.435   4
 -16  -6  -7 815.411 594.060   4
 -22   6  -4 1267.37 357.658   2
 -16  -6  -4 814.717 505.012   2
  16 -22  -4 2160.19 438.785   1
 -22   6  -4 1467.96 541.255   4
 -16  -6  -4 1078.45 537.598   4
  22 -16  -4 1346.40 481.357   1
 -16  -6  -1 2696.29 737.244   2
  22 -16  -1 6290.42 857.110   1
  -6  22  -1 4820.54 642.717   3
  16 -22  -1 2725.71 670.179   2
 -22   6  -1 5051.98 840.589   4
 -16  -6  -1 4544.15 886.696   4
 -22   6  -1 3716.42 701.364   2
  16 -22  -1 4269.60 691.753   1
  16 -22   2 1377.43 620.900   1
   6  16   2 2266.97 503.226   3
  -6  22   2 2464.28 571.597   3
  16 -22   2 2547.51 570.658   2
 -22   6   2 2859.78 670.892   3
 -22   6   2 2540.55 784.524   4
  22 -16   2 2175.71 694.278   1
 -16  -6   2 2119.12 725.514   4
 -22   6   2 1420.68 746.733   2
 -16  -6   2 2207.36 814.809   2
  16 -22   5 583.095 671.880   1
   6  16   5 724.809 643.928   3
  -6  22   5 300.289 588.564   3
  16 -22   5 1041.88 426.979   2
 -22   6   5 1233.43 635.371   3
 -16  -6   5 365.547 259.201   3
  22 -16   5 1844.70 785.578   1
 -22   6   5-1025.09 689.385   4
 -22   6   5 1894.69 954.431   2
 -16  -6   5 1956.07 771.407   4
 -16  -6   5 1579.02 912.101   2
   6  16   8 29.1588 745.492   3
  16 -22   8 1188.99 817.778   1
  -6  22   8 266.431 842.654   3
 -22   6   8 849.211 691.847   3
 -22   6   8 224.107 689.786   4
  22 -16   8 205.976 773.527   1
 -22   6   8-2596.64 1094.13   2
 -16  -6   8-458.085 734.029   4
 -16  -6   8-723.485 896.643   2
 -15  -7  -8 877.263 619.983   2
 -15  -7  -8 221.218 585.882   4
 -15  -7  -5 1003.08 603.745   2
  15 -22  -5 1170.58 347.417   1
  22 -15  -5 923.763 412.014   1
 -22   7  -5 778.882 535.477   4
 -15  -7  -5 1556.32 622.200   4
  15 -22  -2 2412.56 601.138   1
 -15  -7  -2 3688.22 785.571   2
  22 -15  -2 2241.29 595.502   1
 -22   7  -2 3439.35 727.035   4
  -7  22  -2 2263.68 508.497   3
  15 -22  -2 2371.29 676.816   2
 -15  -7  -2 2335.34 732.246   4
 -22   7  -2 2101.07 463.369   2
  15 -22   1 2033.11 664.897   1
   7  15   1 2443.64 417.424   3
  -7  22   1 1999.25 595.033   3
  15 -22   1 1930.63 532.070   2
 -22   7   1 2734.52 638.916   3
 -22   7   1 1722.38 674.669   4
 -15  -7   1 1292.74 612.440   4
 -22   7   1 1602.96 697.565   2
  22 -15   1 2625.51 707.537   1
  15 -22   4-201.407 557.904   1
   7  15   4 547.730 495.113   3
  -7  22   4-288.991 516.690   3
  15 -22   4-183.147 413.751   2
 -22   7   4 678.459 569.310   3
 -22   7   4 1038.80 685.104   4
 -22   7   4 1242.32 844.070   2
  22 -15   4-412.446 603.357   1
 -15  -7   4-748.568 600.551   4
 -15  -7   4 911.173 731.795   2
  15 -22   7 3621.09 1019.55   1
   7  15   7 1908.60 909.730   3
  -7  22   7 2581.61 945.310   3
 -22   7   7 2456.15 777.659   3
   7  15   7 2543.29 661.804   1
 -22   7   7 1371.78 695.050   4
 -22   7   7 1417.38 936.831   2
  22 -15   7 1211.63 797.548   1
 -15  -7   7 1621.90 735.070   4
 -15  -7   7 1271.27 931.086   2
  22 -14  -6 132.482 313.072   1
 -14  -8  -6 1087.90 684.405   2
 -22   8  -6 884.965 495.059   4
 -14  -8  -6 154.158 544.665   4
  14 -22  -3 3511.68 855.572   2
  22 -14  -3 5518.10 761.123   1
 -22   8  -3 3700.03 740.645   4
 -14  -8  -3 4339.87 852.506   4
 -14  -8  -3 4736.34 834.630   2
 -22   8  -3 3125.50 446.387   2
  14 -22  -3 3531.95 589.191   1
  22 -14   0-260.933 489.390   1
 -14  -8   0-1158.17 595.607   2
   8  14   0 168.375 160.165   3
  -8  22   0 626.913 429.135   3
  14 -22   0 323.858 424.373   2
   8  14   0-11.6386 150.359   3
 -22   8   0-318.411 464.310   3
 -22   8   0-204.648 533.995   4
 -14  -8   0 301.397 543.590   4
 -22   8   0 382.803 519.518   2
  14 -22   0 887.916 522.349   1
   8  14   3 4285.37 676.573   3
  14 -22   3 3194.63 609.798   2
  -8  22   3 2764.70 708.917   3
 -22   8   3 3084.91 762.257   3
 -22   8   3 3599.88 906.591   2
 -14  -8   3 4416.06 828.621   4
 -22   8   3 3751.92 811.892   4
  22 -14   3 4019.47 885.880   1
 -14  -8   3 4027.65 993.101   2
  14 -22   3 2764.34 799.164   1
  14 -22   6 1138.31 737.961   1
   8  14   6 441.442 646.584   3
  -8  22   6-446.366 692.836   3
  14 -22   6 784.815 463.940   2
   8  14   6 322.695 551.013   1
 -22   8   6-67.8239 570.582   3
 -22   8   6 1098.75 750.662   4
 -22   8   6 892.201 770.214   2
  22 -14   6-1232.98 805.994   1
 -14  -8   6 1481.28 675.172   4
 -14  -8   6 460.611 825.744   2
 -13  -9  -7 274.668 647.254   2
 -22   9  -7 835.867 483.478   4
 -13  -9  -7 1525.57 645.995   4
  13 -22  -4 2662.79 497.006   1
 -13  -9  -4 2395.96 708.384   2
  22 -13  -4 2213.32 500.662   1
 -22   9  -4 2667.75 691.592   4
 -13  -9  -4 2184.59 683.838   4
  13 -22  -1 1268.16 588.977   4
 -13  -9  -1 1138.37 588.791   2
  22 -13  -1 799.745 506.198   1
  13 -22  -1 717.458 504.758   2
  -9  22  -1 1814.44 540.186   3
 -22   9  -1 1737.89 644.132   4
 -13  -9  -1 2455.35 735.623   4
 -22   9  -1 942.121 433.984   2
  13 -22  -1 996.122 507.283   1
  13 -22   2 431.908 403.733   4
   9  13   2-270.460 371.777   3
  -9  22   2-77.0435 499.656   3
  13 -22   2 521.412 387.584   2
 -22   9   2 943.261 602.144   3
 -22   9   2 354.983 609.218   4
 -22   9   2-29.7948 575.211   2
 -13  -9   2 116.662 561.743   4
  13 -22   2-625.658 542.781   1
  22 -13   2-220.332 538.825   1
 -13  -9   2 283.744 677.459   2
   9  13   5 1863.22 751.590   3
  13 -22   5 3267.40 606.617   2
  -9  22   5 3055.07 863.115   3
 -22   9   5 2003.73 694.241   3
 -22   9   5 4390.00 1045.71   2
 -13  -9   5 2302.95 732.824   4
  22 -13   5 3476.62 874.701   1
 -13  -9   5 3126.55 1021.60   2
   9  13   5 1821.07 676.312   1
  13 -22   5 2109.64 814.783   1
  13 -22   8 2837.89 1005.39   1
   9  13   8 2035.09 891.389   3
   9  13   8 1049.79 635.851   1
  -9  22   8 1660.45 848.704   3
 -22   9   8 413.536 693.686   3
 -22   9   8 3005.32 985.769   4
 -22   9   8 387.945 1094.92   2
 -13  -9   8 1262.19 720.591   4
  22 -13   8 499.902 823.638   1
 -13  -9   8 1086.43 927.213   2
 -12 -10  -8 1095.19 767.025   2
 -12 -10  -8 1666.31 677.197   4
  12 -22  -5 2313.53 407.856   1
  22 -12  -5 1727.18 474.692   1
 -12 -10  -5 992.949 658.115   2
 -22  10  -5 2187.21 566.114   4
 -12 -10  -5 2367.96 722.967   4
  12 -22  -2 2731.15 694.372   4
 -12 -10  -2 2991.46 733.081   2
  12 -22  -2 4156.86 810.271   2
 -10  22  -2 3005.57 612.913   3
 -22  10  -2 4743.89 792.175   4
  12 -22  -2 4582.94 711.698   1
  22 -12  -2 3572.58 670.728   1
 -22  10  -2 3348.73 509.838   2
 -12 -10  -2 4749.53 854.789   4
 -12 -10   1 2502.38 784.878   2
  10  12   1 2764.31 471.852   3
  22 -12   1 2136.45 689.985   1
  12 -22   1 2607.16 630.853   2
 -10  22   1 3088.26 642.232   3
 -22  10   1 2811.12 707.507   3
 -22  10   1 1788.29 669.904   2
 -12 -10   1 2115.55 699.478   4
  12 -22   1 2707.94 683.656   1
  12 -22   1 3075.09 650.080   4
  10  12   4 2006.36 658.692   3
  12 -22   4 1890.27 568.544   2
 -10  22   4 2801.31 742.450   3
 -22  10   4 2305.60 689.853   3
  10  12   4 2693.60 713.384   1
 -12 -10   4 2858.71 788.649   4
  22 -12   4 3557.67 895.431   1
  12 -22   4 3294.35 815.648   1
 -12 -10   4 2186.12 936.857   2
  12 -22   4 3513.72 645.182   4
  12 -22   7 2627.90 892.066   1
  10  12   7 4775.85 1041.54   3
  12 -22   7 1949.90 571.970   2
 -10  22   7 1119.16 746.011   3
 -22  10   7 2957.72 836.454   3
 -12 -10   7 2059.75 700.185   4
  10  12   7 2337.26 757.021   1
  22 -12   7 4633.04 1011.93   1
 -12 -10   7 3536.48 1046.63   2
  11 -22  -6 329.740 240.829   1
 -11 -11  -6-317.448 602.991   2
 -22  11  -6 313.370 387.107   4
 -11 -11  -6-345.477 528.007   4
 -22  11  -3 3250.96 260.148   2
  11 -22  -3 4885.94 881.568   2
  11 -22  -3 6027.34 751.896   1
 -22  11  -3 4041.03 740.084   4
 -11 -11  -3 5053.54 896.759   4
 -22  11  -3 2955.42 280.644   2
  22 -11  -3 5680.15 752.868   1
  11 -22  -3 5326.79 880.526   4
 -11 -11  -3 5803.90 935.730   2
 -11 -11   0 1364.97 608.563   2
  11  11   0 1737.03 324.153   3
  22 -11   0 1429.47 621.398   1
  11 -22   0 1161.15 493.019   2
 -11  22   0 2578.37 610.043   3
  11  11   0 1161.00 279.990   3
 -22  11   0 311.174 484.281   3
 -22  11   0 1464.32 565.314   2
 -11 -11   0 1194.70 592.921   4
  11 -22   0 2221.67 628.462   1
  11 -22   0 391.385 496.350   4
  11  11   3 6344.36 839.749   3
  22 -11   3 5075.10 896.914   1
  11 -22   3 6755.15 859.437   2
 -11  22   3 4680.74 818.456   3
 -22  11   3 3224.19 776.768   3
  11 -22   3 6012.25 989.632   1
 -11 -11   3 5318.63 902.824   4
  11 -22   3 4844.66 719.901   4
 -11 -11   3 4473.92 952.156   2
  11  11   3 4588.44 799.192   1
  11 -22   6 189.290 419.769   4
  11  11   6 103.419 676.920   3
  11 -22   6 58.3751 444.208   2
 -11  22   6 1535.96 799.476   3
 -22  11   6 246.003 646.483   3
  11  11   6 790.925 577.298   1
 -11 -11   6 352.551 577.622   4
 -11 -11   6-551.269 785.513   2
  11 -22   6 650.044 634.420   1
  22 -11   6-790.170 662.941   1
 -10 -12  -7 2437.00 824.106   2
 -10 -12  -7 2545.94 748.064   4
  10 -22  -4 2665.35 750.554   4
 -10 -12  -4 1488.85 700.060   2
  10 -22  -4 3502.16 851.175   2
 -22  12  -4 2907.53 722.566   4
  10 -22  -4 2271.24 538.257   1
 -10 -12  -4 1779.86 610.586   4
  22 -10  -4 1740.29 502.491   1
  12  10  -1 1184.24 186.569   3
 -10 -12  -1 2167.94 723.322   2
  12  10  -1 837.909 171.585   3
 -22  12  -1 2007.26 515.669   2
  10 -22  -1 2762.50 689.893   2
 -12  22  -1 2313.69 636.258   3
 -22  12  -1 2743.23 707.248   3
  22 -10  -1 3621.39 727.376   1
  10 -22  -1 2439.26 624.578   1
 -10 -12  -1 1445.62 620.911   4
  10 -22  -1 2039.23 648.647   4
  12  10   2 4524.03 657.254   3
  10 -22   2 3199.30 690.508   2
 -12  22   2 3137.51 705.383   3
  22 -10   2 5007.13 903.346   1
 -22  12   2 2207.41 701.223   3
  12  10   2 3499.33 714.215   1
  10 -22   2 4986.99 919.206   1
 -10 -12   2 5254.52 959.557   2
 -10 -12   2 3917.58 799.089   4
  10 -22   2 5459.83 807.800   4
  22 -10   5 1339.77 745.943   1
  12  10   5 2896.45 773.303   3
  10 -22   5 1930.17 585.822   2
 -12  22   5 618.422 589.499   3
 -22  12   5 1310.53 680.087   3
  12  10   5 1089.66 598.263   1
 -10 -12   5 1243.15 623.293   4
  10 -22   5 957.026 693.603   1
 -10 -12   5 3864.11 954.555   2
  10 -22   5 1622.69 508.236   4
  22 -10   8 850.786 795.947   1
  12  10   8 1249.49 879.241   3
  10 -22   8-455.137 575.388   2
  12  10   8 1213.96 652.156   1
 -12  22   8 397.530 784.478   3
 -22  12   8 677.745 682.112   3
 -10 -12   8 390.610 632.200   4
 -10 -12   8 1394.69 936.792   2
  10 -22   8 1690.31 880.408   1
  -9 -13  -8 1405.65 806.662   2
  -9 -13  -8 701.514 668.577   4
   9 -22  -5 1771.80 718.791   4
  22  -9  -5 1854.31 511.330   1
  -9 -13  -5 1096.36 645.916   2
   9 -22  -5 2322.09 745.807   2
 -22  13  -5 2546.54 614.791   4
   9 -22  -5 1486.21 441.821   1
  -9 -13  -5 409.517 634.788   4
  22  -9  -2 137.566 467.264   1
  -9 -13  -2 335.896 597.193   2
 -22  13  -2 1000.71 302.925   2
   9 -22  -2 41.3826 496.411   2
 -13  22  -2 618.107 458.576   3
 -22  13  -2 387.948 326.454   2
  -9 -13  -2-460.662 593.117   4
   9 -22  -2 664.277 606.028   4
  13   9   1 1231.65 422.683   3
  -9 -13   1 209.548 584.733   2
   9 -22   1 2159.73 589.220   2
  22  -9   1 268.698 537.526   1
 -13  22   1 2247.65 700.013   3
 -22  13   1 1244.77 619.243   3
  13   9   1 618.230 335.442   3
  13   9   1 1514.51 564.650   1
  -9 -13   1 1221.51 552.992   4
   9 -22   1 1339.78 552.179   4
  13   9   4 2318.39 696.749   3
  22  -9   4 1230.08 695.963   1
   9 -22   4 1392.40 608.485   2
 -13  22   4 1408.68 595.423   3
  13   9   4 1612.58 612.560   1
 -22  13   4 1109.70 612.924   3
  -9 -13   4 1392.63 612.317   4
   9 -22   4 1478.25 760.310   1
   9 -22   4 1746.99 523.925   4
  -9 -13   4 3046.12 930.019   2
  13   9   7 1214.67 679.830   1
  22  -9   7 761.982 798.470   1
  13   9   7 984.982 732.658   3
   9 -22   7 813.771 554.712   2
 -13  22   7 1846.95 885.849   3
 -22  13   7 1128.79 713.489   3
  -9 -13   7 880.401 640.496   4
   9 -22   7 1433.62 850.935   1
  -9 -13   7-367.406 729.184   2
   9 -22   7 864.704 474.387   4
   8 -22  -6 87.0556 623.656   4
  -8 -14  -6 493.312 647.853   2
   8 -22  -6 363.268 630.699   2
 -22  14  -6 206.025 385.937   4
  -8 -14  -6 1108.30 686.681   4
  -8 -14  -3 2428.99 732.951   2
   8 -22  -3 1601.65 625.087   2
  22  -8  -3 2858.14 628.930   1
  -8 -14  -3 2500.37 723.660   4
   8 -22  -3 2276.55 721.246   4
  14   8   0-45.2320 470.443   1
  -8 -14   0-392.905 548.404   2
   8 -22   0 822.545 579.966   2
  14   8   0 113.488 307.796   3
 -14  22   0-34.6844 474.176   3
 -22  14   0-130.941 384.238   2
 -22  14   0 182.442 523.993   3
  22  -8   0 918.351 561.053   1
  -8 -14   0 337.226 579.586   4
   8 -22   0-38.8475 481.749   4
  -8 -14   3 3651.28 906.372   2
   8 -22   3 3422.27 723.200   2
  22  -8   3 3189.53 799.628   1
 -14  22   3 2792.07 800.476   3
  14   8   3 3410.63 772.388   1
 -22  14   3 1597.09 631.301   3
   8 -22   3 4889.56 977.692   1
  -8 -14   3 3884.24 829.918   4
   8 -22   3 3683.99 702.362   4
  14   8   6-26.2579 548.253   1
  14   8   6-70.3615 671.362   3
   8 -22   6 813.731 599.022   2
  22  -8   6 1468.69 687.663   1
 -14  22   6 444.121 631.115   3
 -22  14   6-202.349 697.259   3
  -8 -14   6 427.605 598.664   4
   8 -22   6-34.0873 659.442   1
  -8 -14   6 1276.03 795.677   2
   8 -22   6-549.090 452.886   4
   7 -22  -7 1370.73 697.075   4
  -7 -15  -7 1645.32 792.597   2
  -7 -15  -7 1693.29 691.916   4
  15   7  -4 146.859 175.537   3
  -7 -15  -4 622.675 535.212   2
  22  -7  -4 634.499 459.154   1
   7 -22  -4 451.087 614.785   2
 -22  15  -4 421.861 478.378   4
  -7 -15  -4 404.595 590.823   4
   7 -22  -4 207.252 539.479   4
  22  -7  -1 690.618 469.557   1
  -7 -15  -1 2582.52 734.467   2
  15   7  -1 1533.29 385.432   3
   7 -22  -1 2376.53 702.124   2
 -22  15  -1 1772.14 443.145   2
 -15  22  -1 1524.95 629.556   3
 -22  15  -1 3008.15 800.340   3
  15   7  -1 1247.95 571.969   1
  -7 -15  -1 3517.46 767.503   4
   7 -22  -1 3494.60 749.668   4
  -7 -15   2 1715.99 671.405   2
   7 -22   2 2880.35 720.125   2
   7 -22   2 1128.58 520.254   3
 -15  22   2 3490.67 769.666   3
 -22  15   2 2181.96 689.472   3
  22  -7   2 3158.33 810.092   1
  15   7   2 1381.51 601.849   1
  -7 -15   2 3590.98 805.273   4
   7 -22   2 3394.80 725.148   4
  15   7   5 1403.71 717.806   3
   7 -22   5 1751.67 647.812   2
  22  -7   5 2436.09 793.697   1
 -15  22   5 1192.72 689.219   3
 -22  15   5 1644.53 699.908   3
   7 -22   5 2069.61 824.434   1
  -7 -15   5 2177.90 659.494   4
  15   7   5 1587.70 667.576   1
   7 -22   5 2322.15 655.885   4
  -7 -15   5 87.9786 721.742   2
  15   7   8 725.958 907.365   3
   7 -22   8 85.8916 625.433   2
  22  -7   8 1127.42 759.681   1
 -15  22   8-117.557 826.776   3
 -22  15   8 294.073 685.671   3
  15   7   8 1087.33 663.967   1
  -7 -15   8 459.090 636.206   4
   7 -22   8 2118.24 909.152   1
  -7 -15   8 991.851 872.788   2
   6 -22  -8 1588.16 823.829   4
  -6 -16  -8 321.549 744.298   2
  -6 -16  -8 934.338 678.075   4
  22  -6  -5 864.623 527.587   1
  -6 -16  -5 198.134 603.375   2
   6 -22  -5 689.079 616.996   2
 -22  16  -5 1728.70 569.406   4
  -6 -16  -5 1208.21 636.830   4
   6 -22  -5 1063.80 693.985   4
  16   6  -2 2534.68 673.891   1
  -6 -16  -2 3580.53 775.267   2
  16   6  -2 934.215 350.571   3
 -22  16  -2 2027.82 376.917   2
   6 -22  -2 1907.45 688.851   2
 -16  22  -2 2394.83 702.800   3
 -22  16  -2 1474.95 616.005   3
 -22  16  -2 3178.94 496.707   2
  22  -6  -2 2718.68 681.828   1
  -6 -16  -2 3744.93 841.902   4
   6 -22  -2 3674.73 821.005   4
  -6 -16   1 3941.86 880.354   2
   6 -22   1 3145.78 629.919   3
   6 -22   1 2755.65 734.287   2
  16   6   1 3412.08 573.640   3
 -22  16   1 4150.15 869.782   3
 -16  22   1 3647.13 737.621   3
  16   6   1 4507.88 816.783   1
  22  -6   1 3326.89 759.796   1
  -6 -16   1 3771.24 792.781   4
   6 -22   1 5662.96 846.393   4
  -6 -16   4 926.148 806.240   2
   6 -22   4 723.438 555.182   2
 -16  22   4 1049.13 649.755   3
  22  -6   4 1515.15 771.668   1
 -22  16   4 1736.81 684.749   3
  -6 -16   4 857.492 598.511   4
  16   6   4 1994.80 663.314   1
   6 -22   4 1621.48 555.815   4
  16   6   7 460.416 780.335   3
   6 -22   7 1248.65 675.258   2
 -16  22   7 1875.91 823.218   3
  22  -6   7 677.942 718.254   1
 -22  16   7 2640.55 923.797   3
  16   6   7-339.220 595.591   1
  -6 -16   7 2826.95 883.575   4
   6 -22   7 694.569 727.913   1
   6 -22   7 364.430 479.835   4
  -6 -16   7 1199.04 894.150   2
  -5 -17  -6 2534.40 802.413   2
   5 -22  -6 1260.31 819.566   2
 -22  17  -6 671.202 443.310   4
  -5 -17  -6 1236.19 716.108   4
   5 -22  -6 1595.95 735.945   4
  17   5  -3 1256.27 383.095   3
  22  -5  -3 3160.65 659.268   1
  -5 -17  -3 2853.20 813.568   2
   5 -22  -3 2705.14 732.324   2
  -5 -17  -3 3222.84 771.883   4
 -17  22  -3 1410.54 602.031   2
   5 -22  -3 3138.45 793.612   4
   5 -22   0-187.749 469.149   3
  -5 -17   0 1783.97 653.648   2
  22  -5   0 354.408 510.352   1
   5 -22   0 251.954 576.238   2
  17   5   0 315.135 376.173   3
 -17  22   0 450.690 485.517   3
 -22  17   0 515.932 581.849   3
  17   5   0-250.491 510.148   1
  -5 -17   0 439.616 499.747   4
   5 -22   0 217.318 514.152   4
   5 -22   3 3479.92 757.808   2
  17   5   3 5319.25 859.763   1
   5 -22   3 1713.40 526.604   3
 -17  22   3 2539.53 746.872   3
 -22  17   3 1271.62 652.150   3
  22  -5   3 5057.40 935.553   1
  -5 -17   3 4584.96 844.849   4
  -5 -17   3 4820.84 980.854   2
   5 -22   3 4269.54 786.235   4
   5 -22   6 1476.38 662.038   2
 -17  22   6 915.160 713.923   3
 -22  17   6 866.807 788.328   3
  22  -5   6 1183.72 706.496   1
  17   5   6 1167.21 694.229   1
   5 -22   6 605.800 761.297   1
  -5 -17   6 590.512 580.729   4
   5 -22   6 526.387 544.069   4
  -5 -17   6-497.254 766.162   2
  -4 -18  -7 1434.85 753.593   2
   4 -22  -7 219.367 716.464   2
  -4 -18  -7 1289.26 696.339   4
   4 -22  -7 848.909 705.444   4
  22  -4  -4 979.337 560.128   1
  -4 -18  -4 507.446 637.904   2
   4 -22  -4 640.232 665.133   2
  -4 -18  -4-317.827 505.309   4
   4 -22  -4 229.257 556.070   4
  18   4  -1 2386.37 662.906   1
  -4 -18  -1 1353.27 644.421   2
 -22  18  -1 1270.94 447.530   2
   4 -22  -1 2477.70 764.675   2
  18   4  -1 1268.15 505.301   3
 -18  22  -1 1832.92 668.519   3
 -22  18  -1 1662.34 742.478   3
  22  -4  -1 2204.31 689.784   1
  -4 -18  -1 1269.86 665.843   4
   4 -22  -1 3379.70 796.613   4
  18   4   2 2036.12 639.885   1
  -4 -18   2 1076.40 649.854   2
   4 -22   2 478.153 421.609   3
   4 -22   2 1339.33 662.603   2
 -18  22   2 1788.19 630.454   3
 -22  18   2 451.564 609.353   3
  -4 -18   2 1376.95 636.403   4
   4 -22   2 711.764 546.490   4
  22  -4   2 1409.42 626.825   1
  -4 -18   5 1320.89 775.359   2
   4 -22   5 4253.21 939.398   2
 -18  22   5 1186.33 661.273   3
 -22  18   5 1501.83 743.925   3
  18   4   5 3010.96 783.151   1
  22  -4   5 3277.45 890.119   1
  -4 -18   5 2280.15 701.440   4
   4 -22   5 2590.72 669.355   4
  18   4   8 226.236 839.253   3
   4 -22   8 1182.83 808.441   2
 -18  22   8 2206.59 987.618   3
 -22  18   8 778.901 742.189   3
  18   4   8 500.842 629.489   1
  22  -4   8-680.110 710.789   1
   4 -22   8 1098.88 940.117   1
  -4 -18   8 791.798 654.922   4
  -4 -18   8 719.125 902.707   2
  -3 -19  -5 56.1430 622.855   2
   3 -22  -5 415.360 650.794   2
  -3 -19  -5 842.823 665.463   4
   3 -22  -5 570.838 604.144   4
 -22  19  -2 335.956 358.886   2
  22  -3  -2 198.473 513.802   1
  -3 -19  -2 866.999 589.515   2
  19   3  -2 306.230 493.752   3
   3 -22  -2-204.395 556.697   2
 -19  22  -2 174.822 585.219   3
 -22  19  -2 1730.73 680.281   3
  19   3  -2 697.351 597.912   1
  -3 -19  -2 673.488 553.526   4
   3 -22  -2 604.372 588.399   4
  19   3   1 1118.36 600.250   1
   3 -22   1 554.876 399.085   3
  -3 -19   1 1260.55 642.931   2
   3 -22   1 352.579 555.395   2
  22  -3   1 776.309 596.054   1
 -19  22   1 996.417 596.505   3
 -22  19   1 346.127 556.651   3
  -3 -19   1 754.070 542.442   4
   3 -22   1 1285.81 632.062   4
  -3 -19   4 370.096 635.582   2
   3 -22   4 690.098 598.537   2
 -19  22   4 1389.77 694.473   3
 -22  19   4-94.2656 572.207   3
  19   3   4 1621.12 715.805   1
  22  -3   4 444.550 674.469   1
  -3 -19   4-406.296 527.554   4
   3 -22   4 507.344 488.265   4
  -3 -19   7 503.980 792.115   2
   3 -22   7 1376.25 782.543   2
 -19  22   7-25.0354 788.993   3
  19   3   7 415.811 691.867   1
 -22  19   7 588.154 719.315   3
  22  -3   7-151.426 747.676   1
   3 -22   7-224.626 870.369   1
  -3 -19   7 571.394 581.193   4
   3 -22   7 377.271 514.010   4
  -2 -20  -6 1062.60 668.819   2
   2 -22  -6 1445.09 792.067   2
  -2 -20  -6 3712.38 943.233   4
   2 -22  -6 1524.70 766.171   4
  -2 -20  -3 4042.08 888.352   2
   2 -22  -3 5213.90 932.175   2
  20   2  -3 2592.02 725.403   1
  22  -2  -3 5499.14 853.057   1
  -2 -20  -3 5100.14 997.314   4
   2 -22  -3 5180.79 959.772   4
   2 -22   0 718.905 453.104   3
  -2 -20   0 1318.99 734.023   2
  20   2   0 618.987 547.386   1
   2 -22   0 2552.63 724.145   2
 -20  22   0 1523.39 720.104   3
 -22  20   0-514.861 576.377   3
  22  -2   0 1620.33 625.789   1
  -2 -20   0 1186.51 605.101   4
   2 -22   0 1205.27 632.477   4
  20   2   3 4769.41 932.957   1
  -2 -20   3 3111.21 892.984   2
  22  -2   3 4199.26 876.593   1
 -20  22   3 3123.37 858.156   3
 -22  20   3 3261.88 857.589   3
  -2 -20   3 3965.95 840.630   4
   2 -22   3 3933.29 808.697   4
   2 -22   3 5043.75 941.160   2
  -2 -20   6 1786.57 819.661   2
   2 -22   6 1783.81 855.300   2
  20   2   6 1569.15 785.077   1
 -20  22   6 1560.26 797.993   3
 -22  20   6 379.336 676.665   3
  22  -2   6 2144.65 797.119   1
  -2 -20   6 2073.58 650.485   4
   2 -22   6 1616.81 598.636   4
  -1 -21  -7 1057.50 881.527   2
   1 -22  -7 3329.32 995.332   2
  -1 -21  -7 695.674 749.909   4
   1 -22  -7 2235.22 816.262   4
  22  -1  -4 1896.47 673.234   1
  -1 -21  -4 768.199 723.465   2
   1 -22  -4-65.4418 593.261   2
  -1 -21  -4 74.9970 604.083   4
   1 -22  -4 406.231 696.828   4
  22  -1  -1 1248.11 584.876   1
  -1 -21  -1 1772.31 783.418   2
   1 -22  -1 2106.57 730.994   2
 -21  22  -1 1657.40 725.173   3
  21   1  -1 1179.59 544.780   1
 -22  21  -1 2145.17 729.189   3
  -1 -21  -1 1940.95 770.799   4
   1 -22  -1 2284.14 735.118   4
  -1 -21   2 357.555 618.286   2
   1 -22   2 801.027 585.553   2
  22  -1   2 57.7181 552.672   1
 -21  22   2 1115.71 673.595   3
 -22  21   2 657.782 620.991   3
  21   1   2 72.6003 560.629   1
  -1 -21   2-685.845 568.867   4
   1 -22   2 487.097 553.769   4
  22  -1   5 1405.75 783.004   1
  -1 -21   5 1156.26 728.076   2
   1 -22   5 772.924 720.573   2
  21   1   5 2263.34 786.066   1
 -21  22   5-155.082 687.636   3
 -22  21   5 693.123 650.919   3
  -1 -21   5 2449.25 751.597   4
   1 -22   5 2571.52 738.723   4
   0 -22  -5-226.685 655.034   2
   0 -22  -5 101.808 682.363   4
   0 -22  -2 735.096 640.863   2
 -22  22  -2 1412.06 740.061   3
  22   0  -2 1565.40 667.649   1
   0 -22  -2 467.518 687.299   4
   0 -22   1 120.554 599.320   2
 -22  22   1 1015.84 652.540   3
  22   0   1 622.211 585.762   1
   0 -22   1 263.936 590.959   4
   0 -22   4-182.281 634.597   2
  22   0   4-283.964 607.617   1
 -22  22   4 472.353 668.726   3
   0 -22   4-44.6293 580.715   4
   0 -22   7-185.868 712.760   2
  22   0   7 722.057 752.156   1
 -22  22   7-901.552 811.508   3
   0 -22   7 682.756 609.915   4
 -23   0  -5 584.452 555.677   2
 -23   0  -5 459.661 602.951   4
 -23   0  -2 712.173 603.409   2
  23 -23  -2 2054.27 629.544   1
 -23   0  -2 2703.95 866.265   4
   0  23   1 566.091 431.285   3
  23 -23   1 145.634 603.360   1
 -23   0   1 1225.63 685.398   4
 -23   0   1 59.8882 679.234   2
   0  23   4 408.891 581.358   3
  23 -23   4 1901.45 860.044   1
 -23   0   4 194.913 472.684   3
 -23   0   4 542.849 703.048   4
 -23   0   4 1933.28 962.537   2
 -22  -1  -6 1606.33 631.950   2
 -23   1  -6 1069.48 699.170   4
 -22  -1  -6 1512.35 758.682   4
 -23   1  -3 2431.54 650.908   2
 -22  -1  -3 1659.47 629.274   2
 -23   1  -3 3191.93 787.465   4
  22 -23  -3 3074.83 640.724   1
 -22  -1  -3 3939.10 921.258   4
  23 -22  -3 2209.72 607.870   1
  22 -23   0 1500.14 662.320   1
   1  22   0 1456.74 356.722   3
  -1  23   0 139.063 371.120   3
  23 -22   0 1099.73 659.197   1
 -23   1   0 2744.54 821.303   4
 -22  -1   0 1425.27 747.921   4
 -23   1   0 1223.44 775.475   2
 -22  -1   0 2277.48 781.088   2
   1  22   3 2340.65 627.276   3
  -1  23   3 3267.97 721.960   3
  22 -23   3 3676.15 985.717   1
 -23   1   3 2153.30 637.368   3
 -23   1   3 3616.66 868.911   4
 -22  -1   3 3165.48 853.222   4
 -23   1   3 3272.59 1113.26   2
 -22  -1   3 4226.43 1021.66   2
  23 -22   3 5546.13 1071.75   1
   1  22   6 846.349 811.746   3
  -1  23   6 685.104 753.404   3
  22 -23   6 1451.12 932.345   1
  23 -22   6 2622.85 959.477   1
 -23   1   6 481.165 605.855   3
 -22  -1   6 430.610 567.628   3
 -23   1   6 688.731 769.971   4
 -22  -1   6 1107.26 755.768   4
 -23   1   6 1604.17 1089.89   2
 -22  -1   6 1631.67 1081.07   2
 -23   2  -7 28.4686 553.702   4
 -21  -2  -7 203.773 578.320   4
 -23   2  -4 402.169 463.609   2
 -21  -2  -4 18.1988 493.701   2
  23 -21  -4 152.570 413.539   1
 -23   2  -4 979.112 650.537   4
 -21  -2  -4 754.411 605.129   4
  21 -23  -4 385.826 418.944   1
 -21  -2  -1-522.175 565.790   2
  21 -23  -1 970.903 549.715   1
  -2  23  -1 676.388 329.060   3
  23 -21  -1-638.243 528.913   1
 -23   2  -1 1235.54 688.208   4
 -21  -2  -1 219.623 600.495   4
   2  21   2 1185.12 474.344   3
  21 -23   2 1025.14 645.321   1
  -2  23   2 903.442 466.006   3
  23 -21   2 2626.47 815.687   1
 -23   2   2 2130.12 825.801   4
 -21  -2   2 921.304 631.469   4
 -23   2   2 1494.44 841.163   2
 -21  -2   2 2053.28 885.065   2
   2  21   5 2144.22 789.433   3
  -2  23   5 1098.77 720.167   3
  21 -23   5 1383.36 886.035   1
  23 -21   5 1343.44 789.358   1
 -23   2   5 1278.41 583.945   3
 -21  -2   5 665.725 480.473   3
 -23   2   5 847.099 703.588   4
 -21  -2   5 691.892 630.317   4
 -23   2   5 2116.80 973.749   2
 -21  -2   5 1926.65 1005.95   2
 -20  -3  -5 149.994 531.848   2
 -23   3  -5 347.868 407.019   2
 -23   3  -5 1017.82 587.690   4
 -20  -3  -5 477.287 566.555   4
  23 -20  -5-262.358 371.533   1
 -23   3  -2 2418.15 631.988   2
 -20  -3  -2 2291.68 692.256   2
  23 -20  -2 5124.08 771.837   1
  20 -23  -2 3148.31 656.615   1
 -23   3  -2 2800.66 781.692   4
 -20  -3  -2 2401.25 719.469   4
  20 -23   1 274.381 523.796   1
   3  20   1 1761.11 414.901   3
  -3  23   1 1223.26 503.532   3
  23 -20   1 367.003 540.345   1
 -23   3   1 1952.04 750.125   4
 -20  -3   1 2244.14 810.567   4
 -23   3   1 1860.87 730.348   2
 -20  -3   1 582.441 725.949   2
   3  20   4 1439.20 585.895   3
  20 -23   4 2836.33 877.157   1
  -3  23   4 1594.80 669.744   3
  23 -20   4-138.346 659.199   1
 -23   3   4 1541.14 675.980   3
 -23   3   4 997.798 697.175   4
 -20  -3   4 2332.51 766.968   4
 -23   3   4 1652.82 947.966   2
 -20  -3   4 533.128 870.969   2
   3  20   7 301.405 733.889   3
  -3  23   7 1189.98 814.627   3
  20 -23   7 1317.01 876.879   1
 -23   3   7 735.613 694.400   3
  23 -20   7 923.413 860.647   1
 -23   3   7-101.671 767.289   4
 -20  -3   7 1257.00 769.590   4
 -23   3   7 2703.21 1133.63   2
 -20  -3   7 1335.35 940.714   2
 -19  -4  -6 2565.31 803.501   2
 -23   4  -6 2912.98 718.273   4
 -19  -4  -6 1850.89 731.699   4
 -19  -4  -3 4416.50 786.830   2
  23 -19  -3 5182.29 759.281   1
 -23   4  -3 6195.74 968.251   4
 -19  -4  -3 2512.11 752.578   4
 -23   4  -3 3530.23 632.890   2
  19 -23  -3 4322.30 675.884   1
 -19  -4   0 3556.78 875.292   2
  23 -19   0 5370.06 875.044   1
  19 -23   0 3406.58 749.214   1
   4  19   0 2310.26 301.416   3
  -4  23   0 3424.95 587.484   3
 -19  -4   0 4309.31 906.678   4
 -23   4   0 4026.32 839.485   4
 -23   4   0 2693.51 693.243   2
  23 -19   3 6230.44 1019.75   1
  19 -23   3 3764.14 915.666   1
  -4  23   3 4957.62 819.306   3
   4  19   3 3363.20 674.945   3
 -23   4   3 3703.87 780.254   3
 -23   4   3 4717.97 1006.56   4
 -23   4   3 6024.11 1144.85   2
 -19  -4   3 2139.52 770.448   4
 -19  -4   3 4458.27 1053.00   2
   4  19   6 969.547 853.552   3
  19 -23   6-1350.17 813.413   1
  -4  23   6 360.066 693.640   3
 -23   4   6 768.292 667.839   3
  23 -19   6 2199.31 932.169   1
 -23   4   6 1967.46 785.363   4
 -19  -4   6 1104.59 644.781   4
 -23   4   6 1254.02 1101.61   2
 -19  -4   6 33.8509 893.855   2
 -18  -5  -7 903.548 664.336   2
 -23   5  -7 717.872 554.319   4
 -18  -5  -7-227.812 598.408   4
 -23   5  -4 642.580 396.834   2
 -18  -5  -4 1401.86 684.920   2
  18 -23  -4 727.644 409.105   1
  23 -18  -4 1363.90 474.426   1
 -23   5  -4 1337.53 610.075   4
 -18  -5  -4 14.6342 528.300   4
 -18  -5  -1 2024.55 693.793   2
  18 -23  -1 3291.10 689.759   1
  -5  23  -1 1882.19 501.610   3
 -23   5  -1 1760.51 676.239   4
 -18  -5  -1 3324.52 861.980   4
  23 -18  -1 2765.00 687.016   1
 -23   5  -1 2614.74 611.014   2
  18 -23   2 1084.75 611.832   1
   5  18   2 101.656 377.045   3
  -5  23   2 1384.30 540.314   3
 -23   5   2 1179.72 596.503   3
  18 -23   2 1123.21 484.663   2
  23 -18   2 737.647 643.821   1
 -23   5   2 173.195 610.701   4
 -18  -5   2 2632.01 865.208   4
 -23   5   2 321.896 643.505   2
 -18  -5   2 462.136 769.317   2
  18 -23   5 2236.05 846.112   1
   5  18   5 2208.15 759.336   3
  -5  23   5 1892.83 752.080   3
 -23   5   5 1139.14 665.048   3
  18 -23   5 1989.41 438.774   2
 -18  -5   5 1371.58 405.125   3
  23 -18   5 2209.63 821.412   1
 -23   5   5 3201.59 922.252   4
 -18  -5   5 1957.59 783.361   4
 -23   5   5 1960.91 1020.55   2
 -18  -5   5 2926.12 1097.97   2
 -17  -6  -5 573.010 523.286   2
  23 -17  -5 1462.04 467.609   1
  17 -23  -5 1823.93 389.587   1
 -23   6  -5 1838.42 629.471   4
 -17  -6  -5 602.726 580.265   4
 -23   6  -2 1620.10 519.300   2
 -17  -6  -2 3226.55 779.846   2
  23 -17  -2 3280.04 663.976   1
  17 -23  -2 3236.75 648.808   1
  -6  23  -2 1861.46 495.686   3
 -23   6  -2 2806.48 748.196   4
 -17  -6  -2 2910.30 746.019   4
  17 -23   1 1227.16 636.915   1
   6  17   1 1716.60 385.953   3
  -6  23   1 2336.85 586.295   3
  17 -23   1 2501.85 620.749   2
 -23   6   1 2832.95 776.407   3
 -23   6   1 2086.89 774.667   4
 -17  -6   1 2179.08 716.587   4
  23 -17   1 1726.38 656.719   1
 -23   6   1 1430.47 720.453   2
 -17  -6   1 1602.62 690.426   2
  17 -23   4 2444.76 865.639   1
   6  17   4 1895.62 630.313   3
  -6  23   4 2072.49 705.146   3
  17 -23   4 1479.76 466.449   2
 -23   6   4 1458.16 687.400   3
 -23   6   4 195.129 600.469   4
  23 -17   4 531.722 733.431   1
 -23   6   4 1280.88 777.208   2
 -17  -6   4 2188.73 793.615   4
 -17  -6   4 1750.29 974.009   2
  17 -23   7 2096.76 898.104   1
   6  17   7 3085.53 1002.42   3
  -6  23   7 2190.96 900.582   3
 -23   6   7 690.098 739.647   3
 -23   6   7 1710.48 873.056   4
  23 -17   7 343.115 736.844   1
 -23   6   7-130.024 829.696   2
 -17  -6   7 3130.47 990.339   4
 -17  -6   7 876.693 912.063   2
 -16  -7  -6 3461.59 812.179   2
 -23   7  -6 3048.56 680.668   4
 -16  -7  -6 3392.43 845.446   4
  23 -16  -6 1144.08 379.960   1
 -16  -7  -3 3225.77 766.954   2
 -23   7  -3 4386.26 809.462   4
  23 -16  -3 3083.64 639.070   1
  16 -23  -3 3414.99 634.167   1
 -16  -7  -3 2487.63 727.531   4
 -23   7  -3 3050.46 493.159   2
 -16  -7   0 2555.32 804.325   2
  16 -23   0 2038.22 667.363   1
   7  16   0 714.250 184.104   3
   7  16   0 940.146 181.797   3
  -7  23   0 926.273 531.020   3
  16 -23   0 2537.30 649.222   2
 -23   7   0 1689.46 652.221   4
 -16  -7   0 1796.07 686.965   4
 -23   7   0 1942.33 613.999   2
  23 -16   0 1650.90 649.893   1
  16 -23   3 272.250 589.530   1
   7  16   3 1302.32 533.101   3
  -7  23   3 167.754 485.567   3
  16 -23   3 617.254 439.855   2
 -23   7   3 631.095 575.816   3
 -23   7   3 361.950 596.624   4
 -23   7   3 799.475 750.147   2
  23 -16   3 1446.05 735.308   1
 -16  -7   3 1505.62 720.299   4
 -16  -7   3 1744.84 819.628   2
  16 -23   6 726.432 805.037   1
   7  16   6 3381.92 934.237   3
  -7  23   6 2904.67 913.143   3
  16 -23   6 973.104 457.456   2
 -23   7   6 1871.61 743.520   3
 -23   7   6 2577.70 845.144   4
 -23   7   6 3863.38 1110.79   2
  23 -16   6 1552.13 820.289   1
 -16  -7   6 2576.03 849.029   4
 -16  -7   6 2357.32 948.882   2
 -15  -8  -7 2870.96 785.376   2
 -23   8  -7 2321.62 589.548   4
 -15  -8  -7 1995.59 717.747   4
  23 -15  -4 803.963 500.055   1
  15 -23  -4 791.323 383.151   1
 -15  -8  -4 182.612 560.009   2
 -23   8  -4 435.357 185.648   2
 -23   8  -4 342.227 500.397   4
 -15  -8  -4 1188.95 597.247   4
  15 -23  -1 2537.87 631.602   1
 -15  -8  -1 1460.79 640.205   2
  23 -15  -1 1709.58 599.339   1
  -8  23  -1 2759.86 640.430   3
  15 -23  -1 2434.50 635.830   2
 -23   8  -1 3971.43 834.290   4
 -15  -8  -1 2944.79 775.174   4
 -23   8  -1 2582.46 616.236   2
  15 -23   2-298.485 586.283   1
   8  15   2 583.719 380.949   3
  -8  23   2 83.1791 434.066   3
  15 -23   2-451.826 457.202   2
 -23   8   2-162.479 531.193   3
 -23   8   2 483.374 698.385   4
 -23   8   2-1139.13 719.497   2
 -15  -8   2 648.070 663.748   4
  23 -15   2 1038.11 655.131   1
 -15  -8   2 520.603 682.912   2
  15 -23   5 4414.24 967.511   1
   8  15   5 3705.04 837.878   3
  -8  23   5 2910.74 852.019   3
  15 -23   5 3368.30 589.919   2
 -23   8   5 3072.60 746.501   3
 -23   8   5 4302.27 979.365   4
 -15  -8   5 4568.78 952.721   4
 -23   8   5 2202.12 1070.42   2
  23 -15   5 2467.16 907.780   1
 -15  -8   5 3635.86 1117.38   2
   8  15   8 1428.62 688.226   1
  15 -23   8 737.789 866.929   1
   8  15   8 686.701 829.026   3
  -8  23   8 2045.55 909.805   3
 -23   8   8 34.8532 714.986   3
 -23   8   8 476.951 861.712   4
 -23   8   8-540.129 1003.01   2
 -15  -8   8 813.787 718.526   4
  23 -15   8-61.3690 805.991   1
 -15  -8   8 798.822 993.266   2
 -14  -9  -8 575.496 658.665   2
 -14  -9  -8 1762.02 749.050   4
  23 -14  -5 4462.76 640.629   1
 -14  -9  -5 3988.40 865.117   2
 -23   9  -5 4896.20 768.349   4
  14 -23  -5 4212.46 519.622   1
 -14  -9  -5 4086.36 824.738   4
 -14  -9  -2-502.701 523.530   2
  23 -14  -2 80.3591 463.421   1
  14 -23  -2 75.2675 505.035   2
  -9  23  -2 814.719 473.852   3
 -23   9  -2-582.451 542.458   4
 -14  -9  -2 274.426 498.339   4
 -23   9  -2 630.872 387.598   2
  14 -23  -2 689.086 490.527   1
  14 -23   1 3705.90 715.713   4
 -14  -9   1 4594.76 914.621   2
   9  14   1 3657.16 469.548   3
  14 -23   1 3475.80 669.854   2
  23 -14   1 4665.33 904.342   1
  -9  23   1 2869.21 637.622   3
 -23   9   1 3850.77 774.049   3
 -23   9   1 2989.44 819.403   4
  14 -23   1 4581.26 831.726   1
 -23   9   1 3365.71 829.313   2
 -14  -9   1 3900.24 832.864   4
   9  14   4 1192.99 594.943   1
   9  14   4 264.542 522.653   3
  -9  23   4-162.249 533.200   3
  14 -23   4 221.121 396.096   2
 -23   9   4 695.123 624.151   3
 -23   9   4 99.2947 629.760   4
 -23   9   4 100.388 702.007   2
 -14  -9   4-445.597 563.213   4
  23 -14   4 453.599 631.572   1
 -14  -9   4 559.651 770.911   2
  14 -23   4-55.0096 605.351   1
   9  14   7 1003.92 645.725   1
  14 -23   7 2207.31 889.909   1
   9  14   7 2073.13 860.318   3
  -9  23   7 3421.27 1031.44   3
 -23   9   7 2477.24 846.486   3
 -23   9   7 1538.83 889.003   4
 -23   9   7 3074.40 1089.45   2
 -14  -9   7 2700.03 820.757   4
  23 -14   7 2493.28 897.864   1
 -14  -9   7 2723.79 1034.76   2
  23 -13  -6 2488.26 555.779   1
 -13 -10  -6 2177.15 797.606   2
 -23  10  -6 3937.50 685.597   4
 -13 -10  -6 2969.31 747.338   4
 -23  10  -3 264.601 244.283   2
 -13 -10  -3 479.727 519.308   2
  13 -23  -3 344.112 519.293   2
 -23  10  -3-457.753 563.098   4
 -13 -10  -3 755.546 587.003   4
  13 -23  -3 111.655 411.007   1
  23 -13  -3-479.873 420.857   1
 -13 -10   0 4458.46 855.520   2
  10  13   0 3644.49 335.983   3
  13 -23   0 5784.28 843.219   2
  10  13   0 3829.02 337.983   3
 -23  10   0 5389.81 898.581   3
  23 -13   0 5002.79 840.574   1
 -10  23   0 4424.63 705.372   3
 -23  10   0 6575.39 972.190   4
 -23  10   0 4851.42 825.592   2
  13 -23   0 5529.85 861.863   1
 -13 -10   0 5511.86 898.162   4
  13 -23   0 5154.29 886.184   4
  13 -23   3 1487.56 587.023   4
  10  13   3 799.214 519.303   3
 -10  23   3 730.444 507.533   3
  13 -23   3 2119.59 571.902   2
  10  13   3 1325.57 605.921   1
 -23  10   3 1457.28 640.616   3
 -23  10   3 728.133 701.104   2
 -13 -10   3 1030.22 660.314   4
  13 -23   3 2301.35 794.342   1
  23 -13   3 1547.54 672.210   1
 -13 -10   3 1194.66 764.483   2
  13 -23   6 2085.63 841.528   1
  10  13   6 2431.65 809.717   3
  13 -23   6 2075.20 581.641   2
 -10  23   6 547.505 708.663   3
 -23  10   6 4310.43 936.377   3
  10  13   6 2182.09 698.773   1
 -13 -10   6 2761.50 823.885   4
  23 -13   6 2893.19 906.744   1
 -13 -10   6 2284.34 1038.92   2
 -12 -11  -7 2814.34 872.946   2
 -12 -11  -7 1348.51 685.410   4
  12 -23  -4-68.2499 594.799   4
 -12 -11  -4 363.472 582.887   2
  12 -23  -4 227.664 600.490   2
  23 -12  -4 637.459 451.671   1
 -23  11  -4 45.6175 490.727   4
 -12 -11  -4-652.501 627.414   4
  12 -23  -4 128.848 385.476   1
  12 -23  -1 5135.31 836.224   2
 -11  23  -1 5612.34 806.971   3
  23 -12  -1 6375.89 842.256   1
 -23  11  -1 5604.35 905.248   3
 -23  11  -1 8563.04 1073.33   4
  12 -23  -1 5151.09 804.451   1
 -23  11  -1 5699.87 743.877   2
 -12 -11  -1 4896.36 903.519   4
 -12 -11  -1 4496.27 861.699   2
  12 -23  -1 6548.53 947.746   4
 -12 -11   2 1518.92 768.277   2
  23 -12   2 2656.12 798.857   1
  11  12   2 1443.19 481.929   3
  12 -23   2 1577.12 505.798   2
 -11  23   2 767.958 582.264   3
  11  12   2 1745.06 637.791   1
 -23  11   2 1194.09 686.749   3
 -23  11   2 1466.96 728.837   2
 -12 -11   2 1595.43 658.293   4
  12 -23   2 1576.72 702.898   1
  12 -23   2 2325.29 630.991   4
  11  12   5 2832.43 802.846   3
  11  12   5 2964.93 733.185   1
  12 -23   5 2766.20 637.624   2
 -11  23   5 3133.83 897.231   3
 -23  11   5 2811.56 801.201   3
  12 -23   5 6008.96 1109.31   1
 -12 -11   5 5535.89 1190.33   2
 -12 -11   5 4105.35 866.275   4
  12 -23   5 5494.17 760.198   4
  23 -12   5 3238.99 897.936   1
  12 -23   8 1693.51 974.329   1
  11  12   8 1158.57 957.075   3
 -11  23   8 1289.24 916.788   3
 -23  11   8 926.534 777.645   3
 -12 -11   8 797.247 695.209   4
  11  12   8 1799.03 710.728   1
 -12 -11   8-204.717 831.002   2
  23 -12   8 272.362 740.583   1
 -11 -12  -8 434.229 691.027   2
 -11 -12  -8 528.856 672.096   4
  11 -23  -5 4294.96 1067.76   4
 -11 -12  -5 4855.04 897.413   2
  11 -23  -5 4366.03 980.378   2
  23 -11  -5 4728.08 681.965   1
 -23  12  -5 4362.90 711.661   4
  11 -23  -5 4373.55 582.208   1
 -11 -12  -5 5119.35 900.556   4
 -11 -12  -2 1613.36 644.599   2
  11 -23  -2 1612.26 660.418   2
 -23  12  -2 725.056 316.129   2
 -12  23  -2 1427.14 532.442   3
 -23  12  -2 1914.45 673.636   4
  11 -23  -2 2054.46 612.734   1
 -11 -12  -2 1099.20 615.044   4
 -23  12  -2 1827.63 413.262   2
  23 -11  -2 1814.15 576.664   1
  11 -23  -2 2096.50 695.453   4
  12  11   1 5643.85 625.701   3
 -11 -12   1 4493.02 907.902   2
  11 -23   1 6316.58 871.860   2
 -12  23   1 5560.98 848.472   3
  12  11   1 5094.01 805.940   1
 -23  12   1 4833.54 837.521   3
  12  11   1 5284.29 557.015   3
  23 -11   1 6278.42 943.738   1
 -23  12   1 5492.71 964.085   2
  11 -23   1 4928.17 874.078   1
 -11 -12   1 6559.81 975.456   4
  11 -23   1 9169.37 1061.25   4
  23 -11   4 658.956 656.044   1
  12  11   4 426.855 512.832   3
  12  11   4 705.624 600.966   1
  11 -23   4 159.502 478.792   2
 -12  23   4-690.575 678.742   3
 -23  12   4-135.300 588.375   3
 -11 -12   4 716.329 666.974   4
  11 -23   4 1806.52 773.487   1
  11 -23   4-232.817 434.015   4
  23 -11   7 3614.55 942.459   1
  12  11   7 2122.01 853.809   3
  11 -23   7 1470.92 561.805   2
 -12  23   7 2582.05 918.469   3
 -23  12   7 2675.58 853.070   3
  12  11   7 1202.98 690.416   1
 -11 -12   7 1739.76 773.781   4
 -11 -12   7 2415.21 925.140   2
  11 -23   7 1115.58 730.094   1
  10 -23  -6 1889.87 789.678   4
 -10 -13  -6 1725.15 751.038   2
 -23  13  -6 1624.65 549.451   4
  10 -23  -6 1001.97 355.560   1
 -10 -13  -6 2240.70 678.552   4
 -10 -13  -3 543.162 564.818   2
  23 -10  -3-58.0560 451.517   1
  10 -23  -3 1277.73 674.269   2
 -23  13  -3 2550.81 701.414   4
  10 -23  -3 1312.72 541.928   1
 -10 -13  -3 1748.86 638.531   4
  10 -23  -3 2244.61 710.435   4
  13  10   0 4861.94 511.549   3
  13  10   0 4240.17 740.004   1
  10 -23   0 5463.82 856.049   2
  13  10   0 5013.87 472.109   3
 -13  23   0 5519.34 837.802   3
 -23  13   0 3856.22 819.258   3
 -23  13   0 5689.13 869.330   2
  10 -23   0 5597.43 896.999   1
  23 -10   0 5358.86 845.857   1
 -10 -13   0 6854.83 1007.97   4
 -10 -13   0 5002.34 918.636   2
  10 -23   0 4645.73 830.736   4
 -10 -13   3-551.386 633.587   2
  13  10   3 654.911 477.660   3
  13  10   3 1579.60 651.639   1
  23 -10   3 1030.03 655.014   1
  10 -23   3 424.954 484.418   2
 -13  23   3 295.031 532.707   3
 -23  13   3 52.7100 548.827   3
 -10 -13   3 149.644 537.318   4
  10 -23   3 335.597 674.101   1
  10 -23   3 1081.02 536.492   4
  23 -10   6 4160.36 954.240   1
  13  10   6 2711.32 833.319   3
  10 -23   6 3561.55 741.329   2
 -13  23   6 5087.51 1083.12   3
 -23  13   6 3969.71 929.679   3
  13  10   6 4624.61 887.235   1
  10 -23   6 6245.99 1165.21   1
 -10 -13   6 3437.23 845.565   4
 -10 -13   6 5224.53 1179.00   2
  10 -23   6 3080.10 654.942   4
  -9 -14  -7 1771.74 835.988   2
  -9 -14  -7 1593.18 714.984   4
  23  -9  -4 231.610 441.892   1
  -9 -14  -4 706.378 643.864   2
   9 -23  -4 865.183 615.447   2
 -23  14  -4 1336.90 573.601   4
  -9 -14  -4 67.0413 507.108   4
   9 -23  -4-358.079 606.549   4
  -9 -14  -1 4085.51 850.428   2
  14   9  -1 2181.60 329.067   3
 -23  14  -1 2714.48 499.567   2
   9 -23  -1 1563.29 642.551   2
 -14  23  -1 3189.67 730.305   3
 -23  14  -1 2232.40 710.776   3
 -23  14  -1 3293.34 597.211   2
  -9 -14  -1 4429.13 884.083   4
  23  -9  -1 4421.81 770.416   1
   9 -23  -1 5111.23 859.888   4
  -9 -14   2-96.5128 623.013   2
  14   9   2 105.400 458.451   3
  14   9   2 383.319 541.718   1
   9 -23   2 2439.94 668.091   2
  23  -9   2 1116.14 666.537   1
 -14  23   2-255.400 525.448   3
 -23  14   2 698.042 605.439   3
   9 -23   2-496.125 590.499   1
  -9 -14   2 202.130 490.110   4
   9 -23   2 82.4348 472.511   4
  14   9   5 3896.35 918.347   3
  23  -9   5 3636.54 869.837   1
   9 -23   5 4345.05 785.538   2
  14   9   5 2193.32 671.176   1
 -14  23   5 4360.60 945.898   3
 -23  14   5 3381.81 875.559   3
  -9 -14   5 3675.88 869.203   4
   9 -23   5 3903.19 724.978   4
  -9 -14   5 2623.40 972.855   2
  14   9   8 466.033 618.634   1
  14   9   8 2254.13 1020.01   3
   9 -23   8 522.981 659.411   2
  23  -9   8 2925.91 1021.58   1
 -14  23   8 379.593 810.021   3
 -23  14   8 708.126 768.021   3
  -9 -14   8 192.868 691.615   4
  -9 -14   8 1462.09 937.865   2
   9 -23   8 105.815 821.483   1
  -8 -15  -8 737.804 845.495   2
  -8 -15  -8 1646.29 763.600   4
  -8 -15  -5 2354.49 769.483   2
   8 -23  -5 3426.95 875.442   2
 -23  15  -5 3830.21 728.057   4
  -8 -15  -5 2630.17 759.325   4
  23  -8  -5 3319.01 692.502   1
   8 -23  -5 1604.68 809.035   4
  15   8  -2 160.399 172.979   3
  -8 -15  -2 1517.99 678.767   2
 -23  15  -2 61.8337 263.371   2
  23  -8  -2 232.659 469.029   1
   8 -23  -2 167.128 559.390   2
 -15  23  -2-569.728 561.642   3
 -23  15  -2 546.986 347.497   2
  -8 -15  -2 869.444 616.347   4
   8 -23  -2 151.980 498.452   4
  -8 -15   1 1951.76 694.348   2
  15   8   1 2282.73 636.209   1
   8 -23   1 2812.46 742.520   2
 -15  23   1 1725.73 641.898   3
  15   8   1 1183.46 449.470   3
 -23  15   1 1636.02 640.035   3
  23  -8   1 2473.78 696.372   1
  -8 -15   1 3314.02 862.091   4
   8 -23   1 2317.87 642.143   4
  -8 -15   4-811.981 790.680   2
  15   8   4 1119.93 610.859   3
   8 -23   4-304.965 588.053   2
  15   8   4 409.204 533.986   1
  23  -8   4 734.992 678.870   1
 -23  15   4 402.829 583.011   3
   8 -23   4 1157.53 719.575   1
  -8 -15   4 1112.48 591.470   4
   8 -23   4 257.350 459.939   4
  15   8   7 2808.67 1012.99   3
   8 -23   7 2198.63 706.473   2
  23  -8   7 2080.04 907.767   1
 -15  23   7 859.529 712.150   3
 -23  15   7 1455.65 799.854   3
  -8 -15   7 2313.54 790.552   4
   8 -23   7 3275.79 1062.74   1
  -8 -15   7 2741.01 996.449   2
   8 -23   7 1636.48 545.599   4
  15   8   7 3333.99 829.476   1
  -7 -16  -6 2395.72 802.932   2
   7 -23  -6 1491.86 807.304   2
 -23  16  -6 1239.00 505.217   4
  -7 -16  -6 2720.52 789.380   4
   7 -23  -6 1816.66 838.164   4
  16   7  -3 444.590 227.135   3
  -7 -16  -3 265.560 554.251   2
   7 -23  -3 1371.21 718.736   2
  -7 -16  -3 562.052 615.214   4
   7 -23  -3 924.770 710.110   4
  23  -7  -3 924.823 521.449   1
  -7 -16   0 2078.70 758.691   2
   7 -23   0 1107.61 624.182   2
  16   7   0 1750.88 467.067   3
 -16  23   0 1969.02 655.448   3
 -23  16   0 1859.17 731.729   3
  16   7   0 1214.23 583.324   1
  -7 -16   0 2483.47 744.196   4
   7 -23   0 1373.67 602.782   4
  23  -7   0 1565.43 644.110   1
  -7 -16   3 2033.90 754.793   2
   7 -23   3 4090.90 803.853   2
 -16  23   3 4837.54 910.906   3
  16   7   3 4503.76 814.825   1
 -23  16   3 2438.76 734.311   3
  23  -7   3 5381.41 983.567   1
  -7 -16   3 4636.16 844.960   4
   7 -23   3 3482.39 726.053   4
  16   7   6 2004.27 906.584   3
   7 -23   6 2959.00 754.703   2
  23  -7   6 3125.85 990.178   1
 -16  23   6 4034.79 987.425   3
 -23  16   6 712.734 703.994   3
   7 -23   6 2010.66 892.979   1
  -7 -16   6 3566.70 852.601   4
  16   7   6 2954.20 796.825   1
   7 -23   6 2889.34 621.685   4
  -7 -16   6 2596.83 944.727   2
   6 -23  -7 1258.96 705.848   4
  -6 -17  -7 720.887 693.716   2
   6 -23  -7 1214.40 903.977   2
  -6 -17  -7 1342.29 689.734   4
  -6 -17  -4 1018.06 747.082   2
   6 -23  -4 1779.68 755.631   2
  23  -6  -4 1299.00 541.117   1
  -6 -17  -4 1192.28 626.978   4
   6 -23  -4 1557.90 702.602   4
  17   6  -1 1512.09 639.948   1
  -6 -17  -1 1870.61 797.623   2
  17   6  -1 1229.41 427.768   3
   6 -23  -1 1256.26 628.148   2
 -23  17  -1 1174.46 447.595   2
  23  -6  -1-330.976 515.107   1
 -17  23  -1 327.418 578.714   3
 -23  17  -1 1466.70 616.588   3
  -6 -17  -1 1849.33 699.085   4
   6 -23  -1 2547.13 735.472   4
  -6 -17   2 2012.85 742.492   2
   6 -23   2 3516.75 745.650   2
  17   6   2 3526.75 771.831   1
 -17  23   2 1818.23 661.068   3
 -23  17   2 1810.13 706.553   3
  23  -6   2 3453.60 817.401   1
  -6 -17   2 2236.52 753.108   4
   6 -23   2 2743.38 662.304   4
  -6 -17   5 345.542 774.246   2
   6 -23   5 1133.56 667.113   2
 -17  23   5 2074.44 859.874   3
 -23  17   5 817.257 713.435   3
  23  -6   5 488.915 744.361   1
  -6 -17   5 1331.90 678.050   4
  17   6   5 1990.58 752.223   1
   6 -23   5 1629.48 574.858   4
  -5 -18  -5 2701.29 833.103   2
   5 -23  -5 3394.07 901.425   2
  -5 -18  -5 1598.54 763.150   4
  23  -5  -5 2705.79 666.760   1
   5 -23  -5 1982.69 820.166   4
  18   5  -2 1300.97 650.763   1
 -23  18  -2 1353.26 375.809   2
  -5 -18  -2 844.693 736.043   2
  18   5  -2 65.5608 399.923   3
   5 -23  -2-255.527 557.591   2
 -18  23  -2-160.652 560.027   3
 -23  18  -2 660.801 682.578   3
  -5 -18  -2-17.3318 639.683   4
  23  -5  -2 135.423 449.970   1
   5 -23  -2 1058.04 621.467   4
  23  -5   1 2720.38 820.519   1
  -5 -18   1 2024.51 761.854   2
   5 -23   1 1267.45 519.008   3
   5 -23   1 1884.17 683.823   2
 -18  23   1 1696.24 646.940   3
  18   5   1 2691.01 746.903   1
 -23  18   1 3868.44 861.947   3
  -5 -18   1 3129.31 792.508   4
   5 -23   1 3199.83 754.725   4
  -5 -18   4 3177.41 915.721   2
   5 -23   4 2343.04 765.293   2
 -18  23   4 455.873 606.566   3
 -23  18   4 288.046 589.937   3
  23  -5   4 609.995 633.005   1
  -5 -18   4 1394.26 624.575   4
  18   5   4 849.549 606.674   1
   5 -23   4 1227.05 607.044   4
  18   5   7 923.934 867.313   3
   5 -23   7 967.948 757.992   2
 -18  23   7 1344.18 850.510   3
 -23  18   7 1638.27 873.272   3
  23  -5   7 1981.18 884.239   1
  18   5   7 1594.27 752.656   1
   5 -23   7 918.576 800.797   1
  -5 -18   7 1166.46 683.278   4
   5 -23   7-186.145 540.965   4
  -5 -18   7 942.980 838.160   2
  -4 -19  -6 345.278 757.372   2
   4 -23  -6 433.202 726.408   2
 -23  19  -6 668.908 464.855   4
  -4 -19  -6 951.874 633.948   4
   4 -23  -6 656.281 739.874   4
  -4 -19  -3 4751.67 1006.11   2
   4 -23  -3 6072.52 1008.42   2
  23  -4  -3 3920.04 783.153   1
  -4 -19  -3 5505.51 976.768   4
   4 -23  -3 4488.73 1036.81   4
  -4 -19   0 3425.18 799.662   2
   4 -23   0 3853.77 898.671   2
  23  -4   0 2937.18 759.914   1
 -19  23   0 3387.65 787.544   3
 -23  19   0 3283.14 821.846   3
  19   4   0 4133.10 830.613   1
   4 -23   0 4702.51 893.706   4
  -4 -19   0 3463.03 791.622   4
  -4 -19   3 4556.55 981.695   2
  19   4   3 5427.21 935.923   1
 -19  23   3 5480.93 983.007   3
 -23  19   3 3164.89 852.980   3
  -4 -19   3 5027.37 922.545   4
   4 -23   3 4992.44 909.285   4
  23  -4   3 2893.80 819.663   1
   4 -23   3 5045.90 940.843   2
  -4 -19   6 1913.46 901.768   2
   4 -23   6 3050.49 856.618   2
 -19  23   6 2859.64 963.413   3
 -23  19   6 1707.74 841.864   3
  19   4   6 3424.16 862.648   1
  23  -4   6 2806.17 884.423   1
  -4 -19   6 3209.97 823.085   4
   4 -23   6 3236.50 778.387   4
  -3 -20  -7-308.649 801.692   2
   3 -23  -7 136.005 826.639   2
  -3 -20  -7-340.740 612.392   4
   3 -23  -7 964.002 768.738   4
  -3 -20  -4 1790.70 769.152   2
   3 -23  -4 1480.35 741.831   2
  23  -3  -4 318.361 585.296   1
  -3 -20  -4 788.637 664.291   4
   3 -23  -4 1898.24 735.300   4
  -3 -20  -1-213.981 639.732   2
   3 -23  -1 2296.53 729.000   2
 -20  23  -1 1014.25 650.950   3
 -23  20  -1 1365.10 646.000   3
  23  -3  -1 1706.50 667.041   1
  -3 -20  -1 1675.03 742.402   4
   3 -23  -1 806.458 576.439   4
  20   3  -1 1209.38 586.467   1
  -3 -20   2 1705.68 737.923   2
  23  -3   2 2267.60 752.771   1
   3 -23   2 665.180 635.495   2
 -20  23   2 2690.96 773.126   3
 -23  20   2 1846.53 736.543   3
  -3 -20   2 3511.68 795.856   4
   3 -23   2 3097.82 737.498   4
  20   3   2 2654.94 798.927   1
  -3 -20   5-1228.47 837.823   2
   3 -23   5-116.716 643.019   2
 -20  23   5 504.630 731.154   3
 -23  20   5 721.869 680.430   3
  20   3   5 1089.82 705.770   1
  23  -3   5 260.887 729.049   1
  -3 -20   5 1532.12 719.583   4
   3 -23   5 1035.05 615.250   4
  -2 -21  -5 2632.35 978.891   2
   2 -23  -5 298.198 660.138   2
  -2 -21  -5 1177.07 717.171   4
   2 -23  -5 606.412 775.728   4
  -2 -21  -2 963.825 717.720   2
   2 -23  -2 1659.88 740.094   2
  21   2  -2 1323.08 629.406   1
  23  -2  -2 346.629 554.006   1
 -21  23  -2 1027.66 690.779   3
 -23  21  -2 308.857 638.234   3
  -2 -21  -2 971.522 677.732   4
   2 -23  -2 1197.45 688.147   4
  21   2   1-898.941 610.617   1
  -2 -21   1 2324.56 852.731   2
   2 -23   1 424.057 566.948   2
 -21  23   1 1016.23 638.740   3
 -23  21   1 780.413 653.562   3
  23  -2   1 1138.63 638.332   1
  -2 -21   1 762.213 637.318   4
   2 -23   1-298.794 535.952   4
  23  -2   4-1233.86 728.885   1
  -2 -21   4 885.058 700.984   2
   2 -23   4 1222.54 741.979   2
 -21  23   4 976.736 775.778   3
 -23  21   4 336.489 705.889   3
  21   2   4 894.797 666.596   1
  -2 -21   4-481.045 602.427   4
   2 -23   4-206.847 518.055   4
  -2 -21   7 157.983 856.481   2
   2 -23   7 103.517 691.081   2
  21   2   7 36.5646 692.821   1
 -21  23   7 267.608 824.884   3
 -23  21   7 1578.84 941.457   3
  -2 -21   7 1014.45 708.527   4
  23  -2   7 700.528 836.318   1
   2 -23   7 2068.33 741.651   4
  -1 -22  -6 1608.64 887.946   2
   1 -23  -6 1271.82 912.225   2
  -1 -22  -6 693.481 687.350   4
   1 -23  -6 535.061 692.227   4
  22   1  -3 4018.94 835.393   1
  -1 -22  -3 4049.34 956.829   2
   1 -23  -3 2517.23 903.884   2
  -1 -22  -3 3366.65 902.261   4
  23  -1  -3 4579.40 854.612   1
   1 -23  -3 2483.59 895.895   4
  22   1   0 2385.55 763.862   1
  -1 -22   0 3404.06 889.155   2
   1 -23   0 1706.19 743.770   2
 -22  23   0 1826.85 767.677   3
 -23  22   0 2363.43 867.884   3
  -1 -22   0 2867.54 783.966   4
   1 -23   0 1774.27 722.130   4
  23  -1   0 3098.89 782.850   1
  -1 -22   3 3748.38 966.491   2
   1 -23   3 2047.07 790.950   2
  23  -1   3 1017.21 666.187   1
 -22  23   3 2777.32 821.383   3
 -23  22   3 1809.86 793.405   3
  22   1   3 3950.02 867.036   1
  -1 -22   3 3064.37 852.354   4
   1 -23   3 2503.61 735.275   4
  -1 -22   6-23.2438 723.921   2
  23  -1   6 3219.25 968.729   1
   1 -23   6 1371.91 812.814   2
  22   1   6 1526.50 903.961   1
 -22  23   6 1802.84 967.663   3
 -23  22   6 1794.65 869.716   3
  -1 -22   6 1325.90 687.277   4
   1 -23   6 2763.15 773.100   4
  23   0  -4 679.164 617.349   1
   0 -23  -4 180.413 613.979   2
   0 -23  -4 1926.75 820.119   4
   0 -23  -1 252.788 649.828   2
  23   0  -1-732.245 603.812   1
 -23  23  -1 25.3488 611.236   3
   0 -23  -1-621.457 706.739   4
   0 -23   2 1177.67 670.693   2
 -23  23   2 1021.87 686.160   3
  23   0   2 1081.94 680.381   1
   0 -23   2 1805.03 766.492   4
   0 -23   5 108.170 683.208   2
  23   0   5-295.005 680.577   1
 -23  23   5 670.971 766.826   3
   0 -23   5 523.466 558.181   4
 -24   0  -3 235.863 510.292   2
 -24   0  -3-659.048 623.520   4
  24 -24  -3 991.027 576.091   1
   0  24   0 3387.20 486.378   3
  24 -24   0 3531.08 853.693   1
 -24   0   0 4122.66 975.889   4
 -24   0   0 5261.84 1006.58   2
   0  24   3 141.007 492.238   3
  24 -24   3 1364.22 837.660   1
 -24   0   3-1071.93 735.535   4
 -24   0   3 1185.74 1013.25   2
  24 -23  -4 270.417 470.212   1
 -24   1  -4 340.136 550.068   2
 -23  -1  -4 796.730 579.345   2
 -24   1  -4 1361.30 728.372   4
 -23  -1  -4-561.326 647.485   4
  23 -24  -4 382.790 446.824   1
 -24   1  -1 1206.29 692.107   2
 -23  -1  -1 456.089 609.184   2
  23 -24  -1 658.680 585.134   1
  -1  24  -1 965.077 291.745   3
  24 -23  -1 486.948 592.458   1
 -24   1  -1 1907.97 812.259   4
 -23  -1  -1 1196.91 721.263   4
   1  23   2 808.721 479.069   3
  -1  24   2 68.5925 424.399   3
  23 -24   2 813.053 675.896   1
  24 -23   2 1451.49 769.687   1
 -24   1   2-74.1805 655.737   4
 -23  -1   2 157.692 672.334   4
 -24   1   2 141.791 798.437   2
 -23  -1   2-983.197 804.536   2
   1  23   5 299.254 617.129   3
  -1  24   5 1196.17 688.267   3
  23 -24   5 2660.98 958.644   1
  24 -23   5 1991.00 908.411   1
 -24   1   5 90.1289 530.621   3
 -23  -1   5-187.572 487.038   3
 -24   1   5 751.536 736.103   4
 -23  -1   5 1176.17 792.490   4
 -24   1   5 3193.25 1137.34   2
 -23  -1   5 1235.78 959.338   2
 -22  -2  -5 290.969 573.409   2
 -24   2  -5 505.277 655.516   4
 -22  -2  -5-130.245 573.961   4
 -24   2  -2 1152.67 588.765   2
 -22  -2  -2 595.161 570.660   2
  22 -24  -2 691.392 558.266   1
 -24   2  -2 1402.95 718.389   4
 -22  -2  -2 1032.41 665.317   4
  24 -22  -2 923.302 570.499   1
  22 -24   1 201.704 583.952   1
   2  22   1 1369.63 409.177   3
  -2  24   1 1308.45 510.352   3
  24 -22   1 30.1682 581.938   1
 -24   2   1 43.2069 628.159   4
 -22  -2   1-151.671 632.290   4
 -24   2   1 1040.17 717.919   2
 -22  -2   1-416.739 740.778   2
   2  22   4 360.375 552.121   3
  -2  24   4 49.2662 523.834   3
  22 -24   4 820.501 764.559   1
  24 -22   4-333.054 713.276   1
 -24   2   4 935.200 572.048   3
 -24   2   4 135.968 702.816   4
 -22  -2   4 297.463 630.876   4
 -24   2   4-85.2121 802.862   2
 -22  -2   4 2019.57 983.726   2
 -21  -3  -6 3374.54 852.616   2
 -21  -3  -6 4917.26 972.119   4
 -24   3  -6 3092.70 815.406   4
  24 -21  -3-674.339 519.756   1
 -24   3  -3 478.882 498.829   2
 -21  -3  -3 124.709 537.082   2
  21 -24  -3 787.339 497.755   1
 -24   3  -3-161.771 628.532   4
 -21  -3  -3 1555.34 753.393   4
 -21  -3   0 4102.58 945.061   2
  24 -21   0 5882.12 957.579   1
   3  21   0 2461.26 337.259   3
  -3  24   0 3588.54 588.665   3
 -24   3   0 3379.29 871.728   4
 -21  -3   0 4231.45 912.501   4
  21 -24   0 5160.39 916.182   1
 -24   3   0 4016.65 926.262   2
   3  21   3 59.7381 479.836   3
  21 -24   3 289.947 709.865   1
  -3  24   3-46.1665 536.407   3
  24 -21   3 687.864 647.060   1
 -24   3   3 1724.94 658.253   3
 -24   3   3 159.350 603.833   4
 -21  -3   3 794.434 690.562   4
 -24   3   3 1197.45 853.461   2
 -21  -3   3 2212.88 997.274   2
   3  21   6 2963.81 931.022   3
  -3  24   6 3310.22 953.029   3
  21 -24   6 3560.77 1057.26   1
 -24   3   6 1678.86 758.047   3
  24 -21   6 1839.48 922.819   1
 -24   3   6 3256.28 987.885   4
 -21  -3   6 2297.59 968.345   4
 -24   3   6 3380.27 1181.93   2
 -21  -3   6 2183.98 1046.53   2
 -20  -4  -7 567.387 620.593   2
 -24   4  -7 668.245 563.183   4
 -20  -4  -7 1083.46 697.379   4
 -24   4  -4 881.841 487.889   2
 -20  -4  -4 786.402 605.818   2
  24 -20  -4 229.416 421.768   1
  20 -24  -4 614.071 452.342   1
 -24   4  -4-207.892 567.719   4
 -20  -4  -4 453.849 589.753   4
 -20  -4  -1 446.416 572.025   2
  20 -24  -1 1074.42 568.232   1
  -4  24  -1 1207.28 421.776   3
 -24   4  -1 484.681 645.411   4
 -20  -4  -1 1218.83 745.816   4
  24 -20  -1 1695.69 619.335   1
 -24   4  -1 475.841 580.089   2
  20 -24   2 627.121 649.203   1
   4  20   2 657.266 393.427   3
  -4  24   2 860.304 527.068   3
 -24   4   2 316.480 502.031   3
  24 -20   2 732.646 606.272   1
 -24   4   2 22.4823 629.657   4
 -20  -4   2-143.135 600.820   4
 -24   4   2 876.219 749.808   2
 -20  -4   2 105.491 714.767   2
   4  20   5 389.113 609.159   3
  20 -24   5 1367.23 818.551   1
  -4  24   5 661.491 656.371   3
 -24   4   5-50.6932 593.223   3
  24 -20   5 2026.55 860.565   1
 -24   4   5-2.09514 672.879   4
 -20  -4   5-613.919 673.410   4
 -24   4   5-12.8498 832.281   2
 -20  -4   5 918.657 877.592   2
  24 -19  -5 848.602 440.070   1
 -19  -5  -5 526.464 591.175   2
 -24   5  -5 316.534 553.202   4
 -19  -5  -5 1317.04 756.594   4
 -24   5  -2 228.138 462.629   2
  24 -19  -2 314.512 490.192   1
 -19  -5  -2 673.522 584.391   2
  19 -24  -2 18.3315 459.964   1
 -24   5  -2 1028.02 655.733   4
 -19  -5  -2 308.593 612.083   4
  19 -24   1 2339.67 797.073   1
   5  19   1 1348.95 388.844   3
  -5  24   1 1716.04 553.925   3
 -24   5   1 2765.49 787.213   4
  24 -19   1 1742.51 726.793   1
 -19  -5   1 1025.77 638.263   4
 -24   5   1 785.589 646.862   2
 -19  -5   1 2886.06 860.718   2
  19 -24   4 2064.95 841.726   1
   5  19   4 2267.04 705.377   3
  -5  24   4 267.173 566.706   3
 -24   5   4 2776.79 775.891   3
  19 -24   4 2110.21 498.517   2
  24 -19   4 949.451 719.820   1
 -24   5   4 2264.94 807.303   4
 -19  -5   4 1440.28 744.330   4
 -24   5   4 2457.07 954.193   2
 -19  -5   4 2902.70 1058.95   2
   5  19   7 2404.46 907.404   3
  19 -24   7 1147.95 813.854   1
  -5  24   7 942.726 853.487   3
 -24   5   7 532.732 700.046   3
  24 -19   7 2049.10 964.554   1
 -24   5   7 2267.80 937.912   4
 -19  -5   7 1658.32 850.398   4
 -24   5   7 270.901 1011.39   2
 -19  -5   7 1073.93 1023.34   2
 -18  -6  -6 3129.73 835.985   2
 -24   6  -6 1507.62 584.092   4
 -18  -6  -6 1701.69 712.466   4
 -24   6  -3 934.094 459.104   2
 -18  -6  -3 787.774 555.336   2
  18 -24  -3 788.045 479.285   1
  24 -18  -3 899.392 543.522   1
 -24   6  -3 458.900 619.221   4
 -18  -6  -3 1377.66 666.204   4
  24 -18   0 4328.35 872.770   1
  -6  24   0 4702.30 710.231   3
 -24   6   0 5589.79 972.565   4
 -18  -6   0 4831.60 991.786   4
  18 -24   0 4998.75 867.563   1
 -18  -6   0 5732.33 1033.39   2
 -24   6   0 4092.40 834.593   2
  18 -24   3 53.9719 602.178   1
   6  18   3 1232.05 543.518   3
  -6  24   3 1268.64 609.282   3
  18 -24   3 1067.75 423.000   2
 -24   6   3 290.325 568.754   3
 -24   6   3 1173.11 741.707   4
  24 -18   3 1607.37 771.315   1
 -18  -6   3 381.102 592.234   4
 -24   6   3 512.160 717.716   2
 -18  -6   3 1941.31 872.501   2
  18 -24   6 2931.39 983.817   1
   6  18   6 2065.77 903.967   3
  -6  24   6 3402.35 958.029   3
 -24   6   6 3764.56 917.075   3
 -24   6   6 2717.78 909.630   4
  24 -18   6 2493.15 926.222   1
 -24   6   6 3830.81 1214.07   2
 -18  -6   6 2590.99 840.853   4
 -18  -6   6 3393.63 1159.61   2
 -17  -7  -7 52.3787 644.720   2
 -24   7  -7 603.518 534.260   4
 -17  -7  -7 594.802 622.570   4
 -24   7  -4 839.790 336.939   2
 -17  -7  -4 1267.38 699.806   2
  17 -24  -4 1176.93 469.084   1
 -24   7  -4 1868.42 695.457   4
 -17  -7  -4 1915.88 731.666   4
  24 -17  -4 350.740 442.157   1
  24 -17  -1 109.751 538.795   1
 -17  -7  -1-617.666 604.201   2
  17 -24  -1-177.039 457.286   1
  -7  24  -1-133.846 461.239   3
  17 -24  -1 474.086 495.686   2
 -24   7  -1 1506.14 705.893   4
 -17  -7  -1 610.395 618.948   4
 -24   7  -1-224.549 469.113   2
  17 -24   2 54.8112 663.002   1
   7  17   2 187.408 390.913   3
  -7  24   2-1060.44 544.594   3
  17 -24   2-7.48788 452.109   2
 -24   7   2-548.528 632.478   3
 -24   7   2 204.734 634.686   4
 -17  -7   2-304.140 624.765   4
 -24   7   2 1867.32 892.068   2
  24 -17   2 136.330 622.994   1
 -17  -7   2 1351.68 765.945   2
  17 -24   5 65.7780 699.633   1
   7  17   5 2090.90 755.042   3
  -7  24   5 599.002 659.546   3
  17 -24   5 781.408 416.976   2
 -24   7   5 140.138 608.369   3
 -24   7   5-338.092 650.723   4
  24 -17   5 674.410 699.725   1
 -17  -7   5 1562.29 793.193   4
 -17  -7   5 913.219 854.586   2
 -16  -8  -5-23.4072 604.370   2
  16 -24  -5 1024.59 371.402   1
  24 -16  -5 1096.11 458.362   1
 -24   8  -5 1247.41 554.499   4
  16 -24  -2 3239.22 675.232   1
 -16  -8  -2 4143.22 847.872   2
  24 -16  -2 3796.54 764.456   1
  -8  24  -2 3064.63 608.206   3
  16 -24  -2 3594.53 806.726   2
 -24   8  -2 3525.24 805.215   4
 -16  -8  -2 3269.58 815.399   4
 -24   8  -2 1529.73 505.100   2
 -16  -8   1 343.577 655.817   2
  16 -24   1 879.027 607.128   1
   8  16   1 1602.17 370.645   3
  -8  24   1 1699.29 552.942   3
  16 -24   1 1450.05 584.594   2
 -24   8   1 1144.61 611.970   3
 -24   8   1 2175.33 702.424   4
 -16  -8   1 1381.41 685.623   4
 -24   8   1 1637.34 701.501   2
  24 -16   1 2662.04 765.127   1
  16 -24   4 2962.06 857.914   1
  16 -24   4 3127.28 627.312   2
   8  16   4 2870.91 705.652   3
  -8  24   4 1813.27 652.794   3
 -24   8   4 2935.48 797.647   3
 -24   8   4 3328.30 860.806   4
 -24   8   4 3228.06 1044.40   2
 -16  -8   4 1431.54 726.713   4
  24 -16   4 2763.68 927.308   1
 -16  -8   4 1720.52 866.259   2
  16 -24   7 952.288 812.744   1
   8  16   7 1392.56 867.943   3
  -8  24   7 2009.49 904.452   3
 -24   8   7 224.497 722.424   3
 -24   8   7 594.107 705.698   4
 -24   8   7-72.0603 936.233   2
 -16  -8   7 803.486 679.127   4
  24 -16   7 1741.55 816.545   1
 -16  -8   7 2085.74 975.259   2
  24 -15  -6 2361.62 517.551   1
 -15  -9  -6 2815.55 846.424   2
 -24   9  -6 2205.92 612.539   4
 -15  -9  -6 2192.75 725.734   4
  15 -24  -3 1455.56 504.329   1
 -24   9  -3 1116.02 361.850   2
 -15  -9  -3 563.592 552.292   2
 -24   9  -3 2542.34 709.641   4
  24 -15  -3 1747.54 574.366   1
 -15  -9  -3 879.802 607.397   4
 -15  -9   0 2111.97 757.191   2
  24 -15   0 734.172 623.291   1
   9  15   0 1386.45 202.541   3
  15 -24   0 4049.29 784.789   2
   9  15   0 969.919 173.766   3
  -9  24   0 1301.10 553.116   3
 -24   9   0 2370.73 672.311   3
 -24   9   0 1389.75 681.757   4
 -15  -9   0 1868.76 715.237   4
 -24   9   0 3313.00 790.024   2
  15 -24   0 1595.64 651.631   1
  15 -24   3 621.360 629.511   1
   9  15   3 677.691 496.827   3
  -9  24   3 539.230 540.593   3
  15 -24   3 55.3828 415.293   2
 -24   9   3-68.7145 563.605   3
 -24   9   3 513.484 688.442   4
 -24   9   3-128.921 684.400   2
 -15  -9   3 1795.39 703.054   4
  24 -15   3 352.595 660.466   1
 -15  -9   3-349.223 681.725   2
  15 -24   6 1571.81 903.772   1
   9  15   6 1134.12 745.204   3
  -9  24   6 1610.48 760.528   3
  15 -24   6 735.649 467.567   2
 -24   9   6 198.428 662.724   3
 -24   9   6 1673.71 811.290   4
 -24   9   6 1300.79 989.374   2
   9  15   6 619.913 581.790   1
 -15  -9   6-202.813 629.948   4
  24 -15   6 893.218 799.015   1
 -15  -9   6 1089.32 866.991   2
 -14 -10  -7 1165.28 766.609   2
 -14 -10  -7 430.582 601.355   4
  14 -24  -4 1061.52 430.865   1
 -14 -10  -4 615.497 599.322   2
  24 -14  -4 591.783 484.353   1
 -24  10  -4 939.098 590.039   4
 -14 -10  -4 621.298 564.578   4
  14 -24  -1 1698.91 656.366   4
 -14 -10  -1-288.974 590.711   2
  24 -14  -1-821.856 573.585   1
  14 -24  -1 821.528 588.883   2
 -10  24  -1 462.841 473.162   3
 -24  10  -1-374.818 576.054   4
 -14 -10  -1 375.099 601.347   4
 -24  10  -1 83.1504 462.345   2
  14 -24  -1 336.709 567.418   1
 -14 -10   2 1463.00 828.315   2
  24 -14   2-122.708 614.465   1
  14 -24   2 2843.03 748.193   4
  10  14   2 640.610 438.867   3
 -10  24   2 2334.57 635.802   3
  14 -24   2 2400.27 665.643   2
 -24  10   2 1732.04 655.445   3
 -24  10   2 3021.66 867.840   4
 -24  10   2 2598.89 809.747   2
 -14 -10   2 2611.25 833.251   4
  14 -24   2 1503.47 732.785   1
  14 -24   5 432.923 763.165   1
  10  14   5 28.5043 596.063   3
 -10  24   5 880.482 762.761   3
  14 -24   5 509.068 518.263   2
 -24  10   5 413.898 617.277   3
 -24  10   5 1292.72 747.933   4
 -24  10   5 847.250 892.413   2
  10  14   5 546.718 621.973   1
 -14 -10   5-0.93215 597.801   4
  24 -14   5 1995.24 854.043   1
 -14 -10   5 1157.09 827.357   2
  13 -24  -5 892.734 408.211   1
  24 -13  -5 667.037 485.308   1
 -13 -11  -5 2182.91 727.561   2
 -24  11  -5 1609.19 582.197   4
 -13 -11  -5 484.665 603.695   4
  13 -24  -2 3665.82 819.660   4
 -13 -11  -2 2312.41 760.119   2
  13 -24  -2 3538.13 818.831   2
 -11  24  -2 3425.44 691.344   3
 -24  11  -2 3388.84 790.734   4
  24 -13  -2 1789.50 547.887   1
 -13 -11  -2 2175.66 701.016   4
  13 -24  -2 3671.40 694.891   1
 -24  11  -2 2103.14 474.617   2
  13 -24   1 592.981 530.328   4
 -13 -11   1 714.831 668.821   2
  11  13   1 785.847 354.563   3
  24 -13   1 212.591 617.335   1
  13 -24   1 1576.66 600.080   2
 -11  24   1 116.752 528.035   3
 -24  11   1 940.979 537.525   3
  11  13   1 411.999 312.536   3
 -24  11   1 636.649 611.580   4
 -24  11   1 315.671 611.164   2
 -13 -11   1 828.557 635.920   4
  13 -24   1 554.316 630.318   1
  13 -24   4 2847.64 621.023   4
  11  13   4 2140.85 668.232   3
  11  13   4 730.126 535.506   1
  13 -24   4 1685.33 590.140   2
 -11  24   4 2336.98 809.531   3
 -24  11   4 2307.04 736.248   3
 -24  11   4 1177.66 745.667   2
 -13 -11   4 1305.66 746.891   4
  13 -24   4 2676.10 814.393   1
 -13 -11   4 2112.72 840.943   2
  24 -13   4 1519.00 713.354   1
  13 -24   7-637.649 741.385   1
  11  13   7 739.160 773.643   3
  13 -24   7 451.271 563.399   2
 -11  24   7 873.935 881.133   3
  11  13   7 878.736 693.158   1
 -24  11   7 713.998 729.745   3
 -13 -11   7-66.8991 606.893   4
 -13 -11   7 2075.38 994.146   2
  24 -13   7 830.070 742.778   1
  24 -12  -6 171.880 435.149   1
 -12 -12  -6 902.384 724.987   2
 -24  12  -6 1165.26 524.100   4
 -12 -12  -6 1539.09 741.148   4
  12 -24  -3 371.725 643.192   4
 -24  12  -3 623.300 193.270   2
 -12 -12  -3 664.402 591.617   2
  24 -12  -3 1035.71 506.431   1
  12 -24  -3 538.536 699.112   2
 -24  12  -3 2281.99 701.267   4
 -12 -12  -3 2209.66 733.808   4
  12 -24  -3 2374.53 666.428   1
 -12 -12   0 293.680 584.702   2
  12  12   0 200.952 223.238   3
  24 -12   0 40.6471 555.295   1
  12 -24   0 143.463 526.860   2
  12  12   0 809.472 259.945   3
 -12  24   0 1129.36 619.271   3
 -24  12   0 890.819 626.420   3
 -24  12   0 835.597 588.871   2
 -12 -12   0 1768.68 732.266   4
  12 -24   0 793.372 543.664   1
  12 -24   0 1337.33 609.514   4
  24 -12   3 674.864 643.571   1
  12  12   3 1379.36 594.068   3
  12  12   3 1271.92 649.078   1
  12 -24   3 1754.02 583.384   2
 -12  24   3 1126.05 563.400   3
 -24  12   3 282.333 629.576   3
 -12 -12   3 2112.01 715.553   4
  12 -24   3 1632.66 730.106   1
  12 -24   3 601.141 447.639   4
 -12 -12   3 1603.72 870.140   2
  12 -24   6 1146.18 500.569   4
  24 -12   6 273.162 669.869   1
  12  12   6 1578.15 698.098   1
  12  12   6 649.697 686.947   3
  12 -24   6 488.376 486.107   2
 -12  24   6 1008.02 708.770   3
 -24  12   6 490.613 692.717   3
 -12 -12   6 203.742 648.545   4
 -12 -12   6 1449.82 979.160   2
  12 -24   6 1195.86 703.405   1
 -11 -13  -7-834.995 804.616   2
 -11 -13  -7 6.95152 590.520   4
  11 -24  -4 583.474 764.656   4
 -11 -13  -4 2070.23 683.985   2
  11 -24  -4 2494.87 803.317   2
 -24  13  -4 2852.80 732.039   4
  11 -24  -4 2258.93 567.381   1
 -11 -13  -4 972.077 620.640   4
  24 -11  -4 1981.02 603.186   1
 -11 -13  -1 1601.85 672.793   2
  11 -24  -1 1387.07 651.341   2
 -13  24  -1-131.422 530.625   3
 -24  13  -1 1463.28 483.102   2
 -24  13  -1 1769.39 709.896   3
  24 -11  -1 2280.88 687.855   1
 -24  13  -1 455.038 492.651   2
  11 -24  -1 1674.35 561.747   1
 -11 -13  -1 1508.70 659.129   4
  11 -24  -1 1387.89 639.409   4
  13  11   2 3224.08 637.619   3
 -11 -13   2 4284.83 963.532   2
  13  11   2 2406.65 717.684   1
  24 -11   2 4610.06 882.193   1
  11 -24   2 2706.88 680.352   2
 -13  24   2 2179.50 712.094   3
 -24  13   2 2172.39 720.552   3
 -11 -13   2 4074.03 883.719   4
  11 -24   2 3889.61 900.886   1
  11 -24   2 4137.38 765.046   4
  13  11   5 2182.74 789.234   3
  24 -11   5 113.773 664.059   1
  11 -24   5 1552.97 588.599   2
 -13  24   5 601.261 663.673   3
 -24  13   5 977.944 714.973   3
 -11 -13   5 2479.26 829.576   4
  11 -24   5 415.635 665.663   1
  13  11   5 2179.52 708.297   1
 -11 -13   5 2432.24 982.473   2
  11 -24   5 989.475 531.896   4
  10 -24  -5 430.892 694.793   4
 -10 -14  -5 1246.50 682.861   2
  10 -24  -5-210.810 627.113   2
 -24  14  -5 862.713 509.985   4
  10 -24  -5 1196.93 504.707   1
  24 -10  -5 372.219 461.588   1
 -10 -14  -5 726.882 581.275   4
  24 -10  -2 1636.34 609.348   1
 -10 -14  -2 1110.77 650.941   2
 -24  14  -2 793.684 322.412   2
  10 -24  -2 2878.35 771.364   2
 -14  24  -2 887.160 599.208   3
  10 -24  -2 2364.01 677.455   1
 -24  14  -2 1406.28 387.715   2
 -10 -14  -2 1940.55 677.711   4
  10 -24  -2 1729.79 649.227   4
  14  10   1 0.44191 370.451   3
 -10 -14   1 696.788 663.070   2
  10 -24   1 451.605 539.502   2
  24 -10   1 628.156 666.274   1
 -14  24   1 540.705 480.029   3
  14  10   1 957.537 627.596   1
  14  10   1 162.139 360.970   3
 -24  14   1-144.393 560.614   3
  10 -24   1 847.775 594.222   1
 -10 -14   1 604.001 554.943   4
  10 -24   1 1452.53 620.308   4
  14  10   4 1288.51 638.387   3
  24 -10   4 1524.82 790.906   1
  10 -24   4 1494.12 581.303   2
 -14  24   4-275.961 631.613   3
 -24  14   4 1160.26 725.910   3
  14  10   4 1055.93 626.195   1
 -10 -14   4 187.652 652.539   4
  10 -24   4 798.887 640.131   1
  10 -24   4 769.796 493.958   4
 -10 -14   4 660.300 671.134   2
  14  10   7 467.458 771.526   3
  24 -10   7-228.236 705.179   1
  10 -24   7-855.170 546.117   2
  14  10   7 748.951 664.191   1
 -14  24   7 610.628 789.373   3
 -24  14   7 217.334 673.152   3
 -10 -14   7 692.848 639.284   4
  10 -24   7 345.015 738.712   1
 -10 -14   7 484.413 830.267   2
  10 -24   7-628.015 495.996   4
   9 -24  -6 1034.58 739.755   4
  -9 -15  -6 180.521 685.153   2
   9 -24  -6-318.157 671.256   2
 -24  15  -6 1381.57 546.258   4
   9 -24  -6 579.475 419.342   1
  -9 -15  -6 1819.79 741.817   4
  -9 -15  -3-188.031 614.616   2
   9 -24  -3-200.546 570.753   2
 -24  15  -3-175.763 577.172   4
  24  -9  -3-284.572 492.316   1
  -9 -15  -3 409.082 558.718   4
   9 -24  -3 693.272 636.454   4
  15   9   0 1891.32 678.076   1
  -9 -15   0 2622.55 764.980   2
   9 -24   0 1880.53 667.917   2
  15   9   0 1308.85 388.852   3
 -15  24   0 3056.89 764.916   3
 -24  15   0 3041.26 829.726   3
  24  -9   0 3376.36 804.857   1
  -9 -15   0 3312.23 854.456   4
   9 -24   0 3679.76 816.948   4
  -9 -15   3 2513.67 886.782   2
  15   9   3 1269.58 583.201   3
   9 -24   3 2629.09 666.484   2
  24  -9   3 1877.84 813.752   1
 -15  24   3 2166.69 650.028   3
 -24  15   3 2416.53 761.609   3
   9 -24   3 2261.83 816.212   1
  15   9   3 2970.06 813.675   1
  -9 -15   3 1832.87 752.608   4
   9 -24   3 3148.62 691.368   4
  15   9   6 2616.33 924.376   3
   9 -24   6 1900.59 671.245   2
  24  -9   6 3674.59 955.808   1
  15   9   6 3763.26 856.971   1
 -15  24   6 2562.26 912.436   3
 -24  15   6 3033.72 919.577   3
  -9 -15   6 2171.49 800.840   4
   9 -24   6 3906.61 1126.71   1
  -9 -15   6 1853.52 1001.17   2
   9 -24   6 2923.97 672.299   4
   8 -24  -7 1540.29 802.979   4
  -8 -16  -7 1090.37 718.594   2
  -8 -16  -7 1757.99 707.398   4
  -8 -16  -4 1251.06 694.592   2
  24  -8  -4 2661.17 657.139   1
   8 -24  -4 2914.02 806.847   2
 -24  16  -4 3613.82 777.630   4
  -8 -16  -4 1494.42 695.724   4
   8 -24  -4 1967.46 876.492   4
  -8 -16  -1 1865.32 772.828   2
  24  -8  -1 2458.41 660.806   1
  16   8  -1 1238.55 349.665   3
   8 -24  -1 1087.45 637.934   2
 -24  16  -1 1424.64 447.221   2
 -16  24  -1 1187.96 631.279   3
 -24  16  -1 1590.05 676.903   3
  16   8  -1 2684.51 733.915   1
 -24  16  -1 2186.67 622.015   2
  -8 -16  -1 3308.52 861.152   4
   8 -24  -1 1931.65 693.255   4
  -8 -16   2 4221.75 945.516   2
   8 -24   2 2931.70 783.365   2
 -16  24   2 2017.14 697.401   3
 -24  16   2 3619.46 855.027   3
  24  -8   2 5371.26 973.058   1
  -8 -16   2 4791.10 914.454   4
   8 -24   2 4807.45 849.824   4
  16   8   2 3733.09 782.184   1
  -8 -16   5 3020.75 1057.30   2
  16   8   5 37.5945 680.654   3
  16   8   5 1669.09 744.195   1
   8 -24   5 350.884 555.328   2
  24  -8   5 2415.12 885.149   1
 -16  24   5 1210.62 719.707   3
 -24  16   5-649.555 801.630   3
   8 -24   5 614.562 769.539   1
  -8 -16   5 869.196 662.549   4
   8 -24   5 2209.33 643.948   4
  -7 -17  -5 446.572 670.785   2
   7 -24  -5 118.301 593.888   2
 -24  17  -5 891.790 552.545   4
  -7 -17  -5 854.699 632.794   4
  24  -7  -5 834.198 552.030   1
   7 -24  -5 1336.94 741.357   4
  -7 -17  -2 474.170 606.457   2
   7 -24  -2 741.904 676.417   2
 -17  24  -2 45.5400 643.024   3
  24  -7  -2-259.564 488.562   1
 -24  17  -2-138.602 340.483   2
  -7 -17  -2 423.221 619.004   4
   7 -24  -2 1478.44 674.655   4
  17   7   1 510.514 545.685   1
  -7 -17   1 379.483 645.170   2
   7 -24   1 611.549 650.219   2
 -17  24   1 204.572 526.539   3
 -24  17   1-5.17611 534.451   3
  -7 -17   1 74.5268 538.287   4
  24  -7   1 120.356 624.294   1
   7 -24   1 604.374 617.836   4
  -7 -17   4 693.773 717.286   2
  17   7   4 716.824 600.131   1
   7 -24   4 2048.81 708.391   2
 -17  24   4 1826.70 797.681   3
 -24  17   4 1269.00 811.717   3
  24  -7   4 1371.35 752.689   1
  -7 -17   4 2046.21 730.533   4
   7 -24   4 1655.86 594.280   4
  17   7   7 2607.03 970.613   3
   7 -24   7 1574.04 776.855   2
 -17  24   7 232.317 760.835   3
  24  -7   7 2620.22 958.547   1
 -24  17   7 271.694 748.717   3
  -7 -17   7 978.669 696.892   4
   7 -24   7 341.457 918.111   1
  17   7   7 227.596 652.240   1
   7 -24   7 49.6967 510.474   4
  -7 -17   7 1345.41 995.311   2
  -6 -18  -6 1705.42 856.987   2
   6 -24  -6 3247.26 961.314   2
 -24  18  -6 3239.74 651.771   4
  -6 -18  -6 2578.85 835.707   4
   6 -24  -6 2587.67 941.568   4
  24  -6  -3 185.189 517.516   1
  -6 -18  -3 1728.57 761.289   2
   6 -24  -3 746.282 706.399   2
  -6 -18  -3 265.870 590.799   4
   6 -24  -3 365.931 706.059   4
  -6 -18   0 3199.64 859.258   2
  24  -6   0 3982.94 806.920   1
 -18  24   0 5269.26 966.485   3
   6 -24   0 5049.60 899.528   2
 -24  18   0 3569.09 833.690   3
  -6 -18   0 4177.99 873.263   4
  18   6   0 6256.19 951.458   1
   6 -24   0 4605.70 840.324   4
  -6 -18   3 889.953 705.572   2
  18   6   3 2074.13 742.154   1
   6 -24   3 191.840 561.585   2
 -18  24   3 537.322 604.526   3
 -24  18   3 834.226 737.966   3
  24  -6   3 951.244 735.701   1
  -6 -18   3-644.456 728.809   4
   6 -24   3 198.506 490.441   4
  -6 -18   6 2053.99 932.774   2
  18   6   6 1453.19 906.014   3
   6 -24   6 2948.82 855.474   2
 -18  24   6 2183.41 907.137   3
 -24  18   6 672.047 706.244   3
  24  -6   6 1263.00 793.694   1
   6 -24   6 3913.95 1123.54   1
  -6 -18   6 1815.13 754.056   4
  18   6   6 2170.54 808.779   1
   6 -24   6 2088.95 681.896   4
  -5 -19  -7 1265.45 879.567   2
   5 -24  -7 1169.52 891.964   2
  -5 -19  -7 12.9151 686.425   4
   5 -24  -7 849.707 855.480   4
  24  -5  -4 1277.11 603.171   1
  -5 -19  -4 273.597 617.297   2
   5 -24  -4 555.821 833.207   2
  -5 -19  -4 1514.23 782.167   4
  -5 -19  -1 1748.72 740.184   2
   5 -24  -1 3615.64 884.374   2
 -19  24  -1 1387.01 594.969   3
 -24  19  -1 2637.24 783.510   3
  24  -5  -1 749.455 595.824   1
  19   5  -1 635.628 541.456   1
  -5 -19  -1 1081.74 682.876   4
   5 -24  -1 1214.31 656.795   4
  24  -5   2 631.573 598.682   1
  -5 -19   2 520.560 721.068   2
  19   5   2 143.277 593.764   1
   5 -24   2 511.444 655.460   2
 -19  24   2 549.045 601.552   3
 -24  19   2 1551.12 682.340   3
  -5 -19   2 424.710 611.067   4
   5 -24   2 342.916 507.654   4
  -5 -19   5 1404.03 821.583   2
   5 -24   5 1893.47 786.310   2
 -19  24   5 396.979 710.432   3
 -24  19   5 1363.97 798.196   3
  19   5   5 1089.81 661.189   1
  -5 -19   5 205.061 633.490   4
   5 -24   5 270.035 502.657   4
  -4 -20  -5 923.304 697.559   2
   4 -24  -5 556.109 675.809   2
  -4 -20  -5 549.584 711.575   4
   4 -24  -5 686.562 684.162   4
  24  -4  -2 321.176 504.402   1
  -4 -20  -2 773.198 718.032   2
   4 -24  -2 2062.24 715.089   2
  20   4  -2 369.929 537.084   1
 -20  24  -2-172.978 577.398   3
 -24  20  -2-226.805 601.655   3
  -4 -20  -2 282.859 578.592   4
   4 -24  -2 1306.58 742.307   4
  -4 -20   1 541.213 660.421   2
   4 -24   1 527.801 692.755   2
  20   4   1 31.5796 561.663   1
  24  -4   1 402.170 572.533   1
 -20  24   1 581.612 641.776   3
 -24  20   1 2012.96 762.091   3
  -4 -20   1-127.843 665.705   4
   4 -24   1 722.301 593.500   4
  -4 -20   4 1267.00 843.063   2
   4 -24   4 2138.18 793.941   2
 -20  24   4 273.939 633.848   3
 -24  20   4 748.091 734.933   3
  20   4   4-694.715 623.793   1
  -4 -20   4 1667.81 778.450   4
  24  -4   4 650.471 668.178   1
   4 -24   4 200.552 548.139   4
  -4 -20   7 235.742 839.378   2
   4 -24   7 1126.52 810.555   2
 -20  24   7 1159.41 859.561   3
 -24  20   7 517.988 857.870   3
  20   4   7 935.217 788.268   1
  24  -4   7 1040.57 773.168   1
   4 -24   7 1506.10 1039.61   1
  -4 -20   7-303.392 635.217   4
   4 -24   7 442.007 584.945   4
  -3 -21  -6 747.036 815.423   2
   3 -24  -6 1989.87 946.923   2
  -3 -21  -6 3883.03 979.711   4
   3 -24  -6 1630.22 848.594   4
  21   3  -3-270.085 560.757   1
  -3 -21  -3 257.809 719.906   2
   3 -24  -3-286.970 595.563   2
  24  -3  -3-312.791 574.688   1
  -3 -21  -3 543.075 626.674   4
   3 -24  -3 553.237 618.384   4
  24  -3   0 5684.72 919.501   1
  -3 -21   0 3715.11 929.917   2
   3 -24   0 3447.75 931.836   2
 -21  24   0 4239.63 940.884   3
 -24  21   0 3831.62 878.353   3
  21   3   0 3586.06 826.668   1
   3 -24   0 5581.23 970.041   4
  -3 -21   0 2249.51 770.392   4
  -3 -21   3 1749.60 859.689   2
  24  -3   3 734.146 761.110   1
   3 -24   3 113.283 622.028   2
 -21  24   3-549.352 657.398   3
 -24  21   3 1443.84 802.345   3
  21   3   3 147.379 607.902   1
  -3 -21   3-29.1528 620.773   4
   3 -24   3 209.804 540.632   4
  21   3   6 6291.74 1109.76   1
  -3 -21   6 2908.70 1007.92   2
   3 -24   6 3320.69 943.623   2
 -21  24   6 3424.64 1108.56   3
 -24  21   6 2840.48 957.029   3
   3 -24   6 4515.19 915.573   4
  -3 -21   6 4695.63 942.525   4
  24  -3   6 2899.38 996.027   1
  -2 -22  -4 54.0705 687.470   2
   2 -24  -4 1394.76 760.923   2
  24  -2  -4 968.413 603.279   1
  -2 -22  -4 98.8095 637.991   4
   2 -24  -4 688.236 709.509   4
  24  -2  -1 1686.45 723.014   1
  -2 -22  -1 222.963 618.832   2
   2 -24  -1 1795.73 732.887   2
 -22  24  -1 227.042 628.112   3
 -24  22  -1 271.200 674.563   3
  22   2  -1 467.535 512.622   1
  -2 -22  -1 1146.18 746.923   4
   2 -24  -1 1243.27 715.085   4
  -2 -22   2-55.2369 686.841   2
   2 -24   2 326.878 635.972   2
  24  -2   2 620.027 634.378   1
 -22  24   2 680.490 692.539   3
 -24  22   2-198.919 687.519   3
  -2 -22   2-385.521 592.710   4
   2 -24   2 1070.41 673.270   4
  22   2   2 1142.34 697.035   1
  24  -2   5 1078.17 742.891   1
  -2 -22   5-161.408 694.065   2
   2 -24   5-374.393 711.927   2
 -22  24   5 1449.71 813.861   3
 -24  22   5 779.667 776.702   3
  22   2   5-1132.01 738.732   1
  -2 -22   5 651.932 624.606   4
   2 -24   5 1088.06 642.657   4
  -1 -23  -5 955.997 849.696   2
   1 -24  -5 430.115 729.841   2
  -1 -23  -5 675.866 758.565   4
   1 -24  -5 1209.04 771.821   4
  23   1  -2 314.402 582.403   1
  -1 -23  -2-289.997 784.732   2
   1 -24  -2 721.446 702.632   2
 -23  24  -2 353.390 645.577   3
 -24  23  -2 1578.30 795.754   3
  24  -1  -2 188.110 543.747   1
  -1 -23  -2 576.040 694.635   4
   1 -24  -2 215.484 631.540   4
  23   1   1 411.061 574.344   1
  -1 -23   1 137.010 657.664   2
   1 -24   1 1497.17 710.277   2
 -23  24   1 1119.87 694.964   3
 -24  23   1 234.261 637.396   3
  24  -1   1 888.043 643.653   1
  -1 -23   1 172.075 620.518   4
   1 -24   1 1531.31 751.729   4
  -1 -23   4-79.4009 678.271   2
   1 -24   4-532.511 674.764   2
  24  -1   4 81.6749 690.878   1
 -23  24   4 97.5048 647.148   3
 -24  23   4-478.195 750.129   3
  23   1   4-35.1351 611.512   1
  -1 -23   4-57.7631 635.864   4
   1 -24   4 629.184 625.929   4
  24   0  -3 433.742 535.929   1
   0 -24  -3 1011.84 781.612   2
   0 -24  -3 2.06991 633.820   4
  24   0   0 3712.26 891.724   1
   0 -24   0 5133.82 1035.46   2
 -24  24   0 3455.46 906.455   3
   0 -24   0 4747.04 987.126   4
   0 -24   3-612.792 816.054   2
 -24  24   3 1005.43 747.517   3
  24   0   3-69.8029 617.011   1
   0 -24   3 302.268 628.444   4
  25 -25  -4 1105.49 572.494   1
 -25   0  -4 785.993 622.631   2
 -25   0  -4 671.326 684.619   4
 -25   0  -1 1263.21 699.511   2
  25 -25  -1 66.2332 605.350   1
 -25   0  -1 939.762 724.935   4
   0  25   2 1032.56 527.276   3
  25 -25   2 1531.35 788.822   1
 -25   0   2 2297.65 825.779   4
 -25   0   2-25.3202 837.164   2
 -24  -1  -5 515.208 686.307   2
 -25   1  -5 1448.55 746.627   4
 -24  -1  -5 259.089 697.291   4
 -25   1  -2 1010.42 612.566   2
 -24  -1  -2 866.790 663.666   2
  24 -25  -2 1739.25 670.774   1
 -25   1  -2 1880.82 819.327   4
 -24  -1  -2 781.736 744.960   4
  25 -24  -2 1505.20 672.743   1
   1  24   1 744.444 397.436   3
  -1  25   1 343.251 412.958   3
  24 -25   1 1230.08 678.645   1
  25 -24   1 1944.93 783.026   1
 -25   1   1 784.604 738.806   4
 -24  -1   1 634.144 736.356   4
 -25   1   1 51.2744 737.938   2
 -24  -1   1 537.422 743.850   2
   1  24   4-207.321 587.116   3
  -1  25   4 941.988 672.371   3
  24 -25   4-993.789 800.493   1
  25 -24   4-412.652 721.861   1
 -25   1   4-543.879 581.048   3
 -25   1   4 1365.11 800.982   4
 -24  -1   4-694.095 802.481   4
 -25   1   4 962.098 997.055   2
 -24  -1   4 1236.26 1008.65   2
  25 -23  -3 2993.99 713.338   1
 -25   2  -3 2614.18 693.409   2
 -23  -2  -3 1886.10 716.936   2
  23 -25  -3 2124.84 613.508   1
 -25   2  -3 4807.33 999.507   4
 -23  -2  -3 3182.97 885.915   4
 -23  -2   0 516.739 682.090   2
  23 -25   0 1409.49 720.458   1
  -2  25   0 1290.92 445.585   3
  25 -23   0 1026.07 701.474   1
 -25   2   0 1983.74 891.229   4
 -23  -2   0 357.476 740.417   4
 -25   2   0 2043.83 836.536   2
   2  23   3 2892.57 667.577   3
  -2  25   3 3196.08 733.390   3
  23 -25   3 4582.59 1000.70   1
  25 -23   3 3095.56 985.168   1
 -25   2   3 5242.45 1087.03   4
 -23  -2   3 2745.97 880.044   4
 -25   2   3 2620.72 1070.07   2
 -23  -2   3 3538.45 1124.55   2
 -25   3  -4 926.976 514.718   2
 -22  -3  -4 2274.10 780.282   2
  25 -22  -4 505.418 518.880   1
 -25   3  -4 154.694 630.315   4
 -22  -3  -4 1377.71 712.217   4
  22 -25  -4 814.792 473.498   1
 -22  -3  -1 849.006 705.506   2
  22 -25  -1-232.521 512.460   1
  -3  25  -1 104.023 337.464   3
 -25   3  -1 39.5405 646.190   4
 -22  -3  -1 414.790 651.513   4
  25 -22  -1 271.844 545.235   1
 -25   3  -1 9.29840 540.502   2
  22 -25   2 698.854 695.083   1
   3  22   2 1001.20 437.595   3
  -3  25   2 67.9235 486.296   3
  25 -22   2-204.117 624.555   1
 -25   3   2 292.043 646.358   4
 -22  -3   2 562.422 674.001   4
 -25   3   2 1104.46 896.972   2
 -22  -3   2 522.830 743.359   2
   3  22   5 1221.51 742.572   3
  22 -25   5 593.243 840.902   1
  -3  25   5-209.395 695.719   3
 -25   3   5 1452.72 690.190   3
  25 -22   5 223.877 822.378   1
 -25   3   5 38.6331 704.783   4
 -22  -3   5 1.09149 690.251   4
 -25   3   5 94.5840 896.104   2
 -22  -3   5 319.130 880.730   2
 -21  -4  -5 883.871 613.391   2
 -25   4  -5 1038.86 689.239   4
 -21  -4  -5 880.400 689.376   4
 -25   4  -2 1088.59 617.858   2
 -21  -4  -2 1583.75 736.323   2
  21 -25  -2 2291.88 707.223   1
 -25   4  -2 1650.82 740.212   4
 -21  -4  -2 1524.57 719.665   4
  25 -21  -2 1530.82 640.779   1
  21 -25   1 583.197 680.999   1
   4  21   1 929.865 381.818   3
  -4  25   1 724.566 515.682   3
 -25   4   1 982.734 708.414   4
  25 -21   1 2323.25 790.255   1
 -21  -4   1 1149.07 667.509   4
 -25   4   1 1316.13 781.188   2
 -21  -4   1 2031.62 808.028   2
   4  21   4 1774.27 706.036   3
  21 -25   4 196.227 697.009   1
  -4  25   4 1807.51 713.918   3
 -25   4   4 1478.98 715.662   3
  25 -21   4 2420.46 892.690   1
 -25   4   4 1808.07 799.489   4
 -21  -4   4 2747.84 818.775   4
 -25   4   4 514.221 846.293   2
 -21  -4   4 1102.04 870.239   2
 -20  -5  -6 292.636 611.337   2
 -25   5  -6 1095.43 644.657   4
 -20  -5  -6 2208.36 757.778   4
 -25   5  -3 3324.98 644.661   2
 -20  -5  -3 3517.61 827.434   2
  25 -20  -3 4598.56 764.716   1
 -25   5  -3 3703.10 863.870   4
 -20  -5  -3 4914.28 962.398   4
  20 -25  -3 4390.12 723.999   1
 -20  -5   0 1919.17 738.842   2
  20 -25   0 2625.85 744.692   1
  -5  25   0 671.175 478.968   3
 -25   5   0 3333.77 910.015   4
 -20  -5   0 1215.05 695.511   4
  25 -20   0 2466.74 771.500   1
 -25   5   0 562.055 645.172   2
  20 -25   3 2422.54 887.808   1
   5  20   3 3400.02 683.771   3
  -5  25   3 2592.05 693.518   3
 -25   5   3 4413.41 833.761   3
  25 -20   3 822.028 715.781   1
 -25   5   3 2829.86 889.485   4
 -20  -5   3 4348.72 1037.19   4
 -25   5   3 5458.22 1191.13   2
 -20  -5   3 1874.48 982.967   2
   5  20   6 1057.25 783.102   3
  20 -25   6 2390.05 946.148   1
  -5  25   6 1849.17 839.366   3
 -25   5   6 1757.92 757.913   3
  25 -20   6 1879.35 951.936   1
 -25   5   6 3434.00 1015.52   4
 -20  -5   6 841.072 766.507   4
 -25   5   6 853.199 1043.23   2
 -20  -5   6 2137.86 1069.09   2
 -25   6  -4 433.271 358.575   2
 -19  -6  -4 1056.32 698.661   2
  19 -25  -4 325.998 424.992   1
 -25   6  -4 1294.52 658.533   4
  25 -19  -4 478.311 521.923   1
 -19  -6  -4 1171.05 664.372   4
  25 -19  -1 480.779 547.684   1
 -19  -6  -1 252.279 579.820   2
  19 -25  -1 1380.25 611.848   1
  -6  25  -1 1311.92 496.526   3
 -25   6  -1 423.318 639.696   4
 -19  -6  -1-158.259 621.946   4
 -25   6  -1 318.070 554.112   2
  19 -25   2 376.720 582.610   1
   6  19   2 74.3253 386.917   3
  -6  25   2 295.717 487.823   3
 -25   6   2-54.3489 537.216   3
  19 -25   2 358.479 493.550   2
 -25   6   2-500.597 652.404   4
 -19  -6   2 221.399 582.789   4
  25 -19   2 693.999 680.653   1
 -25   6   2 212.317 708.258   2
 -19  -6   2 1599.41 826.828   2
  19 -25   5 220.428 698.399   1
   6  19   5 893.112 702.940   3
  -6  25   5 1237.16 668.561   3
 -25   6   5 1216.81 807.173   3
 -25   6   5 960.008 783.443   4
  25 -19   5 1089.79 755.552   1
 -19  -6   5 1577.56 776.007   4
 -25   6   5 2438.03 1084.07   2
 -19  -6   5 1627.00 929.772   2
 -18  -7  -5 33.1541 653.655   2
  25 -18  -5 1443.34 475.116   1
 -25   7  -5 2198.10 720.328   4
 -18  -7  -5 1920.97 749.485   4
 -25   7  -2 1054.41 511.750   2
 -18  -7  -2 1136.34 683.521   2
  18 -25  -2 993.693 592.368   1
  25 -18  -2 2217.36 640.334   1
  -7  25  -2 1507.04 526.215   3
 -25   7  -2 2452.26 827.530   4
 -18  -7  -2 1850.00 776.607   4
 -18  -7   1 3887.53 1000.04   2
  18 -25   1 4440.56 911.280   1
   7  18   1 2488.36 418.675   3
  25 -18   1 5591.37 986.158   1
  -7  25   1 2569.85 659.626   3
  18 -25   1 2489.11 632.171   2
 -25   7   1 3562.50 854.296   3
 -25   7   1 1261.30 773.714   4
 -18  -7   1 2692.94 889.743   4
 -25   7   1 3500.69 931.714   2
  18 -25   4 3816.27 1017.51   1
   7  18   4 2158.76 688.475   3
  -7  25   4 2671.32 797.535   3
  18 -25   4 1610.09 500.570   2
 -25   7   4 1249.09 667.104   3
 -25   7   4 1532.47 803.851   4
  25 -18   4 1408.30 753.264   1
 -18  -7   4 842.767 633.635   4
 -25   7   4 992.362 844.812   2
 -18  -7   4 787.805 802.247   2
 -17  -8  -6 475.908 701.109   2
 -25   8  -6 1266.08 613.094   4
 -17  -8  -6 418.478 699.880   4
 -17  -8  -3 3739.06 842.999   2
 -25   8  -3 5713.52 970.226   4
  25 -17  -3 5067.75 766.400   1
 -17  -8  -3 5632.33 992.455   4
  17 -25  -3 5125.78 777.619   1
 -25   8  -3 4112.38 536.761   2
  25 -17   0 998.673 663.046   1
 -17  -8   0 504.455 646.327   2
  17 -25   0-199.592 553.812   1
  -8  25   0 980.335 573.273   3
  17 -25   0 926.792 581.777   2
 -25   8   0 120.557 650.612   4
 -17  -8   0 489.049 642.209   4
 -25   8   0 8.21545 546.013   2
  17 -25   3 887.531 669.310   1
   8  17   3 2527.25 640.735   3
  -8  25   3 2218.09 673.150   3
  17 -25   3 1533.31 567.937   2
 -25   8   3 1959.02 793.680   3
 -25   8   3 3093.12 930.863   4
 -25   8   3 3278.00 1014.79   2
 -17  -8   3 1891.93 747.294   4
  25 -17   3 3655.02 965.424   1
 -17  -8   3 1125.33 878.386   2
  17 -25   6 2282.13 949.894   1
   8  17   6 255.666 704.085   3
  -8  25   6 1394.48 858.167   3
 -25   8   6 4077.45 954.322   3
 -25   8   6 1022.48 769.834   4
 -25   8   6 155.057 889.870   2
 -17  -8   6 2158.09 844.828   4
  25 -17   6 1173.37 812.310   1
 -17  -8   6 2162.31 1026.02   2
 -16  -9  -7 1062.50 790.757   2
 -16  -9  -7 1333.61 712.667   4
  16 -25  -4 272.824 418.639   1
  25 -16  -4 34.4088 467.505   1
 -16  -9  -4 719.119 598.092   2
 -25   9  -4 1597.94 658.518   4
 -16  -9  -4-646.467 634.598   4
  16 -25  -1 1878.88 654.368   1
 -16  -9  -1 770.937 671.709   2
  25 -16  -1 1403.89 640.350   1
  -9  25  -1 997.263 536.744   3
  16 -25  -1 1556.76 618.503   2
 -25   9  -1 2247.89 717.943   4
 -16  -9  -1 1076.21 679.256   4
 -25   9  -1 1289.17 545.697   2
  16 -25   2 444.113 641.640   1
   9  16   2 582.807 385.615   3
  -9  25   2 206.064 559.708   3
  16 -25   2 552.843 493.701   2
 -25   9   2 341.889 610.305   3
 -25   9   2 1910.48 861.761   4
 -25   9   2-86.0196 674.052   2
 -16  -9   2-393.404 579.368   4
  25 -16   2 218.967 704.222   1
 -16  -9   2 1152.44 815.199   2
  16 -25   5 784.153 703.216   1
   9  16   5 1067.08 708.814   3
  -9  25   5 2032.87 846.329   3
  16 -25   5 884.678 490.228   2
 -25   9   5 556.254 695.652   3
 -25   9   5 2032.22 841.232   4
 -25   9   5 241.601 863.024   2
 -16  -9   5 976.016 741.183   4
  25 -16   5 1171.62 809.419   1
 -16  -9   5 1028.60 887.435   2
  15 -25  -5 1965.93 477.586   1
 -15 -10  -5 3024.01 880.195   2
 -25  10  -5 2298.86 674.893   4
 -15 -10  -5 2150.00 736.507   4
  25 -15  -5 1667.36 552.627   1
 -15 -10  -2 1803.44 703.599   2
  15 -25  -2 2620.71 778.757   2
 -10  25  -2 2248.73 631.300   3
  25 -15  -2 1765.11 604.158   1
 -25  10  -2 3852.06 879.629   4
  15 -25  -2 4286.76 764.341   1
 -15 -10  -2 2978.38 789.603   4
 -25  10  -2 2393.86 512.189   2
 -15 -10   1 1650.27 733.723   2
  25 -15   1 1364.34 691.897   1
  10  15   1 1723.66 386.751   3
 -10  25   1 1029.94 577.492   3
  15 -25   1 1210.57 605.182   2
 -25  10   1 2132.20 747.887   3
 -25  10   1 1918.17 742.228   4
 -25  10   1 1770.82 753.924   2
 -15 -10   1 712.181 648.711   4
  15 -25   1 2721.65 750.842   1
  15 -25   4 3222.24 906.741   1
  10  15   4 1280.26 665.964   3
 -10  25   4 3177.21 881.914   3
  15 -25   4 1446.73 584.074   2
 -25  10   4 1094.50 754.070   3
 -25  10   4 879.475 739.090   4
 -25  10   4 2627.20 993.771   2
 -15 -10   4 2259.05 830.385   4
  25 -15   4 2532.73 880.083   1
 -15 -10   4 1915.82 828.829   2
  15 -25   7 1914.03 901.959   1
  10  15   7 1160.48 851.751   3
 -10  25   7 2704.91 986.070   3
 -25  10   7 1936.77 821.856   3
 -25  10   7 1562.31 941.565   4
 -25  10   7 3545.93 1156.02   2
 -15 -10   7 2612.69 864.312   4
  25 -15   7 4454.86 1040.18   1
 -15 -10   7 2071.07 1114.06   2
  10  15   7 693.473 583.717   1
 -14 -11  -6 600.796 711.064   2
  25 -14  -6 527.163 440.511   1
 -25  11  -6 38.3568 478.982   4
 -14 -11  -6 544.229 580.417   4
  25 -14  -3 1584.59 574.129   1
 -25  11  -3 1268.02 312.423   2
 -14 -11  -3 1687.97 732.222   2
  14 -25  -3 1662.56 690.632   2
 -25  11  -3 1626.58 722.241   4
 -14 -11  -3 2539.11 784.044   4
  14 -25  -3 2692.27 636.378   1
  14 -25   0-229.608 550.453   4
 -14 -11   0-220.892 588.721   2
  11  14   0 306.026 165.174   3
  25 -14   0 2043.53 720.528   1
  11  14   0 358.260 158.556   3
  14 -25   0 1418.28 560.093   2
 -11  25   0 896.858 557.301   3
 -25  11   0 918.946 643.036   3
 -25  11   0 1903.46 736.016   4
 -25  11   0 388.681 618.509   2
 -14 -11   0 1826.01 705.192   4
  14 -25   0 1459.49 684.630   1
  14 -25   3-521.032 526.074   4
  25 -14   3 989.377 769.662   1
  11  14   3-113.267 469.413   3
 -11  25   3 770.001 649.425   3
  14 -25   3-45.3377 519.289   2
 -25  11   3 979.958 692.301   3
 -25  11   3 1739.30 820.195   4
 -25  11   3 1127.92 771.419   2
 -14 -11   3 1580.28 770.651   4
  14 -25   3 835.119 709.048   1
 -14 -11   3-569.606 769.761   2
  14 -25   6 1994.48 881.571   1
  11  14   6 522.452 676.989   3
  11  14   6 1529.55 727.262   1
  14 -25   6-678.313 553.524   2
 -11  25   6 1220.89 824.853   3
 -25  11   6-31.8597 658.439   3
 -25  11   6 1284.66 770.286   4
 -25  11   6 1079.03 954.078   2
 -14 -11   6 1667.64 779.231   4
 -14 -11   6 1457.45 931.017   2
  25 -14   6 360.617 702.812   1
 -13 -12  -7 1645.89 815.790   2
 -13 -12  -7 1172.37 710.853   4
 -13 -12  -4 1482.89 741.500   2
  13 -25  -4 1656.18 832.616   2
  25 -13  -4 1377.88 555.857   1
 -25  12  -4 94.8850 534.872   4
 -13 -12  -4 1301.41 682.363   4
  13 -25  -4 1198.99 494.542   1
  13 -25  -1 2284.41 676.518   4
 -13 -12  -1 1182.22 691.263   2
  13 -25  -1 1162.21 634.558   2
 -12  25  -1 1960.00 644.654   3
  25 -13  -1 1300.67 670.867   1
 -25  12  -1 1175.23 667.157   4
 -25  12  -1 1683.33 577.471   2
 -13 -12  -1 1942.91 759.291   4
  13 -25  -1 601.597 544.409   1
  13 -25   2 2930.49 691.176   4
 -13 -12   2 3110.88 938.026   2
  12  13   2 2334.04 557.994   3
  25 -13   2 2611.40 822.412   1
  13 -25   2 3806.26 731.774   2
 -12  25   2 2122.93 726.296   3
 -25  12   2 2680.16 752.344   3
 -25  12   2 3536.33 952.476   2
 -13 -12   2 3962.10 894.353   4
  13 -25   2 3391.52 900.207   1
  13 -25   5 1931.62 630.011   4
  25 -13   5 3273.60 953.516   1
  12  13   5 2003.73 739.731   3
  13 -25   5 617.226 585.457   2
 -12  25   5 345.388 599.634   3
 -25  12   5 609.901 684.438   3
 -13 -12   5 677.562 706.235   4
  12  13   5-86.6259 567.068   1
  13 -25   5 933.180 816.534   1
 -13 -12   5 2453.54 1009.55   2
 -12 -13  -5-4.80030 743.608   2
  25 -12  -5 360.604 511.579   1
  12 -25  -5 654.671 676.571   2
 -25  13  -5 1930.77 630.600   4
 -12 -13  -5 1923.24 788.071   4
  12 -25  -5 1000.18 458.454   1
  12 -25  -2 3701.67 847.978   4
 -12 -13  -2 1383.07 722.974   2
  12 -25  -2 2847.16 771.602   2
 -13  25  -2 4060.41 754.391   3
 -25  13  -2 4955.08 927.111   4
  12 -25  -2 3590.15 714.749   1
 -12 -13  -2 2999.42 787.087   4
 -25  13  -2 2245.72 479.955   2
  25 -12  -2 3696.94 748.367   1
 -12 -13   1 1057.86 728.341   2
  13  12   1 1089.32 396.102   3
  25 -12   1 1695.79 738.786   1
  12 -25   1 1572.24 663.804   2
 -13  25   1 1223.33 675.920   3
 -25  13   1 1294.25 658.091   3
 -25  13   1 1074.15 768.379   2
 -12 -13   1 2584.73 823.406   4
  12 -25   1 629.657 624.994   1
  12 -25   1 779.616 573.602   4
  13  12   4 245.169 549.974   3
  25 -12   4 1961.93 830.596   1
  12 -25   4 57.1504 510.349   2
 -13  25   4 1379.27 694.437   3
 -25  13   4 776.600 683.120   3
  13  12   4 1225.74 649.279   1
 -12 -13   4 1207.77 730.655   4
  12 -25   4 2016.32 788.612   1
 -12 -13   4 1684.87 863.325   2
  12 -25   4 1398.15 565.413   4
  25 -12   7 1836.04 966.214   1
  13  12   7 122.813 812.772   3
  12 -25   7 955.694 617.295   2
 -13  25   7 259.579 737.464   3
 -25  13   7 1032.46 788.058   3
 -12 -13   7 1019.64 660.406   4
 -12 -13   7 1400.91 1007.90   2
  13  12   7 1117.50 734.518   1
  12 -25   7 987.774 815.456   1
 -11 -14  -6 602.326 764.568   2
 -25  14  -6 1430.64 548.827   4
  25 -11  -6 716.891 526.216   1
 -11 -14  -6 1152.60 750.947   4
  11 -25  -3 893.160 730.628   4
 -11 -14  -3 319.659 587.319   2
  25 -11  -3 287.982 481.303   1
  11 -25  -3-715.898 640.198   2
 -25  14  -3 891.572 603.417   4
  11 -25  -3 1847.55 655.872   1
 -11 -14  -3 356.859 555.290   4
  14  11   0 313.292 273.250   3
 -11 -14   0 854.618 592.032   2
  11 -25   0 615.955 620.034   2
 -14  25   0 812.657 610.119   3
 -25  14   0-421.581 599.301   3
  25 -11   0 444.495 588.688   1
 -25  14   0 1788.35 690.748   2
  11 -25   0 726.848 663.834   1
 -11 -14   0 46.0218 600.798   4
  11 -25   0 2294.05 727.573   4
 -11 -14   3 2097.42 941.535   2
  14  11   3 2494.45 701.315   3
  25 -11   3 1675.14 854.821   1
  11 -25   3 2355.49 667.765   2
 -14  25   3 2293.37 736.361   3
 -25  14   3 1677.73 764.508   3
  14  11   3 2617.17 741.427   1
 -11 -14   3 2700.93 817.015   4
  11 -25   3 1715.28 819.578   1
  11 -25   3 2550.23 705.828   4
  14  11   6 103.052 676.087   3
  25 -11   6 2701.64 921.864   1
  11 -25   6 513.928 567.956   2
 -14  25   6 935.342 699.202   3
 -25  14   6 1347.83 826.810   3
  14  11   6 919.900 662.584   1
 -11 -14   6 1559.62 799.245   4
  11 -25   6 288.126 814.417   1
 -11 -14   6 1051.75 847.417   2
  11 -25   6 957.765 544.597   4
 -10 -15  -7 1349.53 886.810   2
 -10 -15  -7 850.945 696.166   4
  10 -25  -4 2014.96 889.281   4
  25 -10  -4 2004.45 633.507   1
 -10 -15  -4 2141.47 836.261   2
  10 -25  -4 3545.52 885.801   2
 -25  15  -4 1483.11 705.405   4
  10 -25  -4 1601.58 560.672   1
 -10 -15  -4 941.666 644.192   4
 -10 -15  -1 2057.63 791.043   2
  10 -25  -1 2450.37 766.839   2
 -15  25  -1 39.4842 541.792   3
 -25  15  -1 305.214 650.177   3
 -25  15  -1 2210.04 646.208   2
 -10 -15  -1 2106.04 790.977   4
  25 -10  -1 2217.01 736.176   1
  10 -25  -1 2315.48 783.516   4
 -10 -15   2 3216.82 922.071   2
  15  10   2 2174.18 577.428   3
  10 -25   2 3105.22 779.417   2
  25 -10   2 2793.90 888.289   1
 -15  25   2 1863.03 667.292   3
 -25  15   2 1558.77 681.659   3
  15  10   2 2343.44 752.038   1
  10 -25   2 3642.65 990.390   1
 -10 -15   2 1105.25 658.766   4
  10 -25   2 2768.88 753.778   4
  15  10   5 2341.00 776.453   3
  25 -10   5 5079.68 1047.91   1
  10 -25   5 3778.59 833.300   2
 -15  25   5 2866.71 858.620   3
 -25  15   5 1871.43 781.828   3
  15  10   5 2751.43 811.118   1
 -10 -15   5 3445.69 832.646   4
  10 -25   5 2602.76 920.708   1
  10 -25   5 2176.83 635.470   4
 -10 -15   5 3840.80 1033.95   2
   9 -25  -5 2028.97 819.512   4
  25  -9  -5 2137.20 633.278   1
  -9 -16  -5 153.018 642.606   2
   9 -25  -5 2663.25 870.617   2
 -25  16  -5 961.529 583.289   4
  -9 -16  -5 1729.94 821.720   4
  -9 -16  -2-408.107 651.335   2
  25  -9  -2-209.280 526.709   1
   9 -25  -2 578.150 685.569   2
 -16  25  -2-636.402 609.422   3
 -25  16  -2 601.790 398.192   2
  -9 -16  -2 236.924 610.063   4
   9 -25  -2 1542.17 694.745   4
  -9 -16   1 632.215 688.489   2
   9 -25   1 2212.23 732.721   2
 -16  25   1 1462.85 729.354   3
 -25  16   1 1072.51 644.985   3
  25  -9   1 751.025 677.801   1
  -9 -16   1 1944.19 732.989   4
  16   9   1 1731.53 752.760   1
   9 -25   1 907.091 599.092   4
  -9 -16   4 657.879 792.680   2
  16   9   4 254.552 655.896   3
   9 -25   4 303.041 662.220   2
  25  -9   4 1045.26 746.861   1
 -16  25   4 806.006 640.354   3
 -25  16   4 1114.68 715.694   3
  16   9   4 1182.78 623.535   1
   9 -25   4-136.693 695.713   1
  -9 -16   4-181.755 613.107   4
   9 -25   4 941.263 621.279   4
  16   9   7 797.237 855.267   3
   9 -25   7 704.615 716.220   2
  16   9   7-527.283 694.565   1
  25  -9   7 2485.02 944.227   1
 -16  25   7 381.855 762.606   3
 -25  16   7 587.086 832.076   3
  -9 -16   7-268.489 605.074   4
   9 -25   7 791.879 829.091   1
  -9 -16   7 2988.62 1104.95   2
   9 -25   7-21.1049 550.242   4
   8 -25  -6 922.684 803.178   4
  -8 -17  -6 279.448 683.724   2
   8 -25  -6 1001.45 832.758   2
 -25  17  -6 1091.93 582.783   4
  -8 -17  -6 1954.97 846.835   4
  -8 -17  -3 2636.01 848.065   2
   8 -25  -3 2315.61 804.222   2
  -8 -17  -3 1555.33 830.671   4
   8 -25  -3 2641.58 969.901   4
  25  -8  -3 1125.94 611.355   1
  25  -8   0 802.655 605.354   1
  -8 -17   0 14.5551 704.401   2
  17   8   0 200.458 532.339   1
   8 -25   0 86.2280 591.333   2
 -17  25   0 1267.63 653.803   3
 -25  17   0-853.369 715.982   3
  -8 -17   0-1240.18 678.022   4
   8 -25   0 887.241 568.620   4
   8 -25   3 6051.17 975.392   2
  -8 -17   3 4855.31 1050.53   2
 -17  25   3 5160.84 966.299   3
 -25  17   3 2387.44 834.059   3
  25  -8   3 4406.90 984.447   1
  17   8   3 5741.42 981.731   1
  -8 -17   3 5474.13 1015.01   4
   8 -25   3 5977.50 901.669   4
  -8 -17   6 1194.42 893.278   2
  17   8   6 1251.33 758.888   3
  17   8   6 630.489 677.304   1
   8 -25   6 1185.47 749.304   2
 -17  25   6 409.398 737.884   3
  25  -8   6-1226.77 836.429   1
 -25  17   6-222.455 735.392   3
   8 -25   6 795.534 913.273   1
  -8 -17   6 1042.40 721.108   4
   8 -25   6 130.559 541.852   4
  -7 -18  -4 2386.36 884.063   2
   7 -25  -4 2399.02 804.928   2
  25  -7  -4 2136.64 673.960   1
  -7 -18  -4 1336.91 768.068   4
   7 -25  -4 2591.86 883.986   4
  18   7  -1 4116.72 918.128   1
   7 -25  -1 3606.06 887.631   2
  25  -7  -1 1896.98 659.988   1
 -18  25  -1 3805.05 912.900   3
 -25  18  -1 4254.13 932.230   3
  -7 -18  -1 4328.46 889.552   4
  -7 -18  -1 5159.29 1001.96   2
   7 -25  -1 2832.10 841.578   4
  -7 -18   2 2920.13 996.083   2
   7 -25   2 1357.83 694.712   2
 -18  25   2 915.681 645.002   3
 -25  18   2 800.935 630.973   3
  18   7   2 1641.81 628.017   1
  25  -7   2 1539.24 807.948   1
  -7 -18   2 1815.32 746.149   4
   7 -25   2 2279.92 745.110   4
  -7 -18   5 2002.57 938.394   2
  18   7   5 1135.77 719.594   3
  18   7   5 1074.00 704.571   1
   7 -25   5 923.140 647.197   2
 -18  25   5 792.566 810.834   3
 -25  18   5 2854.11 999.679   3
  25  -7   5 3025.91 917.834   1
   7 -25   5-299.989 789.549   1
  -7 -18   5 2319.68 786.242   4
   7 -25   5 1096.31 581.730   4
  -6 -19  -5 1917.09 861.733   2
   6 -25  -5 1145.61 761.274   2
  25  -6  -5 1805.64 687.279   1
 -25  19  -5 196.752 567.204   4
  -6 -19  -5 2594.41 868.358   4
   6 -25  -5-61.8009 762.151   4
  -6 -19  -2-362.148 615.813   2
   6 -25  -2 31.6951 569.501   2
 -19  25  -2 75.5946 732.789   3
 -25  19  -2 548.676 719.158   3
 -25  19  -2-289.405 411.928   2
  25  -6  -2 518.741 519.900   1
  -6 -19  -2 595.468 741.180   4
  19   6  -2 700.581 616.045   1
   6 -25  -2 1849.79 780.789   4
  25  -6   1 104.070 605.721   1
  -6 -19   1-919.227 799.234   2
   6 -25   1 142.735 585.880   2
 -19  25   1-105.948 654.948   3
 -25  19   1-109.237 642.633   3
  19   6   1 686.098 622.522   1
  -6 -19   1 602.123 639.463   4
   6 -25   1 630.063 620.124   4
  -6 -19   4 1010.07 879.160   2
  19   6   4 638.207 690.621   1
   6 -25   4 1047.24 692.802   2
 -19  25   4 589.165 729.175   3
 -25  19   4 1257.00 736.531   3
  25  -6   4 2013.76 835.896   1
  -6 -19   4 731.412 621.547   4
   6 -25   4 714.984 591.809   4
  -5 -20  -6 499.079 750.138   2
   5 -25  -6 1087.43 833.371   2
  -5 -20  -6 1658.65 786.738   4
   5 -25  -6 2825.97 947.925   4
  -5 -20  -3 3300.20 910.274   2
   5 -25  -3 3127.12 899.178   2
  25  -5  -3 4028.91 812.615   1
   5 -25  -3 3555.09 1009.34   4
  -5 -20  -3 3614.93 951.099   4
  20   5   0 1795.41 682.792   1
  -5 -20   0 806.821 630.910   2
   5 -25   0 965.597 661.492   2
  25  -5   0 2527.49 790.368   1
 -20  25   0 2441.87 849.669   3
 -25  20   0 1404.32 728.193   3
  -5 -20   0 719.341 613.204   4
   5 -25   0 703.000 621.047   4
  -5 -20   3 3690.94 1013.37   2
   5 -25   3 3123.72 828.360   2
  20   5   3 5522.93 1027.60   1
 -20  25   3 4393.64 980.954   3
 -25  20   3 4663.67 989.930   3
   5 -25   3 4483.92 912.440   4
  -5 -20   3 3167.74 850.816   4
  25  -5   3 3817.11 951.829   1
  -5 -20   6 786.036 864.490   2
   5 -25   6-82.8057 684.517   2
 -20  25   6 1615.69 892.110   3
 -25  20   6 1547.44 803.664   3
  25  -5   6-321.970 745.024   1
   5 -25   6 1546.86 837.377   1
  20   5   6-11.2931 652.046   1
  -5 -20   6 1733.85 749.584   4
   5 -25   6 984.314 655.920   4
  -4 -21  -4 863.559 816.242   2
   4 -25  -4 736.753 657.879   2
  25  -4  -4-208.586 531.627   1
  -4 -21  -4 2271.43 898.295   4
   4 -25  -4 1343.33 921.133   4
  -4 -21  -1 264.768 607.670   2
   4 -25  -1 825.583 693.593   2
  21   4  -1 1192.54 586.012   1
 -21  25  -1 454.599 648.043   3
 -25  21  -1 318.498 617.579   3
  25  -4  -1 201.948 543.371   1
  -4 -21  -1-97.5690 620.812   4
   4 -25  -1 753.659 646.139   4
  -4 -21   2 93.2082 626.567   2
  21   4   2 606.858 649.966   1
  25  -4   2 1504.32 713.316   1
   4 -25   2 1721.28 782.401   2
 -21  25   2 435.532 754.745   3
 -25  21   2 752.220 806.618   3
  -4 -21   2 2261.82 802.773   4
   4 -25   2 1628.64 685.467   4
  -4 -21   5 893.677 960.343   2
   4 -25   5 348.862 749.036   2
 -21  25   5 530.724 808.605   3
 -25  21   5 1387.86 753.852   3
  21   4   5 913.442 639.939   1
  -4 -21   5 1021.40 667.097   4
  25  -4   5-343.076 665.253   1
   4 -25   5 846.606 614.140   4
  -3 -22  -5 1174.40 807.367   2
   3 -25  -5 1184.11 823.901   2
  -3 -22  -5 586.626 814.061   4
   3 -25  -5 108.365 691.105   4
  22   3  -2-303.398 576.043   1
  -3 -22  -2 1545.92 745.094   2
  25  -3  -2 1200.60 653.490   1
   3 -25  -2 429.566 677.135   2
 -22  25  -2-349.031 681.365   3
 -25  22  -2 650.208 720.729   3
  -3 -22  -2 174.720 620.014   4
   3 -25  -2 1661.72 773.493   4
  -3 -22   1 1157.77 801.666   2
   3 -25   1 144.701 723.045   2
  22   3   1-760.005 630.100   1
 -22  25   1-277.987 593.439   3
 -25  22   1 768.356 669.116   3
  25  -3   1-250.944 585.664   1
  -3 -22   1 439.302 678.020   4
   3 -25   1-1156.41 716.064   4
  -3 -22   4 750.027 843.980   2
  25  -3   4 1222.36 760.524   1
   3 -25   4 554.886 709.333   2
 -22  25   4 656.994 748.732   3
 -25  22   4-940.221 724.434   3
  22   3   4-133.263 707.611   1
  -3 -22   4 986.024 679.264   4
   3 -25   4 528.979 556.480   4
  23   2  -3 2952.98 816.167   1
  -2 -23  -3 1258.43 853.080   2
   2 -25  -3 3149.95 941.129   2
  25  -2  -3 4340.40 920.814   1
  -2 -23  -3 1789.16 851.261   4
   2 -25  -3 999.612 847.959   4
  -2 -23   0 1551.39 734.263   2
   2 -25   0 1528.48 778.651   2
 -23  25   0 1422.03 869.240   3
  23   2   0 370.596 636.436   1
 -25  23   0-315.047 697.402   3
  -2 -23   0 3536.21 896.482   4
   2 -25   0 2617.20 886.303   4
  25  -2   0-275.970 614.274   1
  -2 -23   3 2758.07 863.462   2
   2 -25   3 3952.72 983.930   2
  25  -2   3 3223.07 890.745   1
 -23  25   3 1642.04 749.668   3
 -25  23   3 1538.94 858.325   3
  23   2   3 2109.58 796.532   1
  -2 -23   3 1899.21 769.213   4
   2 -25   3 2929.44 790.382   4
  -1 -24  -4 294.263 738.045   2
   1 -25  -4-314.191 729.310   2
  25  -1  -4-539.772 646.797   1
  -1 -24  -4 1072.84 798.245   4
   1 -25  -4 710.165 761.164   4
  -1 -24  -1 2145.27 831.924   2
   1 -25  -1 3399.58 874.918   2
  25  -1  -1 1216.48 724.124   1
 -24  25  -1 368.626 675.959   3
 -25  24  -1 609.293 681.014   3
  24   1  -1 745.924 609.604   1
  -1 -24  -1 723.168 749.965   4
   1 -25  -1 732.794 668.118   4
  -1 -24   2 1106.10 772.514   2
   1 -25   2 1612.15 777.975   2
 -24  25   2 2521.89 801.471   3
 -25  24   2 307.305 688.956   3
  25  -1   2 964.285 719.114   1
  -1 -24   2 1571.86 753.998   4
  24   1   2 16.8027 620.518   1
   1 -25   2 1509.24 830.013   4
  -1 -24   5 1870.49 941.490   2
   1 -25   5 1731.31 887.077   2
  25  -1   5 1933.27 914.210   1
 -24  25   5 1180.63 887.743   3
 -25  24   5 1318.56 872.684   3
  24   1   5 1465.41 837.669   1
  -1 -24   5 1189.05 751.204   4
   1 -25   5 1607.74 792.126   4
  25   0  -2 234.370 609.231   1
   0 -25  -2 1659.23 859.205   2
 -25  25  -2 905.345 848.067   3
   0 -25  -2 1554.95 784.982   4
  25   0   1 258.016 627.841   1
   0 -25   1-69.7286 648.141   2
 -25  25   1 458.771 745.425   3
   0 -25   1-817.412 687.833   4
   0 -25   4 1262.14 860.672   2
 -25  25   4 664.788 741.544   3
  25   0   4 2950.15 989.723   1
   0 -25   4 758.248 739.545   4
 -26   0  -2 100.738 630.856   2
 -26   0  -2 1483.22 880.558   4
  26 -26  -2 2091.66 765.854   1
  26 -26   1 587.481 712.523   1
 -26   0   1 563.412 776.146   4
 -26   0   1-957.508 840.263   2
 -26   1  -3 1288.21 669.133   2
 -25  -1  -3 1265.72 780.207   2
 -26   1  -3 2143.62 882.027   4
 -25  -1  -3 3571.35 1011.74   4
  25 -26  -3 2692.90 692.214   1
  26 -25  -3 2994.81 729.887   1
 -25  -1   0 357.439 707.498   2
  25 -26   0 723.205 724.591   1
  26 -25   0 1524.00 770.708   1
 -26   1   0 435.052 726.041   4
 -25  -1   0 2006.15 832.454   4
 -26   1   0 1086.49 762.171   2
   1  25   3 1983.12 634.801   3
  -1  26   3 1715.22 636.458   3
  25 -26   3 2325.92 929.420   1
  26 -25   3 3525.15 1025.25   1
 -26   1   3 3909.84 1031.82   4
 -25  -1   3 1677.98 868.873   4
 -26   1   3 3089.20 1166.87   2
 -25  -1   3 2481.96 1067.80   2
 -26   2  -4 735.516 603.005   2
 -24  -2  -4 82.9465 601.724   2
  26 -24  -4-402.858 505.399   1
 -26   2  -4 891.013 716.920   4
 -24  -2  -4-458.061 678.254   4
 -26   2  -1 716.814 669.027   2
 -24  -2  -1 409.788 653.612   2
  24 -26  -1 1324.62 725.034   1
 -26   2  -1 1572.90 752.822   4
 -24  -2  -1 783.712 797.162   4
  26 -24  -1 132.307 659.532   1
   2  24   2 72.0083 438.742   3
  -2  26   2 1127.09 562.962   3
  24 -26   2 865.296 763.665   1
  26 -24   2 505.743 773.326   1
 -26   2   2 859.722 806.316   4
 -24  -2   2 615.673 723.720   4
 -26   2   2 2165.93 928.302   2
 -24  -2   2 975.145 894.043   2
 -23  -3  -5-497.488 652.569   2
 -26   3  -5 65.7295 639.327   4
 -23  -3  -5-128.263 634.413   4
 -26   3  -2 1060.18 641.917   2
 -23  -3  -2 686.899 690.603   2
  23 -26  -2 3368.06 807.483   1
 -26   3  -2 1584.38 781.245   4
 -23  -3  -2 2888.08 931.665   4
  26 -23  -2 1996.78 715.401   1
  23 -26   1 835.046 652.454   1
  -3  26   1 2.67414 448.079   3
  26 -23   1 784.287 668.362   1
 -26   3   1 509.594 675.872   4
 -23  -3   1 2282.44 997.191   4
 -26   3   1 713.276 803.263   2
 -23  -3   1 905.568 803.280   2
   3  23   4 803.443 616.365   3
  23 -26   4 443.808 839.279   1
  -3  26   4 2069.17 757.154   3
 -26   3   4 1964.26 693.944   3
  26 -23   4 1529.97 889.855   1
 -26   3   4 1693.38 777.988   4
 -23  -3   4 1094.91 861.529   4
 -26   3   4 979.867 900.126   2
 -23  -3   4 2953.04 1121.48   2
 -26   4  -3 1542.79 575.056   2
 -22  -4  -3 967.439 700.159   2
  26 -22  -3 2415.12 688.091   1
  22 -26  -3 1952.95 634.984   1
 -26   4  -3 4077.93 1005.22   4
 -22  -4  -3 3004.38 882.039   4
 -22  -4   0 1836.12 869.695   2
  22 -26   0 333.153 608.393   1
  -4  26   0-265.780 443.353   3
 -26   4   0-112.433 633.157   4
 -22  -4   0-365.159 692.095   4
  26 -22   0 255.891 642.392   1
 -26   4   0 2130.50 796.809   2
  22 -26   3 2075.40 936.816   1
   4  22   3 2366.75 614.114   3
  -4  26   3 1297.27 592.577   3
 -26   4   3 1222.68 648.088   3
  26 -22   3 751.152 777.865   1
 -26   4   3 1215.43 831.179   4
 -22  -4   3 1672.89 846.281   4
 -26   4   3 2065.50 975.180   2
 -22  -4   3 478.145 904.590   2
 -21  -5  -4 876.045 648.244   2
  21 -26  -4 542.677 517.445   1
  26 -21  -4 425.051 446.316   1
 -26   5  -4 502.168 642.847   4
 -21  -5  -4 883.998 670.308   4
 -21  -5  -1-48.6174 631.343   2
  21 -26  -1 1747.57 677.940   1
  -5  26  -1 259.950 385.967   3
 -26   5  -1 767.509 713.030   4
 -21  -5  -1-166.580 635.257   4
  26 -21  -1-192.622 592.956   1
 -26   5  -1 39.9984 536.399   2
  21 -26   2 1525.29 808.165   1
   5  21   2 469.737 416.732   3
  -5  26   2 132.755 486.366   3
 -26   5   2 172.426 555.672   3
 -26   5   2 969.793 746.922   4
  26 -21   2-607.754 763.688   1
 -21  -5   2 56.0835 642.842   4
 -26   5   2-1213.31 826.000   2
 -21  -5   2-206.246 760.615   2
   5  21   5 621.333 677.995   3
  21 -26   5 2279.44 937.609   1
  -5  26   5 890.468 817.455   3
 -26   5   5 17.3839 625.345   3
  26 -21   5 2314.86 948.346   1
 -26   5   5 1339.52 827.975   4
 -21  -5   5 372.158 730.360   4
 -26   5   5 2282.47 1071.78   2
 -21  -5   5 1781.09 891.954   2
 -20  -6  -5 254.604 689.575   2
 -26   6  -5 2050.07 772.482   4
 -20  -6  -5 1768.82 796.458   4
 -26   6  -2 1488.88 587.810   2
 -20  -6  -2 1214.65 684.332   2
  26 -20  -2 1862.50 641.580   1
  20 -26  -2 2044.15 673.861   1
 -26   6  -2 3146.40 853.025   4
 -20  -6  -2 2796.57 828.560   4
 -20  -6   1 1862.73 845.724   2
  20 -26   1 2099.08 790.830   1
   6  20   1 948.773 334.083   3
  -6  26   1 273.580 481.125   3
 -26   6   1 1361.71 791.970   4
 -20  -6   1 460.464 637.514   4
  26 -20   1 1751.07 812.043   1
 -26   6   1 2628.28 896.992   2
  20 -26   4 1722.34 832.678   1
   6  20   4 1049.74 669.962   3
  -6  26   4 836.980 631.306   3
 -26   6   4 344.659 600.399   3
 -26   6   4 1482.84 800.085   4
  26 -20   4 1218.10 853.595   1
 -20  -6   4 4139.71 992.144   4
 -26   6   4 1419.99 921.071   2
 -20  -6   4 901.489 885.260   2
 -19  -7  -6 1786.46 858.904   2
 -26   7  -6 924.729 675.402   4
 -19  -7  -6 436.505 641.053   4
 -26   7  -3 1770.51 526.596   2
 -19  -7  -3 841.028 603.401   2
  19 -26  -3 1384.21 566.282   1
  26 -19  -3 1302.50 594.704   1
 -26   7  -3 1307.24 689.973   4
 -19  -7  -3 2965.77 886.934   4
 -19  -7   0 2130.59 815.938   2
  19 -26   0 1864.07 754.021   1
  -7  26   0 3579.97 719.758   3
 -26   7   0 4153.02 982.157   4
 -19  -7   0 1878.19 813.575   4
 -26   7   0 3565.01 872.322   2
  26 -19   0 4160.37 860.827   1
  19 -26   3 4078.30 979.604   1
   7  19   3 3429.49 694.213   3
  -7  26   3 3022.25 756.233   3
  19 -26   3 2397.18 620.295   2
 -26   7   3 1980.59 743.860   3
 -26   7   3 3592.17 955.275   4
 -19  -7   3 1765.76 781.930   4
 -26   7   3 1969.83 968.291   2
  26 -19   3 1240.51 734.430   1
 -19  -7   3 1997.07 883.927   2
  19 -26   6 996.472 887.158   1
   7  19   6 1053.18 828.893   3
  -7  26   6 338.534 708.814   3
 -26   7   6 222.823 681.389   3
 -26   7   6 1841.23 859.709   4
 -26   7   6-122.118 876.843   2
  26 -19   6 1181.90 967.345   1
 -19  -7   6-88.1514 685.931   4
 -19  -7   6-241.494 1054.44   2
  26 -18  -4 163.653 494.755   1
 -18  -8  -4 551.797 632.201   2
  18 -26  -4 624.616 458.270   1
 -26   8  -4 1309.22 681.801   4
 -18  -8  -4 938.376 677.969   4
 -18  -8  -1 575.099 596.152   2
  18 -26  -1 700.458 582.434   1
  26 -18  -1 1450.98 632.047   1
  -8  26  -1 1925.56 579.280   3
 -26   8  -1 2805.49 881.171   4
 -18  -8  -1 3383.74 871.150   4
 -26   8  -1 3071.30 699.154   2
  18 -26   2-190.707 596.548   1
   8  18   2 479.246 399.721   3
  -8  26   2 1150.00 606.860   3
  18 -26   2 332.492 486.673   2
 -26   8   2-623.724 588.094   3
 -26   8   2 601.863 690.246   4
 -18  -8   2-1136.71 824.297   4
 -26   8   2 1216.99 769.085   2
  26 -18   2 602.841 711.483   1
 -18  -8   2 133.618 710.674   2
  18 -26   5 2133.88 967.243   1
   8  18   5 1014.26 692.387   3
  -8  26   5 885.244 699.014   3
 -26   8   5-329.419 675.062   3
 -26   8   5 1472.97 930.097   4
 -26   8   5 812.299 988.046   2
 -18  -8   5-113.003 718.070   4
  26 -18   5 3151.10 1056.67   1
 -18  -8   5 2530.95 1067.04   2
 -17  -9  -5 978.883 724.107   2
 -26   9  -5 1745.35 693.713   4
  26 -17  -5 1168.97 498.615   1
 -17  -9  -5 2512.21 808.455   4
  17 -26  -2 1514.22 610.151   1
 -17  -9  -2 2124.11 715.237   2
  26 -17  -2 1269.25 619.467   1
  -9  26  -2 1170.10 540.874   3
 -26   9  -2 2565.72 759.964   4
 -17  -9  -2 560.604 655.001   4
 -26   9  -2 1169.96 499.497   2
  26 -17   1 4063.12 913.630   1
 -17  -9   1 2588.23 863.838   2
   9  17   1 2328.44 393.756   3
  17 -26   1 4635.59 836.244   2
  -9  26   1 2278.32 643.616   3
 -26   9   1 4507.68 902.447   3
 -26   9   1 2156.13 852.406   4
  17 -26   1 5588.91 1021.37   1
 -17  -9   1 3284.13 877.359   4
 -26   9   1 2300.63 849.227   2
  17 -26   4 165.970 686.297   1
   9  17   4 125.145 580.602   3
  -9  26   4 740.931 636.118   3
  17 -26   4 261.583 480.278   2
 -26   9   4 100.107 633.413   3
 -26   9   4 459.252 726.533   4
 -26   9   4-494.610 809.980   2
 -17  -9   4 767.756 712.635   4
  26 -17   4-1065.23 761.109   1
 -17  -9   4 660.042 876.496   2
 -16 -10  -6 2057.42 844.130   2
 -26  10  -6 1513.19 640.957   4
 -16 -10  -6 1629.36 736.011   4
 -26  10  -3-18.9189 309.066   2
  16 -26  -3 321.202 489.558   1
 -16 -10  -3 1281.31 692.663   2
 -26  10  -3 1021.14 679.120   4
 -16 -10  -3 1994.40 796.620   4
  26 -16  -3 788.118 560.884   1
  16 -26   0 1160.97 644.003   1
 -16 -10   0 3703.93 890.275   2
  26 -16   0 1471.26 719.938   1
 -10  26   0 2363.86 686.299   3
  16 -26   0 1840.72 656.234   2
 -26  10   0 2687.58 830.998   3
 -26  10   0 2510.27 871.342   4
 -16 -10   0 2434.46 869.759   4
 -26  10   0 2153.97 752.603   2
  16 -26   3 595.194 739.264   1
  10  16   3 1516.14 573.082   3
 -10  26   3 708.054 586.959   3
  16 -26   3 368.500 487.473   2
 -26  10   3 1743.16 724.210   3
 -26  10   3 114.342 682.864   4
 -26  10   3 1874.59 925.595   2
 -16 -10   3-322.564 640.899   4
  26 -16   3 962.246 829.954   1
 -16 -10   3 545.394 759.443   2
  16 -26   6 1084.87 828.984   1
  10  16   6 2365.99 922.994   3
 -10  26   6 2811.75 928.182   3
 -26  10   6 1970.44 885.440   3
 -26  10   6 3583.53 1037.06   4
 -26  10   6 2466.63 1210.48   2
 -16 -10   6 1964.25 892.698   4
  26 -16   6 4348.37 1070.33   1
 -16 -10   6 3699.74 1093.44   2
  15 -26  -4 637.436 478.961   1
 -15 -11  -4 247.177 617.334   2
  26 -15  -4 215.692 464.767   1
 -26  11  -4 1066.18 705.812   4
 -15 -11  -4 160.928 641.281   4
 -15 -11  -1 2457.68 824.206   2
  26 -15  -1 3538.89 763.817   1
 -11  26  -1 2098.77 608.570   3
  15 -26  -1 2282.32 782.675   2
 -26  11  -1 2256.41 755.963   4
  15 -26  -1 4647.29 880.152   1
 -15 -11  -1 3117.47 769.363   4
 -26  11  -1 2107.29 647.424   2
  15 -26   2 234.617 541.772   4
 -15 -11   2-377.076 704.782   2
  26 -15   2-984.549 753.101   1
  11  15   2 749.407 444.439   3
 -11  26   2-17.8202 557.788   3
  15 -26   2 409.489 522.230   2
 -26  11   2 1392.76 714.925   3
 -26  11   2 803.062 639.385   4
 -26  11   2-731.019 741.253   2
 -15 -11   2 0.97767 597.472   4
  15 -26   2-600.081 636.658   1
  15 -26   5 1498.73 773.636   1
  11  15   5 2533.98 795.006   3
 -11  26   5 2138.42 788.166   3
  15 -26   5 960.561 586.793   2
  11  15   5 205.894 639.140   1
 -26  11   5 896.960 751.724   3
 -26  11   5 605.346 775.377   4
 -26  11   5 2403.19 1041.98   2
 -15 -11   5 2896.17 923.988   4
 -15 -11   5 783.609 948.476   2
  26 -15   5 1161.71 845.121   1
  14 -26  -5 1824.61 509.945   1
  26 -14  -5 1562.22 548.102   1
 -14 -12  -5 1472.85 755.186   2
 -26  12  -5 2069.02 674.123   4
 -14 -12  -5 2179.44 751.263   4
  14 -26  -2 602.507 586.210   4
 -14 -12  -2-34.0435 678.656   2
  14 -26  -2 778.205 673.791   2
 -12  26  -2 608.246 590.112   3
 -26  12  -2-1232.16 708.531   4
  26 -14  -2 81.7618 525.758   1
 -14 -12  -2-99.0031 616.996   4
 -26  12  -2 263.867 398.267   2
  14 -26  -2 299.245 513.763   1
  14 -26   1 2361.37 728.581   4
 -14 -12   1 2299.86 867.412   2
  12  14   1 2318.72 427.974   3
  26 -14   1 1626.92 729.682   1
  14 -26   1 2667.56 755.535   2
 -12  26   1 1387.85 658.503   3
 -26  12   1 3391.89 807.152   3
 -26  12   1 3779.72 933.671   4
 -26  12   1 3392.21 890.039   2
 -14 -12   1 2833.33 763.949   4
  14 -26   1 2331.95 710.670   1
  14 -26   4 824.424 585.314   4
  26 -14   4-363.720 741.764   1
  12  14   4 436.133 591.994   3
 -12  26   4-168.101 625.393   3
  14 -26   4 412.614 516.601   2
  12  14   4 1245.19 704.643   1
 -26  12   4-763.232 675.115   3
 -26  12   4 622.837 887.252   2
 -14 -12   4-493.221 604.525   4
  14 -26   4 663.481 759.788   1
 -14 -12   4-124.923 797.064   2
 -13 -13  -6 1979.52 805.895   2
 -26  13  -6 2080.01 640.460   4
 -13 -13  -6 2556.45 791.090   4
  26 -13  -6 1581.06 617.863   1
  13 -26  -3-817.913 626.518   4
 -13 -13  -3 1136.71 706.727   2
  26 -13  -3 977.836 600.210   1
  13 -26  -3 716.750 722.672   2
 -26  13  -3 320.837 652.916   4
 -13 -13  -3-485.377 717.270   4
  13 -26  -3 322.755 519.864   1
  13 -26   0 1644.88 648.355   4
 -13 -13   0 2837.06 860.304   2
  13  13   0 1080.43 248.667   3
  13 -26   0 758.163 591.513   2
  26 -13   0 3085.28 840.062   1
 -13  26   0 1773.72 648.829   3
 -26  13   0 2747.93 844.305   3
 -26  13   0 2670.00 860.445   4
 -26  13   0 1429.29 649.866   2
 -13 -13   0 575.086 622.519   4
  13 -26   0 3104.02 786.860   1
  13 -26   3 908.774 571.660   4
 -13 -13   3 826.615 739.915   2
  13  13   3 617.764 566.630   3
  26 -13   3 1187.54 753.943   1
  13  13   3 1141.56 676.654   1
  13 -26   3 1369.17 632.953   2
 -13  26   3 1060.10 666.061   3
 -26  13   3 1154.07 718.353   3
 -26  13   3 1371.23 845.730   2
 -13 -13   3 2125.72 868.183   4
  13 -26   3 1151.34 771.661   1
  26 -13   6 2635.34 851.089   1
  13  13   6 4069.71 1040.80   3
  13 -26   6 609.138 573.847   2
 -13  26   6 1427.34 923.590   3
 -26  13   6 2745.14 1018.56   3
  13  13   6 1711.99 740.507   1
 -13 -13   6 2497.64 872.789   4
 -13 -13   6 806.667 857.358   2
  13 -26   6 2550.92 940.577   1
  12 -26  -4-601.112 675.362   4
 -12 -14  -4 105.470 637.945   2
  12 -26  -4 1081.50 733.787   2
 -26  14  -4 944.682 623.127   4
  12 -26  -4 205.535 472.791   1
 -12 -14  -4-483.764 620.351   4
  26 -12  -4-28.6951 501.987   1
 -12 -14  -1 1649.55 755.917   2
  12 -26  -1 957.967 585.283   2
 -14  26  -1 1877.37 672.641   3
 -26  14  -1 1269.82 684.223   3
 -26  14  -1 4215.89 990.674   4
 -26  14  -1 2826.41 700.495   2
  26 -12  -1 702.892 555.468   1
  12 -26  -1 1664.51 728.952   1
 -12 -14  -1 3773.18 908.490   4
  12 -26  -1 4192.55 922.978   4
 -12 -14   2 1.09305 708.249   2
  14  12   2 735.537 469.025   3
  14  12   2 1346.89 714.731   1
  26 -12   2 144.837 616.803   1
  12 -26   2 155.470 583.181   2
 -14  26   2 775.194 652.079   3
 -26  14   2 1243.86 713.525   3
 -26  14   2 1155.64 751.510   2
 -12 -14   2 1964.26 762.828   4
  12 -26   2-94.5875 655.387   1
  12 -26   2-470.429 646.388   4
  14  12   5 4061.46 1006.70   3
  26 -12   5 2541.75 937.857   1
  12 -26   5 1342.59 640.337   2
  14  12   5 3251.62 847.133   1
 -14  26   5 1135.57 716.171   3
 -26  14   5 3139.69 898.956   3
 -12 -14   5 3515.84 923.167   4
  12 -26   5 2619.10 992.711   1
 -12 -14   5 2808.32 980.167   2
  12 -26   5 2299.52 701.133   4
  11 -26  -5 86.0186 657.510   4
 -11 -15  -5 261.119 654.201   2
  11 -26  -5 804.290 757.531   2
 -26  15  -5 1226.49 636.494   4
  26 -11  -5 2129.68 656.936   1
  11 -26  -5 1229.40 541.037   1
 -11 -15  -5 1369.24 776.436   4
 -11 -15  -2-309.791 601.404   2
  26 -11  -2 482.352 499.754   1
  11 -26  -2-285.386 599.249   2
 -15  26  -2-119.278 605.141   3
 -26  15  -2 806.959 661.824   4
  11 -26  -2 91.2637 543.725   1
 -26  15  -2 594.437 369.155   2
 -11 -15  -2 1318.86 795.548   4
  11 -26  -2 391.253 591.169   4
  15  11   1 2846.60 555.243   3
 -11 -15   1 2355.90 878.507   2
  11 -26   1 4288.11 867.345   2
 -15  26   1 1422.24 695.940   3
  26 -11   1 3424.51 833.532   1
 -26  15   1 1431.74 711.307   3
 -26  15   1 2940.90 874.799   2
  11 -26   1 3668.09 884.786   1
 -11 -15   1 3358.12 925.490   4
  15  11   1 2006.57 777.441   1
  11 -26   1 2598.22 729.493   4
 -11 -15   4-990.437 871.468   2
  15  11   4 241.142 571.713   3
  15  11   4-426.756 601.535   1
  26 -11   4-1099.23 741.735   1
  11 -26   4 0.78932 537.346   2
 -15  26   4 1307.58 763.769   3
 -26  15   4-866.736 678.328   3
 -11 -15   4 1070.55 719.784   4
  11 -26   4 806.383 722.994   1
  11 -26   4 122.278 503.381   4
  10 -26  -6 1968.42 848.500   4
 -10 -16  -6 2272.94 942.124   2
 -26  16  -6 1621.03 622.538   4
 -10 -16  -6 4016.24 910.805   4
 -10 -16  -3 1011.04 803.119   2
  10 -26  -3 1624.99 749.899   2
 -26  16  -3 2030.42 749.708   4
  10 -26  -3 1010.55 610.003   1
  26 -10  -3 1721.10 637.792   1
 -10 -16  -3 817.653 720.252   4
  10 -26  -3 2309.99 850.876   4
  16  10   0 1977.78 436.144   3
 -10 -16   0 1583.39 668.903   2
  10 -26   0 1170.25 649.271   2
 -16  26   0 2565.17 741.106   3
 -26  16   0 1799.23 768.178   3
 -26  16   0 2712.00 760.782   2
  10 -26   0 3338.67 845.741   1
  16  10   0 2722.15 777.263   1
  26 -10   0 2445.62 779.557   1
 -10 -16   0 1254.94 740.700   4
  10 -26   0 4333.73 908.663   4
 -10 -16   3 247.740 813.027   2
  16  10   3 385.832 517.655   3
  16  10   3 1123.65 614.273   1
  10 -26   3 686.497 646.874   2
 -16  26   3 706.914 627.897   3
  26 -10   3 159.393 677.109   1
 -26  16   3 84.6840 662.286   3
  10 -26   3 587.709 772.580   1
 -10 -16   3-276.117 619.884   4
  10 -26   3 966.415 681.631   4
  16  10   6-322.872 791.615   3
  10 -26   6 911.026 627.594   2
  26 -10   6 1934.69 850.065   1
 -16  26   6 2166.80 909.230   3
 -26  16   6 1674.62 892.220   3
  16  10   6 2499.45 810.328   1
 -10 -16   6 1454.57 734.134   4
  10 -26   6 2097.46 985.565   1
  10 -26   6 1589.77 655.337   4
 -10 -16   6 1224.03 908.279   2
  26  -9  -4 406.948 505.007   1
  -9 -17  -4 1127.48 750.427   2
   9 -26  -4 99.6194 691.617   2
 -26  17  -4 508.933 650.180   4
  -9 -17  -4 435.178 698.515   4
   9 -26  -4 1785.49 840.695   4
  -9 -17  -1 2843.83 855.620   2
  26  -9  -1 2472.82 708.576   1
   9 -26  -1 3685.87 883.880   2
 -17  26  -1 3860.60 885.105   3
 -26  17  -1 1322.80 735.405   3
 -26  17  -1 3010.84 697.472   2
  -9 -17  -1 2438.36 757.369   4
   9 -26  -1 2537.56 803.677   4
  17   9   2 1317.71 605.072   3
  -9 -17   2 670.231 736.810   2
  17   9   2 1404.72 749.375   1
   9 -26   2 2106.63 715.304   2
 -17  26   2 892.625 707.319   3
 -26  17   2 1521.65 701.922   3
  26  -9   2 632.993 668.930   1
   9 -26   2 2391.98 765.260   1
  -9 -17   2 1917.59 818.009   4
   9 -26   2 2089.36 705.153   4
  -9 -17   5 2975.10 990.004   2
  17   9   5 2890.73 869.895   3
   9 -26   5 2844.93 827.310   2
 -17  26   5 1811.55 833.171   3
  26  -9   5 2441.18 968.260   1
 -26  17   5 1961.87 902.863   3
  17   9   5 995.729 639.766   1
   9 -26   5 2549.02 1048.45   1
  -9 -17   5 2549.88 880.848   4
   9 -26   5 2240.69 697.595   4
  -8 -18  -5 1206.17 808.570   2
   8 -26  -5-152.508 637.776   2
 -26  18  -5 1098.35 646.951   4
  26  -8  -5 784.484 579.393   1
  -8 -18  -5 304.941 695.468   4
   8 -26  -5 660.196 741.697   4
  -8 -18  -2 967.661 675.010   2
   8 -26  -2 515.493 699.750   2
 -18  26  -2 444.121 761.793   3
  26  -8  -2 799.699 594.706   1
 -26  18  -2 411.684 392.190   2
  -8 -18  -2 123.518 648.240   4
   8 -26  -2 923.402 672.773   4
  -8 -18   1 3017.33 943.439   2
   8 -26   1 1112.62 684.445   2
  18   8   1 1283.28 641.866   1
 -18  26   1 2022.00 750.468   3
 -26  18   1 873.611 682.592   3
  -8 -18   1 332.589 636.256   4
  26  -8   1 521.150 611.833   1
   8 -26   1 1821.78 726.050   4
  -8 -18   4-6.02756 845.973   2
  18   8   4 51.9557 681.888   3
   8 -26   4-109.273 619.309   2
 -18  26   4 400.471 739.438   3
  18   8   4 1169.17 639.736   1
 -26  18   4 482.688 617.593   3
  26  -8   4-279.579 732.699   1
   8 -26   4 413.230 818.275   1
  -8 -18   4-15.8517 608.638   4
   8 -26   4 988.625 640.772   4
  -7 -19  -6 1226.95 821.091   2
   7 -26  -6 711.372 793.922   2
  -7 -19  -6 139.319 699.074   4
   7 -26  -6 448.383 795.348   4
  26  -7  -3 2613.13 750.546   1
  -7 -19  -3 2179.66 922.031   2
   7 -26  -3 4331.88 997.621   2
  -7 -19  -3 2818.90 883.106   4
   7 -26  -3 1160.65 848.974   4
  -7 -19   0 1580.94 854.340   2
  26  -7   0 2196.04 715.943   1
   7 -26   0 3522.19 891.167   2
 -19  26   0 2606.10 805.465   3
 -26  19   0 3363.21 847.165   3
  19   7   0 2579.26 760.430   1
  -7 -19   0 3740.99 902.228   4
   7 -26   0 4004.26 863.128   4
  -7 -19   3 1545.48 770.114   2
   7 -26   3 1304.10 669.491   2
 -19  26   3 724.509 656.048   3
 -26  19   3 3897.50 994.865   3
  19   7   3 516.335 613.102   1
  26  -7   3 2050.07 856.210   1
  -7 -19   3 1732.46 804.683   4
   7 -26   3 1276.31 679.333   4
  -7 -19   6 454.222 831.291   2
  19   7   6 582.887 802.032   3
  19   7   6 562.666 670.653   1
   7 -26   6 530.803 657.323   2
 -19  26   6 1426.39 860.836   3
 -26  19   6 2606.95 997.390   3
  26  -7   6-290.921 828.239   1
   7 -26   6 2133.40 966.938   1
  -7 -19   6-221.078 707.811   4
   7 -26   6 288.179 589.798   4
  26  -6  -4 2294.66 726.730   1
  -6 -20  -4 146.519 774.078   2
   6 -26  -4 1581.11 780.872   2
  -6 -20  -4 125.914 637.847   4
   6 -26  -4 1168.27 771.766   4
  -6 -20  -1 3108.55 960.766   2
   6 -26  -1 2300.68 807.806   2
  20   6  -1 2006.16 730.208   1
 -20  26  -1 1428.94 753.722   3
 -26  20  -1 622.731 777.277   3
  26  -6  -1 767.139 651.252   1
  -6 -20  -1 2127.62 912.905   4
   6 -26  -1 2386.71 804.432   4
  26  -6   2 2151.99 802.998   1
  -6 -20   2 2141.61 868.965   2
   6 -26   2 1536.04 704.140   2
 -20  26   2 1691.91 752.987   3
 -26  20   2 2277.22 846.338   3
  20   6   2 2587.77 805.733   1
  -6 -20   2 1694.24 672.725   4
   6 -26   2 3016.46 814.084   4
  20   6   5 836.775 680.289   1
  -6 -20   5 406.163 794.049   2
   6 -26   5 881.090 688.794   2
 -20  26   5 1536.58 875.233   3
 -26  20   5 381.098 696.910   3
  26  -6   5 3660.74 1015.51   1
  -6 -20   5 1300.03 707.681   4
   6 -26   5 702.321 584.591   4
  -5 -21  -5 1246.19 867.446   2
   5 -26  -5-222.912 752.877   2
  26  -5  -5 358.612 559.275   1
  -5 -21  -5 1867.58 777.166   4
   5 -26  -5 1713.91 827.346   4
  26  -5  -2 1516.12 639.792   1
  -5 -21  -2 1027.47 758.724   2
   5 -26  -2-280.616 672.835   2
 -21  26  -2 463.421 834.752   3
  21   5  -2 648.250 668.534   1
 -26  21  -2 857.298 706.395   3
  -5 -21  -2 264.503 635.427   4
   5 -26  -2 273.876 696.730   4
  -5 -21   1-844.515 760.952   2
   5 -26   1 809.585 746.681   2
  26  -5   1 611.085 654.070   1
 -21  26   1 2086.73 802.462   3
 -26  21   1-604.148 690.734   3
  21   5   1-417.433 647.324   1
  -5 -21   1-949.297 684.077   4
   5 -26   1 1323.52 711.236   4
  21   5   4 767.992 704.370   1
  -5 -21   4-316.663 799.329   2
   5 -26   4 819.468 766.138   2
 -21  26   4 305.878 743.005   3
 -26  21   4-15.1939 645.140   3
  -5 -21   4 1827.14 777.274   4
   5 -26   4-375.309 585.355   4
  26  -5   4-11.3887 685.226   1
  -4 -22  -3 2346.58 882.696   2
   4 -26  -3 2767.41 870.206   2
  26  -4  -3 1891.14 784.929   1
  -4 -22  -3 2260.62 882.535   4
   4 -26  -3 3465.95 994.855   4
  -4 -22   0 248.196 671.145   2
   4 -26   0 970.162 688.780   2
 -22  26   0-80.8953 681.345   3
 -26  22   0 615.459 755.960   3
  26  -4   0-19.0159 564.655   1
  -4 -22   0 635.390 633.346   4
  22   4   0 1712.07 721.970   1
   4 -26   0 685.294 628.638   4
  22   4   3 2217.97 786.762   1
  -4 -22   3 1493.38 888.954   2
  26  -4   3 2654.84 902.190   1
   4 -26   3 1737.71 820.699   2
 -22  26   3 2125.70 817.570   3
 -26  22   3 1488.23 824.914   3
  -4 -22   3 1916.69 823.200   4
   4 -26   3 2538.80 830.311   4
  26  -3  -4 1367.88 687.382   1
  -3 -23  -4 2061.83 922.805   2
   3 -26  -4 2168.19 882.408   2
  -3 -23  -4 1244.59 815.751   4
   3 -26  -4 962.095 796.038   4
  26  -3  -1 120.824 630.647   1
  23   3  -1 605.541 666.800   1
  -3 -23  -1 29.7069 660.914   2
   3 -26  -1 304.934 652.836   2
 -23  26  -1 1113.53 704.443   3
 -26  23  -1 373.587 682.397   3
  -3 -23  -1 951.172 737.298   4
   3 -26  -1 915.505 735.891   4
  23   3   2 701.847 718.283   1
  -3 -23   2 1176.90 839.905   2
   3 -26   2 722.908 721.804   2
 -23  26   2 2475.45 825.256   3
  26  -3   2 480.571 713.197   1
 -26  23   2 1857.79 879.425   3
  -3 -23   2 1632.20 814.393   4
   3 -26   2 2583.75 853.354   4
  -3 -23   5-829.664 917.308   2
  26  -3   5 794.916 779.090   1
   3 -26   5 1087.40 844.709   2
 -23  26   5-276.327 699.314   3
 -26  23   5 1044.86 812.294   3
  23   3   5 1016.75 780.054   1
  -3 -23   5-442.615 651.578   4
   3 -26   5-209.331 658.797   4
  -2 -24  -2 882.069 834.419   2
   2 -26  -2 744.442 729.608   2
 -24  26  -2 364.295 734.408   3
 -26  24  -2 654.354 734.434   3
  26  -2  -2 1131.60 648.586   1
  24   2  -2-117.136 601.073   1
  -2 -24  -2-398.425 751.835   4
   2 -26  -2 1610.92 860.545   4
  -2 -24   1 1490.46 788.034   2
  24   2   1 1932.87 764.919   1
   2 -26   1-140.002 704.566   2
 -24  26   1 1068.50 846.497   3
 -26  24   1 785.843 734.400   3
  26  -2   1 2427.59 768.299   1
  -2 -24   1 1829.95 805.214   4
   2 -26   1 474.304 691.923   4
  -2 -24   4-7.34672 758.865   2
   2 -26   4-244.129 691.191   2
  26  -2   4 319.031 696.098   1
 -24  26   4-502.253 739.575   3
 -26  24   4 780.775 811.138   3
  24   2   4-1047.94 666.998   1
  -2 -24   4 1005.67 746.206   4
   2 -26   4-595.896 646.336   4
  -1 -25  -3 2268.11 873.170   2
   1 -26  -3 914.589 720.835   2
  25   1  -3 1330.98 720.747   1
  26  -1  -3 1213.04 736.321   1
  -1 -25  -3 3371.04 926.050   4
   1 -26  -3 707.441 848.795   4
  26  -1   0 387.246 655.879   1
  -1 -25   0 1169.45 840.599   2
   1 -26   0-999.819 804.613   2
  25   1   0 1562.85 766.877   1
 -25  26   0 283.755 740.212   3
 -26  25   0 352.729 777.612   3
  -1 -25   0 323.182 686.530   4
   1 -26   0 889.626 735.016   4
  -1 -25   3 2350.22 925.225   2
   1 -26   3 1186.19 886.947   2
 -25  26   3 692.812 805.684   3
 -26  25   3 1720.33 890.006   3
  26  -1   3 2785.34 908.158   1
  25   1   3 3279.65 1028.85   1
  -1 -25   3 3369.32 947.538   4
   1 -26   3 1922.34 811.597   4
   0 -26  -1-219.553 796.395   2
 -26  26  -1 927.158 870.220   3
  26   0  -1 231.517 686.563   1
   0 -26  -1 1385.04 851.133   4
   0 -26   2 2622.01 962.680   2
 -26  26   2 1156.96 819.049   3
   0 -26   2-503.431 645.515   4
  26   0   2 1844.33 850.739   1
 -27   0   0 1633.45 927.230   2
  27 -27   0 423.539 733.602   1
 -27   0   0 1315.97 867.851   4
 -27   1  -1 1293.75 750.218   2
 -26  -1  -1 945.667 857.302   2
  26 -27  -1 1466.08 780.922   1
 -27   1  -1 780.089 816.168   4
  27 -26  -1 496.472 679.838   1
 -26  -1  -1 592.773 803.680   4
  26 -27   2 511.679 772.794   1
  27 -26   2-39.5859 748.903   1
 -27   1   2-17.7303 704.110   4
 -26  -1   2 1586.24 854.093   4
 -27   1   2 975.594 947.717   2
 -26  -1   2 262.275 941.770   2
 -27   2  -2-1026.80 644.693   2
 -25  -2  -2-656.414 765.995   2
  25 -27  -2 645.138 614.090   1
 -27   2  -2 493.539 885.966   4
 -25  -2  -2 884.230 872.621   4
  27 -25  -2 901.920 677.914   1
  25 -27   1 954.269 790.447   1
  27 -25   1 3525.57 987.217   1
 -27   2   1 760.010 840.640   4
 -25  -2   1 900.792 832.411   4
 -27   2   1 177.704 832.047   2
 -25  -2   1 709.560 835.910   2
  27 -24  -3 163.761 567.984   1
 -27   3  -3-155.311 534.217   2
 -24  -3  -3 715.707 686.352   2
  24 -27  -3 129.268 544.643   1
 -27   3  -3-744.963 718.002   4
 -24  -3  -3 263.426 702.590   4
 -24  -3   0 1983.67 802.764   2
  24 -27   0 1426.44 730.449   1
 -27   3   0 3297.23 1011.63   4
 -24  -3   0 3213.06 1022.30   4
  27 -24   0 1186.51 759.448   1
 -27   3   0 1448.55 813.789   2
   3  24   3 968.596 572.133   3
  24 -27   3 1380.15 872.476   1
  -3  27   3-646.290 582.470   3
  27 -24   3-296.177 781.558   1
 -27   3   3 126.601 726.140   4
 -24  -3   3 1484.55 814.669   4
 -27   3   3 1347.62 1058.50   2
 -24  -3   3-545.374 967.217   2
 -23  -4  -4 736.926 694.932   2
  27 -23  -4 832.486 526.358   1
 -27   4  -4-5.87044 668.822   4
 -23  -4  -4 649.061 806.804   4
 -27   4  -1 73.0049 646.410   2
 -23  -4  -1 393.131 640.791   2
  23 -27  -1 580.810 669.834   1
 -27   4  -1 1725.91 853.356   4
 -23  -4  -1 1157.93 799.844   4
  27 -23  -1 195.856 616.279   1
  23 -27   2-175.524 668.068   1
  -4  27   2-1002.02 563.179   3
  27 -23   2-155.922 733.162   1
 -27   4   2-616.905 794.484   4
 -23  -4   2-703.324 776.365   4
 -27   4   2-366.338 842.602   2
 -23  -4   2 867.669 866.365   2
 -22  -5  -5 1095.34 763.912   2
 -27   5  -5 613.059 666.862   4
 -22  -5  -5 1275.62 807.162   4
 -27   5  -2 181.862 516.838   2
  27 -22  -2 2029.51 728.686   1
 -22  -5  -2 832.349 746.326   2
  22 -27  -2 80.7583 557.113   1
 -27   5  -2-462.938 658.094   4
 -22  -5  -2 1177.83 769.565   4
 -22  -5   1 1175.69 762.507   2
  22 -27   1 1400.65 704.081   1
  -5  27   1 1946.60 626.544   3
 -27   5   1 3159.89 971.023   4
 -22  -5   1 2042.79 783.047   4
  27 -22   1 1306.43 730.537   1
 -27   5   1 1826.80 936.236   2
   5  22   4 512.297 573.735   3
  22 -27   4 1731.10 876.213   1
  -5  27   4 744.952 699.304   3
 -27   5   4 31.0928 659.779   3
 -27   5   4 1254.16 835.411   4
  27 -22   4 1520.73 906.468   1
 -22  -5   4 2636.11 897.907   4
 -27   5   4 949.211 959.186   2
 -22  -5   4 588.099 873.135   2
 -27   6  -3 1099.45 545.061   2
 -21  -6  -3-179.262 623.659   2
  27 -21  -3 1313.11 602.293   1
  21 -27  -3 1266.07 592.156   1
 -27   6  -3 485.529 686.164   4
 -21  -6  -3 182.185 675.898   4
 -21  -6   0 6014.10 1074.08   2
  -6  27   0 4965.41 768.979   3
 -27   6   0 6074.48 1182.21   4
 -27   6   0 5423.67 1012.60   2
 -21  -6   0 4497.76 1052.54   4
  21 -27   0 4906.30 1016.63   1
  27 -21   0 4470.04 961.920   1
  21 -27   3-87.3055 718.891   1
   6  21   3 553.860 525.510   3
  -6  27   3 598.172 617.982   3
 -27   6   3-228.972 633.685   3
 -27   6   3 332.346 737.230   4
 -21  -6   3 599.913 687.719   4
  27 -21   3-388.148 730.446   1
 -27   6   3-178.810 862.405   2
 -21  -6   3 961.332 870.819   2
 -20  -7  -4 358.177 702.217   2
  20 -27  -4 1.04323 442.568   1
 -27   7  -4 1172.63 704.702   4
 -20  -7  -4 951.303 717.499   4
  27 -20  -4 209.453 517.011   1
 -20  -7  -1 1254.15 796.498   2
  27 -20  -1-572.455 645.237   1
  20 -27  -1 21.2166 579.807   1
  -7  27  -1-466.231 489.246   3
 -27   7  -1 538.245 655.142   4
 -20  -7  -1 532.733 673.356   4
 -27   7  -1 278.532 590.601   2
  20 -27   2 1971.43 884.041   1
   7  20   2 1350.08 473.708   3
  -7  27   2 262.152 517.787   3
 -27   7   2 52.9772 599.119   3
 -27   7   2 666.047 680.768   4
 -20  -7   2 646.848 696.775   4
 -27   7   2-409.378 811.206   2
  27 -20   2-357.378 722.734   1
 -20  -7   2 611.324 848.983   2
  20 -27   5-774.789 794.183   1
   7  20   5 467.364 659.195   3
  -7  27   5 2280.27 872.676   3
 -27   7   5 848.229 717.336   3
 -27   7   5-226.208 821.807   4
 -20  -7   5 264.739 740.321   4
 -27   7   5 1614.09 1026.31   2
  27 -20   5 1.20318 776.230   1
 -20  -7   5-1279.40 1013.21   2
 -19  -8  -5 559.929 750.195   2
 -27   8  -5 1410.67 739.586   4
 -19  -8  -5 271.542 712.481   4
 -27   8  -2 509.626 515.850   2
 -19  -8  -2 142.916 632.117   2
  19 -27  -2 1337.11 626.259   1
  27 -19  -2 1116.36 676.805   1
  -8  27  -2 172.479 443.575   3
 -27   8  -2 2191.86 845.736   4
 -19  -8  -2 621.073 690.772   4
 -19  -8   1 796.056 724.184   2
  19 -27   1 1627.37 739.942   1
  -8  27   1 1659.54 624.490   3
  19 -27   1 1532.24 617.948   2
 -27   8   1 290.430 652.697   3
 -27   8   1 2091.45 837.998   4
 -19  -8   1 1142.30 825.549   4
 -27   8   1 309.472 673.807   2
  27 -19   1 1745.99 734.828   1
  19 -27   4 2719.33 972.996   1
   8  19   4 1935.85 706.709   3
  -8  27   4 1752.82 723.857   3
  19 -27   4 1804.72 591.880   2
 -27   8   4 1474.67 757.554   3
 -27   8   4 1866.03 898.208   4
 -19  -8   4 989.204 749.030   4
 -27   8   4 1085.08 896.497   2
  27 -19   4-36.7685 711.635   1
 -19  -8   4 108.045 840.776   2
  18 -27  -3 332.590 480.220   1
 -18  -9  -3 1652.65 769.827   2
 -27   9  -3 1805.56 821.456   4
  27 -18  -3 239.385 555.741   1
 -18  -9  -3 1097.12 735.929   4
 -18  -9   0 731.934 781.061   2
  18 -27   0 1457.91 733.941   1
  27 -18   0 2629.26 816.547   1
  -9  27   0 1856.18 640.701   3
  18 -27   0 1605.33 700.715   2
 -27   9   0 876.751 840.790   4
 -18  -9   0 1224.03 825.482   4
 -27   9   0 555.910 662.619   2
  18 -27   3 198.947 704.573   1
   9  18   3 764.736 525.957   3
  -9  27   3 1545.98 640.627   3
  18 -27   3 271.481 484.565   2
 -27   9   3 1649.36 756.850   3
 -27   9   3 1023.79 754.891   4
 -27   9   3 1841.37 957.900   2
 -18  -9   3-58.2832 644.443   4
  27 -18   3 182.505 674.955   1
 -18  -9   3 1698.78 1022.93   2
  17 -27  -4 541.015 495.647   1
 -17 -10  -4 1368.07 793.457   2
  27 -17  -4 1243.98 542.977   1
 -27  10  -4 26.7505 609.483   4
 -17 -10  -4 1429.44 756.106   4
  17 -27  -1 1035.58 617.004   1
 -17 -10  -1 1147.69 759.179   2
  27 -17  -1 851.419 581.228   1
 -10  27  -1 314.418 512.201   3
  17 -27  -1 774.980 571.094   2
 -27  10  -1 1101.89 699.504   4
 -17 -10  -1 1891.62 843.758   4
 -27  10  -1 920.679 594.918   2
 -17 -10   2-109.126 800.654   2
  27 -17   2 733.921 710.393   1
  17 -27   2 399.611 616.030   1
  10  17   2 253.757 410.946   3
 -10  27   2 1163.26 579.638   3
  17 -27   2-355.420 500.509   2
 -27  10   2 92.8027 584.187   3
 -27  10   2 570.976 758.304   4
 -27  10   2-79.5889 788.435   2
 -17 -10   2-835.420 682.490   4
  17 -27   5 139.207 709.299   1
  10  17   5 363.994 617.342   3
 -10  27   5 861.826 734.007   3
  17 -27   5 756.183 521.196   2
 -27  10   5-758.761 765.288   3
 -27  10   5 305.964 743.775   4
 -27  10   5 616.814 931.541   2
 -17 -10   5 381.083 721.524   4
  27 -17   5-576.420 849.080   1
 -17 -10   5 565.788 856.389   2
  27 -16  -5 1625.83 581.216   1
 -16 -11  -5 889.450 769.621   2
 -27  11  -5 1717.53 718.206   4
 -16 -11  -5 1310.69 778.305   4
  16 -27  -2 1813.29 647.266   1
 -16 -11  -2 1708.43 748.846   2
  16 -27  -2 1401.37 667.721   2
 -11  27  -2 916.713 555.633   3
  27 -16  -2-92.7560 535.477   1
 -27  11  -2 385.225 674.641   4
 -16 -11  -2 1149.12 741.038   4
 -27  11  -2 1350.86 571.214   2
 -16 -11   1 605.895 696.514   2
  27 -16   1 1876.49 786.901   1
  11  16   1 1012.13 341.958   3
 -11  27   1 1871.95 703.129   3
  16 -27   1 1360.97 675.791   2
 -27  11   1 486.600 687.986   3
 -27  11   1 2396.67 892.573   4
 -27  11   1 2395.33 799.633   2
 -16 -11   1 2191.19 796.627   4
  16 -27   1 1973.37 769.774   1
  16 -27   4 759.837 759.120   1
  11  16   4 1092.67 640.520   3
 -11  27   4 1869.24 759.035   3
  16 -27   4 891.555 554.825   2
 -27  11   4 1992.01 845.942   3
 -27  11   4 2313.30 881.843   4
 -27  11   4 1173.41 880.468   2
 -16 -11   4 1261.77 797.662   4
 -16 -11   4 1627.72 947.578   2
  27 -16   4 1744.57 937.344   1
 -15 -12  -6-278.490 751.970   2
 -27  12  -6 318.910 584.844   4
 -15 -12  -6-643.399 723.860   4
  15 -27  -3 1499.81 618.784   1
  27 -15  -3 1248.24 587.507   1
 -15 -12  -3 886.563 709.247   2
  15 -27  -3 609.978 648.919   2
 -27  12  -3 2064.01 812.137   4
 -15 -12  -3 411.220 641.272   4
  15 -27   0 1281.61 650.656   4
 -15 -12   0 963.992 756.486   2
  27 -15   0 400.206 643.375   1
 -12  27   0 1055.20 620.851   3
  15 -27   0-161.897 550.699   2
 -27  12   0 484.862 621.761   3
 -27  12   0 454.461 768.095   4
 -27  12   0 257.008 584.286   2
 -15 -12   0 490.947 685.909   4
  15 -27   0 635.656 633.893   1
 -15 -12   3 308.483 864.441   2
  27 -15   3 336.940 773.511   1
  12  15   3-16.3722 467.778   3
 -12  27   3 1087.64 666.450   3
  15 -27   3 1269.51 578.547   2
 -27  12   3 598.036 658.337   3
 -27  12   3-223.972 692.507   4
 -27  12   3 2183.32 925.144   2
 -15 -12   3 733.006 684.354   4
  15 -27   3 1240.96 770.185   1
  27 -15   6 1035.14 870.328   1
  15 -27   6 758.231 958.484   1
  12  15   6 1259.88 819.206   3
 -12  27   6 2279.44 949.815   3
  12  15   6 685.171 694.896   1
 -27  12   6-340.286 702.761   3
 -27  12   6 2417.80 1061.68   4
 -27  12   6 3033.17 1214.01   2
 -15 -12   6 1749.00 874.577   4
 -15 -12   6 1118.17 1005.08   2
 -14 -13  -4 1995.77 801.563   2
  14 -27  -4 737.283 675.280   2
 -27  13  -4 997.472 639.411   4
  27 -14  -4 2368.89 711.582   1
 -14 -13  -4 2995.95 894.123   4
  14 -27  -4 2541.01 632.543   1
  14 -27  -1 3219.78 854.127   4
 -14 -13  -1 701.644 724.351   2
  14 -27  -1 2587.57 767.109   2
 -13  27  -1 3371.16 751.353   3
 -27  13  -1 2664.35 885.468   4
  27 -14  -1 2485.71 737.163   1
 -14 -13  -1 2382.77 840.991   4
 -27  13  -1 1631.99 589.317   2
  14 -27  -1 2762.93 765.447   1
  14 -27   2 1905.12 719.860   4
 -14 -13   2 2459.12 990.365   2
  13  14   2 1051.99 527.281   3
  27 -14   2 1225.24 778.892   1
  14 -27   2 1713.57 626.934   2
 -13  27   2 418.980 610.640   3
 -27  13   2-6.54525 633.621   3
 -27  13   2 1998.59 888.936   4
 -27  13   2 451.211 746.992   2
 -14 -13   2 761.457 633.157   4
  14 -27   2 2672.88 905.941   1
  27 -14   5 1406.09 803.360   1
  13  14   5 1118.78 710.458   3
  14 -27   5 748.348 621.130   2
 -13  27   5-826.660 686.494   3
 -27  13   5 2154.20 787.824   3
 -27  13   5 1181.23 899.721   2
  13  14   5 566.189 637.070   1
 -14 -13   5 405.374 641.158   4
  14 -27   5 1974.81 972.709   1
 -14 -13   5 109.381 765.271   2
 -13 -14  -5 976.559 769.148   2
  27 -13  -5 616.254 556.311   1
 -27  14  -5 1111.77 675.778   4
 -13 -14  -5-506.999 690.190   4
  13 -27  -2 2502.17 762.351   4
  27 -13  -2 756.882 589.258   1
 -13 -14  -2 1155.19 769.675   2
  13 -27  -2 2040.91 777.254   2
 -14  27  -2 1037.54 675.969   3
 -27  14  -2 3392.76 911.040   4
 -13 -14  -2 1403.58 759.267   4
  13 -27  -2 1638.88 641.279   1
 -27  14  -2 1465.75 464.032   2
 -13 -14   1 2489.22 867.284   2
  14  13   1 793.458 385.054   3
  27 -13   1 3218.50 862.825   1
  13 -27   1 2291.30 733.986   2
 -14  27   1 2575.98 723.402   3
 -27  14   1 2378.74 852.971   3
 -27  14   1 2587.62 922.645   2
 -13 -14   1 2710.90 824.806   4
  13 -27   1 2125.09 734.986   1
  13 -27   1 3812.50 843.595   4
  13 -27   4 1683.63 622.193   4
 -13 -14   4 1639.45 942.080   2
  14  13   4 1555.57 693.003   3
  27 -13   4 1442.92 839.974   1
  13 -27   4 524.192 611.902   2
  14  13   4 1925.36 754.564   1
 -14  27   4 1794.04 819.769   3
 -27  14   4 1323.65 766.816   3
 -27  14   4 2396.84 1096.34   2
 -13 -14   4 865.297 734.111   4
  13 -27   4 1576.16 772.239   1
 -12 -15  -6 985.898 831.211   2
  27 -12  -6 1548.07 670.261   1
 -27  15  -6 1310.63 618.169   4
 -12 -15  -6 530.139 659.388   4
  12 -27  -3 91.2942 633.078   4
 -12 -15  -3-33.9116 606.054   2
  12 -27  -3 1137.21 712.099   2
  27 -12  -3-136.006 550.988   1
 -27  15  -3 948.688 785.987   4
  12 -27  -3 32.9594 566.263   1
 -12 -15  -3 539.310 693.931   4
 -12 -15   0 215.617 666.866   2
  15  12   0 140.453 249.625   3
  12 -27   0-343.255 570.029   2
 -15  27   0 339.919 580.686   3
 -27  15   0-511.796 660.425   3
  27 -12   0 1213.70 734.774   1
 -27  15   0-308.985 638.755   2
  12 -27   0 1273.21 741.124   1
 -12 -15   0-142.267 689.698   4
  12 -27   0 24.5069 578.092   4
 -12 -15   3 777.989 750.813   2
  15  12   3 1245.33 624.862   3
  15  12   3 994.146 697.943   1
  27 -12   3 1510.64 831.677   1
  12 -27   3 342.680 537.310   2
 -15  27   3 1473.68 717.595   3
 -27  15   3-297.940 669.205   3
 -12 -15   3 3084.58 925.060   4
  12 -27   3 2121.92 862.514   1
  12 -27   3 891.725 622.821   4
  12 -27   6 462.614 544.609   4
  15  12   6 520.509 759.494   3
  15  12   6 893.567 778.091   1
  27 -12   6-274.845 733.631   1
  12 -27   6 370.104 584.215   2
 -15  27   6-199.981 771.304   3
 -27  15   6 1310.89 827.202   3
 -12 -15   6-239.325 657.391   4
  12 -27   6 120.093 844.944   1
 -12 -15   6 820.440 795.098   2
  11 -27  -4 1776.53 821.356   4
  27 -11  -4 2032.28 699.163   1
 -11 -16  -4 790.926 762.320   2
  11 -27  -4 1493.15 819.041   2
 -27  16  -4 791.668 699.501   4
  11 -27  -4 1973.55 633.173   1
 -11 -16  -4 877.493 777.591   4
  27 -11  -1 430.092 603.146   1
 -11 -16  -1 1297.85 743.602   2
  11 -27  -1 2092.99 784.753   2
 -16  27  -1 1666.42 735.135   3
 -27  16  -1 1883.11 790.151   3
 -27  16  -1 971.089 556.720   2
  11 -27  -1 1071.19 713.623   1
 -11 -16  -1 1728.47 833.753   4
  11 -27  -1 2860.76 854.796   4
 -11 -16   2 2363.19 900.815   2
  16  11   2 1175.30 587.724   3
  11 -27   2 286.207 580.703   2
  16  11   2 1936.77 749.429   1
 -16  27   2 437.832 607.538   3
  27 -11   2 649.166 726.594   1
 -27  16   2 1506.87 791.807   3
  11 -27   2 640.920 760.136   1
 -11 -16   2 1836.92 819.363   4
  11 -27   2 2009.50 769.499   4
 -11 -16   5 3182.11 1186.86   2
  16  11   5 63.3736 659.907   1
  16  11   5 687.530 732.994   3
  11 -27   5 1399.19 717.324   2
  27 -11   5 4016.77 1079.04   1
 -16  27   5-104.445 706.926   3
 -27  16   5 804.494 912.864   3
 -11 -16   5 1025.62 697.936   4
  11 -27   5 1116.24 930.984   1
  11 -27   5 480.891 588.403   4
  10 -27  -5-173.562 690.783   4
  27 -10  -5 534.233 560.949   1
 -10 -17  -5-336.027 698.364   2
  10 -27  -5 580.190 794.557   2
 -27  17  -5-189.576 596.592   4
  10 -27  -5 763.534 559.387   1
 -10 -17  -5 591.972 761.936   4
 -10 -17  -2 1194.47 675.836   2
  10 -27  -2 795.663 694.981   2
  27 -10  -2 2270.31 737.631   1
 -17  27  -2 188.536 636.199   3
 -27  17  -2 787.298 401.376   2
 -10 -17  -2 674.910 668.203   4
  10 -27  -2 1239.25 716.539   4
  17  10   1-54.8451 430.278   3
 -10 -17   1 1148.30 838.990   2
  10 -27   1-489.046 615.242   2
 -17  27   1 813.336 671.485   3
 -27  17   1 703.506 692.553   3
  17  10   1 28.6975 577.357   1
  10 -27   1 980.255 667.435   1
  27 -10   1-57.6095 658.384   1
 -10 -17   1 539.998 723.181   4
  10 -27   1 864.815 607.699   4
 -10 -17   4 1358.10 867.528   2
  17  10   4 615.628 668.022   3
  10 -27   4 2435.26 775.060   2
 -17  27   4 1016.61 748.795   3
  27 -10   4 433.736 752.549   1
 -27  17   4 1282.69 821.018   3
  10 -27   4 473.234 758.783   1
 -10 -17   4 1421.46 769.201   4
  10 -27   4 796.182 670.371   4
  17  10   4 670.023 766.736   1
  -9 -18  -3 132.398 711.932   2
   9 -27  -3 640.389 742.919   2
  -9 -18  -3 367.160 724.374   4
   9 -27  -3 983.432 855.384   4
  27  -9  -3 640.052 614.559   1
  27  -9   0 1815.33 725.817   1
  -9 -18   0 164.730 742.005   2
  18   9   0 1378.19 736.038   1
   9 -27   0 1212.18 672.934   2
 -18  27   0 1885.07 805.374   3
 -27  18   0 1974.90 840.821   3
  -9 -18   0 2667.06 854.280   4
   9 -27   0 3355.30 951.509   4
  18   9   3 747.066 649.153   1
  18   9   3 635.216 602.204   3
  -9 -18   3 1716.06 856.025   2
   9 -27   3 1286.75 742.933   2
 -18  27   3 144.662 672.656   3
 -27  18   3-605.431 645.976   3
  27  -9   3-1047.69 804.209   1
   9 -27   3 317.699 704.159   1
  -9 -18   3 2690.01 862.549   4
   9 -27   3 1382.48 729.848   4
  -8 -19  -4 1570.44 795.239   2
   8 -27  -4 1420.83 855.446   2
 -27  19  -4 1814.42 759.778   4
  27  -8  -4 1854.69 729.768   1
  -8 -19  -4 786.367 803.414   4
   8 -27  -4 748.217 789.596   4
  -8 -19  -1 1215.56 861.239   2
   8 -27  -1 1631.34 784.293   2
  19   8  -1 75.6557 567.149   1
  27  -8  -1 557.094 562.211   1
 -19  27  -1 90.4790 643.597   3
 -27  19  -1 2077.57 824.906   3
 -27  19  -1 61.0499 524.501   2
  -8 -19  -1 1196.42 721.193   4
   8 -27  -1 737.339 689.911   4
  19   8   2 276.427 579.324   1
  -8 -19   2 1917.89 870.556   2
   8 -27   2 371.781 619.691   2
 -19  27   2 700.145 726.626   3
 -27  19   2 1140.77 837.183   3
  27  -8   2 574.370 771.610   1
  -8 -19   2 585.655 673.985   4
   8 -27   2 2052.06 733.769   4
  -8 -19   5-150.451 801.962   2
  19   8   5 628.771 753.202   3
   8 -27   5 447.152 616.575   2
  19   8   5 704.026 771.222   1
 -19  27   5 304.199 739.944   3
 -27  19   5-252.910 720.053   3
  27  -8   5 1318.54 883.342   1
   8 -27   5 3244.47 1121.51   1
  -8 -19   5 697.861 728.601   4
   8 -27   5 1527.27 708.123   4
  27  -7  -5 384.003 614.581   1
  -7 -20  -5 238.934 692.588   2
   7 -27  -5 699.069 717.092   2
 -27  20  -5 417.835 658.045   4
  -7 -20  -5-538.843 778.647   4
   7 -27  -5 1095.60 914.113   4
  -7 -20  -2 1375.59 755.029   2
   7 -27  -2 53.3923 665.646   2
 -20  27  -2-617.443 697.344   3
  -7 -20  -2 943.027 788.088   4
  27  -7  -2 920.945 646.579   1
   7 -27  -2 1785.45 842.687   4
  27  -7   1 513.969 667.807   1
  -7 -20   1 239.039 774.386   2
  20   7   1 300.545 590.338   1
   7 -27   1 779.726 759.027   2
 -20  27   1 551.967 719.219   3
 -27  20   1-568.978 674.128   3
  -7 -20   1 118.639 607.181   4
   7 -27   1-336.612 585.892   4
  -7 -20   4 1000.81 895.426   2
   7 -27   4 459.572 688.294   2
  20   7   4 543.015 673.340   1
 -20  27   4-98.6352 692.808   3
 -27  20   4 159.714 655.296   3
  27  -7   4-213.300 706.517   1
  -7 -20   4 1284.10 799.615   4
   7 -27   4 581.311 669.053   4
  -6 -21  -3 209.192 691.455   2
   6 -27  -3-23.2844 663.713   2
  27  -6  -3 408.656 611.014   1
  -6 -21  -3-78.1708 675.318   4
   6 -27  -3 136.880 711.002   4
  27  -6   0 5854.70 1045.28   1
  -6 -21   0 4721.98 1114.17   2
   6 -27   0 4554.57 1014.11   2
 -27  21   0 4757.38 1032.31   3
 -21  27   0 5558.36 1024.88   3
  21   6   0 4859.13 942.899   1
  -6 -21   0 4858.35 1132.71   4
   6 -27   0 6370.10 1090.89   4
  27  -6   3 1320.99 744.978   1
  -6 -21   3 1196.88 810.794   2
   6 -27   3-1071.77 792.626   2
  21   6   3 601.308 662.743   1
 -21  27   3 925.125 665.430   3
 -27  21   3 1087.14 707.828   3
  -6 -21   3 1505.18 785.317   4
   6 -27   3 770.430 679.550   4
  -5 -22  -4 548.974 886.874   2
   5 -27  -4 872.444 851.705   2
  27  -5  -4-827.418 692.987   1
  -5 -22  -4-166.529 700.320   4
   5 -27  -4 1594.89 857.856   4
  22   5  -1 1403.13 746.580   1
  -5 -22  -1-202.292 749.379   2
   5 -27  -1 436.372 737.639   2
 -22  27  -1 197.639 720.795   3
 -27  22  -1 549.362 852.653   3
  -5 -22  -1 842.524 848.922   4
  27  -5  -1 408.961 608.618   1
   5 -27  -1 2744.83 831.964   4
  -5 -22   2 640.904 773.633   2
   5 -27   2 707.557 686.240   2
  27  -5   2 816.407 765.430   1
 -22  27   2 730.275 668.557   3
 -27  22   2 1441.73 788.195   3
  22   5   2-37.4115 646.497   1
  -5 -22   2 861.771 655.418   4
   5 -27   2 937.491 624.886   4
  22   5   5 714.567 743.898   1
  -5 -22   5 974.014 918.440   2
   5 -27   5-716.909 845.152   2
 -22  27   5 227.888 752.156   3
 -27  22   5 240.934 735.806   3
  -5 -22   5 2588.72 962.491   4
   5 -27   5 855.834 665.255   4
  27  -5   5 1107.89 907.424   1
  -4 -23  -2 558.201 813.211   2
  27  -4  -2 24.9222 583.594   1
   4 -27  -2 733.633 690.826   2
 -23  27  -2 584.925 753.115   3
 -27  23  -2 1119.72 782.261   3
  -4 -23  -2 1099.26 840.425   4
  23   4  -2 1278.17 710.564   1
   4 -27  -2 19.4570 632.061   4
  -4 -23   1 414.730 776.440   2
   4 -27   1 888.642 809.386   2
 -23  27   1 1257.17 815.876   3
 -27  23   1-598.453 671.780   3
  27  -4   1 1270.75 748.285   1
  23   4   1 398.628 629.010   1
  -4 -23   1-330.572 608.234   4
   4 -27   1 586.763 705.700   4
  23   4   4-461.888 693.959   1
  -4 -23   4 7.58868 752.291   2
  27  -4   4 790.912 714.671   1
   4 -27   4-765.513 776.534   2
 -23  27   4 808.633 735.439   3
 -27  23   4-89.6227 692.072   3
  -4 -23   4 368.813 705.379   4
   4 -27   4-150.278 632.381   4
  27  -3  -3 221.743 659.253   1
  -3 -24  -3 1288.91 794.385   2
   3 -27  -3 1064.89 718.323   2
  -3 -24  -3 11.3349 740.921   4
   3 -27  -3 1270.86 795.553   4
  -3 -24   0 2819.95 959.332   2
   3 -27   0 1751.10 909.727   2
 -24  27   0 1304.43 777.526   3
 -27  24   0 1870.99 834.848   3
  24   3   0 986.630 690.299   1
  -3 -24   0 567.681 732.058   4
   3 -27   0 2189.40 817.288   4
  27  -3   0 3158.78 926.715   1
  24   3   3 43.5893 673.751   1
  -3 -24   3 2499.30 968.921   2
   3 -27   3 674.503 774.011   2
  27  -3   3-308.123 699.506   1
 -24  27   3 741.882 842.681   3
 -27  24   3 525.160 699.393   3
  -3 -24   3 1738.07 830.105   4
   3 -27   3 1162.65 725.127   4
  25   2  -1 1058.14 752.178   1
  -2 -25  -1-219.374 686.909   2
  27  -2  -1 5.97330 643.079   1
   2 -27  -1 2105.66 863.071   2
 -25  27  -1-339.393 724.138   3
 -27  25  -1 33.8225 759.833   3
  -2 -25  -1 43.7418 710.333   4
   2 -27  -1 551.994 798.303   4
  25   2   2 116.985 713.171   1
  -2 -25   2-583.941 757.706   2
   2 -27   2 1233.65 882.112   2
 -25  27   2 1450.46 807.932   3
 -27  25   2 446.281 758.194   3
  27  -2   2 327.784 718.418   1
  -2 -25   2 462.209 695.702   4
   2 -27   2-324.250 643.614   4
  27  -1  -2-131.805 614.452   1
  -1 -26  -2-860.904 781.191   2
   1 -27  -2 2219.18 909.120   2
 -26  27  -2 1072.34 798.084   3
 -27  26  -2 452.063 825.181   3
  26   1  -2 627.643 693.370   1
  -1 -26  -2 419.804 764.174   4
   1 -27  -2 72.8527 705.765   4
  27  -1   1-240.725 666.229   1
  -1 -26   1 1363.03 861.166   2
  26   1   1 2262.16 896.139   1
   1 -27   1 794.227 737.331   2
 -26  27   1 743.264 872.245   3
 -27  26   1-209.150 709.917   3
  -1 -26   1 2853.71 1016.22   4
   1 -27   1 1669.96 835.304   4
   0 -27   0 519.285 807.152   2
  27   0   0 60.1667 699.580   1
 -27  27   0 1879.25 918.898   3
   0 -27   0 975.868 787.381   4
 -26  -2   0-23.7323 766.474   2
  26 -28   0 1432.71 835.708   1
 -28   2   0 1865.31 898.104   4
  28 -26   0-221.130 709.214   1
 -26  -2   0 1173.83 873.753   4
 -28   2   0 1133.49 829.663   2
 -28   3  -1 813.491 695.073   2
 -25  -3  -1 425.760 777.562   2
  25 -28  -1 586.797 745.524   1
 -28   3  -1 1950.72 929.617   4
 -25  -3  -1-1034.93 855.848   4
  28 -25  -1-202.053 695.030   1
  25 -28   2 678.460 803.972   1
  -3  28   2 64.4159 543.567   3
  28 -25   2 1601.76 878.514   1
 -28   3   2 491.488 727.251   4
 -25  -3   2 1458.69 888.457   4
 -28   3   2 59.8848 896.324   2
 -25  -3   2 207.239 878.111   2
  28 -24  -2 481.143 659.659   1
 -28   4  -2-146.362 583.420   2
 -24  -4  -2 370.180 704.869   2
  24 -28  -2 51.1205 579.885   1
 -28   4  -2 2619.81 936.231   4
 -24  -4  -2 971.125 782.732   4
 -24  -4   1 984.829 846.883   2
  24 -28   1 1343.30 787.069   1
  -4  28   1 5.20374 510.040   3
 -28   4   1 565.339 789.212   4
 -24  -4   1 2228.33 906.989   4
  28 -24   1-829.948 768.240   1
 -28   4   1 1873.60 881.679   2
 -23  -5  -3 1653.37 831.870   2
  28 -23  -3 2259.50 665.571   1
  23 -28  -3 2913.61 725.113   1
 -28   5  -3 3216.47 928.260   4
 -23  -5  -3 523.524 733.476   4
 -23  -5   0 488.676 717.842   2
  23 -28   0 906.143 804.391   1
  -5  28   0 536.094 498.972   3
 -28   5   0 2150.20 960.744   4
 -23  -5   0 902.897 768.809   4
  28 -23   0 1062.54 746.751   1
 -28   5   0 1246.00 870.783   2
  23 -28   3 4131.35 1134.39   1
  -5  28   3 3637.65 885.782   3
 -28   5   3 3023.41 834.872   3
 -28   5   3 1955.57 962.015   4
  28 -23   3 3372.45 1089.54   1
 -23  -5   3 3077.21 958.588   4
 -28   5   3 4844.04 1235.53   2
 -23  -5   3 2177.45 1092.50   2
 -22  -6  -4 1049.17 751.237   2
 -28   6  -4 1014.24 770.939   4
  28 -22  -4 1478.13 624.598   1
  28 -22  -1 1735.78 701.140   1
 -22  -6  -1-353.104 699.164   2
  22 -28  -1 270.979 654.081   1
  -6  28  -1 897.524 502.946   3
 -28   6  -1 176.985 728.440   4
 -22  -6  -1 1666.78 848.754   4
 -28   6  -1 165.030 618.903   2
  22 -28   2 44.7250 666.392   1
  -6  28   2 294.786 528.640   3
 -28   6   2 632.097 688.007   4
 -22  -6   2 902.485 744.690   4
  28 -22   2 1310.01 811.471   1
 -28   6   2 1767.09 947.148   2
 -22  -6   2 50.8178 828.671   2
 -28   7  -2 774.336 579.583   2
 -21  -7  -2 2522.00 856.909   2
  28 -21  -2 2553.03 761.003   1
  21 -28  -2 2069.59 707.278   1
 -28   7  -2 2842.91 971.585   4
 -21  -7  -2 1446.53 809.758   4
 -21  -7   1 2272.99 885.556   2
  21 -28   1 1402.09 771.497   1
  -7  28   1 383.336 536.654   3
 -28   7   1-235.441 713.190   4
 -21  -7   1-538.897 731.319   4
 -28   7   1 1712.13 934.542   2
  28 -21   1-616.364 708.834   1
  21 -28   4 1669.40 959.534   1
   7  21   4 1307.73 684.344   3
  -7  28   4-156.868 674.045   3
 -28   7   4 3923.51 950.622   3
 -28   7   4 1556.46 858.415   4
 -21  -7   4 477.458 796.651   4
 -28   7   4 877.663 1049.39   2
  28 -21   4 997.692 846.117   1
 -21  -7   4 504.270 867.065   2
 -20  -8  -3 2490.01 854.626   2
  20 -28  -3 3190.73 735.269   1
  28 -20  -3 1193.97 581.232   1
 -28   8  -3 3374.30 957.329   4
 -20  -8  -3 3007.05 923.179   4
 -20  -8   0-218.039 687.625   2
  28 -20   0 603.453 691.822   1
  20 -28   0 997.372 668.551   1
  -8  28   0 257.511 525.118   3
 -28   8   0-293.258 706.418   4
 -20  -8   0 1673.24 775.855   4
 -28   8   0 1839.59 798.506   2
  20 -28   3 2613.41 903.664   1
   8  20   3 1724.29 606.140   3
  -8  28   3 712.189 676.802   3
 -28   8   3 1727.71 848.033   3
  20 -28   3 2101.09 634.078   2
 -28   8   3 697.785 742.979   4
 -20  -8   3 1020.42 745.925   4
 -28   8   3 3149.22 1150.77   2
  28 -20   3 1810.82 855.195   1
 -20  -8   3 1238.73 930.494   2
  28 -19  -4 491.553 560.853   1
 -19  -9  -4-452.173 730.841   2
  19 -28  -4 435.290 508.125   1
 -28   9  -4 123.461 634.499   4
 -19  -9  -4-705.534 789.002   4
 -19  -9  -1 1091.08 743.847   2
  19 -28  -1 1213.50 608.566   1
  28 -19  -1-21.7685 630.887   1
  -9  28  -1 580.351 532.346   3
 -28   9  -1 416.241 731.139   4
 -19  -9  -1 336.899 656.549   4
 -28   9  -1 119.503 575.804   2
 -19  -9   2 256.541 796.678   2
  19 -28   2-30.5890 639.471   1
  -9  28   2 234.162 551.989   3
  19 -28   2 605.904 558.309   2
 -28   9   2-770.847 635.739   3
 -28   9   2 908.344 823.852   4
 -19  -9   2 1202.60 806.939   4
 -28   9   2-296.527 821.523   2
  28 -19   2 757.573 740.101   1
  19 -28   5 1168.40 904.403   1
   9  19   5 436.551 671.778   3
  -9  28   5 1046.52 820.476   3
 -28   9   5-321.182 715.084   3
 -28   9   5 1076.69 908.956   4
 -28   9   5 1271.28 1081.66   2
 -19  -9   5 84.2906 779.730   4
  28 -19   5 465.433 822.111   1
 -19  -9   5-781.818 894.721   2
 -18 -10  -5 531.401 722.588   2
 -28  10  -5 1111.37 728.716   4
 -18 -10  -5 1353.87 826.609   4
  18 -28  -2 2867.59 727.154   1
 -18 -10  -2 2246.86 853.245   2
  28 -18  -2 3768.74 799.503   1
 -10  28  -2 204.772 529.161   3
 -28  10  -2 2726.86 883.195   4
 -18 -10  -2 1961.58 822.914   4
 -28  10  -2 2319.85 600.962   2
 -18 -10   1 337.997 791.178   2
  18 -28   1 1190.70 744.851   1
  28 -18   1 921.072 730.120   1
 -10  28   1 1850.67 729.897   3
  18 -28   1 2112.72 727.102   2
 -28  10   1 1699.28 785.631   3
 -28  10   1 2383.38 955.106   4
 -18 -10   1 1038.92 782.623   4
 -28  10   1 1890.88 883.555   2
  18 -28   4 1544.74 838.245   1
  10  18   4 1994.21 709.176   3
 -10  28   4 1066.91 835.106   3
  18 -28   4 655.859 573.977   2
 -28  10   4 1738.77 817.617   3
 -28  10   4 2044.10 988.171   4
 -28  10   4 1955.29 1075.37   2
 -18 -10   4 2341.95 989.267   4
  28 -18   4 3839.67 1086.39   1
 -18 -10   4 2124.54 1059.92   2
  17 -28  -3 1118.22 609.690   1
 -17 -11  -3 1667.68 784.386   2
 -28  11  -3 2503.21 878.259   4
 -17 -11  -3 591.707 731.739   4
  28 -17  -3 1187.73 652.690   1
  17 -28   0 301.644 602.125   1
 -17 -11   0 509.277 687.822   2
  28 -17   0 484.390 689.374   1
 -11  28   0 903.340 635.210   3
  17 -28   0 260.308 574.704   2
 -28  11   0 1303.69 887.455   4
 -17 -11   0 1209.18 763.065   4
 -28  11   0 493.669 625.507   2
 -17 -11   3 1204.38 896.349   2
  17 -28   3 151.736 678.875   1
  28 -17   3 474.110 703.503   1
  11  17   3 1259.08 578.807   3
 -11  28   3 168.237 622.719   3
  17 -28   3 797.537 590.909   2
 -28  11   3 10.7889 666.485   3
 -28  11   3 593.310 824.017   4
 -28  11   3-103.500 880.369   2
 -17 -11   3 1461.32 817.383   4
  16 -28  -4 804.876 508.531   1
 -16 -12  -4 506.010 776.739   2
  28 -16  -4 483.040 573.487   1
 -28  12  -4 2286.39 776.680   4
 -16 -12  -4 1348.71 783.695   4
 -16 -12  -1 577.232 722.926   2
  28 -16  -1 1136.06 666.021   1
 -12  28  -1 660.190 609.614   3
  16 -28  -1-933.111 682.442   2
 -28  12  -1 42.4777 715.780   4
 -16 -12  -1-180.291 695.019   4
 -28  12  -1 244.241 542.934   2
  16 -28  -1 1678.15 693.025   1
 -16 -12   2 3245.01 1114.59   2
  28 -16   2 3280.64 962.420   1
  12  16   2 1613.88 504.690   3
 -12  28   2 2231.30 770.484   3
  16 -28   2 787.995 588.180   2
 -28  12   2 2000.22 764.889   3
 -28  12   2 597.769 850.317   4
 -28  12   2 2623.79 975.466   2
 -16 -12   2 4274.21 1031.56   4
  16 -28   2 2300.84 826.943   1
  16 -28   5 741.882 872.293   1
  28 -16   5 2497.55 998.784   1
  12  16   5 513.414 699.404   3
 -12  28   5 627.185 745.926   3
  16 -28   5 3160.28 764.109   2
 -28  12   5 970.988 823.270   3
 -28  12   5-123.753 772.113   4
 -28  12   5-845.901 968.104   2
 -16 -12   5 1141.13 824.865   4
 -16 -12   5-722.831 1000.51   2
  28 -15  -5 858.935 587.221   1
 -15 -13  -5-39.5271 798.812   2
 -28  13  -5 645.808 677.026   4
 -15 -13  -5 97.3762 676.539   4
 -15 -13  -2 1653.05 794.502   2
  15 -28  -2 2628.64 806.107   2
 -13  28  -2 1579.00 679.547   3
 -28  13  -2 873.424 811.741   4
 -15 -13  -2 515.119 748.512   4
  28 -15  -2 1704.81 728.200   1
 -28  13  -2 1156.21 475.391   2
  15 -28  -2 1746.37 712.052   1
  15 -28   1 809.536 644.924   4
 -15 -13   1 134.408 677.779   2
  28 -15   1 492.125 659.106   1
  15 -28   1 1279.78 702.263   2
 -13  28   1 1614.49 732.303   3
 -28  13   1-26.4352 717.608   3
 -28  13   1 945.776 786.162   4
 -28  13   1 662.025 763.292   2
 -15 -13   1 179.352 689.856   4
  15 -28   1 1015.97 744.631   1
 -15 -13   4 1714.50 962.423   2
  28 -15   4 2476.41 931.151   1
  13  15   4 4165.36 854.590   3
 -13  28   4 3337.19 863.388   3
  15 -28   4 2161.34 694.700   2
 -28  13   4 3261.10 876.810   3
 -28  13   4 2880.81 952.711   4
  15 -28   4 5763.37 1214.93   1
 -28  13   4 2046.52 998.793   2
 -15 -13   4 2810.80 910.430   4
  14 -28  -3 382.491 764.291   4
 -14 -14  -3 718.361 731.214   2
  28 -14  -3 440.878 609.262   1
  14 -28  -3-5.28409 697.826   2
 -28  14  -3 1015.04 725.052   4
 -14 -14  -3 1089.82 754.546   4
  14 -28  -3 677.361 554.092   1
  14 -28   0 836.553 665.342   4
 -14 -14   0-76.6550 697.871   2
  14 -28   0 1365.26 734.787   2
 -14  28   0 675.638 642.182   3
  28 -14   0 211.465 607.203   1
 -28  14   0 1646.36 833.549   3
 -28  14   0 626.507 767.660   4
 -28  14   0 118.931 639.908   2
 -14 -14   0 1010.53 783.094   4
  14 -28   0 1936.90 799.878   1
  14 -28   3 70.1641 601.106   4
 -14 -14   3-429.701 807.155   2
  14  14   3 826.529 572.608   3
  28 -14   3 1827.62 875.641   1
  14 -28   3 122.003 594.856   2
 -14  28   3 769.294 624.025   3
 -28  14   3-11.2379 646.791   3
 -28  14   3-416.783 809.018   2
 -14 -14   3 53.7078 653.317   4
  14 -28   3 1091.69 771.626   1
  13 -28  -4 1695.32 781.485   4
 -13 -15  -4 2579.42 884.976   2
  13 -28  -4 1374.02 852.645   2
 -28  15  -4 2299.07 814.305   4
 -13 -15  -4 2029.42 832.294   4
  13 -28  -4 2085.86 652.484   1
  28 -13  -4 2091.95 706.632   1
  13 -28  -1 492.705 708.715   4
 -13 -15  -1 643.903 685.210   2
  13 -28  -1-717.672 662.709   2
 -15  28  -1 625.197 625.513   3
 -28  15  -1 1662.76 845.015   4
 -28  15  -1 1334.91 606.162   2
 -13 -15  -1 244.445 726.216   4
  13 -28  -1 1299.70 731.190   1
  28 -13  -1 336.125 627.646   1
 -13 -15   2 1894.16 963.788   2
  15  13   2 1549.22 559.850   3
  28 -13   2 924.863 782.020   1
  13 -28   2 1015.94 660.331   2
 -15  28   2 2141.22 767.118   3
 -28  15   2 2769.52 841.174   3
 -28  15   2 3006.49 1002.41   2
 -13 -15   2 2600.90 895.298   4
  13 -28   2 2855.70 958.837   1
  13 -28   2 2266.56 787.887   4
  13 -28   5 1361.99 628.495   4
 -13 -15   5 494.068 1074.64   2
  15  13   5 930.373 736.662   3
  28 -13   5 355.222 800.758   1
  13 -28   5 835.448 699.390   2
 -15  28   5 2045.88 900.062   3
 -28  15   5-519.970 734.688   3
 -13 -15   5 39.4201 665.648   4
  13 -28   5 1100.48 968.679   1
  15  13   5-290.858 654.440   1
  12 -28  -5-335.331 806.500   4
 -12 -16  -5 1142.02 765.509   2
  12 -28  -5 230.048 700.209   2
 -28  16  -5 413.461 581.827   4
  28 -12  -5 121.259 534.500   1
 -12 -16  -5 1289.68 778.489   4
 -12 -16  -2 585.231 758.515   2
  28 -12  -2 1132.51 639.052   1
  12 -28  -2 3643.07 940.364   2
 -16  28  -2 144.007 637.734   3
 -28  16  -2 4491.12 1058.78   4
  12 -28  -2 1627.72 707.468   1
 -12 -16  -2 1576.10 809.375   4
  12 -28  -2-208.516 663.153   4
  16  12   1 2.66102 397.468   3
 -12 -16   1-684.452 807.471   2
  12 -28   1 1752.95 733.738   2
 -16  28   1-993.412 604.507   3
 -28  16   1 2140.51 803.933   3
  28 -12   1-195.014 630.205   1
 -28  16   1 1562.15 782.077   2
  12 -28   1 54.2250 611.934   1
 -12 -16   1-685.813 685.980   4
  12 -28   1 1005.08 666.833   4
 -12 -16   4 2067.91 986.656   2
  16  12   4 1138.85 701.997   3
  12 -28   4 992.267 701.264   2
  28 -12   4 1370.75 804.173   1
 -16  28   4 1347.05 842.391   3
 -28  16   4 864.794 765.096   3
 -12 -16   4 967.885 772.985   4
  12 -28   4 701.846 777.478   1
  16  12   4 797.710 664.431   1
  12 -28   4 1807.64 698.731   4
 -11 -17  -3 896.350 721.968   2
  11 -28  -3 1855.78 877.261   2
 -28  17  -3 15.1773 737.617   4
  11 -28  -3 1648.52 756.993   1
  28 -11  -3 591.100 649.568   1
 -11 -17  -3 781.489 722.033   4
  11 -28  -3 1034.28 733.611   4
 -11 -17   0 1391.61 748.213   2
  11 -28   0 497.293 639.050   2
 -17  28   0 759.798 678.535   3
 -28  17   0 1058.78 725.968   3
 -28  17   0 260.523 648.121   2
  11 -28   0 601.293 739.511   1
 -11 -17   0 1357.80 760.617   4
  28 -11   0 599.267 646.505   1
  11 -28   0 427.016 607.153   4
 -11 -17   3 1553.15 807.399   2
  11 -28   3 885.378 703.466   2
 -17  28   3 1053.83 729.946   3
  28 -11   3 2244.96 888.734   1
 -28  17   3 2508.35 931.529   3
  11 -28   3 2070.98 911.665   1
  17  11   3 1942.64 758.299   1
 -11 -17   3 502.841 739.028   4
  11 -28   3 2695.09 799.536   4
  28 -10  -4 928.282 629.362   1
 -10 -18  -4 3024.88 1034.45   2
  10 -28  -4 1499.83 792.314   2
 -28  18  -4 2621.86 880.581   4
  10 -28  -4 1614.75 686.824   1
 -10 -18  -4 1836.20 1018.15   4
  10 -28  -4 1216.47 866.687   4
 -10 -18  -1 2199.53 858.472   2
  28 -10  -1 820.831 622.419   1
  10 -28  -1 225.038 699.892   2
 -18  28  -1 1694.12 786.830   3
 -28  18  -1 1528.30 740.185   3
 -28  18  -1 1433.80 662.560   2
 -10 -18  -1 2031.14 805.435   4
  10 -28  -1 3321.66 883.106   4
  18  10   2 1895.20 636.740   3
 -10 -18   2 1380.70 837.329   2
  10 -28   2 3456.63 899.582   2
 -18  28   2 2145.93 804.138   3
 -28  18   2 2483.26 825.463   3
  28 -10   2 3463.44 933.623   1
  10 -28   2 2990.42 993.261   1
 -10 -18   2 2730.86 903.334   4
  18  10   2 1727.20 745.449   1
  10 -28   2 2979.58 853.714   4
 -10 -18   5 3248.76 1166.63   2
  18  10   5 911.332 791.430   3
  10 -28   5 924.386 654.166   2
 -18  28   5 2119.99 964.024   3
  28 -10   5 2416.04 949.949   1
 -28  18   5 1540.64 881.202   3
 -10 -18   5 1590.76 842.216   4
  10 -28   5 293.810 836.601   1
  18  10   5 23.3301 670.390   1
  10 -28   5 771.692 668.165   4
  -9 -19  -5 201.983 778.248   2
   9 -28  -5-124.594 717.358   2
  28  -9  -5 537.462 590.772   1
 -28  19  -5 1874.11 809.990   4
  -9 -19  -5 964.845 843.218   4
   9 -28  -5 1178.16 847.139   4
  -9 -19  -2 59.1508 682.534   2
   9 -28  -2 59.5691 636.549   2
 -19  28  -2 233.684 720.981   3
  28  -9  -2-616.157 612.911   1
  -9 -19  -2 558.090 728.724   4
   9 -28  -2 519.456 614.422   4
  28  -9   1 747.413 769.139   1
  19   9   1 1964.96 753.039   1
  -9 -19   1 677.104 774.289   2
   9 -28   1 848.466 683.497   2
 -19  28   1-485.260 630.817   3
 -28  19   1 589.775 695.869   3
  -9 -19   1 196.372 696.216   4
   9 -28   1 437.399 624.034   4
  -9 -19   4-197.981 867.577   2
  19   9   4 566.243 677.307   3
   9 -28   4-561.884 753.486   2
 -19  28   4 957.476 726.479   3
 -28  19   4-762.137 676.019   3
  28  -9   4 1.09148 736.368   1
   9 -28   4-273.281 799.142   1
  19   9   4 939.640 813.033   1
  -9 -19   4-227.901 670.884   4
   9 -28   4 928.452 618.714   4
  28  -8  -3 1587.90 710.231   1
  -8 -20  -3 1805.96 841.005   2
   8 -28  -3 2762.63 991.824   2
  -8 -20  -3 306.700 795.143   4
   8 -28  -3 1872.39 926.615   4
  -8 -20   0 212.871 726.413   2
  28  -8   0 1728.52 787.681   1
   8 -28   0 1196.23 804.671   2
 -20  28   0 616.578 704.049   3
 -28  20   0 637.341 729.441   3
  20   8   0 1567.37 706.698   1
  -8 -20   0 1683.88 883.333   4
   8 -28   0 711.696 695.561   4
  -8 -20   3 2427.16 1029.63   2
   8 -28   3 4073.56 979.904   2
 -20  28   3 4724.98 1072.17   3
 -28  20   3 695.468 740.561   3
  28  -8   3 3780.61 947.156   1
  -8 -20   3 2452.27 906.015   4
  20   8   3 2123.20 871.465   1
   8 -28   3 4208.61 900.993   4
  28  -7  -4 126.912 588.117   1
  -7 -21  -4 431.728 818.277   2
   7 -28  -4 1570.22 805.883   2
  -7 -21  -4 624.181 802.213   4
   7 -28  -4 95.2024 748.776   4
  -7 -21  -1 1405.84 809.925   2
   7 -28  -1-402.623 730.240   2
 -21  28  -1 691.584 750.473   3
 -28  21  -1 1872.76 807.979   3
  21   7  -1 268.302 610.815   1
  28  -7  -1 1881.22 718.087   1
  -7 -21  -1 737.252 765.395   4
   7 -28  -1 2085.22 844.934   4
  28  -7   2 1837.87 854.194   1
  -7 -21   2 2618.14 1026.35   2
   7 -28   2 2072.88 870.435   2
 -21  28   2 1506.15 824.817   3
 -28  21   2 1911.36 844.908   3
  -7 -21   2 2892.63 897.390   4
  21   7   2 2472.48 846.652   1
   7 -28   2 1506.43 742.115   4
  28  -6  -2 106.928 637.725   1
  -6 -22  -2 1616.71 886.973   2
   6 -28  -2 696.318 734.102   2
 -22  28  -2 873.341 815.469   3
  -6 -22  -2 48.0956 738.011   4
   6 -28  -2 130.474 743.336   4
  22   6   1-35.8676 663.840   1
  -6 -22   1 442.252 728.492   2
   6 -28   1 710.806 706.589   2
  28  -6   1-219.100 677.421   1
 -22  28   1 464.377 738.018   3
 -28  22   1 1389.40 782.108   3
  -6 -22   1 2303.93 837.691   4
   6 -28   1 66.0921 670.731   4
  28  -6   4-291.004 873.466   1
  -6 -22   4 1847.81 944.887   2
   6 -28   4 500.409 693.887   2
  22   6   4 127.426 670.906   1
 -22  28   4 123.358 752.780   3
 -28  22   4 891.449 789.740   3
  -6 -22   4 1241.64 815.080   4
   6 -28   4-312.440 618.730   4
  -5 -23  -3 2174.34 952.008   2
   5 -28  -3 2845.53 1008.63   2
  28  -5  -3 2183.00 814.566   1
  -5 -23  -3 251.782 842.778   4
   5 -28  -3 1750.57 932.856   4
  -5 -23   0 1519.64 906.953   2
   5 -28   0 840.767 764.696   2
  23   5   0 2320.64 849.298   1
 -23  28   0 1636.04 847.589   3
 -28  23   0 867.544 843.511   3
  28  -5   0 1534.21 772.772   1
  -5 -23   0 1089.21 905.733   4
   5 -28   0 1276.28 730.683   4
  -5 -23   3 4166.47 1097.40   2
   5 -28   3 1913.90 898.114   2
  28  -5   3 1372.22 753.977   1
  23   5   3 2689.36 859.906   1
 -23  28   3 2404.42 894.888   3
 -28  23   3 1289.42 886.888   3
  -5 -23   3 3499.36 1001.02   4
   5 -28   3 2323.72 802.162   4
  28  -4  -1-611.353 708.188   1
  -4 -24  -1 955.155 763.667   2
   4 -28  -1 673.125 754.746   2
 -24  28  -1 666.893 757.121   3
 -28  24  -1 194.732 755.446   3
  24   4  -1 243.498 660.695   1
  -4 -24  -1 124.623 738.140   4
   4 -28  -1 698.633 713.714   4
  -4 -24   2 1352.36 924.514   2
   4 -28   2 639.105 789.616   2
  24   4   2 115.196 670.411   1
 -24  28   2 656.019 744.127   3
 -28  24   2 832.829 745.383   3
  28  -4   2 306.957 714.990   1
  -4 -24   2 1745.02 847.583   4
   4 -28   2-9.41614 647.783   4
  -3 -25  -2 1075.72 855.888   2
   3 -28  -2 2139.66 975.327   2
 -25  28  -2 1130.01 853.468   3
 -28  25  -2 1933.46 1048.03   3
  25   3  -2 455.293 703.995   1
  28  -3  -2 730.893 708.174   1
  -3 -25  -2 188.046 774.317   4
   3 -28  -2 376.759 769.059   4
  -3 -25   1-767.160 770.927   2
   3 -28   1 840.661 837.932   2
 -25  28   1 398.802 722.229   3
 -28  25   1 1000.70 860.968   3
  25   3   1 449.320 652.991   1
  28  -3   1 504.548 667.526   1
  -3 -25   1-460.382 761.750   4
   3 -28   1-312.125 749.572   4
  28  -2   0 1317.95 813.772   1
  -2 -26   0 1793.88 927.148   2
   2 -28   0-745.072 821.992   2
 -26  28   0 672.823 898.576   3
 -28  26   0 554.566 823.883   3
  26   2   0 475.267 703.815   1
  -2 -26   0-151.588 695.656   4
   2 -28   0 577.868 743.119   4
 -25  -4   0 921.811 855.821   2
  25 -29   0-795.772 751.204   1
 -29   4   0 1125.62 904.161   4
 -25  -4   0 3105.82 1024.34   4
  29 -25   0 603.113 715.568   1
 -29   4   0 175.403 737.380   2
  29 -24  -1 1311.06 699.932   1
 -29   5  -1 1015.95 675.318   2
 -24  -5  -1-626.086 753.548   2
  24 -29  -1 471.928 705.302   1
 -29   5  -1 662.208 753.903   4
 -24  -5  -1-243.471 877.875   4
  24 -29   2 851.091 852.164   1
  -5  29   2-29.3883 568.718   3
 -29   5   2 1237.43 932.706   4
 -24  -5   2 545.483 829.197   4
  29 -24   2 1450.26 853.736   1
 -29   5   2-190.554 916.925   2
 -24  -5   2 926.938 913.895   2
 -29   6  -2-206.727 585.066   2
 -23  -6  -2 244.985 740.123   2
  29 -23  -2 1775.17 740.816   1
  23 -29  -2 816.419 662.997   1
 -29   6  -2-90.1564 814.428   4
 -23  -6  -2-1219.60 833.077   4
 -23  -6   1 1175.60 823.632   2
  23 -29   1 280.752 764.985   1
  -6  29   1 1362.39 603.558   3
 -29   6   1 243.710 773.999   4
 -23  -6   1-533.649 846.519   4
  29 -23   1 462.135 760.090   1
 -29   6   1 685.917 889.041   2
 -22  -7  -3 1498.44 778.112   2
  22 -29  -3 2660.04 705.990   1
  29 -22  -3 1248.05 655.209   1
 -29   7  -3 1192.80 869.623   4
 -22  -7  -3 454.699 761.661   4
  29 -22   0 1710.70 753.513   1
 -22  -7   0 611.353 911.461   2
  22 -29   0-608.080 760.479   1
  -7  29   0 240.879 508.040   3
 -29   7   0 906.154 785.227   4
 -22  -7   0 2463.14 928.661   4
 -29   7   0 648.834 821.224   2
  22 -29   3 2138.80 987.474   1
  -7  29   3 1625.55 746.536   3
 -29   7   3 915.743 721.430   3
 -29   7   3 2480.45 975.563   4
 -22  -7   3 2078.23 893.538   4
 -29   7   3 2410.17 1097.20   2
  29 -22   3 1611.65 924.613   1
 -22  -7   3-204.438 858.892   2
 -21  -8  -1 341.035 695.432   2
  29 -21  -1 114.217 660.843   1
  21 -29  -1 143.239 645.794   1
  -8  29  -1 381.542 553.748   3
 -29   8  -1 1033.66 839.418   4
 -21  -8  -1 1301.93 921.779   4
 -29   8  -1 717.189 651.447   2
 -21  -8   2 354.583 977.852   2
  21 -29   2 1422.40 853.984   1
  -8  29   2 752.326 579.879   3
 -29   8   2-745.956 717.800   3
 -29   8   2 663.200 809.585   4
 -21  -8   2 828.801 774.072   4
 -29   8   2 227.060 878.316   2
  29 -21   2-141.578 743.709   1
 -29   9  -2 885.772 578.853   2
 -20  -9  -2 799.512 737.777   2
  20 -29  -2 1133.13 652.945   1
  29 -20  -2 1005.08 664.052   1
 -29   9  -2 2281.45 902.527   4
 -20  -9  -2 1174.88 792.172   4
 -20  -9   1 568.450 813.625   2
  29 -20   1 2604.19 903.158   1
  20 -29   1 1206.71 822.339   1
  -9  29   1 1339.62 685.435   3
  20 -29   1 1633.46 644.620   2
 -29   9   1 2171.50 884.600   4
 -20  -9   1 907.583 802.286   4
 -29   9   1 2824.27 942.096   2
  20 -29   4 503.674 876.033   1
   9  20   4 1106.31 624.912   3
  -9  29   4 832.251 674.895   3
 -29   9   4 1475.26 798.971   3
 -29   9   4-197.619 907.672   4
 -20  -9   4 196.096 703.391   4
 -29   9   4 1519.21 1069.94   2
  29 -20   4 60.2796 793.329   1
 -20  -9   4 1044.85 985.270   2
  19 -29  -3 1047.74 637.346   1
 -19 -10  -3 1500.71 747.082   2
 -29  10  -3 2252.26 852.464   4
  29 -19  -3 281.294 592.876   1
 -19 -10  -3 1407.27 841.306   4
 -19 -10   0-141.564 721.879   2
  19 -29   0 402.499 661.623   1
  29 -19   0 693.054 713.329   1
 -10  29   0 736.835 625.134   3
  19 -29   0 2187.96 798.458   2
 -29  10   0 1167.33 873.316   4
 -19 -10   0 1413.41 821.815   4
 -29  10   0 1068.30 737.797   2
 -19 -10   3-474.558 897.792   2
  19 -29   3 1493.31 820.383   1
 -10  29   3 263.403 623.633   3
  19 -29   3 420.909 548.039   2
 -29  10   3 1356.91 873.126   3
 -29  10   3 2667.39 1097.22   4
 -29  10   3-386.171 1000.57   2
 -19 -10   3 1200.26 885.082   4
  29 -19   3 157.639 776.651   1
 -18 -11  -4 400.687 726.486   2
  29 -18  -4 719.772 581.917   1
 -29  11  -4 844.018 715.566   4
 -18 -11  -4 413.386 698.814   4
  18 -29  -1-120.214 602.611   1
 -18 -11  -1 601.394 724.997   2
  29 -18  -1 1516.17 755.029   1
 -11  29  -1 682.592 585.853   3
  18 -29  -1 407.413 655.507   2
 -29  11  -1-216.325 790.113   4
 -18 -11  -1 214.809 730.245   4
 -29  11  -1 723.892 619.141   2
 -18 -11   2-162.662 748.213   2
  18 -29   2 1159.18 837.322   1
  29 -18   2 920.648 783.444   1
 -11  29   2 510.274 660.289   3
  18 -29   2-33.0668 527.919   2
 -29  11   2 530.040 670.595   3
 -29  11   2-1191.60 819.935   4
 -29  11   2 1669.20 925.486   2
 -18 -11   2 781.903 747.881   4
  17 -29  -2 1278.52 708.170   1
 -17 -12  -2 181.773 717.862   2
 -12  29  -2-969.525 638.035   3
  17 -29  -2 1661.24 789.129   2
 -29  12  -2 946.716 735.404   4
  29 -17  -2-236.034 614.500   1
 -17 -12  -2-188.546 765.248   4
  17 -29   1 2409.11 863.231   1
 -17 -12   1 1900.55 947.208   2
  29 -17   1 2748.64 895.243   1
 -12  29   1 1927.70 749.920   3
  17 -29   1 2055.38 717.989   2
 -29  12   1 3896.18 964.173   3
 -29  12   1 2659.38 926.132   4
 -29  12   1 2795.69 950.245   2
 -17 -12   1 2071.37 897.142   4
  17 -29   4-1088.18 857.059   1
  29 -17   4-1.15516 755.106   1
  12  17   4 465.254 606.236   3
 -12  29   4 49.7526 731.848   3
  17 -29   4 222.961 579.373   2
 -29  12   4 1053.15 850.627   3
 -29  12   4 717.361 773.010   4
 -29  12   4-510.252 954.480   2
 -17 -12   4-100.382 749.173   4
 -17 -12   4 298.738 892.334   2
  16 -29  -3-653.591 619.545   1
  29 -16  -3 98.7056 531.533   1
 -16 -13  -3 897.411 703.582   2
  16 -29  -3-90.7451 691.455   2
 -29  13  -3 541.623 759.039   4
 -16 -13  -3 236.461 674.398   4
 -16 -13   0 1187.25 862.187   2
  29 -16   0 1388.45 734.456   1
 -13  29   0 1921.56 788.985   3
  16 -29   0 460.002 707.780   2
 -29  13   0 3177.84 921.000   3
 -29  13   0 922.242 792.547   4
 -29  13   0 2567.46 830.327   2
 -16 -13   0 1191.44 864.062   4
  16 -29   0 1783.26 806.277   1
 -16 -13   3 248.503 866.633   2
  29 -16   3 961.285 797.976   1
  13  16   3 79.4567 504.125   3
 -13  29   3 846.584 707.560   3
  16 -29   3 80.2468 579.484   2
 -29  13   3-827.655 742.805   3
 -29  13   3 790.195 875.138   4
 -29  13   3 285.844 847.126   2
 -16 -13   3 58.7758 702.773   4
  16 -29   3 934.822 904.798   1
  15 -29  -4 24.7671 516.001   1
 -15 -14  -4-411.909 735.600   2
  15 -29  -4 95.3040 717.676   2
 -29  14  -4 504.483 668.781   4
  29 -15  -4 435.446 565.889   1
 -15 -14  -4 1165.34 825.840   4
  15 -29  -1 2993.01 901.787   4
 -15 -14  -1 2481.40 904.989   2
  15 -29  -1 2564.26 860.124   2
 -14  29  -1 3285.08 849.620   3
 -29  14  -1 2415.90 968.312   4
  29 -15  -1 3598.98 863.431   1
 -15 -14  -1 4264.27 1001.13   4
 -29  14  -1 2370.52 701.774   2
  15 -29  -1 1994.24 755.366   1
  15 -29   2-530.999 600.322   4
 -15 -14   2-945.471 785.614   2
  29 -15   2 713.912 768.256   1
  15 -29   2 1576.46 714.936   2
 -14  29   2-302.022 656.604   3
 -29  14   2-55.5987 664.376   3
 -29  14   2 804.673 856.336   4
 -29  14   2 1369.03 935.275   2
 -15 -14   2 750.190 733.612   4
  15 -29   2-117.900 730.312   1
  14 -29  -2-409.791 639.693   4
  29 -14  -2-151.457 607.470   1
 -14 -15  -2 605.062 687.532   2
  14 -29  -2 585.432 698.219   2
 -15  29  -2-473.378 672.488   3
 -29  15  -2 154.369 717.732   4
 -14 -15  -2 39.9780 706.805   4
  14 -29  -2-157.130 586.573   1
  14 -29   1 2438.14 778.511   4
 -14 -15   1 1669.79 832.813   2
  14 -29   1 2122.99 815.858   2
 -15  29   1 1870.20 751.111   3
  29 -14   1 2556.20 868.150   1
 -29  15   1 1266.37 752.776   3
 -29  15   1 5520.66 1177.02   4
 -29  15   1 1997.71 907.285   2
 -14 -15   1 2562.06 900.842   4
  14 -29   1 2263.32 848.913   1
  14 -29   4 710.460 599.438   4
 -14 -15   4 502.099 870.979   2
  15  14   4 1692.05 750.228   3
  29 -14   4 2263.37 943.916   1
  14 -29   4-271.833 577.813   2
 -15  29   4 815.273 789.395   3
 -29  15   4-417.154 708.747   3
 -29  15   4 2145.87 1054.66   2
 -14 -15   4 1023.06 741.004   4
  15  14   4-576.853 699.369   1
  14 -29   4-893.628 824.475   1
  13 -29  -3-434.303 710.947   4
 -13 -16  -3 55.9331 733.048   2
  13 -29  -3 1253.25 730.900   2
  29 -13  -3 55.7850 573.883   1
 -29  16  -3 485.257 813.102   4
 -13 -16  -3 284.163 744.975   4
  13 -29  -3-447.575 582.121   1
 -13 -16   0 956.287 779.342   2
  13 -29   0 1224.45 727.767   2
 -16  29   0 1857.03 833.944   3
 -29  16   0 906.866 766.597   3
 -29  16   0 2398.52 921.095   4
 -29  16   0 344.690 691.815   2
  29 -13   0 1721.59 798.875   1
 -13 -16   0-257.786 690.380   4
  13 -29   0 1829.05 805.127   1
  13 -29   0 1939.02 773.452   4
 -13 -16   3 600.087 843.121   2
  16  13   3 1215.59 626.312   3
  13 -29   3 583.427 659.373   2
  29 -13   3-301.884 758.191   1
 -16  29   3 1688.86 808.261   3
 -29  16   3-570.725 718.731   3
  16  13   3 719.460 699.532   1
 -29  16   3 1600.48 1011.83   2
 -13 -16   3 2086.89 894.343   4
  13 -29   3 1354.88 804.188   1
  13 -29   3 310.983 600.628   4
  12 -29  -4 969.942 827.976   4
  29 -12  -4 114.955 573.683   1
 -12 -17  -4 108.040 723.930   2
  12 -29  -4 184.141 740.232   2
 -29  17  -4 1138.06 820.691   4
  12 -29  -4 728.896 624.677   1
 -12 -17  -4 122.575 749.607   4
  29 -12  -1 2151.10 811.402   1
 -12 -17  -1 2664.18 894.250   2
  12 -29  -1 1913.63 814.408   2
 -17  29  -1 1652.33 761.111   3
 -29  17  -1 1797.28 888.146   4
 -29  17  -1 2290.12 717.477   2
  12 -29  -1 3379.12 861.921   1
 -12 -17  -1 2437.86 948.103   4
  12 -29  -1 3097.61 846.422   4
 -12 -17   2 1315.24 815.708   2
  17  12   2 612.198 543.512   3
  12 -29   2 1715.26 786.215   2
 -17  29   2 818.096 738.943   3
 -29  17   2-298.064 730.393   3
  29 -12   2 2067.10 918.449   1
 -29  17   2 927.422 830.363   2
  17  12   2-881.570 720.273   1
  12 -29   2 1129.69 764.316   1
 -12 -17   2 1842.76 882.680   4
  12 -29   2 1192.01 741.733   4
 -11 -18  -2-130.003 754.968   2
  11 -29  -2 951.517 687.366   2
  29 -11  -2 1133.10 739.575   1
 -18  29  -2 952.048 766.385   3
 -29  18  -2 1295.54 847.637   4
  11 -29  -2 1089.35 691.903   1
 -11 -18  -2-223.095 680.473   4
  11 -29  -2 329.644 666.307   4
 -11 -18   1-455.324 818.368   2
  18  11   1 394.346 668.475   1
  11 -29   1 865.814 708.236   2
 -18  29   1-911.533 721.569   3
 -29  18   1 470.079 636.995   3
 -29  18   1 2158.94 861.026   2
  11 -29   1 320.586 752.298   1
  29 -11   1-58.2211 701.236   1
 -11 -18   1 705.631 726.206   4
  11 -29   1 1402.17 699.753   4
 -11 -18   4 154.852 888.537   2
  18  11   4 996.625 772.761   3
  11 -29   4 1105.10 711.426   2
 -18  29   4 1091.08 777.327   3
  18  11   4 2071.76 789.760   1
 -29  18   4 1391.02 885.473   3
  29 -11   4 1440.36 969.279   1
 -11 -18   4 171.052 693.676   4
  11 -29   4-324.497 808.994   1
  11 -29   4-78.0561 674.903   4
  29 -10  -3-90.6628 618.095   1
 -10 -19  -3 416.990 790.564   2
  10 -29  -3 789.911 705.412   2
 -29  19  -3-131.411 761.457   4
  10 -29  -3 1403.75 737.225   1
 -10 -19  -3 3.39444 706.310   4
  10 -29  -3-420.208 702.525   4
  29 -10   0 51.5259 703.322   1
 -10 -19   0 25.8455 741.459   2
  10 -29   0-50.4841 673.531   2
 -19  29   0 1049.26 842.047   3
 -29  19   0 782.584 705.733   3
 -29  19   0 122.435 691.466   2
  10 -29   0 726.406 814.769   1
  19  10   0 1261.69 681.304   1
 -10 -19   0 1387.36 743.062   4
  10 -29   0 477.533 666.700   4
  19  10   3 138.274 612.818   3
 -10 -19   3 154.558 802.787   2
  10 -29   3 582.998 701.801   2
 -19  29   3 359.045 653.892   3
  19  10   3 809.743 722.502   1
 -29  19   3 1186.73 826.630   3
  29 -10   3 602.588 719.148   1
  10 -29   3 3290.64 1111.70   1
 -10 -19   3 1842.07 890.659   4
  10 -29   3 1408.54 785.936   4
  -9 -20  -4 758.969 871.322   2
   9 -29  -4 369.558 713.580   2
 -29  20  -4 855.679 857.352   4
  29  -9  -4-526.583 666.646   1
  -9 -20  -4 139.848 692.841   4
   9 -29  -4-238.240 812.155   4
  -9 -20  -1 1317.64 896.695   2
   9 -29  -1 1174.60 701.440   2
  29  -9  -1 697.128 697.885   1
 -20  29  -1-86.0927 764.454   3
 -29  20  -1 1642.25 817.821   3
  -9 -20  -1 2388.81 899.252   4
   9 -29  -1 2684.26 853.589   4
  20   9   2 1587.11 669.749   3
  -9 -20   2 845.047 847.448   2
   9 -29   2 1766.46 857.677   2
 -20  29   2 361.483 748.458   3
 -29  20   2-1135.30 756.826   3
  20   9   2 1420.29 806.257   1
   9 -29   2 1120.12 885.088   1
  -9 -20   2 848.412 722.385   4
  29  -9   2 802.904 739.985   1
   9 -29   2 814.166 659.534   4
  -8 -21  -2 561.419 849.347   2
   8 -29  -2 2.27906 643.892   2
 -21  29  -2 708.270 796.149   3
  -8 -21  -2 1751.56 818.322   4
  29  -8  -2 1000.35 744.274   1
   8 -29  -2 42.9614 705.880   4
  -8 -21   1-263.292 778.358   2
  29  -8   1-24.2968 749.650   1
   8 -29   1 176.121 745.474   2
 -21  29   1 631.329 800.563   3
 -29  21   1 66.8593 681.293   3
  -8 -21   1 1763.80 827.787   4
  21   8   1 1081.85 782.162   1
   8 -29   1 391.951 625.509   4
  -7 -22  -3-73.8729 786.658   2
   7 -29  -3 794.778 801.781   2
  29  -7  -3 2641.91 883.233   1
  -7 -22  -3 255.143 799.854   4
   7 -29  -3 24.8074 742.303   4
  22   7   0 801.443 653.519   1
  -7 -22   0 976.360 770.244   2
   7 -29   0 1950.42 951.025   2
 -22  29   0 2282.17 987.121   3
 -29  22   0 890.882 789.785   3
  29  -7   0 549.753 669.115   1
  -7 -22   0 606.510 733.692   4
   7 -29   0 1249.66 800.300   4
  29  -7   3 897.544 793.092   1
  -7 -22   3 1182.22 921.219   2
   7 -29   3 2483.54 900.689   2
 -22  29   3 1328.75 811.799   3
 -29  22   3 186.006 748.888   3
  22   7   3 859.970 777.974   1
  -7 -22   3 1946.40 997.125   4
   7 -29   3 2905.75 901.732   4
  -6 -23  -1 814.036 792.006   2
   6 -29  -1 262.241 711.464   2
 -23  29  -1 179.757 772.938   3
 -29  23  -1 1657.21 900.905   3
  -6 -23  -1 43.3037 783.638   4
  23   6  -1 1439.24 672.108   1
  29  -6  -1-205.333 730.540   1
   6 -29  -1 680.682 809.485   4
  -6 -23   2 660.923 846.702   2
   6 -29   2-593.576 798.138   2
  29  -6   2 344.290 694.284   1
 -23  29   2-633.899 831.555   3
 -29  23   2-392.204 764.836   3
  23   6   2 336.514 681.543   1
  -6 -23   2 733.466 759.880   4
   6 -29   2 882.022 721.730   4
  24   5  -2 1996.15 801.775   1
  -5 -24  -2 1265.68 972.915   2
  29  -5  -2 1056.30 732.559   1
   5 -29  -2 1524.56 844.820   2
 -24  29  -2-459.910 809.293   3
  -5 -24  -2-573.811 786.605   4
   5 -29  -2 762.176 805.834   4
  24   5   1-887.903 727.816   1
  -5 -24   1 1614.34 955.840   2
   5 -29   1 539.802 835.645   2
 -24  29   1 109.277 679.515   3
 -29  24   1 704.151 763.708   3
  29  -5   1 1592.20 819.826   1
  -5 -24   1 1359.97 822.069   4
   5 -29   1 238.168 673.714   4
  -4 -25   0 1069.50 814.321   2
  25   4   0-56.1900 639.009   1
   4 -29   0 1323.91 853.728   2
 -25  29   0 1513.18 877.598   3
 -29  25   0-1366.68 919.025   3
  -4 -25   0 484.001 833.023   4
   4 -29   0-782.657 698.101   4
 -23  -7  -1 563.654 803.383   2
  30 -23  -1-411.691 665.958   1
  23 -30  -1 940.717 675.157   1
 -30   7  -1 833.228 826.507   4
 -23  -7  -1-360.084 820.249   4
 -30   7  -1 266.287 651.328   2
 -22  -8  -2 707.820 793.622   2
  22 -30  -2 1170.91 758.463   1
  30 -22  -2 71.3611 649.273   1
 -30   8  -2 207.635 825.608   4
 -22  -8  -2 434.480 754.433   4
  30 -22   1 510.935 750.685   1
 -22  -8   1 584.401 839.833   2
  22 -30   1 1152.32 771.547   1
  -8  30   1 304.142 587.026   3
 -30   8   1 1404.97 900.775   4
 -22  -8   1 3592.25 1093.09   4
 -30   8   1 1949.58 938.324   2
 -21  -9   0 964.151 890.369   2
  30 -21   0 887.975 847.883   1
  21 -30   0 1878.83 890.822   1
  -9  30   0 1923.06 688.273   3
 -30   9   0 1073.49 921.357   4
 -21  -9   0 1384.62 906.449   4
 -30   9   0 1186.05 816.212   2
 -20 -10  -1 1081.20 826.028   2
  20 -30  -1 710.430 724.984   1
  30 -20  -1 169.373 667.605   1
 -10  30  -1 1545.21 634.377   3
 -30  10  -1 1480.07 795.796   4
 -20 -10  -1 151.880 781.839   4
 -30  10  -1-989.861 656.374   2
 -20 -10   2 253.215 902.541   2
  30 -20   2-36.0367 739.840   1
  20 -30   2 812.832 826.620   1
 -10  30   2 1275.42 712.083   3
  20 -30   2 515.591 590.459   2
 -30  10   2 392.730 703.719   3
 -30  10   2 486.150 874.391   4
 -20 -10   2 1111.34 877.947   4
 -30  10   2 1441.34 971.927   2
  19 -30  -2 728.165 639.216   1
 -19 -11  -2 1143.20 908.053   2
 -11  30  -2 1317.32 679.173   3
  30 -19  -2 486.827 675.211   1
 -30  11  -2-429.063 737.387   4
 -19 -11  -2 1506.07 828.295   4
 -19 -11   1 823.209 912.478   2
  19 -30   1 1818.48 863.172   1
  30 -19   1 2072.18 817.963   1
 -11  30   1 922.460 721.677   3
  19 -30   1 1358.86 697.984   2
 -30  11   1 3265.45 990.296   3
 -30  11   1 2318.91 1026.18   4
 -19 -11   1 1591.84 869.086   4
 -30  11   1 1600.51 949.433   2
  30 -18  -3 1543.25 642.849   1
  18 -30  -3 618.188 617.527   1
 -18 -12  -3-14.0105 698.952   2
 -30  12  -3 564.233 738.006   4
  18 -30   0 768.131 782.910   1
 -18 -12   0 193.604 772.353   2
  30 -18   0-161.824 665.665   1
 -12  30   0 131.481 614.601   3
  18 -30   0 1096.36 711.610   2
 -30  12   0 1541.51 948.407   4
 -18 -12   0 1487.71 834.186   4
 -30  12   0 1582.06 819.275   2
 -18 -12   3 848.731 967.337   2
  18 -30   3 643.137 831.797   1
  30 -18   3 1819.39 1013.02   1
 -12  30   3 594.117 665.759   3
  18 -30   3 1185.57 655.755   2
 -30  12   3 614.717 738.056   3
 -30  12   3 1008.77 833.544   4
 -30  12   3-722.613 900.457   2
 -18 -12   3 1921.60 982.933   4
  17 -30  -1 1711.92 783.363   1
 -17 -13  -1 1179.97 853.479   2
 -13  30  -1 906.547 639.936   3
  17 -30  -1 1225.96 775.650   2
  30 -17  -1 2337.61 801.024   1
 -30  13  -1 2447.27 979.947   4
 -17 -13  -1 415.743 727.901   4
 -30  13  -1 2283.22 743.792   2
  17 -30   2 1282.83 907.542   1
 -17 -13   2 1292.83 915.303   2
  30 -17   2 1541.77 816.545   1
 -13  30   2 689.887 641.265   3
  17 -30   2 1950.62 774.922   2
 -30  13   2 655.283 754.548   3
 -30  13   2 1883.19 979.391   4
 -30  13   2 989.104 875.996   2
 -17 -13   2 477.713 808.898   4
  30 -16  -2 825.696 689.420   1
 -16 -14  -2 1683.77 886.130   2
  16 -30  -2 2220.53 830.758   2
 -14  30  -2 178.620 663.030   3
 -30  14  -2 1487.60 904.703   4
 -16 -14  -2 337.505 728.716   4
  16 -30  -2 848.078 686.616   1
 -16 -14   1-522.325 826.311   2
  30 -16   1 1468.98 819.798   1
  16 -30   1 1295.43 714.533   2
 -14  30   1 453.144 651.882   3
 -30  14   1 806.477 866.578   3
 -30  14   1-1005.61 802.248   4
 -30  14   1 1171.69 826.189   2
 -16 -14   1 1424.54 908.286   4
  16 -30   1-478.461 747.886   1
 -15 -15  -3 405.060 836.172   2
  30 -15  -3 2520.57 764.241   1
  15 -30  -3 2077.43 879.724   2
 -30  15  -3 1682.28 810.039   4
 -15 -15  -3 2489.21 884.783   4
  15 -30  -3 2815.69 817.964   1
  15 -30   0 753.814 701.921   4
 -15 -15   0 23.7187 838.306   2
  15 -30   0 904.175 719.230   2
 -15  30   0-310.896 655.177   3
 -30  15   0 269.948 704.961   3
 -30  15   0 678.066 894.058   4
  30 -15   0 869.906 729.160   1
 -30  15   0 66.0984 657.261   2
 -15 -15   0-1109.82 865.131   4
  15 -30   0 1098.97 792.094   1
  15 -30   3 878.874 665.276   4
 -15 -15   3 1295.03 1035.35   2
  30 -15   3 2754.81 1018.22   1
  15 -30   3 1975.37 776.572   2
 -15  30   3 1026.50 734.421   3
 -30  15   3 2936.09 994.348   3
 -30  15   3 1721.07 913.295   4
 -30  15   3-270.410 952.197   2
 -15 -15   3 866.717 785.451   4
  15 -30   3 1462.82 872.278   1
  14 -30  -1 1321.65 723.161   4
 -14 -16  -1-147.256 793.848   2
  14 -30  -1 366.866 705.931   2
 -16  30  -1-166.755 637.500   3
 -30  16  -1-1.14375 776.326   4
 -14 -16  -1 2415.73 966.647   4
  14 -30  -1 214.335 697.726   1
  30 -14  -1 43.6547 646.856   1
  14 -30   2 2055.06 723.490   4
 -14 -16   2 2440.84 1076.06   2
  14 -30   2 1824.43 724.048   2
 -16  30   2 2002.52 849.231   3
  30 -14   2 1120.74 796.720   1
 -30  16   2 570.369 666.781   3
 -30  16   2 2005.09 948.984   4
 -30  16   2 1378.82 909.134   2
 -14 -16   2 1972.69 955.984   4
  14 -30   2 397.006 739.484   1
  13 -30  -2 791.399 779.810   4
 -13 -17  -2 1081.97 888.880   2
  30 -13  -2 219.590 632.192   1
  13 -30  -2 1667.39 774.203   2
 -17  30  -2 1601.55 772.000   3
 -30  17  -2 1320.62 913.017   4
  13 -30  -2 658.247 650.207   1
 -13 -17  -2 1661.11 919.646   4
 -13 -17   1 4749.63 1115.77   2
  13 -30   1 1458.02 773.971   2
 -17  30   1 2010.00 828.298   3
 -30  17   1 2569.67 955.096   3
 -30  17   1 1696.58 869.212   2
  30 -13   1 1524.77 766.984   1
 -13 -17   1 1373.37 802.877   4
  13 -30   1 1684.91 936.436   1
  13 -30   1 2256.16 805.161   4
  12 -30  -3 892.720 785.030   4
 -12 -18  -3 1291.05 869.652   2
  12 -30  -3 670.231 770.129   2
 -30  18  -3 2329.87 917.993   4
  12 -30  -3 310.467 668.857   1
  30 -12  -3 1166.96 707.007   1
 -12 -18  -3 1118.65 849.016   4
  30 -12   0 917.990 774.208   1
 -12 -18   0 1937.96 890.458   2
  12 -30   0 400.348 667.777   2
 -18  30   0 57.3536 679.618   3
 -30  18   0 793.854 750.712   3
 -30  18   0 553.765 732.713   2
  12 -30   0 552.307 816.636   1
 -12 -18   0 2970.54 992.769   4
  12 -30   0 1131.19 682.221   4
 -12 -18   3 95.6375 846.759   2
  18  12   3 932.050 693.946   3
  12 -30   3 852.228 752.578   2
 -18  30   3 339.901 740.093   3
 -30  18   3 412.330 725.889   3
  30 -12   3 347.628 836.999   1
  18  12   3 912.125 775.692   1
 -30  18   3-123.040 892.068   2
 -12 -18   3-990.273 788.714   4
  12 -30   3 755.533 872.838   1
  12 -30   3 1331.37 803.010   4
 -11 -19  -1 804.001 839.194   2
  30 -11  -1 452.087 655.606   1
  11 -30  -1 477.692 749.706   2
 -19  30  -1 637.943 752.121   3
 -30  19  -1 35.4263 834.921   3
  11 -30  -1 1567.67 803.187   1
 -11 -19  -1 1411.95 871.598   4
  11 -30  -1 2136.71 860.788   4
 -11 -19   2 619.811 812.249   2
  11 -30   2 608.887 756.297   2
 -19  30   2 899.041 696.209   3
 -30  19   2 449.071 860.111   3
 -30  19   2 627.219 846.091   2
  30 -11   2 1807.22 881.476   1
  11 -30   2 2587.93 1071.22   1
  19  11   2 637.955 787.059   1
 -11 -19   2 1017.09 751.838   4
  11 -30   2 2082.83 815.755   4
 -10 -20  -2-600.097 764.345   2
  10 -30  -2 23.1530 765.912   2
 -20  30  -2 91.1345 731.441   3
  10 -30  -2 180.970 675.814   1
  30 -10  -2 523.964 675.602   1
 -10 -20  -2 625.879 747.660   4
  10 -30  -2 162.911 695.196   4
  30 -10   1 5.16080 671.604   1
 -10 -20   1 678.511 827.678   2
  20  10   1 693.774 721.430   1
  10 -30   1 389.144 705.963   2
 -20  30   1 384.509 723.914   3
 -30  20   1-209.171 705.121   3
 -30  20   1 740.667 775.933   2
  10 -30   1 385.509 711.994   1
 -10 -20   1 1.17440 749.424   4
  10 -30   1 935.835 790.771   4
  -9 -21   0 53.6258 785.118   2
  21   9   0 1245.11 823.532   1
   9 -30   0 2091.25 891.691   2
  30  -9   0 769.820 669.632   1
 -21  30   0 1284.02 772.938   3
 -30  21   0 2810.15 964.285   3
 -30  21   0 517.232 733.576   2
  -9 -21   0 1387.67 868.807   4
   9 -30   0 1054.14 747.389   4
  -8 -22  -1 3000.03 982.964   2
   8 -30  -1 3639.26 990.044   2
 -22  30  -1 789.555 824.169   3
 -30  22  -1 990.129 809.871   3
  30  -8  -1 615.404 656.795   1
  -8 -22  -1 775.329 844.942   4
   8 -30  -1 3074.57 963.847   4
  -8 -22   2 971.395 877.407   2
  30  -8   2 648.482 753.269   1
   8 -30   2 746.482 805.904   2
  22   8   2 3097.28 990.848   1
 -22  30   2-1248.84 846.830   3
 -30  22   2 202.165 761.708   3
  -8 -22   2 1268.59 776.883   4
   8 -30   2 653.286 728.157   4
  -7 -23   1 985.920 766.050   2
   7 -30   1-287.297 792.276   2
  30  -7   1 914.369 813.981   1
 -23  30   1-308.666 781.339   3
 -30  23   1-286.878 748.772   3
  23   7   1 636.576 732.584   1
  -7 -23   1 358.530 797.421   4
   7 -30   1 757.213 763.315   4
 -20 -11   0 2981.73 1183.48   2
  20 -31   0-376.187 757.629   1
  31 -20   0 1491.05 874.848   1
 -11  31   0 1367.18 719.460   3
  20 -31   0 271.486 728.104   2
 -31  11   0 652.510 915.358   4
 -20 -11   0 2120.49 956.067   4
 -31  11   0 460.801 727.541   2
  19 -31  -1-25.9074 669.642   1
 -19 -12  -1 298.354 869.581   2
  31 -19  -1-703.576 740.070   1
 -12  31  -1 462.599 652.093   3
  19 -31  -1 253.640 701.662   2
 -31  12  -1 1704.83 1046.24   4
 -19 -12  -1 1149.12 900.098   4
  18 -31  -2 1150.35 711.572   1
 -18 -13  -2 609.682 764.779   2
 -13  31  -2 1838.72 773.073   3
  18 -31  -2 1876.50 856.375   2
 -31  13  -2 4074.05 1058.23   4
 -18 -13  -2 1969.57 982.528   4
  31 -18  -2 1325.58 762.531   1
  18 -31   1 2335.49 927.424   1
 -18 -13   1 551.445 819.023   2
  31 -18   1 842.062 785.424   1
 -13  31   1-150.171 693.077   3
  18 -31   1 848.208 730.192   2
 -31  13   1-15.7777 813.543   3
 -31  13   1 1339.01 896.717   4
 -31  13   1 1115.33 840.430   2
 -18 -13   1 3295.16 1041.01   4
  17 -31   0 1945.24 851.176   1
 -17 -14   0 732.252 818.359   2
 -14  31   0 632.634 679.644   3
  17 -31   0 1262.87 739.710   2
  31 -17   0 113.247 683.338   1
 -31  14   0 306.028 887.578   4
 -17 -14   0 122.615 762.655   4
 -31  14   0 197.979 705.365   2
 -16 -15  -1 165.807 842.514   2
  16 -31  -1 328.296 730.807   2
 -15  31  -1 1022.73 691.152   3
 -31  15  -1-166.181 857.836   4
 -16 -15  -1-69.7959 807.298   4
  31 -16  -1 5.49457 669.949   1
  16 -31  -1-957.598 756.370   1
  16 -31   2 1333.52 736.183   4
 -16 -15   2 2199.20 964.427   2
  31 -16   2 878.799 744.940   1
  16 -31   2 3218.35 876.070   2
 -15  31   2 520.452 702.412   3
 -31  15   2 1888.88 878.973   3
 -31  15   2 1376.00 968.907   4
 -31  15   2 3321.81 1090.30   2
 -16 -15   2 316.673 745.480   4
  16 -31   2 2653.77 948.366   1
  15 -31  -2 1945.84 970.165   4
 -15 -16  -2 835.064 910.850   2
  31 -15  -2 1422.86 761.243   1
  15 -31  -2 3472.67 1030.16   2
 -16  31  -2 1374.90 778.207   3
 -31  16  -2-30.4089 834.847   4
 -15 -16  -2 1398.46 885.148   4
  15 -31  -2 1232.07 745.871   1
  15 -31   1 246.292 698.677   4
 -15 -16   1-1369.27 893.164   2
  15 -31   1 27.8957 688.452   2
 -16  31   1 900.555 752.895   3
 -31  16   1 1090.47 801.783   3
  31 -15   1 1169.30 764.235   1
 -31  16   1-2296.86 998.323   4
 -31  16   1-118.068 777.855   2
 -15 -16   1-1009.90 819.728   4
  15 -31   1 582.598 745.675   1
  14 -31   0 1317.36 836.540   4
 -14 -17   0 666.550 858.826   2
  14 -31   0 1425.40 817.721   2
 -17  31   0 1680.82 821.633   3
 -31  17   0 888.532 873.037   3
 -31  17   0-251.393 806.503   4
 -31  17   0 1748.38 821.734   2
 -14 -17   0-225.346 777.577   4
  14 -31   0 487.681 774.792   1
  31 -14   0-656.813 829.414   1
  13 -31  -1 1666.61 877.017   4
 -13 -18  -1-261.363 812.084   2
  31 -13  -1 2283.68 815.763   1
  13 -31  -1 1078.15 763.408   2
 -18  31  -1-265.685 732.509   3
 -31  18  -1 2456.12 1023.58   4
  13 -31  -1 312.739 690.951   1
 -13 -18  -1 898.088 798.297   4
 -13 -18   2 1677.24 980.344   2
  13 -31   2 1894.92 833.566   2
 -18  31   2 2070.07 906.875   3
 -31  18   2 2341.94 964.958   3
  31 -13   2 1035.82 912.221   1
 -31  18   2 1766.08 1032.95   2
 -13 -18   2 2536.72 1048.72   4
  13 -31   2 80.5110 792.612   1
  13 -31   2 1567.36 780.239   4
 -12 -19   1 1375.48 861.936   2
  12 -31   1-112.972 669.392   2
 -19  31   1-260.593 689.117   3
 -31  19   1 789.086 758.014   3
 -31  19   1-521.090 847.569   2
  12 -31   1-663.632 729.941   1
 -12 -19   1 199.705 810.475   4
  31 -12   1 744.833 797.694   1
  12 -31   1 171.652 694.994   4
 -11 -20   0 21.7995 778.161   2
  31 -11   0 1400.86 857.043   1
  11 -31   0 1296.03 830.422   2
 -20  31   0-813.684 778.400   3
 -31  20   0 364.168 776.233   3
  11 -31   0 1107.32 815.969   1
 -11 -20   0 1709.90 847.134   4
  11 -31   0 477.060 751.915   4
   0   0   0    0.00    0.00   0

TITL YY_Zn_Gly_Pyr_Benzene_Heat_5_10_150K_0-84 in R3c
REM R3c (#161 in standard setting)
CELL 0.71073  26.541109  26.541109  10.141933  90.0000  90.0000 120.0000
ZERR   18.00   0.001394   0.001394   0.000372   0.0000   0.0000   0.0000
LATT -3
SYMM -y, x-y, z
SYMM -x+y,-x, z
SYMM -y,-x, z+1/2
SYMM -x+y, y, z+1/2
SYMM  x, x-y, z+1/2
SFAC C H N O Zn
UNIT 108.00 144.00 54.00 90.00 18.00
TREF
HKLF 4
END
;
_shelx_hkl_checksum              86749
_olex2_submission_special_instructions 'No special instructions were received'
_oxdiff_exptl_absorpt_empirical_details
;
Empirical correction (ABSPACK) includes:
- Absorption correction using spherical harmonics
- Frame scaling
;
_oxdiff_exptl_absorpt_empirical_full_max 1.369
_oxdiff_exptl_absorpt_empirical_full_min 0.845
loop_
_space_group_symop_operation_xyz
'x, y, z'
'-y, x-y, z'
'-x+y, -x, z'
'-x+y, y, z+1/2'
'x, x-y, z+1/2'
'-y, -x, z+1/2'
'x+2/3, y+1/3, z+1/3'
'-y+2/3, x-y+1/3, z+1/3'
'-x+y+2/3, -x+1/3, z+1/3'
'-x+y+2/3, y+1/3, z+5/6'
'x+2/3, x-y+1/3, z+5/6'
'-y+2/3, -x+1/3, z+5/6'
'x+1/3, y+2/3, z+2/3'
'-y+1/3, x-y+2/3, z+2/3'
'-x+y+1/3, -x+2/3, z+2/3'
'-x+y+1/3, y+2/3, z+7/6'
'x+1/3, x-y+2/3, z+7/6'
'-y+1/3, -x+2/3, z+7/6'
loop_
_atom_site_label
_atom_site_type_symbol
_atom_site_fract_x
_atom_site_fract_y
_atom_site_fract_z
_atom_site_U_iso_or_equiv
_atom_site_adp_type
_atom_site_occupancy
_atom_site_site_symmetry_order
_atom_site_calc_flag
_atom_site_refinement_flags_posn
_atom_site_refinement_flags_adp
_atom_site_refinement_flags_occupancy
_atom_site_disorder_assembly
_atom_site_disorder_group
Zn1 Zn 0.64796(5) 0.67635(5) 0.15626(15) 0.0283(4) Uani 1 1 d . . . . .
N2 N 0.6825(4) 0.6289(4) 0.1041(9) 0.032(2) Uani 1 1 d . . . . .
O1 O 0.5980(4) 0.6796(4) 0.0182(7) 0.034(2) Uani 1 1 d . . . . .
N3 N 0.4134(4) 0.5391(4) 0.3804(8) 0.027(2) Uani 1 1 d . . . . .
H3 H 0.4217 0.5507 0.2980 0.032 Uiso 1 1 calc R . . . .
O3 O 0.7109(4) 0.7578(3) 0.1778(8) 0.0347(19) Uani 1 1 d . . . . .
N1 N 0.5952(4) 0.6473(4) 0.3088(9) 0.033(2) Uani 1 1 d . . . . .
O2 O 0.4419(4) 0.5554(4) 0.5928(7) 0.0405(17) Uani 1 1 d . . . . .
C1 C 0.5391(5) 0.6189(5) 0.3057(11) 0.034(3) Uani 1 1 d . . . . .
H1 H 0.5168 0.6114 0.2273 0.041 Uiso 1 1 calc R . . . .
C4 C 0.4558(6) 0.5645(6) 0.4730(11) 0.0405(17) Uani 1 1 d . . . . .
C2 C 0.5149(5) 0.6008(5) 0.4304(10) 0.030(3) Uani 1 1 d . . . . .
C6 C 0.5642(5) 0.6479(5) -0.0743(11) 0.028(2) Uani 1 1 d . . . . .
C3 C 0.7105(5) 0.6075(5) 0.1773(11) 0.032(3) Uani 1 1 d . . . . .
H3A H 0.7144 0.6105 0.2706 0.038 Uiso 1 1 calc R . . . .
C5 C 0.3560(5) 0.4945(5) 0.4121(11) 0.034(3) Uani 1 1 d . . . . .
H5A H 0.3290 0.4923 0.3421 0.041 Uiso 1 1 calc R . . . .
H5B H 0.3438 0.5043 0.4959 0.041 Uiso 1 1 calc R . . . .
C12A C 0.531(3) 0.482(3) 0.826(7) 0.15(3) Uiso 0.27(2) 1 d . U P A -1
H12A H 0.5259 0.5091 0.8781 0.178 Uiso 0.27(2) 1 calc R . P A -1
C11A C 0.559(3) 0.454(3) 0.878(5) 0.13(3) Uiso 0.27(2) 1 d G U P A -1
H11A H 0.5731 0.4622 0.9664 0.160 Uiso 0.27(2) 1 calc R . P A -1
C10A C 0.566(3) 0.415(3) 0.802(7) 0.13(2) Uiso 0.27(2) 1 d G U P A -1
H10A H 0.5854 0.3959 0.8380 0.159 Uiso 0.27(2) 1 calc R . P A -1
C9A C 0.546(3) 0.403(3) 0.673(6) 0.10(2) Uiso 0.27(2) 1 d G U P A -1
H9A H 0.5506 0.3765 0.6213 0.116 Uiso 0.27(2) 1 calc R . P A -1
C8A C 0.518(3) 0.431(3) 0.621(5) 0.12(2) Uiso 0.27(2) 1 d G U P A -1
H8A H 0.5034 0.4234 0.5330 0.147 Uiso 0.27(2) 1 calc R . P A -1
C7A C 0.510(3) 0.471(3) 0.697(7) 0.14(3) Uiso 0.27(2) 1 d G U P A -1
H7A H 0.4910 0.4897 0.6614 0.167 Uiso 0.27(2) 1 calc R . P A -1
C9B C 0.592(3) 0.416(3) 0.334(6) 0.10(2) Uiso 0.23(2) 1 d . U P A -2
H9B H 0.6150 0.4010 0.2975 0.116 Uiso 0.23(2) 1 calc R . P A -2
C10B C 0.563(2) 0.394(2) 0.451(6) 0.072(19) Uiso 0.23(2) 1 d G U P A -2
H10B H 0.5651 0.3638 0.4960 0.086 Uiso 0.23(2) 1 calc R . P A -2
C11B C 0.529(2) 0.416(3) 0.504(5) 0.09(2) Uiso 0.23(2) 1 d G U P A -2
H11B H 0.5088 0.4009 0.5847 0.104 Uiso 0.23(2) 1 calc R . P A -2
C12B C 0.525(3) 0.460(3) 0.439(6) 0.09(2) Uiso 0.23(2) 1 d G U P A -2
H12B H 0.5026 0.4752 0.4751 0.111 Uiso 0.23(2) 1 calc R . P A -2
C7B C 0.555(3) 0.482(2) 0.321(6) 0.10(2) Uiso 0.23(2) 1 d G U P A -2
H7B H 0.5526 0.5123 0.2766 0.119 Uiso 0.23(2) 1 calc R . P A -2
C8B C 0.589(3) 0.460(3) 0.268(5) 0.10(2) Uiso 0.23(2) 1 d G U P A -2
H8B H 0.6088 0.4752 0.1878 0.122 Uiso 0.23(2) 1 calc R . P A -2
loop_
_atom_site_aniso_label
_atom_site_aniso_U_11
_atom_site_aniso_U_22
_atom_site_aniso_U_33
_atom_site_aniso_U_23
_atom_site_aniso_U_13
_atom_site_aniso_U_12
Zn1 0.0353(8) 0.0376(8) 0.0097(6) -0.0010(6) 0.0001(6) 0.0165(7)
N2 0.048(6) 0.040(6) 0.009(4) 0.004(4) 0.001(4) 0.023(5)
O1 0.044(5) 0.032(4) 0.018(5) 0.002(4) -0.003(4) 0.014(4)
N3 0.038(5) 0.032(5) 0.006(4) 0.002(4) 0.000(4) 0.014(4)
O3 0.040(5) 0.039(5) 0.021(4) 0.003(4) -0.003(4) 0.017(4)
N1 0.038(6) 0.046(6) 0.012(5) 0.004(4) 0.010(4) 0.018(5)
O2 0.044(4) 0.056(5) 0.014(3) 0.004(3) 0.002(3) 0.019(4)
C1 0.037(7) 0.042(7) 0.014(6) -0.003(5) -0.004(5) 0.012(6)
C4 0.044(4) 0.056(5) 0.014(3) 0.004(3) 0.002(3) 0.019(4)
C2 0.039(7) 0.036(7) 0.014(6) 0.002(4) -0.001(5) 0.017(5)
C6 0.031(6) 0.034(6) 0.015(6) 0.007(5) 0.004(5) 0.013(5)
C3 0.040(7) 0.051(7) 0.011(6) 0.002(5) -0.002(5) 0.028(6)
C5 0.031(6) 0.046(7) 0.018(6) 0.001(5) 0.003(5) 0.015(6)
loop_
_atom_type_symbol
_atom_type_description
_atom_type_scat_dispersion_real
_atom_type_scat_dispersion_imag
_atom_type_scat_source
C C 0.0033 0.0016 'International Tables Vol C Tables 4.2.6.8 and 6.1.1.4'
H H 0.0000 0.0000 'International Tables Vol C Tables 4.2.6.8 and 6.1.1.4'
N N 0.0061 0.0033 'International Tables Vol C Tables 4.2.6.8 and 6.1.1.4'
O O 0.0106 0.0060 'International Tables Vol C Tables 4.2.6.8 and 6.1.1.4'
Zn Zn 0.2839 1.4301 'International Tables Vol C Tables 4.2.6.8 and 6.1.1.4'
loop_
_geom_angle_atom_site_label_1
_geom_angle_atom_site_label_2
_geom_angle_atom_site_label_3
_geom_angle
_geom_angle_site_symmetry_1
_geom_angle_site_symmetry_3
_geom_angle_publ_flag
N2 Zn1 O3 108.7(4) . . ?
N2 Zn1 N1 115.4(4) . . ?
O1 Zn1 N2 112.3(4) . . ?
O1 Zn1 O3 104.6(3) . . ?
O1 Zn1 N1 102.4(4) . . ?
N1 Zn1 O3 112.9(4) . . ?
N1 N2 Zn1 123.3(7) 14_654 . ?
C3 N2 Zn1 130.3(8) . . ?
C3 N2 N1 106.2(10) . 14_654 ?
C6 O1 Zn1 139.5(8) . . ?
C4 N3 C5 122.3(9) . . ?
C6 O3 Zn1 119.1(7) 9_565 . ?
N2 N1 Zn1 124.6(8) 9_565 . ?
C1 N1 Zn1 126.7(8) . . ?
C1 N1 N2 108.6(9) . 9_565 ?
N1 C1 C2 112.2(10) . . ?
N3 C4 C2 118.8(10) . . ?
O2 C4 N3 118.8(11) . . ?
O2 C4 C2 122.4(11) . . ?
C1 C2 C4 131.7(11) . . ?
C3 C2 C1 102.5(10) 9_565 . ?
C3 C2 C4 125.6(10) 9_565 . ?
O1 C6 C5 118.0(10) . 6_664 ?
O3 C6 O1 125.4(11) 14_654 . ?
O3 C6 C5 116.6(10) 14_654 6_664 ?
N2 C3 C2 110.5(10) . 14_654 ?
N3 C5 C6 111.7(9) . 6_665 ?
C11A C12A C7A 120.0 . . ?
C10A C11A C12A 120.0 . . ?
C11A C10A C9A 120.0 . . ?
C8A C9A C10A 120.0 . . ?
C9A C8A C7A 120.0 . . ?
C8A C7A C12A 120.0 . . ?
C10B C9B C8B 120.0 . . ?
C11B C10B C9B 120.0 . . ?
C10B C11B C12B 120.0 . . ?
C7B C12B C11B 120.0 . . ?
C12B C7B C8B 120.0 . . ?
C7B C8B C9B 120.0 . . ?
loop_
_geom_bond_atom_site_label_1
_geom_bond_atom_site_label_2
_geom_bond_distance
_geom_bond_site_symmetry_2
_geom_bond_publ_flag
Zn1 N2 1.967(11) . ?
Zn1 O1 1.961(8) . ?
Zn1 O3 1.976(8) . ?
Zn1 N1 1.967(9) . ?
N2 N1 1.374(13) 14_654 ?
N2 C3 1.357(15) . ?
O1 C6 1.280(13) . ?
N3 C4 1.358(15) . ?
N3 C5 1.422(15) . ?
O3 C6 1.244(13) 9_565 ?
N1 N2 1.374(13) 9_565 ?
N1 C1 1.290(16) . ?
O2 C4 1.258(13) . ?
C1 C2 1.391(16) . ?
C4 C2 1.437(18) . ?
C2 C3 1.387(16) 9_565 ?
C6 O3 1.244(13) 14_654 ?
C6 C5 1.514(17) 6_664 ?
C3 C2 1.387(16) 14_654 ?
C5 C6 1.514(17) 6_665 ?
C12A C11A 1.3900 . ?
C12A C7A 1.3900 . ?
C11A C10A 1.3900 . ?
C10A C9A 1.3900 . ?
C9A C8A 1.3900 . ?
C8A C7A 1.3900 . ?
C9B C10B 1.3900 . ?
C9B C8B 1.3900 . ?
C10B C11B 1.3900 . ?
C11B C12B 1.3900 . ?
C12B C7B 1.3900 . ?
C7B C8B 1.3900 . ?
