#------------------------------------------------------------------------------
#$Date: 2020-08-22 01:45:45 +0300 (Sat, 22 Aug 2020) $
#$Revision: 255515 $
#$URL: file:///home/coder/svn-repositories/cod/cif/4/13/51/4135162.cif $
#------------------------------------------------------------------------------
#
# This file is available in the Crystallography Open Database (COD),
# http://www.crystallography.net/
#
# All data on this site have been placed in the public domain by the
# contributors.
#
data_4135162
loop_
_publ_author_name
'Yan, Yong'
'Carrington, Elliot J.'
'P\'etuya, R\'emi'
'Whitehead, George F. S.'
'Verma, Ajay'
'Hylton, Rebecca K.'
'Tang, Chiu C.'
'Berry, Neil G.'
'Darling, George R.'
'Dyer, Matthew S.'
'Antypov, Dmytro'
'Katsoulidis, Alexandros P.'
'Rosseinsky, Matthew J.'
_publ_section_title
;
 Amino Acid Residues Determine the Response of Flexible Metal-Organic
 Frameworks to Guests.
;
_journal_name_full               'Journal of the American Chemical Society'
_journal_paper_doi               10.1021/jacs.0c03853
_journal_year                    2020
_chemical_formula_moiety         'C6 H5 N3 O3 Zn, 0.65(C8 H10)'
_chemical_formula_sum            'C11.17 H11.46 N3 O3 Zn'
_chemical_formula_weight         301.10
_space_group_crystal_system      trigonal
_space_group_IT_number           161
_space_group_name_Hall           'R 3 -2"c'
_space_group_name_H-M_alt        'R 3 c :H'
_atom_sites_solution_hydrogens   geom
_atom_sites_solution_primary     direct
_audit_creation_date             2018-06-20
_audit_creation_method
;
Olex2 1.2
(compiled 2018.05.29 svn.r3508 for OlexSys, GUI svn.r5506)
;
_cell_angle_alpha                90
_cell_angle_beta                 90
_cell_angle_gamma                120
_cell_formula_units_Z            18
_cell_length_a                   26.6208(13)
_cell_length_b                   26.6208(13)
_cell_length_c                   10.1543(4)
_cell_measurement_reflns_used    7395
_cell_measurement_temperature    100
_cell_measurement_theta_max      24.9610
_cell_measurement_theta_min      2.6130
_cell_volume                     6231.9(5)
_computing_cell_refinement       'CrysAlisPro 1.171.38.46 (Rigaku OD, 2015)'
_computing_data_collection       'CrysAlisPro 1.171.38.46 (Rigaku OD, 2015)'
_computing_data_reduction        'CrysAlisPro 1.171.38.46 (Rigaku OD, 2015)'
_computing_molecular_graphics    'Olex2 (Dolomanov et al., 2009)'
_computing_publication_material  'Olex2 (Dolomanov et al., 2009)'
_computing_structure_refinement  'ShelXL (Sheldrick, 2015)'
_computing_structure_solution    'ShelXS (Sheldrick, 2008)'
_diffrn_ambient_temperature      100
_diffrn_detector                 'CCD plate'
_diffrn_measured_fraction_theta_full 0.999
_diffrn_measured_fraction_theta_max 0.999
_diffrn_measurement_details
;
List of Runs (angles in degrees, time in seconds):

  # Type    Start    End  Width  t~exp~   \w     \q     \k     \f   Frames
--------------------------------------------------------------------------
  1  \w   -110.00  15.00   1.00   10.00    --  -20.00 -68.00   0.00  125
  2  \w   -110.00  15.00   1.00   10.00    --  -20.00 -68.00 120.00  125
  3  \w   -110.00  15.00   1.00   10.00    --  -20.00 -68.00 240.00  125
  4  \w   -110.00  15.00   1.00   10.00    --  -20.00 -30.00  90.00  125
;
_diffrn_measurement_device       'abstract diffractometer'
_diffrn_measurement_device_type
'Rigaku Mo Rotating Anode Source With Saturn Detector'
_diffrn_measurement_method       '\w scans'
_diffrn_orient_matrix_type
'CrysAlisPro convention (1999,Acta A55,543-557)'
_diffrn_orient_matrix_UB_11      -0.0293296000
_diffrn_orient_matrix_UB_12      -0.0212748000
_diffrn_orient_matrix_UB_13      0.0119832000
_diffrn_orient_matrix_UB_21      0.0084812000
_diffrn_orient_matrix_UB_22      -0.0210208000
_diffrn_orient_matrix_UB_23      0.0110524000
_diffrn_orient_matrix_UB_31      0.0037204000
_diffrn_orient_matrix_UB_32      0.0070817000
_diffrn_orient_matrix_UB_33      0.0679795000
_diffrn_radiation_monochromator  graphite
_diffrn_radiation_probe          x-ray
_diffrn_radiation_type           MoK\a
_diffrn_radiation_wavelength     0.71073
_diffrn_reflns_av_R_equivalents  0.0707
_diffrn_reflns_av_unetI/netI     0.0361
_diffrn_reflns_Laue_measured_fraction_full 0.999
_diffrn_reflns_Laue_measured_fraction_max 0.999
_diffrn_reflns_limit_h_max       31
_diffrn_reflns_limit_h_min       -31
_diffrn_reflns_limit_k_max       31
_diffrn_reflns_limit_k_min       -31
_diffrn_reflns_limit_l_max       9
_diffrn_reflns_limit_l_min       -12
_diffrn_reflns_number            20419
_diffrn_reflns_point_group_measured_fraction_full 0.925
_diffrn_reflns_point_group_measured_fraction_max 0.925
_diffrn_reflns_theta_full        25.015
_diffrn_reflns_theta_max         25.015
_diffrn_reflns_theta_min         2.650
_diffrn_source                   'fine-focus sealed X-ray tube'
_diffrn_source_type              'Enhance (Mo) X-ray Source'
_exptl_absorpt_coefficient_mu    1.777
_exptl_absorpt_correction_T_max  1.00000
_exptl_absorpt_correction_T_min  0.50289
_exptl_absorpt_correction_type   multi-scan
_exptl_absorpt_process_details
;
CrysAlisPro 1.171.38.46 (Rigaku Oxford Diffraction, 2015)
Empirical absorption correction using spherical harmonics,
 implemented in SCALE3 ABSPACK scaling algorithm.
;
_exptl_crystal_colour            white
_exptl_crystal_colour_primary    white
_exptl_crystal_density_diffrn    1.444
_exptl_crystal_description       needle
_exptl_crystal_F_000             2763
_exptl_crystal_preparation       'Solvent Exchange P-Xylene'
_exptl_crystal_size_max          0.27
_exptl_crystal_size_mid          0.03
_exptl_crystal_size_min          0.025
_refine_diff_density_max         0.994
_refine_diff_density_min         -0.498
_refine_diff_density_rms         0.148
_refine_ls_abs_structure_details
;
 Flack x determined using 858 quotients [(I+)-(I-)]/[(I+)+(I-)]
 (Parsons, Flack and Wagner, Acta Cryst. B69 (2013) 249-259).
;
_refine_ls_abs_structure_Flack   0.013(19)
_refine_ls_extinction_method     none
_refine_ls_goodness_of_fit_ref   1.102
_refine_ls_hydrogen_treatment    constr
_refine_ls_matrix_type           full
_refine_ls_number_parameters     139
_refine_ls_number_reflns         2254
_refine_ls_number_restraints     98
_refine_ls_restrained_S_all      1.093
_refine_ls_R_factor_all          0.0673
_refine_ls_R_factor_gt           0.0639
_refine_ls_shift/su_max          0.000
_refine_ls_shift/su_mean         0.000
_refine_ls_structure_factor_coef Fsqd
_refine_ls_weighting_details
'w=1/[\s^2^(Fo^2^)+(0.1312P)^2^+1.1912P] where P=(Fo^2^+2Fc^2^)/3'
_refine_ls_weighting_scheme      calc
_refine_ls_wR_factor_gt          0.1685
_refine_ls_wR_factor_ref         0.1718
_reflns_Friedel_coverage         0.840
_reflns_Friedel_fraction_full    0.850
_reflns_Friedel_fraction_max     0.850
_reflns_number_gt                2138
_reflns_number_total             2254
_reflns_threshold_expression     'I > 2\s(I)'
_cod_data_source_file            ZnGlyPyr_P-xylene_100K.cif
_cod_data_source_block           ZnGlyPyr_P-xylene_100K
_cod_original_cell_volume        6232.0(7)
_cod_original_sg_symbol_H-M      'R 3 c'
_cod_database_code               4135162
_shelx_shelxl_version_number     2014/7
_chemical_oxdiff_formula         'Zn C6 H8 N3 O3'
_shelx_space_group_comment
;
The symmetry employed for this shelxl refinement is uniquely defined
by the following loop, which should always be used as a source of
symmetry information in preference to the above space-group names.
They are only intended as comments.
;
_reflns_odcompleteness_completeness 99.92
_reflns_odcompleteness_iscentric 1
_reflns_odcompleteness_theta     24.96
_olex2_refinement_description
;
1. Fixed Uiso
 At 1.2 times of:
  All C(H) groups, All C(H,H) groups, All N(H) groups
 At 1.5 times of:
  All C(H,H,H) groups
2. Restrained distances
 C10-C14
 1.5 with sigma of 0.02
 C7-C13
 1.5 with sigma of 0.02
 C9-C14 \\sim C14-C11
 with sigma of 0.02
 C8-C13 \\sim C13-C12
 with sigma of 0.02
3. Restrained planarity
 C14, C10, C9, C8, C7, C12, C11, C13
 with sigma of 0.05
4. Rigid bond restraints
 C4, O3
 with sigma for 1-2 distances of 0.005 and sigma for 1-3 distances of 0.005
 O1, O2, C6
 with sigma for 1-2 distances of 0.01 and sigma for 1-3 distances of 0.01
 C6, C5
 with sigma for 1-2 distances of 0.01 and sigma for 1-3 distances of 0.01
5. Uiso/Uaniso restraints and constraints
C4 \\sim O3: within 2A with sigma of 0.005 and sigma for terminal atoms of 0.01
O2 \\sim C6 \\sim O1: within 2A with sigma of 0.01 and sigma for terminal atoms
of 0.02
N2 \\sim C3 \\sim C2 \\sim C1 \\sim N1: within 2A with sigma of 0.04 and sigma
for terminal atoms of 0.08
C14 \\sim C10 \\sim C12 \\sim C11 \\sim C7 \\sim C13 \\sim C8 \\sim C9: within
2A with sigma of 0.02 and sigma for terminal atoms of 0.04
Uanis(O1) \\sim Ueq, Uanis(C6) \\sim Ueq, Uanis(O2) \\sim Ueq: with sigma of
0.01 and sigma for terminal atoms of 0.02
Uanis(N2) \\sim Ueq, Uanis(N1) \\sim Ueq, Uanis(C1) \\sim Ueq, Uanis(C2) \\sim
Ueq, Uanis(C3) \\sim Ueq: with sigma of 0.01 and sigma for terminal atoms of
0.02
6. Others
 Sof(C10)=Sof(C11)=Sof(H11)=Sof(C12)=Sof(H12)=Sof(C7)=Sof(C8)=Sof(H8)=Sof(C9)=
 Sof(H9)=Sof(C13)=Sof(H13A)=Sof(H13B)=Sof(H13C)=Sof(C14)=Sof(H14A)=Sof(H14B)=
 Sof(H14C)=FVAR(1)
7.a Secondary CH2 refined with riding coordinates:
 C5(H5A,H5B)
7.b Me refined with riding coordinates:
 C13(H13A,H13B,H13C), C14(H14A,H14B,H14C)
7.c Aromatic/amide H refined with riding coordinates:
 N3(H3), C1(H1), C3(H3A), C11(H11), C12(H12), C8(H8), C9(H9)
7.d Fitted hexagon refined as free rotating group:
 C10(C11,C12,C7,C8,C9)
;
_shelx_res_file
;
    yy_zn_gly_pyr_p-xylene.res created by SHELXL-2014/7

TITL YY_Zn_Gly_Pyr_P-xylene in R3c #161
REM reset to R3c #161
CELL 0.71073 26.620821 26.620821 10.154342 90 90 120
ZERR 18 0.001328 0.001328 0.000403 0 0 0
LATT -3
SYMM -Y,+X-Y,+Z
SYMM +Y-X,-X,+Z
SYMM +Y-X,+Y,0.5+Z
SYMM +X,+X-Y,0.5+Z
SYMM -Y,-X,0.5+Z
SFAC C H N O Zn
UNIT 201.05 206.31 54 54 18
DFIX 1.5 C10 C14
DFIX 1.5 C7 C13
SADI C9 C14 C14 C11
SADI C8 C13 C13 C12
FLAT 0.05 C14 C10 C9 C8 C7 C12 C11 C13
DELU 0.005 0.005 C4 O3
DELU O1 O2 C6
DELU C6 C5
SIMU 0.005 0.01 2 C4 O3
SIMU 0.01 0.02 2 O2 C6 O1
SIMU N2 C3 C2 C1 N1
SIMU 0.02 0.04 2 C14 C10 C12 C11 C7 C13 C8 C9
ISOR 0.01 0.02 O1 C6 O2
ISOR 0.01 0.02 N2 N1 C1 C2 C3

L.S. 16
PLAN  20
TEMP -173.15
BOND
fmap 2
acta
REM <olex2.extras>
REM <HklSrc "%.\\YY_Zn_Gly_Pyr_P-xylene.hkl">
REM </olex2.extras>

WGHT    0.131200    1.191200
FVAR       1.03398   0.64631
ZN1   5   -0.352015   -0.028174   -0.148250    11.00000    0.03024    0.03295 =
         0.00759    0.00072    0.00015    0.01585
O2    4   -0.401432   -0.082160   -0.287540    11.00000    0.02960    0.03870 =
         0.00986   -0.00517   -0.00601    0.01515
N1    3   -0.404682   -0.051397    0.004075    11.00000    0.02966    0.03246 =
         0.00818    0.00418    0.00177    0.01567
O3    4   -0.556620   -0.112650    0.287866    11.00000    0.03805    0.05129 =
         0.01213   -0.00017    0.00263    0.02057
N3    3   -0.585861   -0.125151    0.074526    11.00000    0.03329    0.03603 =
         0.01126   -0.00617    0.00363    0.02102
AFIX  43
H3    2   -0.577352   -0.127951   -0.007906    11.00000   -1.20000
AFIX   0
N2    3   -0.316053    0.054870   -0.202266    11.00000    0.04032    0.02281 =
         0.00684    0.00117   -0.00017    0.00968
O1    4   -0.289175   -0.045870   -0.125931    11.00000    0.03313    0.03601 =
         0.01881   -0.00483    0.00024    0.02186
C6    1   -0.435603   -0.083417   -0.376552    11.00000    0.02538    0.03168 =
         0.01030    0.00083    0.00283    0.01392
C4    1   -0.544383   -0.108390    0.170405    11.00000    0.03810    0.03392 =
         0.01358   -0.00390   -0.00173    0.02011
C1    1   -0.462240   -0.079370    0.000209    11.00000    0.03286    0.03827 =
         0.01182    0.00278   -0.00175    0.01681
AFIX  43
H1    2   -0.485283   -0.094431   -0.076795    11.00000   -1.20000
AFIX   0
C2    1   -0.483175   -0.083001    0.126573    11.00000    0.03721    0.03601 =
         0.01584   -0.00437    0.00081    0.02083
C5    1   -0.643976   -0.138259    0.109975    11.00000    0.02767    0.03557 =
         0.01798    0.00050    0.00077    0.01114
AFIX  23
H5A   2   -0.655168   -0.159713    0.194421    11.00000   -1.20000
H5B   2   -0.671622   -0.163497    0.041636    11.00000   -1.20000
AFIX   0
C3    1   -0.436456   -0.058145    0.204020    11.00000    0.02909    0.03464 =
         0.01814    0.00020    0.00259    0.01584
AFIX  43
H3A   2   -0.437282   -0.055423    0.297196    11.00000   -1.20000
AFIX  66

C10   1   -0.527025   -0.240045   -0.034446    21.00000    0.16331
C11   1   -0.528037   -0.231401    0.100303    21.00000    0.15606
AFIX  43
H11   2   -0.563795   -0.242512    0.143279    21.00000   -1.20000
AFIX  65
C12   1   -0.476730   -0.206500    0.172171    21.00000    0.17474
AFIX  43
H12   2   -0.477422   -0.200592    0.264266    21.00000   -1.20000
AFIX  65
C7    1   -0.424411   -0.190242    0.109290    21.00000    0.12070
C8    1   -0.423397   -0.198886   -0.025458    21.00000    0.13004
AFIX  43
H8    2   -0.387639   -0.187775   -0.068434    21.00000   -1.20000
AFIX  65
C9    1   -0.474704   -0.223787   -0.097328    21.00000    0.17659
AFIX  43
H9    2   -0.474011   -0.229695   -0.189423    21.00000   -1.20000
AFIX   0
C13   1   -0.368683   -0.163704    0.185454    21.00000    0.23823
AFIX  33
H13A  2   -0.336491   -0.155068    0.125540    21.00000   -1.50000
H13B  2   -0.362191   -0.127760    0.227273    21.00000   -1.50000
H13C  2   -0.370959   -0.190945    0.253310    21.00000   -1.50000
AFIX   0
C14   1   -0.583273   -0.267204   -0.112023    21.00000    0.25109
AFIX  33
H14A  2   -0.575165   -0.270270   -0.204905    21.00000   -1.50000
H14B  2   -0.609785   -0.305964   -0.077089    21.00000   -1.50000
H14C  2   -0.601193   -0.242916   -0.104176    21.00000   -1.50000
AFIX   0
HKLF 4

REM  YY_Zn_Gly_Pyr_P-xylene in R3c #161
REM R1 =  0.0639 for    2138 Fo > 4sig(Fo)  and  0.0673 for all    2254 data
REM    139 parameters refined using     98 restraints

END

WGHT      0.1312      1.2321

REM Highest difference peak  0.994,  deepest hole -0.498,  1-sigma level  0.148
Q1    1  -0.3185  0.0021 -0.1403  11.00000  0.05    0.99
Q2    1  -0.3305  0.0128 -0.1613  11.00000  0.05    0.98
Q3    1  -0.3833 -0.0239 -0.1480  11.00000  0.05    0.85
Q4    1  -0.3243 -0.0409 -0.1492  11.00000  0.05    0.82
Q5    1  -0.4789 -0.2102  0.0106  11.00000  0.05    0.71
Q6    1  -0.5434 -0.2475  0.2065  11.00000  0.05    0.69
Q7    1  -0.5225 -0.2716 -0.1526  11.00000  0.05    0.66
Q8    1  -0.5055 -0.0778  0.3096  11.00000  0.05    0.66
Q9    1  -0.4330 -0.1961  0.2228  11.00000  0.05    0.65
Q10   1  -0.3858 -0.0470 -0.1586  11.00000  0.05    0.64
Q11   1  -0.3801 -0.1719  0.0551  11.00000  0.05    0.64
Q12   1  -0.5742 -0.3044 -0.2062  11.00000  0.05    0.60
Q13   1  -0.4136 -0.2244 -0.0974  11.00000  0.05    0.59
Q14   1  -0.4522 -0.2044  0.3145  11.00000  0.05    0.50
Q15   1  -0.4635 -0.2052  0.3241  11.00000  0.05    0.49
Q16   1  -0.2855  0.0691 -0.1543  11.00000  0.05    0.49
Q17   1  -0.5792 -0.1054 -0.1057  11.00000  0.05    0.46
Q18   1  -0.5544 -0.3063 -0.1580  11.00000  0.05    0.43
Q19   1  -0.6369 -0.1066  0.1329  11.00000  0.05    0.41
Q20   1  -0.5837 -0.2560 -0.0041  11.00000  0.05    0.40
;
_shelx_res_checksum              29907
_shelx_hkl_file
;
   0   0 -12 39095.4 3268.55   1
   0   0 -12 40252.1 2696.05   2
   0   0 -12 41155.3 2764.00   3
   0   0  -9 560.146 883.938   2
   0   0  -9-421.468 1154.01   1
   0   0  -6 207013. 3967.67   2
   0   0  -6 214474. 4906.10   1
   0   0  -3-124.528 476.941   2
   0   0  -3-328.225 221.235   4
   0   0  -3-288.909 648.119   1
   0   0   3 30.1577 198.686   4
   0   1 -10 1832.92 1393.74   1
   1  -1 -10 1318.56 945.732   2
  -1   0 -10 3092.69 1540.87   1
   1  -1 -10 125.737 1273.89   1
   0   1 -10 428.323 834.302   2
  -1   0 -10 978.292 989.545   2
  -1   0 -10 2567.59 1122.72   3
   0   1  -7 111.186 224.406   4
  -1   0  -7 337.989 745.590   2
   0   1  -7 831.127 1038.46   1
   0   1  -7 55.3830 649.156   2
  -1   0  -7 497.588 955.049   1
   1  -1  -7-199.510 902.174   1
   1  -1  -7 162.955 750.696   2
  -1   0  -7 391.468 386.402   4
   0   1  -4 12031.4 890.090   2
  -1   0  -4 11299.8 569.907   4
   0   1  -4 11791.8 503.872   4
  -1   0  -4 11281.6 938.318   2
   0   1  -4 11988.3 1218.43   1
   1  -1  -4 12785.4 1122.24   1
   1  -1  -4 10689.7 843.402   2
   1  -1  -1-120.205 212.535   1
   0   1  -1 180.569 312.697   1
  -1   0  -1-33.7917 245.813   2
   0   1  -1-57.2046 155.554   3
   1  -1   2 37028.1 795.803   4
   1  -1   2 38468.1 1068.82   2
  -1   0   2 39809.6 1268.20   1
   1  -1   5 131.328 307.148   4
   0  -1 -11-985.747 1402.58   1
   1   0 -11 447.127 1276.81   1
  -1   1 -11 313.123 922.518   2
   1   0 -11-31.3372 902.984   2
  -1   1 -11 156.183 1435.61   1
  -1   1 -11-365.849 993.737   3
   0  -1 -11 1393.15 1120.11   2
   0  -1 -11 172.300 1061.56   3
  -1   1  -8 1962.92 386.061   4
   1   0  -8 2607.58 1254.31   1
   0  -1  -8 2261.86 1076.16   1
   1   0  -8 2208.13 909.043   2
  -1   1  -8 1783.01 1030.23   1
  -1   1  -8 2397.87 842.341   2
   0  -1  -8 2703.12 993.189   2
   0  -1  -8 1997.91 298.033   4
  -1   1  -5 812.335 634.298   2
   0  -1  -5 237.429 758.346   1
  -1   1  -5 649.165 860.416   1
   1   0  -5-77.8393 149.441   4
   0  -1  -5 155.514 614.702   2
  -1   1  -5 290.650 384.990   4
   1   0  -5 113.374 550.951   2
   0  -1  -5-71.1132 253.563   4
   1   0  -5 1129.53 843.999   1
   1   0  -2 38155.4 1226.65   1
  -1   1  -2 35268.8 763.098   4
  -1   1  -2 37020.2 1042.09   2
   1   0  -2 35397.4 837.412   2
   0  -1   1-37.2842 291.059   1
   1   0   1 70.0770 229.530   2
  -1   1   1 45.7579 218.418   1
   1   0   4 11987.2 568.276   4
   0  -1   4 11721.2 517.539   4
  -2   0 -11 229.644 983.143   2
   2  -2 -11 1392.81 1147.95   2
  -2   0 -11-109.836 1517.09   1
   2  -2 -11 1290.06 1126.56   3
  -2   0 -11 85.7386 974.954   3
   0   2 -11 954.461 858.750   2
   2  -2 -11-152.316 1215.98   1
   0   2 -11-290.082 1427.24   1
   0   2  -8 15022.4 1325.18   2
   0   2  -8 15343.5 1840.14   1
   2  -2  -8 14979.3 1398.53   2
   2  -2  -8 14345.5 1609.95   1
  -2   0  -8 14164.5 1476.78   2
  -2   0  -8 14554.3 1931.72   1
  -2   0  -8 13597.9 870.921   4
   0   2  -5 160.579 276.967   4
  -2   0  -5 860.672 420.828   4
   0   2  -5-13.6070 875.665   1
   0   2  -5 334.092 556.597   2
   2  -2  -5-27.0896 684.143   1
   2  -2  -5-75.0218 518.836   2
  -2   0  -5 122.111 630.910   2
   0   2  -2 62853.1 1715.07   1
   2  -2  -2 60400.8 1347.83   1
   0   2  -2 58447.8 946.900   4
  -2   0  -2 59390.5 1538.69   2
   0   2  -2 59752.4 1005.97   2
   0   2  -2 57791.3 1097.26   3
  -2   0  -2 58735.8 1091.35   4
  -2   0  -2 57132.6 989.225   3
   2  -2   1 163.606 253.814   4
  -2   0   1 93.9637 284.804   1
   0   2   1 217.776 243.610   3
   2  -2   1 23.1758 267.582   2
  -2   0   4 14873.9 1277.57   1
   2  -2   4 16299.1 1095.77   2
   2  -2   4 15536.5 758.073   4
   2  -2   7 59.9149 390.778   4
   1  -2 -12 8888.44 1600.36   3
  -1  -1 -12 9637.26 1674.78   3
   1  -2 -12 8653.44 1563.66   2
  -1   2 -12 7350.95 1658.32   3
  -2   1 -12 6811.10 1334.26   2
  -1  -1 -12 10113.5 2081.83   1
  -1   2 -12 8527.64 2226.39   1
   2  -1 -12 6870.56 1572.13   3
  -1   2 -12 9322.19 1427.05   2
   1   1 -12 9334.36 2085.10   1
  -2   1 -12 8949.41 1940.18   1
  -2   1 -12 9396.51 1616.09   3
   1  -2 -12 10968.7 1974.78   1
  -1  -1 -12 7999.67 1572.37   2
  -1   2  -9 45070.8 2237.35   2
   1   1  -9 44212.1 2128.92   2
  -1   2  -9 37837.4 996.187   4
   1  -2  -9 48142.6 2896.43   1
  -2   1  -9 51438.6 2553.00   2
   1   1  -9 51525.9 3116.18   1
  -1   2  -9 48134.2 3135.79   1
  -1  -1  -9 52511.0 3178.76   1
  -2   1  -9 46051.8 3142.12   1
  -1  -1  -9 47541.7 2563.46   2
   1  -2  -9 49324.0 2535.74   2
   2  -1  -9 49075.7 2940.66   1
   1  -2  -9 46988.1 2410.73   3
  -1  -1  -9 45004.2 2282.34   3
  -2   1  -9 39318.3 1219.99   4
   2  -1  -9 48936.7 2353.66   2
  -1  -1  -9 36867.2 1041.45   4
  -1   2  -6 62310.8 2857.86   1
   1   1  -6 67150.2 2824.82   1
   1   1  -6 56120.4 938.098   4
  -1  -1  -6 63280.6 1460.94   4
  -1   2  -6 58986.6 1366.56   4
   1   1  -6 61421.4 2005.57   2
   1  -2  -6 59107.2 2212.93   2
   2  -1  -6 64208.5 2635.94   1
  -2   1  -6 61790.8 2325.23   2
  -1  -1  -6 66416.6 2785.30   1
  -2   1  -6 58535.2 1558.79   4
  -1   2  -6 64543.6 2210.12   2
   1  -2  -6 62477.3 2606.31   1
  -2   1  -6 61558.1 2823.04   1
   2  -1  -6 64559.4 2132.66   2
   1  -2  -6 56637.6 1051.23   4
  -1  -1  -6 63362.7 2412.98   2
   1  -2  -3 171591. 2853.21   1
  -1   2  -3 171954. 2453.72   2
  -1   2  -3 167412. 1896.14   4
  -1  -1  -3 171140. 1846.42   4
  -2   1  -3 166575. 2028.88   4
   1   1  -3 170546. 1369.18   4
   2  -1  -3 171045. 2933.53   1
   1   1  -3 173798. 2134.18   2
  -1  -1  -3 167030. 2769.25   2
   1  -2  -3 169724. 1386.15   4
   1   1  -3 176976. 3272.39   1
  -2   1  -3 171858. 2853.31   2
   2  -1   3 182408. 2092.44   4
   1  -2   3 187016. 2669.55   2
  -2   1   3 196944. 3269.84   1
  -1  -1   3 194535. 3456.04   1
   2  -1   3 190854. 2970.30   2
  -1  -1   3 173157. 1530.30   4
   1  -2   3 178983. 2023.40   4
   1  -2   6 60674.6 1368.72   4
   2  -1   6 63248.6 1470.73   4
   2   0 -10 6800.66 1719.74   1
   0  -2 -10 6193.71 1156.44   3
  -2   2 -10 4838.69 1080.17   2
   0  -2 -10 7345.33 1646.73   1
   0  -2 -10 5098.23 1299.34   2
  -2   2 -10 4502.97 448.182   4
   2   0 -10 5463.53 1104.87   2
  -2   2 -10 5835.85 1641.22   1
  -2   2  -7-236.203 642.567   2
   2   0  -7 187.042 856.713   1
   0  -2  -7 356.637 910.366   1
   0  -2  -7 74.8748 294.871   4
  -2   2  -7 32.8205 1024.63   1
  -2   2  -7-121.201 420.898   4
   2   0  -7 23.4686 622.396   2
   0  -2  -7 101.400 711.785   2
   0  -2  -4 14512.5 586.489   4
   2   0  -4 14172.5 1230.76   1
   0  -2  -4 14322.1 991.091   2
  -2   2  -4 14713.1 979.909   2
   2   0  -4 15310.5 854.692   2
   0  -2  -4 15329.4 1146.50   1
  -2   2  -4 15025.7 761.833   4
  -2   2  -1-30.8962 247.152   4
   2   0  -1 386.164 284.905   1
  -2   2  -1 190.340 273.108   2
   0  -2  -1 35.3708 233.143   3
   0  -2   2 66576.4 1048.78   4
   0  -2   2 67502.4 1169.39   2
  -2   2   2 69304.4 1505.08   1
   2   0   2 66338.3 1601.53   2
   2   0   2 70921.3 1198.13   4
   0  -2   5-108.203 292.312   4
   2   0   5-46.6274 334.866   4
   0   3 -12 33333.2 3188.46   1
  -3   0 -12 26137.2 2989.61   1
  -3   0 -12 29172.2 2232.11   3
  -3   0 -12 26221.8 2374.33   2
   3  -3 -12 23565.5 2446.29   1
   0   3  -9-240.450 697.266   2
   0   3  -9-1323.70 1366.04   1
   3  -3  -9 264.207 870.282   2
  -3   0  -9 102.845 554.772   4
  -3   0  -9 194.291 952.532   2
  -3   0  -9 1328.84 1256.04   1
  -3   0  -9 416.401 801.472   3
   3  -3  -9 717.504 1056.55   1
   0   3  -6 265533. 2717.10   4
   0   3  -6 269220. 3928.40   3
   3  -3  -6 258285. 4228.14   2
   3  -3  -6 273581. 5090.56   1
   0   3  -6 279143. 5878.98   1
  -3   0  -6 254369. 4960.89   2
  -3   0  -6 258724. 3448.30   4
   0   3  -6 263210. 3849.97   2
   0   3  -3 211.119 669.513   1
   0   3  -3-59.3842 317.689   2
  -3   0  -3 385.359 641.870   2
   3  -3  -3 311.897 496.886   1
  -3   0  -3-72.1182 381.608   4
   0   3  -3 174.625 356.882   3
   0   3  -3 4.86938 302.675   4
  -3   0  -3 279.870 362.451   3
   3  -3   0 213200. 2112.99   4
  -3   0   0 211396. 1925.80   4
   3  -3   0 206712. 1691.55   3
   3  -3   0 212919. 1799.27   2
  -3   0   0 202814. 2013.70   2
  -3   0   0 207082. 1493.74   3
  -3   0   0 213597. 1568.24   1
   3  -3   0 215748. 1452.18   1
   3  -3   3 295.758 551.585   2
  -3   0   3-469.470 613.952   1
   3  -3   3-111.822 390.425   4
   3  -3   6 167404. 2740.05   4
   3  -3   6 174140. 3880.22   2
  -2  -1 -10 508.220 1435.74   1
   3  -2 -10 892.075 973.938   2
   2  -3 -10 761.582 918.930   3
   1   2 -10 1477.47 1416.41   1
  -2  -1 -10-16.6609 960.563   2
   3  -2 -10 1447.23 1293.72   1
  -3   1 -10 933.542 896.706   3
  -3   1 -10 1288.97 1009.18   2
  -2  -1 -10 239.439 892.780   3
  -3   1 -10-217.374 429.408   4
  -1   3 -10 1096.79 1350.20   1
  -1   3 -10 1007.03 813.625   2
   2  -3 -10-639.551 1017.17   2
  -2  -1 -10 435.131 357.219   4
   1   2 -10 269.892 769.535   2
  -3   1 -10-210.816 1352.82   1
   2  -3 -10-586.277 1061.33   1
   3  -2  -7 30444.8 1674.10   2
   3  -2  -7 33918.5 2094.24   1
  -2  -1  -7 33994.2 2350.99   1
  -3   1  -7 32698.1 2351.33   1
   2  -3  -7 29727.3 1776.41   2
  -2  -1  -7 33491.2 2000.43   2
  -3   1  -7 31561.8 1339.70   4
  -2  -1  -7 31797.7 1619.75   3
   1   2  -7 33929.3 2327.80   1
  -3   1  -7 30865.9 1882.23   2
   1   2  -7 32245.8 1568.44   2
  -1   3  -7 31285.3 1653.61   2
  -1   3  -7 29149.0 1014.05   4
  -1   3  -7 34774.5 2421.26   1
   2  -3  -7 32677.5 2026.58   1
  -2  -1  -7 31758.8 1261.99   4
  -3   1  -4 2812.37 719.659   2
  -3   1  -4 2524.60 464.897   4
  -2  -1  -4 3158.01 534.154   3
  -1   3  -4 3109.22 430.678   4
   3  -2  -4 4153.08 809.291   1
   1   2  -4 3403.12 916.478   1
   2  -3  -4 2110.50 664.886   1
  -1   3  -4 2765.77 511.296   2
   2  -3  -4 3278.95 266.298   4
  -1   3  -4 3563.11 959.202   1
   1   2  -4 3649.70 534.281   2
  -2  -1  -4 2998.19 679.268   2
  -2  -1  -4 3021.10 445.157   4
  -1   3  -4 3462.43 486.834   3
   1   2  -4 3248.86 333.874   4
  -2  -1  -1 21899.0 858.998   2
  -2  -1  -1 22095.2 458.921   3
  -3   1  -1 21561.4 710.748   4
   2  -3  -1 23274.9 590.505   2
  -1   3  -1 22432.8 690.706   4
  -1   3  -1 22456.1 553.638   3
   1   2  -1 21097.6 796.900   1
   1   2  -1 21818.0 615.608   3
  -3   1  -1 21846.7 864.837   2
   2  -3  -1 22316.5 762.653   3
  -2  -1  -1 22978.5 551.115   1
   2  -3  -1 22530.7 611.868   4
   3  -2  -1 23451.0 494.610   2
  -1   3  -1 22517.6 549.673   2
   3  -2  -1 22556.6 571.274   4
  -2  -1  -1 19957.8 655.912   4
   3  -2  -1 22994.3 598.632   1
   2  -3   2 46603.5 885.163   3
   3  -2   2 48181.1 1428.13   2
   3  -2   2 46824.9 1178.89   4
  -3   1   2 46973.7 1334.05   1
   2  -3   2 47031.3 1236.86   2
   1   2   2 50140.8 1147.02   3
  -2  -1   2 48278.9 1515.63   1
   2  -3   2 46143.5 1148.91   4
   3  -2   5 1163.49 419.570   4
  -2  -1   5 607.380 162.572   4
   3  -2   5 254.618 642.558   2
   2  -3   5 598.034 605.683   2
   2  -3   5 1017.05 445.351   4
   2  -3   8 681.535 429.459   4
   3  -2   8 1510.28 557.953   4
   3  -1 -11 219.111 1242.12   1
  -1  -2 -11 1679.41 1392.72   1
   1  -3 -11 1464.16 1093.24   3
   3  -1 -11-652.076 913.606   2
  -1  -2 -11 738.847 1176.01   2
  -2   3 -11 3598.41 1840.32   1
   1  -3 -11 545.363 1104.32   2
  -2   3 -11-336.105 869.582   2
   2   1 -11 734.908 1392.08   1
   1  -3 -11 2026.03 1385.60   1
  -3   2 -11 211.168 984.963   3
  -3   2 -11 1448.65 1016.01   2
  -1  -2 -11 1518.18 1046.14   3
  -3   2 -11 1309.96 1813.92   1
   2   1 -11-25.7236 823.272   2
  -2   3  -8 317.645 622.768   2
   1  -3  -8 438.542 157.795   4
  -2   3  -8 704.566 445.354   4
  -1  -2  -8 1151.89 850.252   2
   1  -3  -8 278.015 719.705   3
   2   1  -8 593.375 1082.08   1
  -1  -2  -8 771.209 693.027   3
   1  -3  -8-1009.19 993.230   1
   3  -1  -8 1365.71 871.249   2
  -3   2  -8 40.6346 1111.95   1
   1  -3  -8 893.561 818.923   2
  -3   2  -8 590.258 833.611   2
   2   1  -8 1219.18 717.018   2
   3  -1  -8 1263.76 1030.11   1
  -1  -2  -8 563.271 444.308   4
  -3   2  -8 505.327 539.243   4
  -2   3  -8 553.783 1102.98   1
  -1  -2  -8 350.681 1135.59   1
   3  -1  -5 1702.96 859.665   1
   3  -1  -5 687.272 493.443   2
  -1  -2  -5 994.312 550.390   3
  -3   2  -5 1331.56 507.700   4
  -2   3  -5 766.606 411.294   4
  -3   2  -5 455.504 589.481   2
  -1  -2  -5 564.521 593.194   2
  -2   3  -5 742.433 877.718   1
   2   1  -5 478.117 783.446   1
  -1  -2  -5 549.115 348.568   4
   1  -3  -5 550.194 269.874   4
   2   1  -5 576.870 513.447   2
   1  -3  -5 604.888 678.421   1
  -2   3  -5 1076.11 599.330   2
  -2   3  -2 46222.0 858.666   3
  -1  -2  -2 44915.8 1031.07   3
  -3   2  -2 46998.0 1144.80   4
   1  -3  -2 43141.8 1116.49   1
  -3   2  -2 45504.4 1355.52   2
  -2   3  -2 44529.2 1073.26   4
  -2   3  -2 44403.3 1128.32   2
   2   1  -2 44184.1 1384.07   1
   3  -1  -2 44109.4 1235.08   1
   1  -3  -2 44700.3 1209.43   3
   1  -3   1 23812.3 587.624   2
   1  -3   1 23682.3 558.467   3
   3  -1   1 23491.0 747.758   4
   2   1   1 23538.9 505.630   3
  -1  -2   1 24351.1 895.578   1
  -1  -2   1 23589.1 654.891   3
  -2   3   1 23802.2 603.494   4
  -3   2   1 23951.2 489.443   2
  -3   2   1 24890.0 651.497   1
  -2   3   1 20653.5 760.138   3
  -3   2   1 23538.8 593.332   4
   3  -1   1 23354.3 884.841   2
   1  -3   1 24252.3 715.252   4
  -1  -2   4 2748.67 367.789   4
   1  -3   4 3646.61 676.351   2
   3  -1   4 2549.59 465.467   4
   1  -3   4 2554.47 427.319   4
   3  -1   4 3164.21 736.977   2
  -3   2   4 3338.61 864.266   1
   1  -3   7 34013.7 1123.87   4
   3  -1   7 35731.3 1304.34   4
   0  -3 -12 30718.1 2378.05   3
  -3   3 -12 28899.1 2198.81   2
  -3   3 -12 31454.9 3246.99   1
   3   0 -12 33236.0 2872.66   1
   0  -3 -12 31035.0 2593.89   2
   0  -3 -12 29277.8 2852.67   1
   3   0  -9-151.543 738.164   2
   0  -3  -9 746.459 1206.35   1
  -3   3  -9 104.593 472.548   4
   3   0  -9 1105.60 1164.20   1
   0  -3  -9 127.042 814.738   3
  -3   3  -9 506.766 807.594   2
   0  -3  -9 1073.42 1028.07   2
   0  -3  -9 134.052 227.772   4
  -3   3  -9-3.63990 1346.91   1
   0  -3  -6 153592. 2209.15   4
  -3   3  -6 158741. 4640.04   1
   0  -3  -6 149294. 3640.02   2
   3   0  -6 162923. 4178.86   1
  -3   3  -6 149872. 3522.27   2
   0  -3  -6 136140. 3749.75   1
  -3   3  -6 148052. 2648.59   4
   3   0  -6 160995. 2955.43   2
   0  -3  -6 147367. 3258.25   3
  -3   3  -3 61.7550 247.419   3
   0  -3  -3 300.055 390.784   3
  -3   3  -3 738.845 547.319   2
   3   0  -3 43.3083 274.643   2
  -3   3  -3 0.21088 401.698   4
   3   0  -3-83.2055 565.110   1
   0  -3   0 238155. 1773.06   3
   3   0   0 226292. 1526.83   3
  -3   3   0 231166. 1823.57   2
  -3   3   0 229268. 1815.37   3
  -3   3   0 238341. 1476.78   1
   3   0   0 234658. 2128.88   2
  -3   3   0 229083. 2147.57   4
   3   0   0 230484. 2030.96   4
   3   0   0 237176. 1656.07   1
   3   0   3 188.063 607.985   2
   0  -3   3 177.614 325.365   4
  -3   3   3 276.333 538.889   1
   0  -3   3 105.058 397.285   2
   3   0   3 213.436 338.533   4
   0  -3   6 273994. 2940.61   4
   4  -4 -10 22943.2 2047.06   1
  -4   0 -10 25684.1 2242.76   2
   0   4 -10 24105.8 1582.65   2
  -4   0 -10 31338.6 2904.81   1
   0   4 -10 21597.8 2407.46   1
  -4   0 -10 27299.4 1840.92   3
   4  -4 -10 24690.0 2107.16   3
   4  -4 -10 23288.8 1939.63   2
  -4   0 -10 24143.9 1321.20   4
  -4   0  -7 497.765 901.736   2
   0   4  -7 59.7218 477.559   2
   4  -4  -7 43.1195 756.206   1
   0   4  -7 1207.03 1101.60   1
   4  -4  -7-399.671 641.887   2
  -4   0  -7 31.3428 527.117   4
  -4   0  -7-178.665 578.998   3
   0   4  -4 10167.9 731.682   3
   0   4  -4 11552.8 667.921   2
   4  -4  -4 10469.8 897.654   1
  -4   0  -4 9454.68 1058.91   2
  -4   0  -4 10089.1 791.863   4
  -4   0  -4 11374.8 672.479   3
   0   4  -4 10641.6 659.345   4
   0   4  -4 11899.5 1323.84   1
   0   4  -1-85.4327 257.994   3
   4  -4  -1 150.204 189.529   1
  -4   0  -1 132.929 234.241   1
  -4   0  -1 207.531 165.587   3
  -4   0  -1-65.1678 360.216   4
   0   4  -1-75.5955 441.522   1
   4  -4  -1 98.3070 245.061   2
  -4   0  -1 24.6130 474.340   2
   4  -4  -1-34.5979 330.466   4
   4  -4  -1-221.950 410.422   3
   0   4  -1 66.7966 210.135   2
  -4   0   2 53320.9 943.321   4
   0   4   2 53382.5 1357.93   3
  -4   0   2 56093.6 1592.41   1
   4  -4   2 54015.2 822.408   3
   4  -4   2 54107.1 1546.71   2
   4  -4   5-399.275 696.521   2
   4  -4   5-147.467 471.329   4
  -4   0   5 465.510 901.458   1
   4  -4   8 51139.5 1766.63   4
   1   3 -11 407.952 1507.24   1
  -1   4 -11 981.729 814.344   2
  -3  -1 -11 1046.51 989.494   3
  -4   1 -11 1317.56 1111.26   2
   3  -4 -11 1463.55 1188.69   3
  -4   1 -11 393.565 996.812   3
   1   3 -11 638.698 713.729   2
  -3  -1 -11 2005.60 1548.31   1
  -4   1 -11 1697.79 1734.15   1
   4  -3 -11-88.1392 1131.98   3
  -1   4 -11 1273.06 1688.66   1
   4  -3 -11 397.846 1021.69   2
  -3  -1 -11 1497.53 1234.92   2
   3  -4 -11 672.014 1271.40   1
   3  -4 -11 841.102 1132.32   2
   4  -3 -11 2707.07 1372.76   1
  -3  -1  -8 13415.0 1802.79   1
   1   3  -8 11628.4 1018.29   2
  -1   4  -8 11096.9 743.827   4
  -1   4  -8 12327.9 1771.15   1
  -3  -1  -8 12359.7 1026.94   4
   3  -4  -8 11143.0 1249.50   2
  -4   1  -8 14391.2 1898.99   1
  -4   1  -8 12241.1 1458.10   2
  -3  -1  -8 12318.1 1171.34   3
  -4   1  -8 11798.6 1141.46   3
  -3  -1  -8 11323.4 1476.55   2
   3  -4  -8 12128.1 1371.16   3
  -1   4  -8 12788.3 1159.51   2
   4  -3  -8 12215.8 1305.15   2
  -4   1  -8 11745.6 1004.98   4
   1   3  -8 13311.8 1682.07   1
   3  -4  -8 12332.9 1533.28   1
   4  -3  -8 14317.2 1506.63   1
   1   3  -5 20809.6 1107.24   3
   1   3  -5 22836.6 1694.71   1
  -4   1  -5 20954.3 1453.31   2
  -3  -1  -5 18496.6 1409.85   2
  -1   4  -5 20460.1 1027.49   3
  -4   1  -5 18061.9 1041.62   4
  -1   4  -5 21548.8 1712.61   1
  -3  -1  -5 20044.0 1013.13   4
   4  -3  -5 21706.6 1398.39   1
   1   3  -5 20945.8 952.902   2
  -1   4  -5 20291.1 1058.84   2
   3  -4  -5 20143.6 1336.17   1
  -1   4  -5 19070.9 867.612   4
  -3  -1  -5 18682.4 1020.65   3
   4  -3  -2 10661.4 456.624   4
  -4   1  -2 9981.45 689.694   4
  -1   4  -2 10374.2 552.442   3
  -1   4  -2 11941.3 1014.10   1
  -1   4  -2 10074.4 610.959   4
   4  -3  -2 10326.1 438.782   2
   3  -4  -2 9913.56 773.690   3
  -4   1  -2 10927.8 911.848   2
   3  -4  -2 10367.2 492.104   4
   1   3  -2 10649.2 627.011   3
  -1   4  -2 11009.4 505.901   2
  -3  -1  -2 11359.7 666.445   4
   1   3  -2 10258.5 884.276   1
  -3  -1  -2 10986.5 863.898   2
  -3  -1  -2 11209.7 460.729   3
   3  -4  -2 9491.03 519.085   1
   4  -3  -2 11348.6 657.665   1
   1   3  -2 11506.4 363.940   2
  -1   4   1 6450.69 496.986   3
   4  -3   1 6801.45 596.636   2
   3  -4   1 7261.67 577.750   4
   3  -4   1 8293.36 349.872   3
  -4   1   1 7423.35 434.698   4
   1   3   1 7016.11 296.014   1
  -4   1   1 7480.26 502.928   1
   1   3   1 7063.82 449.515   3
   4  -3   1 6777.98 578.019   4
  -4   1   1 6795.66 314.406   2
   3  -4   1 6723.31 495.723   2
  -3  -1   1 6472.72 535.627   1
   3  -4   4 3343.63 563.968   4
  -3  -1   4 3514.69 282.561   4
   4  -3   4 3390.59 782.063   2
   4  -3   4 3325.97 585.074   4
  -3  -1   4 4184.29 913.214   1
  -4   1   4 4891.39 969.576   1
   3  -4   4 3708.98 688.906   2
   3  -4   7 7764.43 773.091   4
   4  -3   7 8129.49 799.644   4
  -2  -2  -9 41991.1 1515.59   4
  -2  -2  -9 38915.9 2063.14   3
   4  -2  -9 42767.2 2617.45   1
  -2  -2  -9 44826.0 2934.82   1
  -4   2  -9 39745.0 2390.85   2
  -2   4  -9 43014.4 3094.77   1
  -4   2  -9 43102.5 3177.56   1
  -2  -2  -9 39548.1 2519.29   2
  -2   4  -9 39782.5 2021.33   2
   2  -4  -9 44778.3 2519.10   2
  -2   4  -9 38935.1 1273.06   4
   2   2  -9 38082.1 1760.27   2
   2  -4  -9 42426.2 2590.18   1
   2   2  -9 41387.9 2809.01   1
  -4   2  -9 40430.6 1622.79   4
   4  -2  -9 37746.5 2042.05   2
   2  -4  -9 40668.7 2342.99   3
  -2   4  -6 30910.8 1507.63   2
  -2  -2  -6 30362.6 1445.25   3
   4  -2  -6 37603.5 2004.05   1
   2  -4  -6 31946.7 1813.88   1
  -2   4  -6 34402.7 2281.92   1
  -2  -2  -6 34194.4 1277.30   4
   2  -4  -6 31068.0 1657.40   3
  -4   2  -6 32604.9 1406.36   4
   4  -2  -6 32254.9 1483.40   2
  -2  -2  -6 34369.9 1932.96   2
  -2   4  -6 32594.1 1199.15   4
   2  -4  -6 28924.7 805.187   4
   2   2  -6 32555.5 1310.50   2
  -4   2  -6 28703.4 1749.57   2
  -2   4  -6 36503.2 1424.61   3
   2   2  -6 29854.0 2016.58   1
  -2  -2  -3 179592. 3239.71   2
   2   2  -3 185398. 2598.21   3
   2   2  -3 184071. 1595.88   2
  -4   2  -3 182339. 2603.82   4
   4  -2  -3 189622. 2964.69   1
  -2   4  -3 190574. 2569.72   2
  -2  -2  -3 187671. 2385.45   3
   2  -4  -3 184942. 2716.06   1
  -2   4  -3 181705. 2414.01   4
  -4   2  -3 190302. 3289.98   2
   2  -4  -3 185644. 2923.15   3
   2   2  -3 197021. 3492.37   1
  -2  -2  -3 185444. 2340.08   4
  -2   4  -3 194485. 2227.21   3
   2   2   0 198474. 1632.67   3
   4  -2   0 198884. 2111.51   4
  -2  -2   0 197788. 1652.19   1
   2  -4   0 201125. 2105.71   4
  -4   2   0 203583. 2160.68   4
   4  -2   0 194677. 2041.25   2
  -4   2   0 197469. 1999.48   2
  -2   4   0 197874. 2079.84   4
   2   2   0 198910. 1592.81   1
   2  -4   0 193281. 1736.07   3
   2  -4   0 201022. 1752.93   2
  -2   4   0 199854. 1749.75   2
  -2  -2   0 199072. 1637.07   3
  -2   4   0 198620. 1802.95   3
   4  -2   0 195914. 1593.24   1
  -4   2   0 200894. 1598.66   1
   4  -2   3 184617. 2604.37   4
  -2  -2   3 196795. 3638.07   1
   2  -4   3 190235. 2602.54   4
  -2  -2   3 183524. 1812.92   4
   4  -2   3 191403. 3365.75   2
  -4   2   3 193029. 3248.61   1
  -2  -2   3 174224. 1735.85   2
   2  -4   3 196453. 2885.03   2
   2  -4   6 34722.1 1291.11   4
   2  -4   6 35224.9 1767.71   2
   2  -4   9 39703.9 1306.83   4
   3   1 -10 8124.86 1052.94   2
  -4   3 -10 8063.59 822.348   4
   1  -4 -10 9717.05 1419.77   3
  -1  -3 -10 9019.58 1252.44   3
   4  -1 -10 10828.9 1748.39   1
  -1  -3 -10 9577.04 1568.24   2
   1  -4 -10 7317.07 1447.32   1
  -4   3 -10 10857.1 1480.35   2
  -3   4 -10 7457.78 1179.38   2
  -3   4 -10 8231.36 726.001   4
  -4   3 -10 9390.43 2145.27   1
  -3   4 -10 11118.0 2052.51   1
  -1  -3 -10 10702.3 1755.43   1
   1  -4 -10 11687.3 1611.90   2
   4  -1 -10 8809.89 1212.21   2
   3   1 -10 8593.57 1692.07   1
   1  -4  -7 7740.32 1142.44   1
  -4   3  -7 8105.38 841.033   4
  -1  -3  -7 7617.21 1334.03   1
  -1  -3  -7 8446.68 1007.06   3
   4  -1  -7 8155.58 954.215   2
   1  -4  -7 7781.07 973.266   3
   1  -4  -7 7481.85 1053.54   2
  -3   4  -7 7782.66 759.761   4
   3   1  -7 9179.74 1370.34   1
   1  -4  -7 6389.48 509.427   4
   3   1  -7 7043.42 812.277   2
  -3   4  -7 6630.96 911.098   2
  -3   4  -7 7582.62 834.306   3
  -1  -3  -7 8181.10 1203.83   2
  -3   4  -7 7156.81 1422.87   1
  -1  -3  -7 6937.22 678.248   4
  -4   3  -7 8373.77 1562.50   1
  -4   3  -7 7051.67 1090.12   2
   4  -1  -7 6588.06 1136.63   1
   3   1  -4 5844.74 921.034   1
   1  -4  -4 4902.78 754.026   1
  -4   3  -4 5723.82 642.086   4
  -4   3  -4 3656.51 706.788   2
  -1  -3  -4 4790.61 492.129   4
  -3   4  -4 5176.49 722.683   2
  -1  -3  -4 4308.43 594.120   3
  -3   4  -4 4321.28 581.816   4
   1  -4  -4 5140.60 718.628   3
   4  -1  -4 5749.73 822.716   1
  -3   4  -4 4740.53 469.849   3
   3   1  -4 3859.58 436.044   2
  -4   3  -1 7486.90 597.168   2
   3   1  -1 7008.45 473.378   3
  -3   4  -1 8143.80 378.899   3
   4  -1  -1 7116.01 466.611   1
  -4   3  -1 6776.32 568.785   4
  -1  -3  -1 7653.31 448.535   3
   4  -1  -1 7568.55 429.396   4
  -3   4  -1 7572.34 568.553   4
   1  -4  -1 7591.70 513.400   3
   4  -1  -1 8008.90 385.389   2
  -1  -3  -1 7598.12 267.827   1
   3   1  -1 7284.10 518.449   1
  -3   4  -1 6910.88 477.633   2
  -1  -3   2 9963.03 931.902   1
   1  -4   2 10992.6 561.918   3
   3   1   2 9919.04 626.693   4
   1  -4   2 9184.80 561.962   2
  -4   3   2 10352.8 676.958   1
   1  -4   2 10267.0 635.411   4
   3   1   2 10625.0 504.281   3
  -1  -3   2 10051.5 421.498   2
  -1  -3   2 10076.4 539.501   4
  -3   4   2 10431.1 623.906   1
   4  -1   2 10473.1 864.226   2
   4  -1   2 9675.72 667.252   4
  -4   3   2 9671.10 430.648   4
  -3   4   2 9738.95 449.478   4
  -1  -3   2 9794.80 602.556   3
   4  -1   5 23853.1 1072.96   4
  -4   3   5 27335.1 1708.07   1
  -1  -3   5 24973.0 884.539   4
   1  -4   5 28149.7 1348.70   2
   1  -4   5 24357.6 1017.07   4
  -1  -3   8 8918.36 442.782   4
   1  -4   8 10236.0 706.112   4
   0  -4 -11 906.312 1142.00   2
  -4   4 -11 1088.32 988.716   2
   4   0 -11 1873.00 1314.56   1
  -4   4 -11 795.711 1618.38   1
   0  -4 -11 537.159 1106.14   3
   0  -4 -11 2225.11 1328.80   1
   4   0  -8 43545.2 1757.66   2
  -4   4  -8 45319.5 3022.55   1
   0  -4  -8 42542.4 2086.00   3
   4   0  -8 46686.6 2687.05   1
   0  -4  -8 39292.3 2324.21   2
  -4   4  -8 43279.9 1621.50   4
   0  -4  -8 44285.5 1341.89   4
   0  -4  -8 45300.0 2579.06   1
  -4   4  -8 45440.7 2235.48   2
   4   0  -5 196.491 673.492   1
   0  -4  -5 290.792 605.648   1
   0  -4  -5-128.301 295.820   4
   0  -4  -5-55.8718 482.198   3
  -4   4  -5 533.519 509.252   4
  -4   4  -5 170.426 326.290   3
   4   0  -5-43.2328 405.292   2
  -4   4  -5 261.463 579.114   2
  -4   4  -2 48432.6 759.262   3
   4   0  -2 46004.7 1374.25   1
  -4   4  -2 43786.1 1335.76   2
   0  -4  -2 46588.3 1199.98   3
  -4   4  -2 42383.3 1310.55   4
   0  -4   1 131.536 309.060   4
   0  -4   1 251.417 280.006   3
  -4   4   1-70.3353 204.014   1
   0  -4   1 118.748 448.263   1
   4   0   1-108.833 468.987   2
   4   0   1 146.933 343.867   4
   4   0   1 73.3644 164.230   3
  -4   4   1-197.903 317.268   4
   0  -4   1 55.4828 199.769   2
   4   0   1-415.524 275.928   1
  -4   4   1 98.7664 240.125   2
   0  -4   4 15608.3 911.992   2
  -4   4   4 14792.4 1178.42   1
   0  -4   4 15343.5 789.030   4
   4   0   4 14988.8 869.871   4
   0  -4   7 233.987 390.092   4
  -5   0 -11 21.3539 1099.66   2
   0   5 -11 873.976 732.294   2
   0   5 -11 751.837 1562.80   1
   5  -5 -11 1095.80 1203.22   2
  -5   0 -11 119.834 1414.59   1
  -5   0 -11 1150.10 936.459   3
   5  -5 -11 988.261 1287.46   3
   5  -5 -11 432.582 1137.88   1
  -5   0  -8 5120.56 858.695   4
   0   5  -8 3573.86 1285.97   1
   0   5  -8 3496.90 691.186   2
   5  -5  -8 4312.66 1104.50   1
   5  -5  -8 4518.52 1116.12   3
   5  -5  -8 4036.45 950.309   2
  -5   0  -8 4372.69 1233.25   2
  -5   0  -8 3715.30 776.835   3
   0   5  -5-780.752 887.240   1
   5  -5  -5 940.603 668.054   1
   0   5  -5 111.504 379.730   2
  -5   0  -5-191.622 411.700   3
   0   5  -5 340.605 365.825   4
  -5   0  -5 255.884 473.278   4
  -5   0  -5-301.849 775.609   2
   0   5  -5 829.144 530.378   3
   5  -5  -2 166615. 2748.24   3
  -5   0  -2 170238. 2617.33   4
   5  -5  -2 180609. 1939.70   1
   5  -5  -2 176074. 2023.65   2
   0   5  -2 175369. 3167.35   1
  -5   0  -2 181313. 1340.93   3
   5  -5  -2 177986. 2155.03   4
  -5   0  -2 184933. 2251.80   1
   0   5  -2 175037. 2257.53   3
  -5   0  -2 176505. 3199.45   2
   0   5  -2 177662. 1710.49   2
  -5   0   1-30.3178 291.514   2
   5  -5   1 92.7448 231.210   3
   0   5   1-167.850 360.334   3
   5  -5   1 205.535 463.046   4
  -5   0   1 309.699 360.633   1
   5  -5   1 420.937 419.092   2
  -5   0   1 626.527 331.277   4
   5  -5   4 43322.6 1887.61   2
  -5   0   4 43987.5 2024.20   1
   5  -5   4 41797.4 1555.98   4
   5  -5   7-439.600 598.284   4
  -5   1  -9 27268.0 2616.59   1
   4  -5  -9 24668.5 1953.85   1
   1   4  -9 25765.5 2498.43   1
   1   4  -9 24256.7 1370.59   2
   5  -4  -9 25668.7 1989.99   1
  -1   5  -9 25005.0 1504.14   2
  -4  -1  -9 29385.6 2613.59   1
  -5   1  -9 26905.2 1649.78   3
   4  -5  -9 24913.5 2007.39   3
   4  -5  -9 25016.6 1926.83   2
  -1   5  -9 28605.0 2669.17   1
  -5   1  -9 29770.4 1621.95   4
  -4  -1  -9 27342.9 1549.73   4
  -5   1  -9 27957.5 2149.24   2
  -4  -1  -9 26640.3 1632.96   3
   5  -4  -9 25007.5 1831.29   2
  -4  -1  -9 22419.5 2079.86   2
  -1   5  -6 34478.9 1462.48   3
  -5   1  -6 34177.5 1362.03   3
   1   4  -6 34646.7 2244.27   1
  -1   5  -6 33504.5 2270.97   1
   4  -5  -6 33013.8 1824.50   3
  -4  -1  -6 32017.3 1424.49   4
   5  -4  -6 32497.3 1755.29   1
  -5   1  -6 33110.6 2002.61   2
   4  -5  -6 32173.2 1741.67   1
  -5   1  -6 29519.6 1437.19   4
  -4  -1  -6 32978.0 2039.73   2
  -4  -1  -6 33607.6 1407.79   3
   1   4  -6 33595.1 1251.65   2
  -1   5  -6 32862.5 1381.78   2
  -1   5  -6 32049.9 1188.70   4
  -1   5  -3 69141.5 1593.11   4
   1   4  -3 74057.6 2388.93   1
   1   4  -3 72374.0 1653.61   3
   4  -5  -3 70324.7 1568.68   1
   5  -4  -3 74468.2 1287.14   2
  -1   5  -3 72224.6 2425.96   1
  -4  -1  -3 69005.1 1695.42   4
  -4  -1  -3 74672.1 1294.33   3
  -5   1  -3 74764.8 2298.36   2
  -1   5  -3 70975.1 1521.70   3
  -1   5  -3 71630.0 1369.79   2
  -5   1  -3 69058.3 1775.90   4
   4  -5  -3 71036.9 1249.15   4
  -4  -1  -3 69410.8 2247.97   2
   1   4  -3 71283.8 1059.07   2
   5  -4  -3 74723.3 1761.14   1
   4  -5  -3 69556.0 1993.46   3
   5  -4  -3 70728.5 1100.16   4
  -5   1  -3 69624.7 1074.20   3
   5  -4   0 45126.7 1241.64   4
  -5   1   0 44230.9 914.777   1
   4  -5   0 45874.7 1261.27   4
   1   4   0 49258.0 1041.14   3
  -5   1   0 45359.9 1180.73   4
   5  -4   0 47117.8 898.342   1
  -1   5   0 47427.6 1061.45   3
  -4  -1   0 45232.3 1200.69   2
  -4  -1   0 45981.6 956.961   1
  -5   1   0 46582.6 1209.64   2
   5  -4   0 47238.4 1173.62   2
  -1   5   0 44735.4 921.101   1
   5  -4   0 46698.5 1019.27   3
   4  -5   0 43344.5 962.148   3
   4  -5   0 48723.4 1093.02   2
  -4  -1   0 46951.0 1172.76   4
   1   4   0 45529.1 884.416   1
  -4  -1   0 47067.0 941.208   3
  -1   5   3 182564. 3045.19   3
   4  -5   3 180873. 3137.70   2
  -4  -1   3 182924. 3512.61   1
   5  -4   3 179840. 3372.36   2
  -5   1   3 187009. 3356.28   1
   5  -4   3 176328. 2931.59   4
   1   4   3 181263. 2805.68   3
   4  -5   3 176703. 2849.97   4
   4  -5   6 19206.0 1449.76   2
   4  -5   6 18195.2 1109.10   4
   5  -4   6 19065.7 1542.15   2
   5  -4   6 17838.6 1097.87   4
   5  -4   9 45570.6 1783.99   4
   4  -5   9 50551.2 1767.73   4
  -3  -2 -10 13627.6 1046.48   4
  -2   5 -10 18931.8 2360.92   1
   5  -3 -10 16676.1 1564.13   2
  -5   2 -10 17515.9 1258.87   4
  -3  -2 -10 17104.3 2267.47   1
  -2   5 -10 16316.1 1407.71   2
   3  -5 -10 18000.1 1851.59   2
  -5   2 -10 15251.4 2261.50   1
   5  -3 -10 18026.5 1888.55   1
   3  -5 -10 16480.1 1851.15   1
  -5   2 -10 16799.3 1867.02   2
  -3  -2 -10 17668.1 1975.61   2
   2   3 -10 18441.6 1297.84   2
  -5   2 -10 15606.4 1494.79   3
  -3  -2 -10 15915.9 1522.71   3
   3  -5 -10 18097.7 1816.43   3
   2   3 -10 16038.0 2122.53   1
   2   3  -7 32380.7 1319.79   2
   2   3  -7 31009.5 2252.44   1
   3  -5  -7 27092.4 1723.89   2
  -3  -2  -7 29069.3 1482.84   3
  -5   2  -7 33576.4 2084.70   2
   5  -3  -7 35331.8 2037.33   1
  -2   5  -7 32280.4 1591.39   2
   3  -5  -7 32289.4 1875.36   3
   5  -3  -7 30499.7 1580.04   2
  -3  -2  -7 33242.0 2159.76   2
  -2   5  -7 34054.2 2493.01   1
  -3  -2  -7 30897.6 1409.59   4
   3  -5  -7 32632.4 1926.38   1
  -5   2  -7 31542.4 1576.60   4
  -2   5  -7 30251.5 1220.12   4
  -3  -2  -4 7161.48 640.153   3
   2   3  -4 7635.08 736.849   3
  -2   5  -4 7434.80 696.155   2
  -3  -2  -4 7261.12 978.551   2
   2   3  -4 7259.81 1007.96   1
   3  -5  -4 7472.91 462.781   4
   2   3  -4 6865.18 430.513   2
   3  -5  -4 7103.86 759.185   1
  -3  -2  -4 7002.03 663.554   4
   3  -5  -4 6874.44 840.542   3
  -5   2  -4 7835.28 727.060   4
  -2   5  -4 7576.82 1160.79   1
  -2   5  -4 7062.19 608.660   3
  -2   5  -4 7579.67 645.856   4
   5  -3  -4 7371.29 831.698   1
  -5   2  -4 7510.48 963.133   2
   5  -3  -1 36470.1 836.438   1
  -2   5  -1 36366.3 878.985   2
   2   3  -1 35820.1 1111.81   1
  -5   2  -1 35572.2 1149.15   4
   5  -3  -1 34622.5 829.893   2
  -3  -2  -1 34265.7 732.336   1
  -3  -2  -1 36171.5 755.096   3
  -2   5  -1 33832.0 1061.01   4
   3  -5  -1 37311.0 925.536   2
   5  -3  -1 36892.2 989.838   4
  -5   2  -1 35579.3 928.124   1
  -5   2  -1 33083.2 1202.46   2
   3  -5  -1 37247.4 1107.95   3
  -2   5  -1 36310.4 866.995   3
   3  -5  -1 33387.6 974.831   4
  -2   5   2 47545.7 1423.44   3
   3  -5   2 46736.4 1372.31   4
  -5   2   2 47313.9 969.920   4
  -5   2   2 47582.7 1403.98   1
   3  -5   2 46864.7 1334.86   2
  -5   2   2 47989.8 757.331   2
   2   3   2 47769.3 1177.84   3
   5  -3   2 48197.3 1662.93   2
   3  -5   2 44483.2 932.883   3
   5  -3   2 43933.8 1413.79   4
  -3  -2   2 44505.1 1590.77   1
   5  -3   5 10784.8 1196.64   2
   5  -3   5 10283.4 885.786   4
   3  -5   5 9393.07 807.638   4
  -3  -2   5 9877.00 498.556   4
   3  -5   5 10099.3 1035.71   2
  -5   2   5 11416.8 1343.12   1
  -3  -2   5 8594.77 1265.00   1
   3  -5   8 28428.1 1315.66   4
   5  -3   8 28367.8 1388.16   4
   5  -2 -11 1790.95 912.913   2
  -3   5 -11 1666.42 1682.88   1
   2  -5 -11 2693.80 1421.62   2
   2  -5 -11 2250.88 1161.82   3
  -5   3 -11 2225.55 1100.36   2
  -2  -3 -11 3521.52 1358.97   2
  -5   3 -11 657.290 1584.07   1
   5  -2 -11 941.590 1277.28   1
   3   2 -11 236.909 1387.53   1
  -3   5 -11 2560.67 960.864   2
   2  -5 -11 2670.13 1258.63   1
  -2  -3 -11 3004.88 1088.76   3
  -2  -3 -11 4313.93 1656.60   1
  -5   3 -11 2243.28 1074.35   3
  -2  -3  -8 29070.0 1657.36   3
  -5   3  -8 28676.6 1397.87   3
   2  -5  -8 30366.0 1917.70   3
  -5   3  -8 32818.9 2677.74   1
   2  -5  -8 31149.1 2042.44   1
  -2  -3  -8 28498.6 2086.35   2
   5  -2  -8 31637.2 2176.66   1
  -3   5  -8 28361.9 1656.41   2
  -2  -3  -8 29923.6 1363.36   4
  -3   5  -8 32609.1 2607.38   1
   5  -2  -8 29633.7 1621.56   2
   2  -5  -8 29423.4 2001.94   2
  -5   3  -8 29058.8 1988.02   2
  -5   3  -8 29028.4 1498.98   4
   3   2  -8 28946.7 1357.50   2
  -3   5  -8 27983.2 1249.41   4
  -2  -3  -8 31946.1 2304.09   1
   3   2  -8 29486.6 2284.27   1
   5  -2  -5 8801.65 949.368   1
  -2  -3  -5 10615.5 1139.08   2
  -2  -3  -5 11075.1 883.616   3
   2  -5  -5 9792.55 1029.49   3
   2  -5  -5 10281.6 546.786   4
   3   2  -5 10171.8 613.626   2
  -3   5  -5 10638.8 1399.91   1
  -5   3  -5 11457.0 1150.37   2
  -2  -3  -5 9949.95 776.678   4
   2  -5  -5 11830.8 1070.88   1
  -5   3  -5 10026.3 862.787   4
  -3   5  -5 11393.2 829.683   4
  -3   5  -5 11562.2 768.550   3
   3   2  -5 11872.3 1281.39   1
  -3   5  -5 11145.3 933.406   2
  -3   5  -2 43287.0 933.300   3
  -2  -3  -2 43668.2 906.381   1
  -3   5  -2 38474.1 1227.35   4
  -5   3  -2 36970.6 1411.69   2
   5  -2  -2 44014.7 764.377   2
   2  -5  -2 39845.8 1289.53   3
  -5   3  -2 38298.3 1271.64   4
   2  -5  -2 40251.9 1004.45   4
   2  -5  -2 36618.6 840.820   1
   3   2  -2 40738.2 1181.96   3
   3   2  -2 30769.8 1249.30   1
   5  -2  -2 40890.3 846.990   4
  -2  -3  -2 41505.9 998.006   3
   5  -2  -2 40705.6 1197.03   1
  -3   5  -2 39328.1 1124.49   2
  -5   3   1 37520.7 881.028   1
   5  -2   1 35657.8 1129.28   4
  -5   3   1 36754.5 799.481   2
   2  -5   1 36507.5 840.692   3
  -2  -3   1 35775.3 1142.13   1
   2  -5   1 36450.0 1113.70   4
   3   2   1 37822.8 798.634   3
  -3   5   1 36542.8 923.327   2
   3   2   1 36966.9 773.517   1
   5  -2   1 35116.3 1281.68   2
   2  -5   1 36254.4 899.468   2
  -2  -3   1 33918.4 930.594   3
  -5   3   1 34819.7 964.835   4
  -3   5   1 35031.2 1086.80   3
  -3   5   1 33804.4 966.040   4
   5  -2   4 7868.76 999.506   2
   5  -2   4 7982.06 737.361   4
  -2  -3   4 7610.79 550.396   2
   2  -5   4 7860.35 726.158   4
  -5   3   4 7122.92 920.307   1
  -2  -3   4 7005.88 514.734   4
  -2  -3   4 8024.35 1115.68   1
   2  -5   4 8203.94 852.148   2
   2  -5   7 31688.2 1334.41   4
   2  -5   7 34426.5 1877.45   2
   5  -2   7 32533.7 1440.28   4
  -4   5  -9 48816.6 2353.23   2
   4   1  -9 45962.8 1784.40   2
  -5   4  -9 48783.2 2532.42   2
   1  -5  -9 52414.4 2831.12   2
  -5   4  -9 52853.1 3453.31   1
   4   1  -9 53066.3 3027.20   1
  -5   4  -9 52348.3 1922.94   4
  -1  -4  -9 52077.3 2377.32   3
  -1  -4  -9 49550.8 2814.83   2
   5  -1  -9 45220.8 2717.43   1
  -4   5  -9 49447.1 1729.10   4
   1  -5  -9 51511.6 2812.81   1
   5  -1  -9 49529.2 2033.10   2
  -1  -4  -9 49449.6 2887.91   1
  -1  -4  -9 51078.7 1640.84   4
   1  -5  -9 45080.0 2323.39   3
  -4   5  -9 54587.9 3556.95   1
   1  -5  -6 17539.9 794.843   4
  -5   4  -6 18960.7 911.580   3
  -4   5  -6 17597.9 1093.87   4
   5  -1  -6 17445.0 1498.24   1
   1  -5  -6 16096.3 1364.80   1
  -4   5  -6 17789.5 964.510   3
  -1  -4  -6 18288.1 1550.68   1
  -1  -4  -6 19984.6 1229.19   3
   1  -5  -6 17610.8 1273.52   3
  -1  -4  -6 18096.7 946.067   4
  -5   4  -6 17798.8 1158.76   4
  -4   5  -6 19629.4 1379.71   2
   4   1  -6 17736.4 904.940   2
  -5   4  -6 18463.1 1427.14   2
   5  -1  -6 16284.6 989.904   2
   4   1  -6 20141.1 1603.62   1
  -1  -4  -6 18255.3 1479.07   2
  -4   5  -3 177801. 1929.75   3
  -4   5  -3 169364. 2695.36   4
   4   1  -3 175278. 3157.25   1
   1  -5  -3 169451. 2733.58   3
  -5   4  -3 178855. 1585.86   3
   5  -1  -3 175551. 1299.70   2
  -5   4  -3 178796. 2874.20   4
  -4   5  -3 172766. 2788.09   2
   5  -1  -3 175646. 2993.25   1
   1  -5  -3 168824. 2495.37   1
  -1  -4  -3 176043. 2537.79   3
  -5   4  -3 173939. 3096.94   2
  -1  -4   0 54943.1 1069.76   1
   1  -5   0 53139.6 1237.47   4
  -4   5   0 53585.6 1142.76   3
  -5   4   0 56087.9 1385.38   4
  -5   4   0 51680.4 1123.90   2
   4   1   0 55814.9 980.754   3
  -5   4   0 56859.5 960.973   1
   1  -5   0 57070.9 1140.82   3
  -4   5   0 52633.8 1316.56   4
   1  -5   0 53500.1 1037.99   1
   5  -1   0 54705.8 1006.72   1
  -1  -4   0 56821.8 1067.99   3
   5  -1   0 51708.3 1342.67   2
  -4   5   0 51071.1 1070.63   2
   1  -5   0 58220.5 1075.63   2
   5  -1   0 56857.0 1288.21   4
   4   1   0 55253.5 1012.61   1
  -4   5   0 55860.6 886.901   1
  -1  -4   3 79839.0 1375.96   2
  -1  -4   3 81502.5 2530.07   1
  -5   4   3 79608.1 2020.85   1
   1  -5   3 83896.6 1728.76   2
   5  -1   3 75068.4 1825.02   4
   5  -1   3 81151.1 2423.88   2
  -5   4   3 80378.6 1101.87   4
  -1  -4   3 74907.0 1520.30   4
   4   1   3 83545.3 1833.49   4
   1  -5   3 77490.4 1640.32   3
   1  -5   3 76317.6 1745.76   4
  -4   5   3 80782.8 1927.74   1
   1  -5   6 37174.1 1686.31   2
  -1  -4   6 35535.1 1144.27   4
   1  -5   6 34298.1 1299.33   4
   5  -1   6 34993.2 1449.74   4
   1  -5   9 19716.3 968.679   4
  -5   5 -10 19770.4 1265.16   4
   5   0 -10 19532.4 1309.53   2
   0  -5 -10 22777.7 1789.77   3
   0  -5 -10 19489.8 2010.95   2
  -5   5 -10 23810.6 2770.93   1
   5   0 -10 24198.8 2348.52   1
  -5   5 -10 23271.3 1846.60   2
   0  -5 -10 22909.8 2122.43   1
   0  -5  -7 393.324 821.496   1
   5   0  -7 83.5570 510.079   2
  -5   5  -7-245.845 556.127   4
   5   0  -7-597.445 900.616   1
   0  -5  -7-117.359 708.648   2
   0  -5  -7 131.134 584.913   3
   0  -5  -7-161.279 400.356   4
  -5   5  -7 81.9934 438.838   3
  -5   5  -7 1111.65 841.904   2
   5   0  -4 38852.4 1756.50   1
   5   0  -4 39233.4 625.460   2
  -5   5  -4 41171.2 1032.79   3
  -5   5  -4 41987.5 1664.59   2
   0  -5  -4 41348.8 1499.29   3
  -5   5  -4 41893.4 1543.25   4
   0  -5  -1-95.7060 320.817   3
  -5   5  -1 178.436 377.970   2
  -5   5  -1 64.6242 243.854   3
  -5   5  -1 188.863 480.253   4
   5   0  -1-174.162 334.400   1
   5   0  -1 50.9190 347.350   3
   5   0  -1-329.930 359.064   2
   5   0   2 179098. 3191.13   2
  -5   5   2 180683. 2245.08   1
   0  -5   2 177467. 2272.96   3
  -5   5   2 178595. 2090.02   4
   0  -5   2 180242. 3219.87   1
   0  -5   2 179226. 1831.00   2
   5   0   2 178359. 1493.91   3
   0  -5   2 172325. 2400.03   4
   5   0   2 177558. 2655.50   4
  -5   5   5-26.5531 715.164   1
   0  -5   5 200.250 460.583   4
   5   0   5 71.7940 443.104   4
   0  -5   5 466.634 536.280   2
   0  -5   8 3512.84 560.491   4
  -6   0  -9 587.023 718.809   3
  -6   0  -9-776.705 1245.83   2
  -6   0  -9-89.3172 791.940   4
   0   6  -9-75.9174 572.545   2
   6  -6  -9 939.214 1072.19   3
   0   6  -9-591.507 1237.55   1
   6  -6  -9 127.201 874.005   1
   6  -6  -9 869.105 951.126   2
  -6   0  -6 51835.7 2586.05   2
  -6   0  -6 46507.0 1456.51   3
  -6   0  -6 48308.6 1898.08   4
   6  -6  -6 45306.3 1944.64   1
   0   6  -6 52547.2 2778.97   1
   0   6  -6 49427.8 1463.01   2
  -6   0  -3-72.3415 498.521   4
   6  -6  -3 344.128 402.366   1
  -6   0  -3 292.841 230.337   3
   0   6  -3-64.1533 394.516   3
   6  -6  -3 208.677 303.072   2
   6  -6  -3 94.1710 597.051   3
   0   6  -3-0.54788 268.654   2
   6  -6  -3 71.6308 340.750   4
   0   6  -3 466.068 704.955   1
  -6   0  -3 72.3103 705.286   2
  -6   0  -3 372.509 413.105   1
   6  -6   0 13035.8 620.429   1
   0   6   0 13266.1 616.550   1
   6  -6   0 13696.8 718.698   3
  -6   0   0 11681.6 846.062   2
   0   6   0 13212.0 716.382   3
   6  -6   0 12814.6 753.368   2
   6  -6   0 11535.1 859.341   4
  -6   0   0 12045.7 645.002   1
  -6   0   0 13335.5 802.635   4
   0   6   3 147.330 498.089   3
   6  -6   3 686.741 292.687   3
  -6   0   3 277.553 311.049   4
  -6   0   3 1574.37 734.024   1
   6  -6   3 890.653 689.717   2
   6  -6   3 492.990 611.435   4
   6  -6   6 52286.8 2461.05   2
   6  -6   6 50265.5 1935.10   4
   5  -6 -10 1210.69 1139.40   2
  -6   1 -10 820.197 849.404   4
  -5  -1 -10 823.028 1158.12   2
   1   5 -10 1072.33 1536.35   1
   5  -6 -10 1212.01 1058.29   1
   1   5 -10 1996.19 729.182   2
   5  -6 -10 1326.93 1201.02   3
  -6   1 -10 179.565 1109.10   2
  -5  -1 -10 1471.96 882.155   4
  -5  -1 -10 427.817 791.992   3
   6  -5 -10 1635.90 1134.03   1
  -1   6 -10 2776.79 1606.58   1
   6  -5 -10 768.388 953.651   2
  -5  -1 -10-881.799 1398.55   1
  -6   1 -10 1494.58 1512.49   1
  -1   6 -10 1473.55 723.869   2
   6  -5 -10 1629.62 1346.67   3
  -6   1 -10 1957.85 853.597   3
   5  -6  -7 34956.3 1904.63   1
  -5  -1  -7 33472.8 1599.37   4
   5  -6  -7 35640.8 2061.90   3
   1   5  -7 34713.6 1314.70   2
   6  -5  -7 35213.4 1958.60   1
  -5  -1  -7 36856.6 2329.68   2
  -1   6  -7 32540.5 1269.42   4
   1   5  -7 38345.6 2502.47   1
  -6   1  -7 34837.1 1659.54   4
  -1   6  -7 41059.0 2731.34   1
  -1   6  -7 34425.8 1479.23   2
  -6   1  -7 38875.7 2313.18   2
  -5  -1  -7 36203.1 1521.07   3
  -6   1  -7 32669.1 1391.40   3
  -5  -1  -4 989.169 555.268   4
  -6   1  -4 1106.88 344.485   3
  -1   6  -4 1249.00 483.158   4
  -1   6  -4 1125.99 381.563   2
  -5  -1  -4 970.499 377.363   3
   5  -6  -4 650.116 321.778   4
  -1   6  -4 156.673 865.193   1
   1   5  -4 1268.57 905.573   1
   1   5  -4 600.506 465.920   3
   6  -5  -4 1632.66 585.025   1
  -1   6  -4 1053.10 425.560   3
   6  -5  -4 1072.51 264.161   4
   5  -6  -4 950.346 609.583   3
   6  -5  -4 803.398 315.391   2
  -5  -1  -4 719.953 776.903   2
   5  -6  -4 462.776 438.088   1
   1   5  -4 1465.30 321.789   2
  -6   1  -4 923.123 557.618   4
  -6   1  -4 1683.68 845.184   2
   6  -5  -1 151855. 1645.72   1
   6  -5  -1 148436. 2392.58   3
   5  -6  -1 157980. 2399.07   3
  -1   6  -1 149622. 2308.58   4
  -6   1  -1 145239. 2435.72   4
  -5  -1  -1 151105. 2359.61   4
  -1   6  -1 153414. 2027.12   3
  -5  -1  -1 150933. 1794.68   1
  -6   1  -1 148478. 2694.10   2
  -1   6  -1 152725. 1813.54   2
  -5  -1  -1 150033. 2708.43   2
   5  -6  -1 154301. 2028.92   2
  -1   6  -1 151571. 2500.80   1
   6  -5  -1 152594. 2012.41   2
   1   5  -1 155116. 2046.96   3
   1   5  -1 150447. 2316.19   1
   6  -5  -1 157708. 2326.53   4
  -6   1  -1 155237. 1925.84   1
  -5  -1  -1 152610. 1524.13   3
   5  -6  -1 154843. 1377.88   1
   5  -6  -1 150151. 2298.73   4
   6  -5   2 2261.10 674.470   2
   6  -5   2 2050.11 219.598   3
  -1   6   2 2044.47 499.486   3
  -6   1   2 1681.17 372.881   4
   5  -6   2 1651.07 499.884   2
   5  -6   2 1816.58 282.964   3
  -5  -1   2 586.440 536.324   1
   5  -6   2 1361.56 586.150   4
  -6   1   2 1764.52 568.937   1
   6  -5   2 2176.33 589.636   4
  -6   1   2 1866.61 217.477   2
   1   5   2 1859.69 476.150   3
   6  -5   5 20449.3 1246.38   4
   5  -6   5 24961.0 1618.94   2
   6  -5   5 21467.2 1623.22   2
  -5  -1   5 17603.4 564.609   4
   5  -6   5 21662.0 1262.73   4
  -5  -1   5 16455.2 560.647   4
  -6   1   5 20926.0 1694.32   1
   5  -6   8 3218.83 783.865   4
   6  -5   8 2671.58 759.668   4
  -6   2 -11 8589.38 2038.78   1
  -4  -2 -11 5772.98 1833.51   1
  -4  -2 -11 9695.77 1644.75   2
   6  -4 -11 8567.76 1653.01   1
  -4  -2 -11 7157.95 1220.13   3
   4  -6 -11 6608.89 1475.52   3
   4  -6 -11 7535.29 1550.79   2
   4  -6 -11 4768.49 1397.62   1
  -6   2 -11 8432.10 1683.50   2
  -6   2 -11 9228.12 1341.97   3
   6  -4 -11 6975.57 1605.23   3
  -2   6 -11 5669.81 1031.51   2
   6  -4 -11 8105.18 1336.29   2
  -2   6 -11 8638.86 2088.35   1
   2   4 -11 5071.54 1768.90   1
  -2   6  -8 2336.40 1491.91   1
  -4  -2  -8 352.162 899.736   2
   4  -6  -8 275.758 840.382   1
   6  -4  -8-181.631 869.752   1
  -6   2  -8 1262.95 735.799   3
  -6   2  -8 159.472 690.852   4
   2   4  -8 644.446 483.208   2
  -2   6  -8-90.9249 581.388   2
  -6   2  -8 1320.02 1058.11   2
   6  -4  -8 952.136 809.704   2
   4  -6  -8 1743.30 966.337   3
  -2   6  -8 1.82622 469.774   4
   4  -6  -8-437.776 830.625   2
  -4  -2  -8 289.145 654.776   3
   2   4  -8-1057.66 1240.18   1
  -4  -2  -8-641.268 585.441   4
  -2   6  -5 33312.4 1313.43   2
  -6   2  -5 30037.4 1045.76   3
  -6   2  -5 30162.7 1398.53   4
   6  -4  -5 32453.6 1588.32   1
  -2   6  -5 32237.2 2085.39   1
   2   4  -5 30349.6 893.185   2
   4  -6  -5 28461.3 828.610   4
   4  -6  -5 29401.7 1437.45   1
   2   4  -5 31928.1 1435.14   3
   2   4  -5 32696.5 1980.58   1
  -2   6  -5 28885.1 1199.93   3
  -4  -2  -5 31113.7 1343.82   4
  -6   2  -5 29562.1 1779.83   2
   4  -6  -5 28338.1 1590.45   3
  -2   6  -5 28220.6 1191.99   4
  -4  -2  -5 27555.8 1759.19   2
  -4  -2  -5 29740.5 1188.32   3
   6  -4  -2 43782.0 999.934   2
  -2   6  -2 42645.9 1324.86   4
  -4  -2  -2 43193.7 1026.01   1
   4  -6  -2 44061.5 810.385   1
   2   4  -2 40880.1 1177.23   3
  -6   2  -2 40154.4 1410.57   4
  -2   6  -2 44188.0 1741.29   1
  -4  -2  -2 39371.5 1563.08   2
   4  -6  -2 41192.0 1136.26   4
   6  -4  -2 43948.0 1100.05   4
   4  -6  -2 44145.0 1484.35   3
   6  -4  -2 42998.4 1107.73   1
   4  -6  -2 41522.6 1113.13   2
  -4  -2  -2 41352.5 871.308   3
   2   4  -2 40546.0 1506.66   1
  -6   2  -2 46366.3 1265.30   1
  -2   6  -2 43856.1 1070.56   2
  -6   2  -2 40545.2 1654.12   2
  -2   6  -2 45783.7 1131.61   3
  -4  -2  -2 41055.5 1295.12   4
   6  -4   1 9743.82 377.532   3
  -6   2   1 8623.09 510.520   2
  -4  -2   1 8593.14 590.992   3
  -6   2   1 8776.89 581.568   1
   4  -6   1 9097.11 758.481   4
   4  -6   1 9641.65 508.268   3
   6  -4   1 9826.21 788.270   2
   2   4   1 9355.71 396.654   1
  -4  -2   1 9274.81 714.455   1
   2   4   1 9541.04 573.648   3
   4  -6   1 7816.58 593.348   2
  -2   6   1 8866.30 670.805   3
   6  -4   1 10155.6 796.930   4
  -6   2   1 9315.77 609.335   4
  -6   2   4 18104.1 1374.54   1
   4  -6   4 17432.2 1063.64   4
   6  -4   4 19341.9 1431.24   2
   4  -6   4 17158.6 1213.92   2
  -4  -2   4 17218.4 691.151   4
  -4  -2   4 19749.7 1520.92   1
   6  -4   4 18980.7 1121.98   4
   6  -4   7 42176.1 1734.47   4
   4  -6   7 46603.7 2307.88   2
   4  -6   7 43233.2 1747.63   4
  -3   6  -9-557.948 645.751   2
   3  -6  -9 581.343 936.651   1
   3   3  -9 1150.54 1080.83   1
  -3  -3  -9 616.326 795.657   3
   3  -6  -9 983.727 990.668   3
   6  -3  -9 541.059 946.450   1
   3  -6  -9 1321.51 960.869   2
   6  -3  -9 400.785 783.963   2
  -3   6  -9-185.290 1401.54   1
  -6   3  -9-403.396 968.400   2
  -3  -3  -9 737.837 678.597   4
  -6   3  -9 17.4894 1364.79   1
  -3  -3  -9 1067.35 1162.80   1
  -3  -3  -9 681.798 1062.40   2
  -6   3  -9 166.905 700.035   3
  -3   6  -9 762.429 583.376   4
  -6   3  -9 379.054 751.260   4
   3   3  -9 800.939 575.713   2
  -3  -3  -6 57828.5 1797.02   4
   3   3  -6 62236.4 2798.18   1
   3  -6  -6 56810.1 1198.02   4
  -3   6  -6 59365.5 1755.40   4
   3  -6  -6 57062.0 2207.75   1
  -3  -3  -6 55531.6 2548.53   2
  -3   6  -6 58847.4 1995.54   2
  -3  -3  -6 58987.7 1869.61   3
   3  -6  -6 59800.8 2277.57   3
   3   3  -6 58588.6 1369.22   2
  -3   6  -6 62596.4 3060.34   1
  -6   3  -6 55805.1 1998.89   4
   6  -3  -6 58571.0 2370.12   1
  -6   3  -6 60685.3 2575.87   2
  -3   6  -6 56317.2 1759.46   3
   3  -6  -6 59443.1 1197.74   4
  -3   6  -3 8953.91 590.199   3
  -6   3  -3 9491.12 1028.67   2
   3  -6  -3 8126.39 619.663   1
  -6   3  -3 8383.97 775.542   4
   3  -6  -3 10537.3 621.734   4
   6  -3  -3 9274.30 443.269   4
   3  -6  -3 9505.88 858.092   3
   6  -3  -3 8582.77 430.729   2
  -3  -3  -3 10031.5 607.676   3
   3   3  -3 8468.65 931.054   1
  -3   6  -3 8250.18 711.498   4
   3   3  -3 9409.55 751.294   3
  -6   3  -3 7367.92 284.319   3
  -3  -3  -3 7877.87 672.008   4
  -3   6  -3 9397.53 702.397   2
   6  -3  -3 8734.09 753.547   1
  -6   3   0 554861. 4032.28   2
  -6   3   0 545320. 3268.57   1
  -3   6   0 560914. 4270.80   4
  -3   6   0 553609. 3710.82   3
   6  -3   0 536257. 4224.56   2
   3   3   0 541756. 3200.95   1
  -3   6   0 540082. 3495.30   2
   6  -3   0 541048. 4276.46   4
   6  -3   0 547659. 3302.18   1
   3  -6   0 573990. 3652.21   2
  -3  -3   0 556398. 3378.59   3
   3   3   0 557248. 3360.14   3
  -3  -3   0 551680. 3442.36   1
   3  -6   0 538864. 3506.44   3
  -6   3   0 551991. 4285.93   4
   3  -6   0 534282. 4225.20   4
   3  -6   3 8921.97 619.947   3
   6  -3   3 8570.38 787.454   4
   6  -3   3 10988.4 1098.49   2
  -6   3   3 9607.02 883.576   1
  -3  -3   3 8627.24 1050.96   1
   3   3   3 9292.41 695.236   3
   3  -6   3 9864.86 808.175   4
   3  -6   3 10944.1 838.805   2
  -6   3   3 10279.8 506.172   4
   6  -3   6 52631.4 1837.72   4
  -3  -3   6 51841.3 1203.95   4
   3  -6   6 55497.9 1815.51   4
   3  -6   9 380.865 625.792   4
   6  -3   9 20.9904 701.545   4
  -4   6 -10 3993.60 1005.88   2
  -6   4 -10 2975.75 1160.05   2
   6  -2 -10 2420.93 934.539   2
   2  -6 -10 170.331 1083.77   2
   4   2 -10 756.900 601.046   2
   4   2 -10 2880.94 1436.48   1
  -6   4 -10 1619.07 854.347   4
  -4   6 -10 1925.97 658.583   4
  -2  -4 -10 1350.96 1130.12   2
  -4   6 -10 2354.03 1705.13   1
  -2  -4 -10 1766.25 685.203   4
   2  -6 -10 1871.90 1090.36   1
   2  -6 -10 1919.17 1053.23   3
  -6   4 -10 1389.72 887.785   3
  -6   4 -10 796.251 1504.51   1
   6  -2 -10 3096.60 1280.78   1
  -2  -4 -10 1533.10 911.343   3
  -2  -4 -10 1491.22 1335.53   1
  -6   4  -7 42767.6 1414.50   3
   6  -2  -7 42919.0 2269.32   1
   4   2  -7 45140.6 2508.78   1
  -2  -4  -7 42186.6 1576.61   4
   4   2  -7 41710.1 1285.88   2
  -6   4  -7 44866.9 1864.45   4
  -4   6  -7 44297.0 1618.16   3
   2  -6  -7 46068.2 2210.50   1
  -2  -4  -7 42841.0 1819.30   3
  -2  -4  -7 41664.1 2305.74   2
  -4   6  -7 46292.8 2891.44   1
  -4   6  -7 41835.4 1895.36   2
  -4   6  -7 41724.1 1621.36   4
  -6   4  -7 41403.9 2216.21   2
  -2  -4  -7 45648.4 2527.40   1
   2  -6  -7 40351.9 1170.49   4
   2  -6  -7 41514.3 2025.96   3
   6  -2  -7 43106.6 1669.40   2
   6  -2  -4 15821.3 1146.70   1
   2  -6  -4 16731.1 1002.10   1
  -4   6  -4 15626.8 765.313   3
   4   2  -4 14762.9 1259.16   1
  -6   4  -4 15685.6 578.962   3
   4   2  -4 16394.9 1019.24   3
  -6   4  -4 14976.3 1010.96   4
  -4   6  -4 16774.1 1022.54   2
  -6   4  -4 17368.0 1247.35   2
  -2  -4  -4 14800.7 860.267   4
   2  -6  -4 15706.2 1104.31   3
  -2  -4  -4 16799.5 935.875   3
   6  -2  -4 16754.5 555.289   2
  -4   6  -4 15176.3 965.360   4
  -6   4  -1 6590.23 664.532   4
  -6   4  -1 8680.63 561.061   1
   2  -6  -1 7758.51 620.119   3
  -2  -4  -1 8520.45 515.992   3
   6  -2  -1 8273.94 561.166   4
  -6   4  -1 6698.09 692.387   2
   4   2  -1 8552.51 628.214   1
   2  -6  -1 7879.68 548.656   2
   2  -6  -1 9031.70 642.537   4
   6  -2  -1 8743.36 561.540   1
   6  -2  -1 9098.92 580.025   2
  -4   6  -1 8695.82 582.182   2
  -4   6  -1 9105.37 508.333   3
   4   2  -1 8088.89 574.165   3
  -4   6  -1 8471.31 718.670   4
  -2  -4  -1 8533.97 384.893   1
  -6   4   2 43469.8 1103.95   4
  -6   4   2 46016.1 1304.26   1
   2  -6   2 43612.7 1180.42   2
   6  -2   2 41192.0 1415.27   4
  -6   4   2 44839.6 966.149   2
  -4   6   2 43161.5 1131.58   4
  -2  -4   2 45564.1 733.044   2
  -4   6   2 41801.3 947.839   1
  -2  -4   2 42035.0 1639.87   1
   2  -6   2 41339.0 1340.05   4
   2  -6   2 41514.2 1080.73   3
   6  -2   2 45462.2 1750.46   2
  -4   6   2 43434.8 1512.99   3
  -2  -4   2 41498.7 1234.55   3
   4   2   2 45039.5 996.515   3
  -6   4   5 33973.8 1871.34   1
   6  -2   5 34659.1 1934.45   2
  -2  -4   5 35237.6 1169.22   2
   2  -6   5 34230.8 1402.10   4
   6  -2   5 32415.9 1426.03   4
   2  -6   5 33615.5 1549.80   2
  -2  -4   5 35198.7 1119.32   4
   6  -2   8 58.0258 619.138   4
  -2  -4   8 467.863 274.077   4
   2  -6   8 402.439 635.524   4
   1  -6 -11 3850.86 1416.49   2
   1  -6 -11 4535.59 1353.75   1
  -5   6 -11 5184.14 1965.80   1
  -6   5 -11 2656.88 1103.02   2
  -1  -5 -11 4904.36 1508.80   2
   1  -6 -11 3934.23 1208.35   3
   5   1 -11 3778.76 1548.17   1
   6  -1 -11 5188.82 1480.54   1
  -5   6 -11 5059.53 1193.81   2
  -6   5 -11 3093.34 1079.03   3
  -6   5 -11 3457.22 2044.07   1
  -1  -5 -11 4357.30 1098.83   3
  -1  -5 -11 5552.44 1475.05   1
  -6   5  -8 554.922 824.822   2
  -1  -5  -8 1956.47 615.268   4
  -6   5  -8 2373.43 753.393   4
   1  -6  -8 2564.02 990.607   1
  -1  -5  -8 2910.50 1043.66   1
  -1  -5  -8 1191.91 884.828   2
  -6   5  -8 1897.78 562.684   3
  -6   5  -8 1639.04 1228.82   1
  -5   6  -8 2445.93 846.214   2
   6  -1  -8 2776.57 1094.06   1
   5   1  -8 1341.68 506.307   2
   1  -6  -8 2046.15 503.318   4
   5   1  -8 1307.35 1103.03   1
  -5   6  -8 2843.77 709.844   4
  -1  -5  -8 2882.85 857.364   3
   1  -6  -8 2183.45 823.893   3
   1  -6  -8 3566.16 1103.09   2
   6  -1  -8 1462.56 599.546   2
  -5   6  -8 2985.31 1537.91   1
   1  -6  -5 17634.1 1233.22   1
  -6   5  -5 16959.2 736.720   3
   5   1  -5 11783.5 500.281   2
   5   1  -5 17716.1 1407.02   1
   6  -1  -5 13967.7 725.622   2
  -1  -5  -5 16829.6 1091.17   3
  -5   6  -5 18522.6 1255.98   2
  -1  -5  -5 15890.4 882.874   4
   6  -1  -5 16454.3 1295.49   1
   6  -1  -5 16203.8 547.819   2
  -6   5  -5 17397.6 1316.39   2
   1  -6  -5 14689.3 1099.44   3
  -5   6  -5 14792.9 1010.28   4
  -6   5  -5 17906.2 1169.89   4
  -5   6  -5 16238.6 801.410   3
  -6   5  -2 2752.34 247.845   3
  -6   5  -2 873.895 488.512   2
  -5   6  -2 2742.35 312.233   3
   5   1  -2 2403.25 465.173   3
  -5   6  -2 2390.35 538.024   2
   5   1  -2 2797.85 540.745   1
  -1  -5  -2 2146.71 230.753   1
  -5   6  -2 2612.93 570.881   4
  -6   5  -2 2701.39 621.652   4
   6  -1  -2 2552.19 316.962   2
   1  -6  -2 3273.17 520.914   3
  -1  -5  -2 3190.65 472.089   3
   6  -1  -2 2331.95 517.730   1
   1  -6   1 154465. 2562.95   1
   5   1   1 156253. 2761.58   2
   5   1   1 161719. 1898.24   1
  -1  -5   1 159363. 2065.59   3
  -6   5   1 152226. 2282.42   4
  -5   6   1 152922. 2289.64   4
  -5   6   1 156823. 1992.53   2
   6  -1   1 158330. 2821.10   2
  -5   6   1 151806. 2478.58   3
   5   1   1 158875. 1563.97   3
   6  -1   1 155958. 1262.45   3
  -6   5   1 160627. 1746.65   1
   1  -6   1 161028. 2035.40   3
   1  -6   1 159031. 1881.52   2
  -1  -5   1 160761. 1659.13   2
  -5   6   1 160354. 1414.17   1
  -6   5   1 155346. 1911.08   2
   6  -1   1 173212. 2553.12   4
   1  -6   1 160867. 2380.69   4
   6  -1   1 156369. 2009.67   1
  -1  -5   1 157941. 2572.73   1
  -6   5   4 1996.19 726.981   1
  -1  -5   4 1629.99 466.688   2
   6  -1   4 1890.41 775.056   2
  -5   6   4 1160.29 656.401   1
   6  -1   4 2261.36 577.674   4
  -1  -5   4 1181.97 460.979   4
   1  -6   4 1356.65 480.538   2
  -1  -5   4 1771.05 915.414   1
   1  -6   4 1566.16 501.924   4
   5   1   4 1543.68 526.010   4
   6  -1   7 34934.0 1587.55   4
  -1  -5   7 36714.4 1279.17   4
   1  -6   7 35943.8 1448.80   4
   0  -6  -9 58.7920 488.196   4
  -6   6  -9 354.221 1368.96   1
   6   0  -9-116.484 525.759   2
  -6   6  -9 1111.46 879.814   2
   0  -6  -9 316.794 709.974   3
   0  -6  -9-720.551 854.719   1
  -6   6  -9 857.423 705.162   4
   0  -6  -9-935.584 901.569   2
   6   0  -9-75.4495 1102.60   1
   0  -6  -6 55298.9 2001.30   3
   6   0  -6 50231.1 2358.45   1
  -6   6  -6 54348.5 1986.42   4
  -6   6  -6 54816.0 2224.39   2
   0  -6  -6 54225.1 2258.12   1
  -6   6  -6 57619.6 1490.17   3
   0  -6  -6 54555.2 1547.02   4
  -6   6  -3 834.808 533.523   2
   0  -6  -3 414.710 478.529   3
  -6   6  -3 24.8445 233.937   3
  -6   6  -3 427.207 558.302   4
   6   0  -3-64.4174 534.342   1
   6   0   0 22105.1 811.100   1
   0  -6   0 24092.2 885.205   3
   6   0   0 21964.2 769.076   3
  -6   6   0 22248.6 706.067   1
  -6   6   0 21899.8 1062.50   4
  -6   6   0 22441.6 875.497   2
   0  -6   0 22885.9 818.123   2
   6   0   0 22131.0 1079.06   2
  -6   6   0 20244.1 884.827   3
   0  -6   0 18943.6 813.254   1
   6   0   0 22971.4 1021.26   4
   0  -6   3 877.328 474.064   4
   6   0   3-630.497 698.982   2
   0  -6   3-64.6162 723.074   1
   0  -6   3 278.454 413.903   3
  -6   6   3 163.843 324.375   4
  -6   6   3-30.7618 461.860   1
   6   0   3-293.044 490.460   4
   6   0   3 28.2033 317.744   3
   0  -6   3-24.1942 348.193   2
   6   0   6 59718.0 1984.03   4
   0  -6   6 60536.4 1953.03   2
   0  -6   6 56352.9 1715.30   4
   0  -6   9-10.3372 463.363   4
  -7   0 -10 45199.5 2971.36   2
   0   7 -10 50375.6 3631.53   1
   0   7 -10 40502.3 1654.76   2
   7  -7 -10 47984.5 2718.97   1
  -7   0 -10 46778.1 3388.82   1
  -7   0 -10 48794.2 2079.65   3
  -7   0 -10 54328.3 2539.34   4
   7  -7 -10 45610.6 2572.47   2
   7  -7 -10 49657.4 2998.78   3
  -7   0  -7-217.176 920.371   2
   7  -7  -7 347.785 736.936   1
   0   7  -7 580.094 1023.38   1
  -7   0  -7 54.1872 481.599   3
   0   7  -7 478.103 441.070   2
  -7   0  -7-669.427 681.006   4
   7  -7  -7 430.788 863.358   3
   7  -7  -7-171.454 451.275   2
  -7   0  -4 16305.8 622.011   3
   0   7  -4 14934.2 962.388   3
  -7   0  -4 14936.4 954.268   1
   7  -7  -4 16155.0 792.541   4
   7  -7  -4 12903.4 1169.43   3
   0   7  -4 14901.0 682.489   2
   0   7  -4 14465.8 1426.20   1
   7  -7  -4 15396.2 920.976   1
  -7   0  -4 13831.2 1330.30   2
  -7   0  -4 14494.1 1039.31   4
   7  -7  -4 14491.7 787.861   2
  -7   0  -1 409.974 512.159   4
  -7   0  -1 108.775 317.436   1
   0   7  -1-14.2808 480.811   1
   0   7  -1 230.853 350.141   3
   7  -7  -1-273.857 491.653   3
  -7   0  -1-41.2601 264.471   3
   7  -7  -1-0.84964 374.437   2
   7  -7  -1 154.238 254.259   1
   7  -7  -1 132.044 497.555   4
  -7   0  -1 242.210 605.138   2
  -7   0   2 91807.0 1243.99   2
   7  -7   2 92727.4 2359.94   2
  -7   0   2 86840.1 1748.88   4
  -7   0   2 93409.5 2270.92   1
   7  -7   2 88936.9 2392.44   4
   0   7   2 93120.0 2048.99   3
   7  -7   2 97301.2 1280.79   3
   7  -7   5 26.1504 770.560   2
  -7   0   5-92.4304 230.782   4
   7  -7   5-142.737 605.229   4
   7  -7   8 66625.7 2447.21   4
  -7   1 -11 10210.4 1747.17   2
   6  -7 -11 13980.8 1716.10   1
  -7   1 -11 13552.7 2286.50   1
  -7   1 -11 9579.41 1211.11   3
  -1   7 -11 11241.1 2188.14   1
   6  -7 -11 16144.2 1975.42   3
  -6  -1 -11 11724.3 1947.62   2
   7  -6 -11 13911.1 1778.63   1
   7  -6 -11 10388.0 1813.82   3
   1   6 -11 9839.46 1939.99   1
  -6  -1 -11 11356.5 1304.69   3
   7  -6 -11 10932.1 1664.65   2
  -6  -1 -11 9742.89 2103.82   1
   6  -7 -11 8392.65 1653.95   2
   1   6  -8 6146.10 715.451   2
  -6  -1  -8 6725.04 847.646   3
  -6  -1  -8 4865.28 1318.02   2
  -7   1  -8 5811.19 799.949   3
   6  -7  -8 6813.19 1061.02   1
   6  -7  -8 6941.38 1227.46   3
  -1   7  -8 6544.57 833.153   2
  -7   1  -8 7036.81 1030.03   4
  -7   1  -8 4936.94 1181.81   2
  -6  -1  -8 5531.22 912.615   4
   7  -6  -8 7166.40 1184.06   1
  -1   7  -8 5337.30 1525.30   1
   1   6  -8 7436.41 1577.47   1
  -1   7  -5 12859.1 759.008   2
   1   6  -5 12437.4 624.415   2
  -6  -1  -5 14072.0 1459.02   2
  -7   1  -5 12838.6 1049.30   4
  -1   7  -5 13231.6 1543.70   1
   7  -6  -5 10116.7 453.238   4
  -6  -1  -5 13151.6 745.134   3
  -1   7  -5 12824.7 875.927   4
  -7   1  -5 11342.2 1287.19   2
  -7   1  -5 13309.0 683.189   3
   7  -6  -5 12576.6 1046.28   1
   6  -7  -5 13957.1 1017.78   1
   1   6  -5 11129.7 982.576   3
  -6  -1  -5 11620.1 985.594   4
   6  -7  -5 9710.48 1118.39   3
  -1   7  -5 11229.1 867.161   3
   6  -7  -5 11499.2 601.091   4
   1   6  -5 12377.8 1447.58   1
   7  -6  -5 12728.6 755.727   2
   1   6  -2 8574.52 466.293   2
  -6  -1  -2 8839.63 794.781   4
   7  -6  -2 7473.00 639.451   4
  -1   7  -2 8025.99 624.574   3
  -1   7  -2 7192.36 1005.67   1
  -7   1  -2 8098.37 1002.99   2
   1   6  -2 6864.76 863.828   1
  -7   1  -2 8431.48 806.815   4
   7  -6  -2 7481.87 585.908   2
   6  -7  -2 6937.88 421.772   1
  -1   7  -2 8536.53 518.570   2
   7  -6  -2 6694.90 816.525   3
  -7   1  -2 7445.32 299.205   3
  -7   1  -2 7021.38 598.795   1
  -1   7  -2 7033.57 696.681   4
   1   6  -2 7721.95 629.188   3
   7  -6  -2 8061.68 536.407   1
   6  -7  -2 8666.12 844.405   3
  -6  -1  -2 7687.57 955.285   2
   6  -7  -2 7935.12 671.553   4
  -6  -1  -2 8363.70 416.313   3
  -6  -1  -2 8508.87 591.056   1
   6  -7  -2 6953.40 571.251   2
   6  -7   1 8549.32 829.966   4
   1   6   1 7793.86 641.213   3
   7  -6   1 6302.38 734.035   2
   1   6   1 7623.43 354.115   1
  -1   7   1 7076.06 669.684   3
  -6  -1   1 7197.17 672.210   1
   7  -6   1 7712.36 823.814   4
   7  -6   1 7636.74 446.461   3
  -7   1   1 6704.62 614.538   1
   6  -7   1 6772.19 460.129   3
   6  -7   1 7270.73 691.750   2
  -7   1   1 6935.55 627.747   4
  -6  -1   1 7852.32 614.527   2
  -6  -1   1 5811.23 596.652   4
  -7   1   1 6678.44 562.983   2
   7  -6   4 27206.0 1449.12   4
  -7   1   4 26342.8 812.101   4
   6  -7   4 24860.5 1376.33   4
  -7   1   4 27192.6 1682.64   1
   7  -6   4 27250.2 1672.41   2
   6  -7   4 28976.9 1650.40   2
   1   6   4 27748.2 1442.32   3
  -1   7   4 26173.2 1464.61   3
  -6  -1   4 28785.0 885.469   4
  -6  -1   4 25861.6 1724.54   1
   7  -6   7 11885.6 1156.29   4
   6  -7   7 13271.8 1215.08   4
  -5  -2  -9 5331.25 842.136   3
  -7   2  -9 7062.44 1469.78   2
  -7   2  -9 7189.72 946.695   3
   5  -7  -9 5402.23 1148.30   1
   7  -5  -9 5678.33 1061.15   2
   5  -7  -9 6784.32 1336.22   3
   2   5  -9 6656.00 1571.93   1
   5  -7  -9 4775.66 1089.53   2
  -5  -2  -9 6554.37 1460.85   2
  -5  -2  -9 6064.72 1010.57   4
  -2   7  -9 7023.60 1831.07   1
   2   5  -9 6164.80 733.264   2
  -7   2  -9 7615.78 1106.48   4
  -5  -2  -9 6870.17 1635.12   1
   7  -5  -9 6233.64 1231.91   1
  -2   7  -9 6877.56 918.296   2
  -5  -2  -6 21198.4 1269.44   4
  -7   2  -6 25600.6 1896.13   2
   5  -7  -6 22173.1 1375.89   1
   2   5  -6 21843.5 829.509   2
  -7   2  -6 21379.3 1336.76   4
   2   5  -6 23178.2 1923.83   1
   7  -5  -6 22132.7 1527.02   1
  -5  -2  -6 24145.2 1844.41   2
   5  -7  -6 24052.3 1617.86   3
  -2   7  -6 21953.8 1198.56   3
   5  -7  -6 19166.7 683.242   4
  -5  -2  -6 23082.0 1151.80   3
  -2   7  -6 22700.0 1169.41   4
  -2   7  -6 22977.3 1991.02   1
  -7   2  -6 21391.4 972.027   3
   7  -5  -6 21139.1 937.537   2
  -2   7  -6 21846.3 1139.26   2
  -7   2  -3 100152. 2415.93   4
   5  -7  -3 104368. 1679.00   1
   2   5  -3 104658. 2125.78   3
  -7   2  -3 103579. 2875.13   2
  -5  -2  -3 100614. 2237.88   4
   5  -7  -3 98106.7 2444.26   3
   5  -7  -3 103623. 1853.10   4
  -5  -2  -3 99050.1 2840.70   2
  -2   7  -3 107253. 3069.49   1
   2   5  -3 105352. 2789.96   1
   7  -5  -3 108673. 1726.88   4
   7  -5  -3 102610. 1633.88   2
  -5  -2  -3 103900. 1890.32   1
  -5  -2  -3 100167. 1518.30   3
   7  -5  -3 105885. 2039.73   1
  -2   7  -3 101008. 1792.02   2
  -2   7  -3 102431. 2161.54   4
   5  -7  -3 104433. 1965.70   2
   2   5  -3 102516. 1172.24   2
  -2   7  -3 102131. 1925.73   3
  -5  -2   0 179589. 2107.18   3
   5  -7   0 178217. 2769.66   4
  -2   7   0 176254. 2242.27   2
   5  -7   0 159646. 2252.89   2
   2   5   0 176943. 2220.56   3
   7  -5   0 179061. 2057.52   1
   7  -5   0 181382. 2686.48   2
   5  -7   0 167523. 2183.22   3
  -2   7   0 182962. 2413.11   3
  -7   2   0 168843. 2567.06   2
  -5  -2   0 171843. 2165.19   1
   2   5   0 173907. 1964.94   1
  -7   2   0 170480. 2637.56   4
  -7   2   0 177328. 2122.12   1
   7  -5   0 176226. 2767.07   4
  -5  -2   0 171622. 2600.77   2
  -2   7   0 174522. 2097.58   1
   7  -5   0 174113. 2279.28   3
  -2   7   3 138069. 2865.14   3
   5  -7   3 140874. 2931.26   4
   7  -5   3 140637. 3294.92   2
   7  -5   3 141680. 2938.18   4
  -5  -2   3 137865. 3245.85   1
   5  -7   3 131384. 1863.20   3
   2   5   3 135762. 2480.50   3
  -7   2   3 141070. 2978.30   1
   5  -7   3 143227. 2910.34   2
  -7   2   3 134613. 1865.87   4
   5  -7   6 13413.9 1108.99   4
   7  -5   6 13091.4 1125.56   4
   5  -7   6 13853.4 1374.30   2
  -5  -2   6 10635.1 511.979   4
   5  -7   9 30324.3 1620.24   4
   4  -7 -10 4623.49 1349.37   2
  -7   3 -10 4268.33 1609.79   1
  -7   3 -10 6117.94 1355.94   2
   3   4 -10 4057.33 669.027   2
  -4  -3 -10 8367.99 1635.26   2
  -7   3 -10 5843.18 1074.41   4
   4  -7 -10 7970.26 1423.74   1
  -4  -3 -10 6116.06 1682.61   1
   7  -4 -10 6057.71 1387.48   1
   7  -4 -10 4451.38 1100.62   2
  -7   3 -10 5045.04 994.286   3
  -4  -3 -10 6933.05 1085.09   3
  -3   7 -10 9623.26 2161.76   1
   3   4 -10 7556.81 1709.49   1
  -4  -3 -10 5368.21 1022.78   4
  -3   7 -10 4394.04 919.056   2
   4  -7 -10 7418.55 1416.57   3
   7  -4  -7-53.4829 573.150   2
  -3   7  -7 1647.68 663.774   2
  -3   7  -7 602.488 1122.90   1
   3   4  -7 874.699 1100.78   1
  -4  -3  -7 1075.50 860.296   2
  -7   3  -7 1529.47 743.597   4
  -4  -3  -7 1907.16 626.046   3
   4  -7  -7 808.603 284.359   4
   7  -4  -7 1160.90 889.398   1
   4  -7  -7 1452.29 725.279   1
  -7   3  -7 749.040 563.682   3
   3   4  -7 1435.29 396.978   2
   7  -4  -7 590.000 384.540   2
  -3   7  -7 1080.40 496.732   4
   4  -7  -7 608.480 250.762   4
   4  -7  -7 1473.29 806.330   3
  -4  -3  -7 1052.08 617.255   4
  -7   3  -7 903.794 900.253   2
   3   4  -4 33572.3 1857.21   1
   3   4  -4 30829.2 577.151   2
   4  -7  -4 35085.2 1584.23   3
  -3   7  -4 34676.7 1270.75   2
   4  -7  -4 36519.9 1272.47   1
  -4  -3  -4 36427.8 1159.91   3
  -3   7  -4 34213.3 1205.57   3
   3   4  -4 36859.7 1424.41   3
   4  -7  -4 37487.6 1107.89   4
   7  -4  -4 36142.0 945.464   2
  -3   7  -4 34612.4 1353.15   4
  -4  -3  -4 37307.9 1373.17   4
  -7   3  -4 31010.1 761.476   3
  -3   7  -4 34674.4 2071.82   1
  -7   3  -4 35947.1 1841.29   2
   7  -4  -4 39008.0 1583.61   1
  -4  -3  -4 37553.7 1846.01   2
   7  -4  -4 32330.7 723.646   4
  -7   3  -4 34191.7 1463.72   4
  -7   3  -1 94492.7 2146.26   4
   4  -7  -1 93125.5 1657.82   2
  -4  -3  -1 92917.4 1414.22   3
   7  -4  -1 93095.3 1710.61   2
   3   4  -1 93677.4 1657.81   3
   4  -7  -1 89597.7 1868.17   4
  -7   3  -1 94876.8 1613.03   1
  -4  -3  -1 91373.7 1350.22   1
  -7   3  -1 91021.3 2140.72   2
   3   4  -1 92996.6 1823.99   1
   7  -4  -1 89779.4 1489.22   1
  -3   7  -1 89660.4 1950.42   4
   7  -4  -1 95618.9 1882.59   4
   4  -7  -1 88412.0 1799.99   3
  -3   7  -1 88193.5 1557.13   2
  -3   7  -1 92140.0 1603.14   3
  -4  -3   2 17486.3 1115.45   1
   7  -4   2 19137.0 1251.36   2
  -4  -3   2 14974.0 367.995   2
   4  -7   2 18257.6 1032.29   4
   4  -7   2 18362.3 954.771   2
  -7   3   2 17593.3 795.310   4
  -4  -3   2 17337.9 924.591   3
  -3   7   2 18861.3 1066.18   3
  -7   3   2 19075.7 972.259   1
   7  -4   2 14967.3 1003.90   4
  -7   3   2 17924.8 593.200   2
   4  -7   2 16939.2 694.557   3
   3   4   2 18740.8 815.010   3
   4  -7   5 7441.72 968.789   2
   7  -4   5 7321.53 1177.07   2
  -7   3   5 7798.69 1142.77   1
   7  -4   5 7482.87 840.166   4
  -4  -3   5 7723.03 556.851   4
   4  -7   5 7633.05 841.866   4
   7  -4   8 7418.88 958.978   4
   4  -7   8 7725.71 991.652   4
  -3  -4 -11 3256.41 1097.38   3
   3  -7 -11 3156.01 1451.10   2
  -4   7 -11 4408.84 1746.28   1
  -7   4 -11 1761.57 1688.27   1
   3  -7 -11 1428.60 1128.87   1
  -4   7 -11 3112.22 992.197   2
   7  -3 -11 3888.05 1468.23   1
  -7   4 -11 2726.35 1235.88   2
  -3  -4 -11 5361.82 1623.04   1
   4   3 -11 6865.18 1812.57   1
  -7   4 -11 2938.59 1063.94   3
   3  -7 -11 3360.83 1243.83   3
  -3  -4 -11 5369.28 1547.64   2
   4   3  -8 6857.85 610.733   2
   3  -7  -8 6923.60 1128.12   3
  -3  -4  -8 6114.00 1346.05   1
   4   3  -8 7282.71 1424.17   1
  -3  -4  -8 7715.53 990.539   3
  -4   7  -8 6462.60 852.424   4
   7  -3  -8 7592.81 679.722   2
  -4   7  -8 7766.16 1683.66   1
  -7   4  -8 7367.49 756.901   3
   3  -7  -8 6630.76 1180.76   2
   3  -7  -8 4631.94 421.100   4
  -3  -4  -8 7334.89 938.643   4
  -7   4  -8 6249.12 989.782   4
  -4   7  -8 6769.13 948.934   2
   3  -7  -8 9121.29 1247.25   1
   7  -3  -8 7486.66 973.355   2
  -3  -4  -8 7912.05 1408.59   2
   7  -3  -8 8607.14 1295.57   1
  -7   4  -8 7745.10 1305.00   2
   3  -7  -8 5696.00 496.980   4
  -3  -4  -5 7792.90 724.982   4
  -4   7  -5 6572.28 639.089   3
  -3  -4  -5 7407.41 1029.18   2
  -7   4  -5 6718.71 834.993   4
  -4   7  -5 7729.73 1281.71   1
  -4   7  -5 6995.88 754.572   4
   3  -7  -5 6694.23 806.239   1
   3  -7  -5 7156.81 563.680   4
  -7   4  -5 7158.48 1040.46   2
  -7   4  -5 6872.10 471.158   3
  -4   7  -5 8572.57 879.470   2
   4   3  -5 6763.58 1051.20   1
   7  -3  -5 7376.00 474.407   2
   7  -3  -5 7262.82 933.076   1
  -3  -4  -5 7395.76 735.115   3
   4   3  -5 5231.29 269.041   2
   3  -7  -5 6759.48 903.656   3
   4   3  -2 19070.0 908.893   3
   7  -3  -2 22566.8 953.076   1
  -4   7  -2 22041.7 933.185   2
   3  -7  -2 22268.3 969.333   4
  -3  -4  -2 23039.7 810.708   3
  -7   4  -2 20720.9 954.520   1
  -7   4  -2 22919.3 1169.09   4
   3  -7  -2 23084.8 1102.82   3
  -7   4  -2 22888.9 1239.96   2
   4   3  -2 21718.2 1139.60   1
  -3  -4  -2 21949.0 687.506   1
   7  -3  -2 23969.7 773.609   2
   7  -3  -2 23486.6 851.570   4
  -4   7  -2 23652.9 820.199   3
  -4   7  -2 23548.1 1112.89   4
  -7   4   1 87410.3 1489.10   2
  -7   4   1 87916.4 1788.44   4
   3  -7   1 93509.6 1548.19   3
   4   3   1 91585.8 1359.70   1
  -7   4   1 90372.2 1547.99   1
  -3  -4   1 91339.7 1941.13   1
  -3  -4   1 86361.3 1630.70   3
  -4   7   1 88397.5 1649.77   2
  -4   7   1 89468.0 1858.29   4
   7  -3   1 89346.2 2218.41   2
  -4   7   1 89352.8 799.830   1
   4   3   1 97475.3 1561.69   3
   3  -7   1 90248.8 1634.10   2
  -4   7   1 91727.1 1923.55   3
   3  -7   1 87615.7 1970.11   4
   7  -3   1 89783.9 2045.05   4
   7  -3   1 90152.4 1671.50   1
   3  -7   4 33604.6 1231.23   3
  -7   4   4 35058.3 1739.54   1
  -3  -4   4 29493.6 1070.44   4
   7  -3   4 34035.4 1487.43   4
  -3  -4   4 26839.0 1823.51   1
   4   3   4 34468.6 1353.09   3
  -7   4   4 29646.0 734.850   4
   3  -7   4 35474.3 1525.04   2
  -3  -4   4 26264.9 771.895   2
   7  -3   4 34870.7 1915.79   2
   3  -7   4 35410.9 1455.50   4
   7  -3   7 519.132 624.133   4
  -3  -4   7 829.206 351.597   4
   3  -7   7 1621.29 889.932   2
   3  -7   7 2044.58 678.412   4
   7  -2  -9 32960.6 1575.04   2
  -7   5  -9 37778.2 2406.55   2
  -2  -5  -9 36390.5 1665.95   4
  -5   7  -9 37187.9 2052.24   2
   2  -7  -9 32947.1 2146.23   1
  -2  -5  -9 35518.6 2459.72   1
  -7   5  -9 37930.5 1929.86   4
  -5   7  -9 33600.2 1601.26   4
   7  -2  -9 35793.9 2382.44   1
   2  -7  -9 28964.4 963.000   4
   5   2  -9 33952.5 2567.42   1
  -2  -5  -9 36463.2 1973.16   3
   5   2  -9 32673.0 1197.30   2
   2  -7  -9 34676.3 2128.76   3
  -5   7  -9 36159.0 3112.25   1
  -2  -5  -9 38272.9 2651.21   2
   2  -7  -9 35576.1 2349.66   2
  -7   5  -9 36335.3 3076.67   1
  -2  -5  -6 14546.6 1039.94   3
   2  -7  -6 12277.2 1146.53   3
   5   2  -6 14256.5 1433.54   1
   7  -2  -6 13057.5 836.769   2
   5   2  -6 10646.0 468.741   2
   7  -2  -6 14340.1 620.810   2
  -2  -5  -6 11695.4 1345.71   2
  -7   5  -6 14800.6 1375.33   2
  -5   7  -6 13922.6 870.397   3
   2  -7  -6 13375.0 1215.42   1
   7  -2  -6 13669.5 1314.43   1
  -5   7  -6 12863.6 1103.26   2
   2  -7  -6 13475.8 742.041   4
  -5   7  -6 13326.2 1037.45   4
  -7   5  -6 14273.0 739.271   3
  -7   5  -6 14174.9 1185.48   4
  -2  -5  -6 12152.0 894.394   4
  -5   7  -3 135750. 1839.09   3
   7  -2  -3 136377. 1485.78   2
   7  -2  -3 131967. 2588.41   1
   2  -7  -3 123514. 1847.87   1
   2  -7  -3 135063. 2640.69   3
  -7   5  -3 129189. 1110.89   3
   5   2  -3 131119. 2490.48   3
  -2  -5  -3 145211. 1855.29   1
  -7   5  -3 131155. 2749.07   4
   5   2  -3 139217. 2943.36   1
  -2  -5  -3 132648. 2210.54   3
  -5   7  -3 131651. 2621.09   4
  -5   7  -3 134221. 2524.36   2
  -7   5  -3 125879. 2868.73   2
  -7   5   0 188803. 2068.47   1
  -7   5   0 186308. 2479.59   2
   7  -2   0 188486. 2696.33   4
  -5   7   0 184314. 2413.72   3
   5   2   0 190149. 2095.20   3
  -2  -5   0 182377. 2292.07   1
   2  -7   0 188854. 2307.01   3
  -7   5   0 188776. 2848.10   4
  -5   7   0 185188. 2306.28   2
  -2  -5   0 189651. 2285.98   3
  -5   7   0 187317. 2799.11   4
   2  -7   0 188230. 2745.58   4
   2  -7   0 195636. 2285.09   2
  -5   7   0 187793. 1844.62   1
   7  -2   0 188832. 2886.46   2
   5   2   0 179743. 2123.64   1
   7  -2   0 187776. 2178.00   1
  -7   5   3 107801. 2382.80   1
   5   2   3 106219. 1812.21   3
  -2  -5   3 109883. 3066.58   1
   2  -7   3 108306. 2336.60   4
  -2  -5   3 104598. 2206.23   3
  -5   7   3 108105. 2046.71   1
   7  -2   3 108616. 3056.42   2
   2  -7   3 103153. 1964.64   3
  -2  -5   3 103185. 2003.09   4
  -2  -5   3 103139. 1455.52   2
   2  -7   3 104655. 2119.50   2
  -7   5   3 105230. 1685.02   4
   7  -2   3 103887. 2389.81   4
  -7   5   6 22964.8 1834.21   1
   7  -2   6 21654.7 1278.70   4
   2  -7   6 20935.9 1219.45   4
  -2  -5   6 21649.3 1003.15   4
   2  -7   6 22647.6 1467.33   2
  -2  -5   9 2772.67 335.778   4
   2  -7   9 5109.52 845.573   4
   1  -7 -10 2369.14 1019.02   1
   7  -1 -10 1174.89 602.282   2
   7  -1 -10 4085.73 1334.23   1
  -7   6 -10 1698.83 797.219   4
  -1  -6 -10 3015.47 1332.67   2
  -6   7 -10 3937.53 1058.79   2
  -7   6 -10 912.723 994.781   2
   1  -7 -10 4055.91 1087.18   3
   1  -7 -10 2548.36 1224.63   2
  -1  -6 -10 2213.80 1150.83   1
  -6   7 -10 1849.91 691.985   4
  -7   6 -10 6335.93 1871.34   1
  -6   7 -10 1056.33 1505.48   1
  -1  -6 -10 2374.20 869.887   3
   6   1 -10 2340.76 1236.48   1
  -6   7  -7 11488.9 838.466   3
  -1  -6  -7 12544.3 919.485   4
  -1  -6  -7 12530.9 1428.78   1
  -1  -6  -7 11793.8 1379.03   2
   1  -7  -7 11953.3 1202.90   3
  -1  -6  -7 11785.8 1077.18   3
   1  -7  -7 12007.0 1277.13   1
  -7   6  -7 13032.5 814.820   3
  -6   7  -7 12741.1 1240.37   2
   1  -7  -7 11404.5 803.376   4
   6   1  -7 10201.0 566.491   2
  -7   6  -7 12488.0 1368.23   2
  -7   6  -7 11965.0 1137.14   4
   7  -1  -7 13791.8 1453.87   1
  -6   7  -7 12856.9 1117.98   4
   6   1  -7 11958.6 1506.26   1
   7  -1  -7 12805.0 588.950   2
   7  -1  -7 10890.3 740.539   2
   1  -7  -4 24855.0 1297.30   3
  -7   6  -4 23805.8 1333.43   4
  -1  -6  -4 25090.5 1190.79   3
  -6   7  -4 23604.8 1307.69   2
  -7   6  -4 25496.7 735.912   3
   1  -7  -4 23557.8 1127.65   1
   7  -1  -4 25772.9 1424.39   1
  -6   7  -4 25326.2 865.929   3
  -7   6  -4 23565.2 1407.24   2
  -6   7  -4 24572.1 1308.75   4
   7  -1  -4 19754.7 490.167   2
   6   1  -4 24152.7 1490.50   1
  -6   7  -1 5986.40 740.566   4
  -7   6  -1 5715.67 479.888   3
   1  -7  -1 5993.14 576.346   3
  -6   7  -1 5647.58 468.358   3
   7  -1  -1 5147.85 525.630   1
   6   1  -1 5992.98 570.158   3
   6   1  -1 5189.30 557.088   1
  -7   6  -1 6401.68 667.035   2
  -1  -6  -1 5239.18 532.733   3
  -6   7  -1 7406.77 615.383   2
  -7   6  -1 6369.06 530.648   1
  -1  -6  -1 6144.72 379.378   1
   7  -1  -1 6364.96 618.692   2
  -7   6  -1 5527.41 736.485   4
   7  -1  -1 5411.76 583.272   4
   7  -1   2 10492.9 851.726   4
  -1  -6   2 10640.0 523.086   2
   6   1   2 9265.90 665.815   1
  -6   7   2 9674.91 647.259   2
  -7   6   2 9812.69 661.917   1
   7  -1   2 10264.1 1041.01   2
  -1  -6   2 9367.26 707.609   3
   1  -7   2 10637.3 801.620   4
   7  -1   2 9496.33 353.608   3
  -6   7   2 10119.3 715.671   4
  -6   7   2 10855.5 601.031   1
   1  -7   2 9902.13 683.517   3
   6   1   2 10326.3 858.140   4
  -7   6   2 10139.5 605.900   2
  -7   6   2 9877.00 708.747   4
  -1  -6   2 9100.51 723.069   4
  -1  -6   2 9644.64 1014.40   1
   1  -7   2 9188.69 572.048   2
   6   1   2 10662.4 517.044   3
   7  -1   5 16866.1 1128.94   4
  -1  -6   5 16630.3 964.212   4
  -1  -6   5 16258.8 941.974   2
  -7   6   5 16157.4 1368.23   1
  -6   7   5 20292.3 1424.23   1
   1  -7   5 15502.9 1025.68   4
   1  -7   5 15282.3 1044.02   2
   1  -7   8 5593.83 809.534   4
  -1  -6   8 6510.64 725.524   4
  -7   7 -11-953.819 1612.72   1
   0  -7 -11 56.4598 1030.46   1
   0  -7 -11 420.007 1216.36   2
   7   0 -11 1187.33 1417.28   1
  -7   7 -11 1480.46 1082.73   2
   0  -7 -11 217.748 935.501   3
   7   0  -8 60630.8 1158.06   2
   0  -7  -8 71955.7 2616.16   3
   0  -7  -8 70863.6 2932.57   1
   7   0  -8 58598.7 1369.67   2
  -7   7  -8 69192.5 2783.80   2
  -7   7  -8 76955.5 4040.54   1
   7   0  -8 75686.2 3275.19   1
  -7   7  -8 66772.8 1883.64   3
   0  -7  -8 69776.3 3089.47   2
   0  -7  -8 71960.2 2028.20   4
  -7   7  -8 73339.6 2511.53   4
   7   0  -5-5.50012 627.671   1
   0  -7  -5-291.928 535.109   3
  -7   7  -5 196.501 329.636   3
  -7   7  -5 918.048 588.061   4
  -7   7  -5 325.622 628.608   2
  -7   7  -2 86357.1 2081.10   2
   0  -7  -2 81176.7 887.867   1
   7   0  -2 84285.7 1926.78   1
   7   0  -2 86028.9 1384.08   2
  -7   7  -2 84605.0 1276.20   3
  -7   7  -2 80982.2 2206.53   4
   0  -7  -2 80335.1 1767.46   3
  -7   7   1-166.962 241.945   1
  -7   7   1 61.7221 465.537   4
   7   0   1 2.12468 592.355   2
   7   0   1 90.7831 453.522   4
   0  -7   1-50.5536 557.528   1
   7   0   1 192.124 330.754   1
   7   0   1-327.008 252.045   3
   0  -7   1-218.610 293.959   2
   0  -7   1 133.094 395.332   3
  -7   7   1-325.071 344.712   2
   0  -7   1-216.948 455.046   4
   0  -7   4 17373.3 1035.11   4
   7   0   4 18877.6 1546.58   2
   7   0   4 18707.6 1166.92   4
   0  -7   4 17817.2 940.467   2
  -7   7   4 19410.3 771.158   4
   0  -7   4 17963.7 1079.19   3
  -7   7   4 18357.5 1188.44   1
   0  -7   7-298.390 657.863   2
   0  -7   7 784.510 573.516   4
   8  -8 -11-413.222 1170.81   2
   8  -8 -11-346.538 1261.39   3
   8  -8 -11 1032.33 1033.11   1
  -8   0 -11 269.916 1476.09   1
   0   8 -11 847.048 1661.22   1
  -8   0 -11 1153.69 1449.45   2
  -8   0  -8 26779.1 2281.71   2
   0   8  -8 20356.9 1057.00   2
  -8   0  -8 22476.0 1605.71   4
  -8   0  -8 20461.6 1128.27   3
   8  -8  -8 22487.0 1671.43   1
   8  -8  -8 20763.9 1929.55   3
   0   8  -8 25335.4 2431.76   1
   8  -8  -5 484.299 375.533   4
   8  -8  -5 552.983 514.663   1
   8  -8  -5-47.4689 377.487   2
  -8   0  -5 412.318 358.217   3
  -8   0  -5 183.671 598.994   4
   0   8  -5 295.882 864.821   1
   8  -8  -5-2.35783 728.415   3
   0   8  -5 680.909 355.173   2
  -8   0  -5 142.244 834.439   2
   8  -8  -2 129011. 2787.88   3
   8  -8  -2 124843. 2248.15   2
  -8   0  -2 122518. 2750.80   4
   8  -8  -2 130413. 1764.36   1
  -8   0  -2 129082. 3177.97   2
   0   8  -2 122086. 2260.39   3
  -8   0  -2 130339. 1463.12   3
   8  -8  -2 123417. 2477.48   4
  -8   0  -2 120234. 2092.11   1
   0   8  -2 127819. 2924.59   1
   0   8  -2 127909. 1866.79   2
   8  -8   1 298.601 489.685   2
  -8   0   1-291.329 458.006   2
   8  -8   1 234.114 582.728   4
   0   8   1 277.190 451.478   3
  -8   0   1-291.743 446.886   4
   8  -8   1-730.163 348.624   3
  -8   0   1-89.1013 416.130   1
   0   8   1 326.259 195.245   1
   0   8   4 39940.7 1746.67   3
   8  -8   4 41475.9 2074.53   2
  -8   0   4 40842.2 2090.91   1
  -8   0   4 39223.0 1180.42   4
   8  -8   4 44079.3 1919.66   4
  -7  -1  -9 9356.61 966.722   3
  -8   1  -9 9159.19 960.964   3
   7  -8  -9 7335.12 1223.23   2
   1   7  -9 8996.53 792.381   2
   8  -7  -9 10836.1 1424.85   1
  -1   8  -9 9614.52 921.061   2
  -8   1  -9 8242.46 1164.84   4
  -1   8  -9 8903.73 1823.93   1
  -7  -1  -9 9038.64 1194.70   4
   7  -8  -9 11571.2 1641.15   3
   1   7  -9 7894.13 1745.05   1
   8  -7  -9 8196.72 1205.99   2
   8  -7  -9 8021.17 1509.55   3
  -8   1  -9 9904.46 1664.96   2
   7  -8  -9 10382.7 1354.82   1
  -7  -1  -9 8423.64 1618.33   2
  -7  -1  -6 1138.48 449.389   3
   1   7  -6 601.901 1024.90   1
   7  -8  -6 642.096 427.087   2
   8  -7  -6 390.650 603.633   1
   1   7  -6 445.244 350.950   2
  -8   1  -6 286.946 612.473   4
  -8   1  -6 2303.67 1023.94   2
   7  -8  -6 584.242 299.319   4
  -7  -1  -6 1246.22 652.596   4
  -8   1  -6 1027.34 424.564   3
  -1   8  -6 695.138 417.190   2
   7  -8  -6 1389.85 901.528   3
   8  -7  -6 1127.35 405.519   2
  -1   8  -6 1646.49 1104.53   1
  -7  -1  -6-238.911 932.781   2
   7  -8  -6 714.251 570.803   1
   7  -8  -3 9849.78 583.114   1
  -7  -1  -3 9892.37 471.113   3
  -7  -1  -3 10053.9 1232.84   2
  -8   1  -3 7965.85 725.103   1
  -1   8  -3 8944.81 577.060   2
   7  -8  -3 8105.42 654.958   2
   8  -7  -3 8456.33 704.673   4
   8  -7  -3 8846.74 646.111   2
   1   7  -3 9869.38 516.560   2
  -1   8  -3 9378.07 1185.40   1
   8  -7  -3 8182.02 637.174   1
  -7  -1  -3 9206.72 891.662   4
  -8   1  -3 8120.17 323.432   3
  -1   8  -3 7446.96 693.960   3
  -8   1  -3 7157.32 846.501   4
   8  -7  -3 6611.14 934.686   3
   1   7  -3 8516.66 744.396   3
   7  -8  -3 8891.02 736.469   4
  -8   1  -3 8261.66 1115.84   2
  -7  -1  -3 9055.78 717.598   1
   1   7  -3 9991.38 1137.66   1
   7  -8  -3 8423.67 975.414   3
   7  -8   0 1198.93 585.360   4
  -8   1   0 851.447 589.949   2
   1   7   0-71.7925 322.913   1
   8  -7   0 374.280 414.253   3
   8  -7   0 348.250 515.130   4
  -7  -1   0 475.744 475.059   4
  -1   8   0 383.956 430.677   3
  -7  -1   0 574.682 367.744   1
  -8   1   0 229.126 322.475   1
  -7  -1   0 401.292 554.862   2
   8  -7   0 629.812 359.792   1
  -1   8   0 1045.65 372.878   1
  -7  -1   0 857.453 369.234   3
   7  -8   0 723.802 439.682   3
   7  -8   0 650.036 427.307   2
   1   7   0 1173.31 457.750   3
   8  -7   0-51.9060 446.732   2
  -8   1   0 421.658 515.470   4
   8  -7   3 69174.1 2235.27   4
   8  -7   3 67667.5 2384.21   2
   1   7   3 68224.3 1941.89   3
  -7  -1   3 67187.0 1571.37   4
  -7  -1   3 66674.6 2317.45   1
   7  -8   3 70031.5 2249.18   4
  -8   1   3 70376.8 2277.00   1
   7  -8   3 65772.5 1263.47   3
   8  -7   3 64263.1 1034.20   3
   7  -8   3 66996.4 2242.80   2
  -8   1   3 63041.1 861.748   2
  -1   8   3 67672.9 2056.79   3
  -8   1   3 65140.6 1530.71   4
   7  -8   6 4778.07 909.726   4
  -7  -1   6 2858.31 315.896   4
   8  -7   6 4613.86 860.319   4
  -7  -1   6 3797.66 349.048   4
  -6  -2 -10 11827.1 1801.42   2
   8  -6 -10 9153.72 1346.57   2
   2   6 -10 9869.49 1936.36   1
  -8   2 -10 11169.2 1352.12   4
  -8   2 -10 11837.8 2054.33   1
  -6  -2 -10 9994.51 1910.08   1
   8  -6 -10 13620.6 1692.47   1
  -8   2 -10 9342.66 1705.14   2
  -6  -2 -10 11096.0 1381.41   4
  -2   8 -10 9837.18 1042.28   2
   6  -8 -10 12770.7 1599.98   1
   6  -8 -10 12219.0 1687.01   3
  -2   8 -10 12549.9 2270.85   1
  -6  -2 -10 11312.6 1191.54   3
   8  -6 -10 10741.8 1700.07   3
   6  -8 -10 8947.88 1448.75   2
   2   6 -10 8978.27 786.840   2
  -8   2 -10 10734.2 1122.54   3
   2   6  -7 52500.8 1288.72   2
   2   6  -7 60946.8 3136.50   1
  -6  -2  -7 50542.7 2062.13   4
  -6  -2  -7 58540.3 2967.75   2
  -2   8  -7 54611.5 1828.73   2
  -8   2  -7 59015.3 2935.75   2
  -6  -2  -7 56401.7 1791.98   3
  -8   2  -7 55370.9 1553.72   3
   6  -8  -7 58354.9 2628.91   3
   8  -6  -7 59569.5 2494.68   1
  -2   8  -7 62522.4 3354.29   1
  -2   8  -7 58069.5 1884.52   4
   6  -8  -7 55963.7 2234.84   1
   8  -6  -7 54929.0 1612.76   2
  -8   2  -7 55184.2 2188.59   4
   2   6  -4 22159.6 1598.15   1
   2   6  -4 22833.9 1182.40   3
  -2   8  -4 21314.5 1044.07   3
  -6  -2  -4 24346.6 889.338   3
   2   6  -4 22907.2 642.916   2
   8  -6  -4 23384.4 870.634   4
  -6  -2  -4 22967.8 1649.10   2
   8  -6  -4 23320.1 1167.58   1
  -2   8  -4 23108.6 1746.84   1
  -2   8  -4 23399.2 971.761   2
   8  -6  -4 23349.9 919.295   2
   6  -8  -4 21773.5 1410.40   3
  -8   2  -4 22714.0 1320.98   4
   6  -8  -4 22773.1 968.430   4
  -8   2  -4 19191.5 512.871   3
   6  -8  -4 23756.5 1059.28   2
  -6  -2  -4 22592.9 1099.81   1
  -8   2  -4 19482.5 1476.04   2
  -6  -2  -4 23061.7 1232.28   4
   6  -8  -4 23436.5 996.828   1
  -2   8  -4 23547.8 1194.51   4
  -2   8  -1 24270.5 908.641   2
  -6  -2  -1 24434.6 798.286   3
   8  -6  -1 22855.2 1009.37   2
  -2   8  -1 24860.4 982.568   3
   6  -8  -1 22033.8 1088.22   3
  -6  -2  -1 21920.7 1095.51   4
   6  -8  -1 25289.6 655.308   1
  -6  -2  -1 23241.2 835.430   1
   8  -6  -1 23654.3 1149.50   3
  -8   2  -1 23064.1 902.345   1
   8  -6  -1 24234.7 819.090   1
   6  -8  -1 20965.1 1106.57   4
  -2   8  -1 24372.6 1249.18   1
  -8   2  -1 24353.6 1317.93   2
   2   6  -1 22372.7 1055.97   1
  -8   2  -1 22664.0 1222.37   4
   2   6  -1 22321.7 947.209   3
   6  -8  -1 23386.9 979.997   2
  -2   8  -1 21796.7 1125.22   4
   8  -6  -1 22428.4 1121.32   4
  -6  -2  -1 20972.1 1254.74   2
  -6  -2   2 50837.0 1792.46   1
   2   6   2 54302.5 1495.81   3
   8  -6   2 49703.0 758.529   3
  -8   2   2 51244.9 1625.01   1
  -8   2   2 51340.3 1004.07   2
  -6  -2   2 45653.7 987.043   2
  -2   8   2 51758.9 1667.63   3
  -8   2   2 47961.1 1360.85   4
   2   6   2 53040.6 1035.08   1
   6  -8   2 50702.0 1673.99   2
   6  -8   2 50459.7 1818.88   4
   8  -6   2 48950.4 1903.06   2
   8  -6   2 49267.6 1818.57   4
   6  -8   2 51876.1 1142.80   3
   8  -6   5 12918.9 1142.99   4
  -8   2   5 10169.5 462.616   4
  -6  -2   5 12053.8 650.774   4
   6  -8   5 12750.0 1260.02   2
   6  -8   5 13714.2 1151.21   4
   8  -6   5 11040.9 1377.65   2
   6  -8   8 12249.5 1196.14   4
  -5  -3 -11 10272.4 1889.21   2
   3   5 -11 6521.39 1760.07   1
   5  -8 -11 6248.62 1546.27   2
  -8   3 -11 8759.13 1970.56   1
  -5  -3 -11 7433.38 1184.45   3
  -5  -3 -11 5117.40 1660.49   1
   8  -5 -11 5922.65 1415.16   1
  -8   3 -11 6369.13 1060.26   3
   5  -8 -11 6768.46 1340.19   1
  -3   8 -11 5321.77 1961.60   1
   8  -5 -11 5860.25 1513.76   3
   5  -8 -11 7420.86 1551.91   3
  -8   3 -11 6061.11 1593.65   2
  -3   8 -11 6833.68 1099.58   2
   5  -8  -8 23050.2 1777.08   3
  -8   3  -8 26764.0 2188.80   2
   8  -5  -8 20166.9 1041.36   2
  -3   8  -8 24530.7 1438.68   2
   8  -5  -8 21708.1 1439.60   2
  -3   8  -8 23115.6 1289.12   4
  -5  -3  -8 22624.2 2030.96   2
  -8   3  -8 24923.9 1699.89   4
  -8   3  -8 19573.7 1049.77   3
   3   5  -8 20166.5 2060.99   1
   3   5  -8 21198.9 858.606   2
  -8   3  -8 23198.5 1235.54   3
  -3   8  -8 23769.9 2394.56   1
   5  -8  -8 21753.7 1585.40   1
  -5  -3  -8 24815.4 1556.77   4
   8  -5  -8 27104.6 1958.20   1
  -5  -3  -8 23605.1 1359.23   3
  -5  -3  -5 23998.1 1299.18   4
  -8   3  -5 25010.9 1416.60   4
   8  -5  -5 24535.8 909.640   2
   5  -8  -5 22426.5 942.857   4
  -3   8  -5 25053.9 1177.97   2
  -5  -3  -5 24545.1 1739.98   2
  -8   3  -5 25043.5 1744.75   2
   8  -5  -5 23935.0 1411.39   1
  -5  -3  -5 26693.1 1094.67   3
  -3   8  -5 24888.2 1248.50   4
  -8   3  -5 22211.0 761.414   3
   3   5  -5 21946.3 593.626   2
   5  -8  -5 24763.3 1233.40   1
   8  -5  -5 20256.5 517.777   4
  -3   8  -5 24713.7 1963.90   1
   5  -8  -5 24526.6 1484.54   3
   3   5  -5 23388.3 1727.36   1
  -3   8  -5 22703.9 1117.48   3
  -5  -3  -2 14521.0 1177.82   2
  -3   8  -2 16300.7 1254.06   1
   5  -8  -2 15621.2 422.577   1
  -3   8  -2 15260.1 779.985   3
   3   5  -2 14191.1 825.779   3
  -8   3  -2 15230.2 838.732   1
   5  -8  -2 13386.2 955.035   3
   5  -8  -2 15011.2 812.476   2
  -8   3  -2 15916.3 1067.13   4
  -5  -3  -2 14939.6 939.367   4
  -5  -3  -2 15154.0 674.081   1
   8  -5  -2 14836.7 756.010   1
  -3   8  -2 14896.5 973.370   4
   8  -5  -2 16410.8 888.272   4
   8  -5  -2 14625.4 741.502   2
   5  -8  -2 15926.3 892.247   4
  -3   8  -2 15344.8 774.435   2
  -8   3  -2 12777.7 1122.27   2
   3   5  -2 15456.1 1042.02   1
  -5  -3  -2 16084.3 659.645   3
  -3   8   1 92704.1 2021.48   3
  -8   3   1 98289.7 1815.46   1
   8  -5   1 97736.9 1876.69   1
   5  -8   1 100095. 1670.07   3
   8  -5   1 96090.6 2414.17   2
  -8   3   1 92785.0 2021.46   4
  -5  -3   1 101239. 1908.22   3
   3   5   1 97644.8 1358.57   1
   5  -8   1 94451.3 1879.06   2
   8  -5   1 97494.1 1359.37   3
   3   5   1 97689.8 1776.14   3
  -5  -3   1 98553.4 2154.44   1
  -8   3   1 98401.3 1716.04   2
   5  -8   1 96065.5 2308.84   4
  -8   3   4 75947.1 2535.40   1
   8  -5   4 73034.3 2268.65   4
   5  -8   4 77997.8 2416.00   2
   5  -8   4 76853.0 1710.80   3
   8  -5   4 75113.5 2787.57   2
   5  -8   4 79063.6 2348.60   4
  -8   3   4 73234.6 1341.68   4
  -5  -3   4 70259.1 2767.53   1
   3   5   4 77222.1 2089.37   3
   5  -8   7 6346.11 959.423   4
   8  -5   7 7350.06 995.928   4
  -5  -3   7 5094.33 419.660   4
  -8   4  -9 11809.1 1633.98   2
   4   4  -9 9768.90 635.649   2
   8  -4  -9 11019.1 1232.88   2
   4   4  -9 14320.0 1920.14   1
   4  -8  -9 12658.7 1586.66   2
   8  -4  -9 13296.2 1650.60   1
  -4  -4  -9 10320.7 1118.76   4
  -4  -4  -9 12245.8 1715.06   2
  -4   8  -9 11412.9 1044.74   4
  -4  -4  -9 11283.4 1185.69   3
  -8   4  -9 13851.8 1392.03   4
  -4   8  -9 14051.4 2248.50   1
  -4   8  -9 12069.4 1224.15   2
   4  -8  -9 10781.9 1376.63   1
  -4  -4  -9 10694.7 1681.67   1
   4  -8  -9 11916.7 1498.06   3
  -8   4  -9 12779.5 1154.32   3
  -8   4  -6 4445.36 1037.09   2
  -8   4  -6 3746.41 435.219   3
   4   4  -6 3585.11 272.479   2
   4   4  -6 4708.21 1076.68   1
   4  -8  -6 2840.03 819.040   3
   4  -8  -6 4258.99 754.043   1
  -4  -4  -6 4411.28 676.198   3
  -4   8  -6 3529.67 700.108   4
  -4   8  -6 3892.24 615.882   3
  -4   8  -6 2436.99 1154.90   1
   4  -8  -6 3325.11 477.542   4
  -8   4  -6 2731.91 778.221   4
  -4  -4  -6 3683.73 703.597   4
   8  -4  -6 4827.07 935.504   1
   8  -4  -6 3593.49 452.343   2
  -4  -4  -6 3296.45 1046.87   2
  -8   4  -6 3649.89 543.334   3
  -4   8  -6 3708.87 686.576   2
  -4   8  -3 75945.3 2024.57   4
  -4  -4  -3 75332.9 1534.73   3
   8  -4  -3 78038.7 1476.52   4
  -4  -4  -3 78247.3 1522.34   1
   4  -8  -3 77738.1 1758.89   4
   4  -8  -3 76941.3 2146.21   3
   8  -4  -3 78923.2 1418.74   2
  -8   4  -3 74695.5 2423.59   2
  -8   4  -3 70790.2 2112.19   4
   4  -8  -3 76263.6 1283.04   1
   4   4  -3 74402.2 2296.50   1
   4   4  -3 76819.7 1960.92   3
   8  -4  -3 79927.4 1917.22   1
  -4   8  -3 74104.7 1726.83   2
  -4  -4  -3 74761.2 1894.92   4
  -4   8  -3 74621.2 1589.38   3
  -4   8   0 8786.52 705.689   3
   8  -4   0 9565.89 866.480   2
   8  -4   0 10736.9 843.790   4
   8  -4   0 8917.09 611.383   1
   4  -8   0 10179.0 836.108   4
  -8   4   0 11144.5 798.546   2
   4  -8   0 9831.85 651.430   3
  -8   4   0 8861.81 585.045   1
  -4  -4   0 9049.71 653.433   1
   4  -8   0 9275.58 659.431   2
  -8   4   0 10523.0 826.898   4
   4   4   0 10251.9 582.271   1
  -4   8   0 10470.6 854.759   4
  -4  -4   0 9330.86 623.523   3
  -4   8   0 9784.84 671.693   2
   4   4   0 8739.25 614.002   3
   8  -4   3 78706.2 2682.67   2
  -4  -4   3 76768.4 2570.39   1
   4  -8   3 77580.2 2183.62   4
   4   4   3 81444.6 1816.59   3
  -8   4   3 76924.7 1550.93   4
   8  -4   3 78561.0 2217.44   4
  -4   8   3 80959.8 2375.12   3
  -8   4   3 78842.5 2190.00   1
  -8   4   3 79077.6 1339.60   2
   4  -8   3 75795.1 2022.39   2
   4  -8   3 72101.3 1572.62   3
   8  -4   6 3630.06 800.829   4
   4  -8   6 3170.74 743.171   4
   4  -8   6 4901.86 991.232   2
  -4  -4   6 2401.31 465.964   4
  -8   5 -10 4825.36 1242.96   2
  -3  -5 -10 4112.25 1350.71   2
  -5   8 -10 1604.24 691.388   4
  -3  -5 -10 3450.63 921.540   4
   3  -8 -10 2893.18 1264.73   2
   5   3 -10 1400.85 1203.43   1
  -8   5 -10 3557.36 933.208   3
  -3  -5 -10 3677.26 1341.73   1
  -3  -5 -10 5320.40 1027.57   3
  -5   8 -10 3543.44 935.870   2
   3  -8 -10 5515.18 1243.04   1
  -8   5 -10 3809.06 1043.33   4
  -5   8 -10 2642.02 1660.60   1
   8  -3 -10 5483.93 1328.16   1
  -8   5 -10 5256.55 1838.61   1
   8  -3 -10 4114.93 952.213   2
   3  -8 -10 4983.34 1205.49   3
  -5   8  -7 6939.78 766.005   3
   5   3  -7 8803.96 1371.53   1
   3  -8  -7 8157.20 1055.04   1
   8  -3  -7 8641.98 588.768   2
  -5   8  -7 8323.13 1624.82   1
  -5   8  -7 8295.72 995.847   2
  -8   5  -7 8401.00 646.660   3
  -8   5  -7 9161.29 1074.96   4
   8  -3  -7 7944.18 815.143   2
   3  -8  -7 8757.69 649.962   4
  -3  -5  -7 8085.80 892.482   4
  -3  -5  -7 7457.34 877.178   3
  -8   5  -7 8844.56 1264.64   2
   3  -8  -7 8467.32 1148.80   3
  -3  -5  -7 8283.64 1334.37   2
   8  -3  -7 7128.71 1159.15   1
   5   3  -7 5769.84 333.197   2
   3  -8  -7 6874.49 621.239   4
  -5   8  -7 9205.17 978.230   4
  -8   5  -4 62447.1 863.745   3
  -3  -5  -4 68968.5 1726.39   3
   5   3  -4 69904.8 2437.08   1
  -8   5  -4 68752.6 2445.94   2
   5   3  -4 72259.8 2079.58   3
  -3  -5  -4 68187.5 1842.39   4
   3  -8  -4 71482.4 2200.46   3
  -5   8  -4 67486.8 1555.16   3
   3  -8  -4 70179.6 1664.94   1
   8  -3  -4 72317.9 1231.00   2
   3  -8  -4 68020.1 1667.36   4
   8  -3  -4 67232.8 2088.43   1
  -5   8  -4 66766.4 1940.16   2
  -5   8  -4 68477.2 2044.76   4
  -8   5  -4 69764.5 2178.05   4
  -3  -5  -1 94170.1 1666.45   3
  -5   8  -1 101899. 1728.51   3
   3  -8  -1 78867.5 1774.42   3
  -8   5  -1 92932.3 2202.63   2
   3  -8  -1 96289.0 2050.52   4
   8  -3  -1 92538.6 1698.08   1
   8  -3  -1 95329.7 1956.45   4
  -5   8  -1 96231.7 1878.47   2
   8  -3  -1 96845.8 1956.46   2
   5   3  -1 96947.6 1784.01   3
  -8   5  -1 93752.0 2243.39   4
  -8   5  -1 100689. 1769.85   1
  -3  -5  -1 99912.0 1432.34   1
   3  -8  -1 85309.0 1726.50   2
   5   3  -1 92907.9 1891.81   1
  -5   8  -1 100003. 2270.81   4
   5   3   2 16813.8 768.724   1
   8  -3   2 16667.2 1067.78   4
  -3  -5   2 17540.8 544.013   2
   3  -8   2 15848.5 785.524   3
  -8   5   2 17215.2 695.741   2
   8  -3   2 16788.4 1283.08   2
   3  -8   2 16149.2 839.836   2
   3  -8   2 15638.8 1011.42   4
  -5   8   2 16795.9 889.286   4
  -3  -5   2 16240.9 1146.62   1
  -8   5   2 16889.6 904.133   4
  -5   8   2 15689.4 562.126   1
  -8   5   2 17184.1 885.268   1
  -3  -5   2 16434.2 910.644   3
  -5   8   2 17034.5 1124.75   3
   5   3   2 18095.9 772.801   3
  -3  -5   5 21989.9 807.083   2
  -8   5   5 24857.0 1672.69   1
   3  -8   5 28304.8 1542.23   2
   8  -3   5 27747.1 1466.49   4
   3  -8   5 24820.0 1371.22   4
  -3  -5   5 25056.4 1068.36   4
   3  -8   8 24857.0 1485.38   4
   3  -8   8 27931.8 1884.53   2
   2  -8 -11 16133.3 1769.98   3
   2  -8 -11 14421.5 1703.42   1
  -2  -6 -11 15810.5 1959.77   1
  -2  -6 -11 16541.3 2084.81   2
   8  -2 -11 14209.3 1984.27   1
   2  -8 -11 15377.4 1959.13   2
  -6   8 -11 14440.4 1567.18   2
  -8   6 -11 13329.3 2311.04   1
  -8   6 -11 15780.2 1545.40   3
  -6   8 -11 18933.9 2895.50   1
  -8   6 -11 17652.9 1946.16   2
   6   2 -11 19348.3 2413.13   1
  -2  -6 -11 16834.2 1604.74   3
  -2  -6  -8 12796.8 1603.44   2
  -2  -6  -8 16271.2 1650.63   1
   2  -8  -8 15458.1 1443.90   1
  -2  -6  -8 14468.5 1242.15   3
   2  -8  -8 15320.2 1409.83   3
   8  -2  -8 15163.9 1635.32   1
  -8   6  -8 13705.8 889.491   3
   8  -2  -8 12971.8 673.531   2
   2  -8  -8 15005.5 929.144   4
  -6   8  -8 17663.4 1295.77   4
   8  -2  -8 13923.8 948.474   2
   2  -8  -8 13941.7 1548.05   2
  -8   6  -8 16016.0 1638.87   2
  -6   8  -8 15849.1 2032.41   1
   6   2  -8 16421.2 1795.70   1
  -8   6  -8 13607.7 1299.46   4
   6   2  -8 10232.6 491.904   2
  -2  -6  -8 15610.3 1164.51   4
   6   2  -8 10251.4 448.416   2
  -6   8  -8 15598.5 1448.70   2
   2  -8  -8 12834.3 832.293   4
  -2  -6  -5 11459.5 912.688   3
  -6   8  -5 11663.2 737.820   3
   2  -8  -5 12177.0 1064.64   3
  -6   8  -5 9930.90 976.779   2
   6   2  -5 13155.6 1282.75   1
   2  -8  -5 10195.2 908.730   1
  -6   8  -5 12504.9 1058.90   4
  -8   6  -5 11313.0 1166.57   2
   8  -2  -5 10737.7 462.786   2
  -8   6  -5 11579.3 1100.90   4
  -2  -6  -5 11108.1 863.542   4
  -8   6  -5 12411.6 562.938   3
   8  -2  -5 11626.0 1154.68   1
   8  -2  -2 50118.8 1475.02   1
  -8   6  -2 50550.3 1742.21   2
   6   2  -2 52086.3 1521.76   3
   2  -8  -2 49213.7 1501.99   3
  -8   6  -2 48874.0 1757.91   4
  -6   8  -2 48495.0 1462.96   2
   6   2  -2 49504.4 1595.91   1
   2  -8  -2 48788.2 1481.42   4
  -2  -6  -2 47695.1 1291.73   3
  -6   8  -2 49813.6 1729.68   4
  -2  -6  -2 50536.0 926.145   1
  -8   6  -2 43801.1 820.439   3
   8  -2  -2 50824.6 1349.26   4
   8  -2  -2 49987.3 1220.47   2
  -6   8  -2 51644.7 1156.28   3
  -6   8   1 30230.0 1273.27   3
   2  -8   1 31062.9 1044.43   2
   8  -2   1 30939.6 1074.66   1
  -6   8   1 31615.2 1111.16   2
  -6   8   1 30551.9 1252.98   4
   8  -2   1 30177.4 718.982   3
  -2  -6   1 31060.5 875.731   2
   6   2   1 31807.3 888.269   3
  -8   6   1 30542.6 1255.75   4
  -6   8   1 33298.6 705.983   1
  -8   6   1 30890.1 950.263   1
   2  -8   1 30781.0 1060.18   3
  -2  -6   1 28388.5 1271.06   1
  -8   6   1 31808.7 1044.56   2
  -2  -6   1 32295.7 1115.27   3
   8  -2   1 33252.3 1559.31   2
   2  -8   1 30907.5 1283.83   4
   6   2   1 30533.0 961.390   1
  -6   8   4 26834.0 1292.69   1
   2  -8   4 26259.3 1258.43   2
  -2  -6   4 23735.6 879.688   2
   2  -8   4 26559.8 1319.91   4
   8  -2   4 28533.6 1419.32   4
   8  -2   4 25827.7 1776.98   2
   2  -8   4 24089.8 1148.06   3
  -2  -6   4 25266.0 1847.27   1
   6   2   4 27046.1 1110.52   3
  -2  -6   4 24695.5 1116.45   4
  -8   6   4 24320.1 829.901   4
  -8   6   4 27359.4 1469.74   1
   8  -2   7 55925.6 2189.78   4
   2  -8   7 53416.3 1980.44   4
  -2  -6   7 54357.0 1662.14   4
  -7   8  -9 49794.6 2470.79   2
   8  -1  -9 36469.0 1193.77   2
  -1  -7  -9 47324.9 2276.97   3
  -8   7  -9 49638.9 2663.19   2
  -1  -7  -9 43085.8 2752.69   2
   7   1  -9 48020.3 2862.16   1
  -1  -7  -9 48729.3 1920.26   4
   1  -8  -9 47098.1 1664.25   4
  -1  -7  -9 45405.5 2612.79   1
  -7   8  -9 46989.2 2120.00   4
   1  -8  -9 46217.2 2732.84   2
  -7   8  -9 44226.8 3338.54   1
  -8   7  -9 49136.7 2268.09   4
   1  -8  -9 48536.7 2521.53   1
   1  -8  -9 50164.4 2437.15   3
   8  -1  -9 48948.9 2852.93   1
  -8   7  -9 46317.9 3455.72   1
  -7   8  -6 4759.54 805.493   4
   8  -1  -6 3973.13 275.217   2
  -7   8  -6 5919.19 614.867   3
   8  -1  -6 5364.18 1032.02   1
  -8   7  -6 4494.97 929.774   2
  -8   7  -6 5918.71 532.122   3
   7   1  -6 5522.27 1041.21   1
   8  -1  -6 2971.30 332.060   2
   1  -8  -6 5013.07 867.378   1
   1  -8  -6 6656.56 960.868   3
  -1  -7  -6 6645.53 833.384   3
  -1  -7  -6 4332.99 644.775   4
  -8   7  -6 4706.82 908.472   4
  -7   8  -6 5414.14 907.205   2
  -8   7  -3 67717.3 1039.16   3
  -1  -7  -3 70416.2 1799.74   3
  -8   7  -3 64423.2 2122.10   2
  -7   8  -3 68013.8 2126.60   4
   1  -8  -3 64086.9 927.494   1
  -7   8  -3 66238.3 1992.46   2
  -7   8  -3 68362.4 1296.08   3
  -8   7  -3 69098.0 2184.15   4
   7   1  -3 67635.4 1944.52   3
  -1  -7  -3 69364.5 1129.90   1
   7   1  -3 68806.8 2084.07   1
   8  -1  -3 67508.4 1957.43   1
   1  -8  -3 65551.8 1848.48   3
  -1  -7   0 440.693 409.201   3
   1  -8   0 311.192 464.103   4
   7   1   0 1037.66 579.668   2
  -7   8   0 450.079 479.791   3
   1  -8   0 351.843 378.555   3
   7   1   0 555.412 349.713   1
  -1  -7   0 326.699 413.961   1
  -8   7   0 587.778 448.634   3
  -8   7   0 442.034 387.819   2
  -7   8   0 750.979 582.478   4
  -7   8   0 481.471 267.978   1
  -8   7   0 484.982 313.589   1
   7   1   0 18.9180 329.562   3
   1  -8   0 685.841 387.942   2
   8  -1   0 364.928 343.394   1
   1  -8   0 672.906 449.171   1
   8  -1   0 1349.99 510.503   4
   8  -1   0 658.142 329.174   3
   8  -1   0 880.445 597.216   2
  -7   8   0 468.156 406.695   2
  -8   7   0 1049.58 547.418   4
  -7   8   3 9844.09 704.127   4
  -8   7   3 8754.02 678.821   4
  -7   8   3 9306.34 743.586   1
   1  -8   3 10258.0 777.640   3
   1  -8   3 9104.79 841.022   4
  -1  -7   3 9373.75 1194.96   1
   8  -1   3 11720.0 1203.45   2
  -1  -7   3 8407.60 774.184   4
  -1  -7   3 10387.7 818.673   3
   8  -1   3 8692.73 892.413   4
   7   1   3 10440.7 935.849   4
   7   1   3 7957.60 548.789   3
   1  -8   3 9776.88 724.635   2
  -1  -7   3 9030.25 577.204   2
  -8   7   3 10879.6 868.236   1
   8  -1   3 7647.91 420.764   3
  -1  -7   6 1699.41 591.329   4
   1  -8   6 1346.58 642.505   4
  -1  -7   6 1978.82 641.910   2
   1  -8   6 808.309 641.994   2
  -8   7   6 2059.04 1018.66   1
   8  -1   6 1521.50 680.301   4
   0  -8 -10 16991.3 1610.30   3
  -8   8 -10 19680.4 2707.05   1
   8   0 -10 19493.7 2120.08   1
   0  -8 -10 18596.1 2048.36   2
   0  -8 -10 19676.4 1867.42   1
  -8   8 -10 17321.8 1776.87   2
  -8   8 -10 18734.0 1534.83   4
   0  -8  -7-622.815 615.083   3
  -8   8  -7-129.129 640.506   4
   0  -8  -7-25.5188 746.878   1
   0  -8  -7 84.2368 451.411   4
  -8   8  -7 286.774 445.421   3
  -8   8  -7-1371.94 780.206   2
   8   0  -7-282.382 854.375   1
  -8   8  -4 38580.8 971.217   3
  -8   8  -4 35367.8 1665.24   2
  -8   8  -4 36483.8 1698.97   4
   8   0  -4 35455.4 1706.38   1
   0  -8  -4 37537.2 1503.34   3
   0  -8  -1 332.998 285.354   1
  -8   8  -1-859.640 572.721   4
  -8   8  -1 524.303 487.736   2
   8   0  -1 142.796 454.085   2
   8   0  -1 192.068 393.301   3
  -8   8  -1 689.356 410.709   3
   0  -8  -1-471.103 401.624   3
  -8   8  -1 363.592 376.747   1
   8   0  -1 82.5837 366.976   1
   8   0   2 139968. 2394.62   1
  -8   8   2 132471. 2206.78   2
   0  -8   2 131932. 2651.35   4
   0  -8   2 132342. 2346.30   3
   8   0   2 140312. 2867.17   4
   8   0   2 136405. 3253.33   2
  -8   8   2 138640. 2087.81   1
   8   0   2 142799. 1599.47   3
  -8   8   2 133721. 2443.39   4
   0  -8   2 141095. 2033.72   2
   0  -8   2 129036. 3088.81   1
   8   0   5-115.846 547.653   4
   0  -8   5 140.220 518.926   4
  -8   8   5 272.521 683.905   1
   0  -8   5 431.544 550.089   2
   0  -8   8 13615.9 1108.27   4
   0   9  -9 2074.45 1464.33   1
  -9   0  -9-1295.95 1184.79   2
  -9   0  -9 457.212 610.882   3
   9  -9  -9 1933.00 1173.81   3
  -9   0  -9 444.479 880.507   4
   0   9  -9 263.115 487.813   2
   9  -9  -9 1079.08 875.605   1
   0   9  -6 10721.9 1601.21   1
  -9   0  -6 10101.1 1134.87   4
   9  -9  -6 9585.51 627.182   4
   9  -9  -6 7882.63 1213.85   3
   9  -9  -6 9608.17 825.725   2
  -9   0  -6 9564.73 1450.08   2
  -9   0  -6 10522.2 650.537   3
   0   9  -6 9564.75 681.380   2
   9  -9  -6 10778.5 1021.08   1
  -9   0  -3 565.052 887.742   2
   0   9  -3 98.5438 308.948   2
   9  -9  -3 339.188 648.344   3
   0   9  -3 73.1641 456.669   3
  -9   0  -3 26.8246 380.435   1
   9  -9  -3 43.6631 484.315   4
  -9   0  -3-189.533 244.192   3
  -9   0  -3 458.480 599.984   4
   9  -9  -3-118.635 335.900   1
   0   9  -3 813.360 713.977   1
   9  -9  -3 218.661 414.392   2
   0   9   0 51801.9 1540.64   3
  -9   0   0 46671.8 1363.85   1
  -9   0   0 48468.8 1695.64   4
  -9   0   0 49872.5 1822.92   2
   9  -9   0 51985.7 1925.13   4
   0   9   0 50212.5 1245.33   1
   9  -9   0 48642.3 1453.28   3
   9  -9   0 53131.9 1705.72   2
   9  -9   3 240.502 623.655   4
  -9   0   3 266.325 411.136   4
   9  -9   3-416.107 682.770   2
  -9   0   3-851.590 709.455   1
  -9   0   3-180.772 156.681   2
   9  -9   3 320.058 284.825   3
   0   9   3 217.954 577.084   3
  -9   0   6 7138.39 478.875   4
  -9   0   6 7365.37 512.560   4
   9  -8 -10 10874.8 1443.36   2
   8  -9 -10 12724.0 1519.49   1
  -1   9 -10 10921.4 986.769   2
   8  -9 -10 8980.84 1488.37   2
   1   8 -10 11099.8 1937.38   1
  -8  -1 -10 9712.59 1361.56   4
  -8  -1 -10 12059.7 1960.71   2
   9  -8 -10 13704.2 1948.82   3
  -1   9 -10 14375.7 2350.35   1
  -9   1 -10 13916.7 1619.08   4
  -9   1 -10 10130.0 980.956   3
  -9   1 -10 12667.9 1917.40   2
  -8  -1 -10 10822.9 1072.12   3
   8  -9 -10 12061.3 1713.38   3
   9  -8 -10 11224.6 1512.95   1
  -9   1  -7 48579.3 1373.35   3
   8  -9  -7 47374.3 2502.04   3
   9  -8  -7 56559.1 2318.40   1
   1   8  -7 51182.0 3012.13   1
  -9   1  -7 46695.6 2137.60   4
   9  -8  -7 43274.9 1580.53   2
   8  -9  -7 53582.1 2189.85   1
  -8  -1  -7 48614.8 2197.62   4
  -9   1  -7 50724.9 2883.44   2
  -8  -1  -7 51759.5 2933.85   2
  -1   9  -7 47957.2 3000.40   1
   9  -8  -7 46530.7 2557.37   3
   1   8  -7 44708.6 1259.67   2
  -1   9  -7 47193.9 1511.50   2
  -8  -1  -7 47746.9 1492.32   3
   8  -9  -4 24651.5 1020.41   1
   8  -9  -4 21896.5 1050.40   4
  -8  -1  -4 23992.9 780.330   3
   1   8  -4 22731.0 782.867   2
   1   8  -4 20094.8 1161.16   3
   9  -8  -4 21658.9 998.108   2
  -1   9  -4 24158.8 1782.11   1
  -8  -1  -4 22066.2 1138.16   1
  -9   1  -4 21716.7 1373.16   4
   1   8  -4 23641.0 1739.30   1
  -9   1  -4 22148.4 553.412   3
   8  -9  -4 20279.3 1010.05   2
  -9   1  -4 20828.3 1690.41   2
   9  -8  -4 22535.6 1544.24   3
   9  -8  -4 23961.9 1044.92   4
  -9   1  -4 21124.7 1180.46   1
   9  -8  -4 25396.4 1130.42   1
  -1   9  -4 23624.1 933.800   2
  -1   9  -4 22810.0 1160.88   3
  -8  -1  -4 23198.3 1378.15   4
   8  -9  -4 22283.3 1497.41   3
  -8  -1  -4 23272.4 1780.71   2
   1   8  -1 53698.4 1604.65   1
   9  -8  -1 53434.6 1248.87   1
   8  -9  -1 55296.6 1718.92   3
  -8  -1  -1 49861.5 1713.70   4
   1   8  -1 53020.8 1502.05   3
  -1   9  -1 53267.9 1526.27   3
  -9   1  -1 45375.9 1673.16   4
  -1   9  -1 52307.5 1363.09   2
   8  -9  -1 52463.8 1794.33   4
   8  -9  -1 53646.3 1120.70   1
   9  -8  -1 55147.4 1728.03   3
  -1   9  -1 50984.4 1639.92   1
   8  -9  -1 55221.5 1568.72   2
  -8  -1  -1 47502.1 1292.40   1
  -8  -1  -1 53183.2 2016.30   2
   9  -8  -1 51801.5 1575.07   2
  -8  -1  -1 54062.5 1232.27   3
  -9   1  -1 53830.0 1395.70   1
  -9   1  -1 54721.5 1995.05   2
   9  -8  -1 53100.7 1787.13   4
   9  -8   2 17269.1 1244.32   2
  -8  -1   2 17995.8 965.363   4
  -9   1   2 18044.0 739.207   2
  -9   1   2 17162.5 1087.96   1
   8  -9   2 17081.9 1227.66   4
   1   8   2 19226.4 594.386   1
   8  -9   2 17635.7 741.137   3
  -9   1   2 17935.2 989.853   4
   9  -8   2 18357.0 1301.30   4
  -8  -1   2 18193.9 746.490   2
   1   8   2 19936.0 1108.37   3
   8  -9   2 17069.4 1190.34   2
   9  -8   2 19293.2 650.550   3
  -1   9   2 17854.4 1101.68   3
  -8  -1   2 15990.9 1158.38   1
   8  -9   5 28913.4 1689.31   4
  -8  -1   5 30418.3 1040.00   4
   1   8   5 30393.1 1721.55   3
   9  -8   5 31741.9 1802.74   4
  -9   1   5 29208.8 978.313   4
   9  -7 -11 17438.8 1957.95   1
  -9   2 -11 19621.7 2336.40   2
   7  -9 -11 15345.1 1745.30   1
  -7  -2 -11 15953.1 2321.56   1
  -7  -2 -11 16882.5 2240.99   2
   7  -9 -11 13386.5 1794.13   2
   7  -9 -11 13705.1 1885.25   3
   2   7 -11 17640.2 2416.73   1
  -7  -2 -11 16320.1 1378.35   3
  -2   9 -11 20348.4 2843.37   1
   9  -7 -11 16369.0 2164.07   3
  -9   2 -11 18894.2 2550.58   1
   7  -9  -8 7865.64 1181.32   1
  -2   9  -8 5024.42 729.618   2
  -9   2  -8 5579.95 687.933   3
  -2   9  -8 5913.57 1593.26   1
  -7  -2  -8 5401.96 977.792   4
  -9   2  -8 6653.98 1487.67   2
   2   7  -8 4664.04 504.413   2
   9  -7  -8 5406.42 1098.89   1
  -9   2  -8 5675.36 1063.45   4
  -7  -2  -8 5078.68 728.761   3
  -7  -2  -8 6276.83 1420.68   2
   9  -7  -8 5648.17 720.994   2
   7  -9  -8 5234.28 1172.32   3
   2   7  -8 3026.33 1279.45   1
   2   7  -5 62915.4 2787.63   1
   7  -9  -5 62153.9 2432.94   3
   9  -7  -5 66601.9 2070.53   1
  -9   2  -5 67271.9 2869.57   2
  -2   9  -5 64400.6 1989.53   4
  -7  -2  -5 66862.1 1533.34   3
   2   7  -5 60490.6 1128.61   2
  -9   2  -5 60355.3 2232.17   4
   9  -7  -5 61630.7 1298.33   4
   7  -9  -5 61509.4 1563.42   4
   9  -7  -5 63332.8 1586.27   2
  -2   9  -5 67016.8 3102.91   1
  -7  -2  -5 64956.8 2829.44   2
  -7  -2  -5 65337.0 2209.11   4
   7  -9  -5 61802.7 1805.22   2
  -9   2  -5 61753.7 1044.56   3
  -2   9  -5 59762.5 1856.75   3
  -2   9  -5 61470.7 1625.67   2
  -7  -2  -5 63350.9 1904.36   1
   7  -9  -5 67667.7 1896.79   1
  -7  -2  -2 40244.3 990.132   3
   9  -7  -2 39680.6 1643.92   3
   7  -9  -2 38626.2 1592.96   3
   7  -9  -2 39668.4 838.556   1
  -2   9  -2 38642.7 1269.32   3
  -9   2  -2 38591.9 1275.80   1
  -2   9  -2 36662.7 1476.81   4
  -9   2  -2 38279.3 1805.21   2
   7  -9  -2 37794.0 1256.22   2
   2   7  -2 36521.2 1310.50   3
   2   7  -2 39336.8 1661.02   1
   9  -7  -2 36994.3 1393.42   4
  -2   9  -2 39584.9 1170.18   2
  -7  -2  -2 38440.0 1865.90   2
  -7  -2  -2 38809.5 1527.67   4
   9  -7  -2 38322.9 1266.68   2
   9  -7  -2 37872.7 1102.92   1
  -7  -2  -2 34479.5 1124.17   1
  -2   9  -2 37315.2 1766.03   1
   7  -9  -2 39901.3 1460.97   4
  -9   2  -2 38774.3 1617.30   4
   2   7   1 29108.4 762.459   1
   2   7   1 30357.6 1164.83   3
  -2   9   1 26916.4 1206.46   3
  -7  -2   1 26404.9 1200.66   1
   9  -7   1 28638.9 1447.08   4
  -7  -2   1 28453.4 1154.84   3
   7  -9   1 27244.8 931.220   3
  -9   2   1 26675.4 1067.21   2
  -9   2   1 28630.9 1135.81   1
   7  -9   1 29752.0 1491.68   4
  -9   2   1 25603.5 1212.67   4
  -7  -2   1 30360.7 1187.19   2
   7  -9   1 27180.0 1220.88   2
  -7  -2   1 29808.1 1213.50   4
   9  -7   1 27556.1 822.313   3
   9  -7   1 28733.6 1439.28   2
  -2   9   4 2992.52 774.380   3
   9  -7   4 3695.27 1064.83   2
  -9   2   4 2541.08 800.146   1
   7  -9   4 3185.23 480.203   3
   9  -7   4 3348.85 792.178   4
   2   7   4 3731.98 715.307   3
   7  -9   4 4721.11 871.844   4
  -9   2   4 3777.58 497.720   4
   7  -9   4 2889.23 825.973   2
  -7  -2   7 4080.28 335.344   4
  -7  -2   7 5632.31 364.374   4
   6  -9  -9 717.952 784.732   1
   9  -6  -9 332.721 872.187   1
  -3   9  -9 1313.92 690.279   2
  -9   3  -9 175.445 1105.49   2
  -6  -3  -9 759.356 682.037   3
  -6  -3  -9-624.997 1287.08   2
   3   6  -9 472.346 1139.51   1
   9  -6  -9 309.819 815.151   2
  -6  -3  -9 1046.97 783.387   4
  -9   3  -9 178.289 909.523   4
   3   6  -9 3.07066 331.021   2
  -9   3  -9 400.382 605.964   3
  -3   9  -9-1113.33 1365.19   1
   6  -9  -9-1388.53 1119.66   3
   9  -6  -6 34507.2 1177.31   2
  -3   9  -6 38772.1 1488.15   2
  -9   3  -6 35647.6 1813.79   4
   9  -6  -6 40233.4 1908.34   1
   3   6  -6 34707.7 806.260   2
  -6  -3  -6 39305.3 2371.34   2
   3   6  -6 37378.8 2326.13   1
  -3   9  -6 34622.3 1515.08   3
  -3   9  -6 40842.9 2665.09   1
   6  -9  -6 37100.0 1194.36   4
  -6  -3  -6 34208.0 1651.03   4
   6  -9  -6 38523.1 2011.95   3
   6  -9  -6 41151.2 1718.04   1
  -9   3  -6 40171.4 1075.56   3
  -6  -3  -6 37786.6 1367.08   3
  -9   3  -6 38565.0 2330.78   2
  -3   9  -6 38187.5 1623.42   4
   9  -6  -3 17033.4 814.320   2
  -3   9  -3 18078.0 1525.20   1
   6  -9  -3 17127.3 967.729   4
  -6  -3  -3 17942.9 774.617   3
   9  -6  -3 17396.8 911.242   4
  -3   9  -3 18980.0 893.318   2
   3   6  -3 15792.2 997.570   3
   3   6  -3 15944.7 1245.35   1
  -3   9  -3 18210.0 934.831   3
  -9   3  -3 15417.6 1364.93   2
  -9   3  -3 17660.7 1214.56   4
   6  -9  -3 16803.2 1199.30   3
   9  -6  -3 17781.4 927.806   1
  -6  -3  -3 16099.7 1039.48   4
  -3   9  -3 16136.1 1051.76   4
   6  -9  -3 19667.6 654.401   1
  -6  -3  -3 17345.7 1394.21   2
  -6  -3  -3 16473.3 818.340   1
   6  -9  -3 16693.6 920.524   2
  -9   3  -3 17574.5 1028.83   1
   3   6   0 43193.4 1155.49   1
  -6  -3   0 42508.6 1544.24   2
   6  -9   0 40941.1 1579.67   4
   9  -6   0 42197.7 1314.09   3
   6  -9   0 41926.8 1291.83   3
  -3   9   0 43203.8 1314.82   2
   3   6   0 43461.1 1277.25   3
  -6  -3   0 46172.5 1253.00   3
   9  -6   0 45297.5 1658.88   4
   9  -6   0 41444.6 1537.60   2
  -3   9   0 43670.5 1553.95   4
  -9   3   0 40152.0 1527.95   4
  -3   9   0 43296.9 1224.13   1
   9  -6   0 41914.3 1198.65   1
  -3   9   0 44958.7 1399.39   3
  -9   3   0 42900.0 1221.42   1
  -9   3   0 42548.6 1500.39   2
   6  -9   0 43989.3 1360.15   2
  -6  -3   0 43248.9 1270.62   1
   6  -9   3 1221.74 614.417   2
  -6  -3   3 2085.84 776.549   1
  -3   9   3 1451.31 677.695   3
  -9   3   3 1574.96 646.939   1
   6  -9   3 580.681 357.060   3
  -9   3   3 1024.07 439.391   4
   9  -6   3 878.273 631.045   4
   6  -9   3 1750.62 695.103   4
   3   6   3 921.856 523.553   3
   9  -6   3 1349.87 833.944   2
  -9   3   3 835.739 263.533   2
   9  -6   6 16481.4 1321.89   4
   6  -9   6 20094.3 1643.48   2
   6  -9   6 17076.4 1310.58   4
  -6  -3   6 17702.2 823.667   4
   4   5 -10 4831.87 1504.22   1
   9  -5 -10 5198.87 1103.56   2
  -5  -4 -10 5559.41 1592.07   2
   5  -9 -10 4421.64 1033.35   1
  -5  -4 -10 4231.08 940.638   3
   5  -9 -10 3531.21 1296.67   2
  -9   4 -10 4948.63 1491.70   2
   9  -5 -10 4396.97 1298.35   1
  -9   4 -10 4400.84 873.444   3
  -5  -4 -10 4187.30 1457.41   1
  -4   9 -10 7011.81 1914.43   1
  -4   9 -10 2818.76 841.808   2
  -5  -4 -10 4343.66 1069.02   4
  -9   4 -10 5320.71 1160.30   4
   5  -9 -10 4828.35 1265.01   3
  -9   4  -7 46337.0 1358.18   3
   4   5  -7 47035.0 2707.77   1
  -4   9  -7 48918.1 3132.14   1
  -9   4  -7 49833.0 2193.99   4
  -5  -4  -7 43527.3 1880.31   4
   9  -5  -7 49038.3 2351.26   1
   9  -5  -7 45353.8 1331.47   2
  -9   4  -7 44639.8 1216.08   3
  -5  -4  -7 48857.9 2708.47   2
   5  -9  -7 42207.3 1246.08   4
  -4   9  -7 48817.7 1894.75   4
   5  -9  -7 46030.4 1985.50   1
   5  -9  -7 44038.1 1177.38   4
   5  -9  -7 49402.0 2347.99   3
  -4   9  -7 45450.9 1831.84   2
  -5  -4  -7 48904.6 1754.19   3
  -9   4  -7 48117.0 2665.72   2
   5  -9  -4 289.323 407.813   4
   4   5  -4 1342.95 776.447   1
  -5  -4  -4 908.920 395.816   3
  -5  -4  -4 1095.90 419.567   1
  -4   9  -4 351.119 445.005   2
  -9   4  -4-680.175 739.924   2
  -5  -4  -4 986.272 802.763   2
   9  -5  -4 882.164 526.342   1
   5  -9  -4 522.702 381.548   1
   4   5  -4 119.144 497.376   3
  -9   4  -4 1055.47 678.811   4
   9  -5  -4-133.547 308.802   4
  -4   9  -4 630.414 413.018   3
   9  -5  -4 319.528 309.226   2
  -4   9  -4 88.8640 508.795   4
  -4   9  -4 295.052 839.253   1
  -5  -4  -4 143.129 470.519   4
   5  -9  -4 11.6885 634.307   3
   4   5  -1 84567.2 1772.83   3
  -9   4  -1 85526.6 1715.49   1
   9  -5  -1 85024.8 1945.07   2
  -4   9  -1 81172.1 1722.75   2
   4   5  -1 86193.7 1870.06   1
   5  -9  -1 82528.4 2089.75   4
   5  -9  -1 83959.0 1789.16   2
  -4   9  -1 85770.8 1757.97   3
   9  -5  -1 84551.1 1627.10   1
   9  -5  -1 86454.9 2050.92   4
  -5  -4  -1 84826.1 1531.57   1
   5  -9  -1 85888.8 1899.40   3
  -4   9  -1 90422.4 2222.68   4
  -5  -4  -1 88701.0 1603.15   3
  -9   4  -1 85774.5 2239.19   2
  -9   4   2 15382.8 679.375   2
   4   5   2 15237.3 849.004   3
   9  -5   2 12672.0 1184.37   2
   9  -5   2 12622.4 1039.40   4
  -5  -4   2 13471.6 880.965   3
   5  -9   2 14560.7 1047.09   4
   5  -9   2 14543.9 760.120   3
  -5  -4   2 13552.4 1090.86   1
   4   5   2 14986.9 714.779   1
  -9   4   2 13566.8 862.006   4
  -9   4   2 15487.2 929.149   1
   5  -9   2 12743.7 875.281   2
  -4   9   2 14817.9 1064.36   3
  -9   4   5 41880.5 2198.01   1
  -5  -4   5 43858.5 1327.69   4
   5  -9   5 44216.1 1916.07   4
   5  -9   5 44750.2 2074.97   2
   9  -5   5 43474.2 1906.04   4
  -9   4   5 36509.7 854.537   4
  -5  -4   8 5269.87 393.931   4
   5  -9   8 7006.15 1074.78   4
   5   4 -11 22411.2 2508.39   1
   4  -9 -11 20507.0 2095.80   3
   9  -4 -11 20994.0 2126.28   1
  -4  -5 -11 20970.8 1705.88   3
  -4  -5 -11 18085.1 2238.75   2
  -5   9 -11 22825.7 2919.06   1
   4  -9 -11 19894.7 2228.77   2
  -5   9 -11 18200.9 1632.51   2
  -4  -5 -11 22290.7 2364.10   1
  -9   5 -11 19300.3 2745.01   1
  -9   5 -11 22137.2 2218.72   2
   4  -9 -11 20412.1 1892.88   1
   4  -9  -8 6950.22 588.625   4
   5   4  -8 9710.46 1509.38   1
  -4  -5  -8 9052.80 965.317   3
  -9   5  -8 8139.47 819.389   3
  -9   5  -8 8435.00 1367.98   2
   9  -4  -8 7318.25 632.023   2
  -4  -5  -8 8037.66 1017.16   4
   9  -4  -8 8210.61 1206.94   1
  -4  -5  -8 8969.84 1536.17   2
   4  -9  -8 8530.76 1088.83   1
  -9   5  -8 6088.62 647.350   3
  -5   9  -8 8755.93 1060.29   2
   4  -9  -8 9874.35 1343.01   3
   5   4  -8 5607.80 307.156   2
  -5   9  -8 9052.68 984.638   4
  -9   5  -8 9557.68 1255.18   4
  -5   9  -8 9192.04 1799.02   1
   4  -9  -8 6192.93 578.842   4
   9  -4  -8 7695.78 903.425   2
   4  -9  -5 40021.3 1831.44   3
  -9   5  -5 39806.9 2086.24   2
  -9   5  -5 37310.7 1759.55   4
  -5   9  -5 41123.1 1605.47   2
  -5   9  -5 41105.8 1369.94   3
   4  -9  -5 37496.8 1330.31   4
  -9   5  -5 32053.6 816.268   3
  -4  -5  -5 36321.8 1521.29   4
  -9   5  -5 35573.8 725.367   3
  -5   9  -5 40392.3 1680.63   4
  -4  -5  -5 38855.5 1402.92   3
   4  -9  -5 40510.1 1447.11   1
   9  -4  -5 41762.9 1082.66   2
  -5   9  -5 43333.6 2543.12   1
  -4  -5  -5 38116.5 2085.27   2
   5   4  -5 40907.5 2155.06   1
   9  -4  -5 39778.0 1788.91   1
   9  -4  -2 15552.6 855.026   4
  -4  -5  -2 16289.8 666.146   1
  -4  -5  -2 16610.3 772.603   3
  -5   9  -2 14736.1 845.298   2
  -5   9  -2 16427.6 1065.97   4
   9  -4  -2 15660.0 839.511   1
   5   4  -2 14732.0 1024.55   1
  -9   5  -2 16069.1 913.843   1
   9  -4  -2 16609.2 838.178   2
  -9   5  -2 18715.9 1246.59   2
   4  -9  -2 16454.1 974.522   4
  -9   5  -2 16168.7 1126.64   4
   5   4  -2 15628.7 902.798   3
   4  -9  -2 15897.0 979.862   3
   4  -9  -2 16576.4 898.927   2
  -5   9  -2 16535.4 818.304   3
   9  -4   1 94094.5 2541.50   2
   4  -9   1 95319.8 1812.85   3
  -5   9   1 98128.6 957.235   1
   5   4   1 96234.2 1739.34   3
  -9   5   1 92163.4 1765.06   2
   9  -4   1 94607.8 2342.19   4
   9  -4   1 97196.9 1925.76   1
  -5   9   1 98396.4 1936.74   2
  -4  -5   1 95944.5 2239.21   1
  -5   9   1 96086.3 2232.91   3
   4  -9   1 93955.3 1911.55   2
  -9   5   1 92473.9 1752.15   1
  -9   5   1 95054.5 2150.51   4
   4  -9   1 98812.9 2347.06   4
  -4  -5   1 96865.9 1909.71   3
   5   4   1 89918.6 1552.91   1
  -5   9   1 96641.0 2220.89   4
  -4  -5   4-1186.08 917.451   1
   9  -4   4-363.460 597.126   4
   4  -9   4 719.774 644.828   2
   9  -4   4-165.493 828.191   2
   4  -9   4-233.439 420.431   3
  -4  -5   4 736.135 439.434   4
  -9   5   4-81.0013 691.747   1
  -9   5   4 99.8695 355.500   4
   4  -9   4 710.586 623.921   4
   5   4   4 268.819 502.762   3
   4  -9   7 51161.5 2422.30   2
  -4  -5   7 47921.7 1429.52   4
   4  -9   7 49357.2 2070.20   4
  -3  -6  -9 516.658 673.193   3
   9  -3  -9 368.214 578.862   2
   3  -9  -9 154.774 918.380   2
  -9   6  -9-228.962 982.469   2
  -6   9  -9 3.81798 750.559   2
   6   3  -9 1673.96 1178.46   1
   3  -9  -9 222.869 451.770   4
   9  -3  -9 2580.13 1147.85   1
   3  -9  -9-451.949 911.407   3
   3  -9  -9 817.745 864.984   1
  -3  -6  -9 587.718 708.539   4
  -3  -6  -9 2200.32 1212.14   2
  -6   9  -9 192.695 1476.10   1
  -9   6  -9 1246.54 766.481   3
  -6   9  -9 592.714 647.304   4
  -3  -6  -9 892.979 1022.80   1
  -9   6  -9 290.911 790.994   4
  -3  -6  -6 19765.3 1181.16   3
   3  -9  -6 20183.5 1271.65   1
   3  -9  -6 20002.8 1443.88   3
   3  -9  -6 19330.0 1013.71   4
  -3  -6  -6 18277.8 1658.45   2
  -6   9  -6 19826.2 1017.72   3
  -9   6  -6 19598.3 723.765   3
  -9   6  -6 19222.6 1430.72   4
   9  -3  -6 19648.8 1489.98   1
  -6   9  -6 18818.9 1291.34   4
  -3  -6  -6 18088.1 1169.14   4
   9  -3  -6 20039.1 722.846   2
  -9   6  -6 19123.7 1548.08   2
   6   3  -6 21656.8 1752.95   1
  -6   9  -6 20511.0 1348.22   2
  -3  -6  -3 1064.75 293.549   1
   3  -9  -3 778.887 550.237   3
  -6   9  -3 792.754 369.949   3
  -9   6  -3 2290.11 765.611   2
   6   3  -3 627.539 578.795   1
   3  -9  -3 618.180 458.348   4
  -6   9  -3 1212.13 552.798   4
   3  -9  -3 777.566 211.610   1
   9  -3  -3 665.557 377.703   4
   9  -3  -3 1432.09 374.980   2
   6   3  -3 1218.62 569.631   3
  -6   9  -3 862.012 477.756   2
  -3  -6  -3 834.804 435.613   3
  -9   6  -3 1193.51 623.155   4
   9  -3  -3 1179.68 557.387   1
   9  -3   0 54809.5 1692.15   4
  -3  -6   0 51245.4 1477.20   1
  -6   9   0 52554.7 1524.28   3
  -6   9   0 54389.7 1448.23   2
   6   3   0 55035.8 1309.16   3
   3  -9   0 55633.1 1473.47   3
  -9   6   0 57028.6 1323.05   1
   3  -9   0 52786.4 1691.39   4
  -9   6   0 53659.0 1756.22   4
  -6   9   0 56821.3 1124.54   1
  -3  -6   0 57183.3 1434.52   3
   6   3   0 56605.6 1336.53   1
   9  -3   0 54124.6 1354.23   1
  -6   9   0 51839.7 1735.05   4
  -9   6   0 53078.4 1541.63   2
   9  -3   0 60154.7 1935.39   2
   3  -9   0 56573.3 1442.62   2
   6   3   3 18039.8 870.424   3
  -9   6   3 17592.1 1115.92   1
   3  -9   3 17808.4 1000.92   2
  -6   9   3 18556.5 851.826   1
  -9   6   3 17509.6 792.486   2
   3  -9   3 16911.0 910.787   3
   9  -3   3 20646.3 1577.00   2
  -3  -6   3 17860.8 1085.36   3
   9  -3   3 16396.2 1134.94   4
  -9   6   3 17299.2 915.419   4
  -3  -6   3 17008.3 990.620   4
  -3  -6   3 16205.2 1435.06   1
  -3  -6   3 17522.1 605.506   2
   3  -9   3 16497.3 1150.38   4
  -3  -6   6 39617.5 1445.56   4
   3  -9   6 39239.6 1779.38   4
   9  -3   6 41371.3 1919.19   4
   3  -9   6 40573.3 1955.26   2
  -9   7 -10 4189.87 1792.65   1
   2  -9 -10 4617.21 1312.36   2
  -7   9 -10 6080.68 1783.21   1
  -2  -7 -10 6313.00 1062.82   3
   9  -2 -10 7196.60 1472.02   1
   7   2 -10 7641.59 1565.95   1
  -7   9 -10 4864.09 964.396   4
  -2  -7 -10 7400.50 1425.72   1
  -7   9 -10 3340.94 1062.28   2
  -2  -7 -10 4602.97 1460.83   2
  -9   7 -10 4849.50 1289.24   2
  -2  -7 -10 3972.11 934.254   4
   2  -9 -10 6586.23 1247.40   1
  -9   7 -10 6056.13 1067.03   3
   2  -9 -10 5827.38 1219.59   3
  -9   7 -10 4568.40 1013.41   4
  -9   7  -7 7420.54 1264.31   2
   2  -9  -7 7266.65 685.516   4
  -7   9  -7 7096.48 740.992   3
   2  -9  -7 5418.17 663.381   4
   9  -2  -7 5129.87 1117.28   1
   9  -2  -7 4869.93 487.453   2
   7   2  -7 7926.84 1328.68   1
  -9   7  -7 10470.6 1210.94   4
   2  -9  -7 8643.06 1104.78   1
   9  -2  -7 6663.00 415.141   2
  -9   7  -7 7681.77 597.081   3
  -2  -7  -7 6856.67 1265.76   2
   2  -9  -7 8474.11 1107.55   3
  -2  -7  -7 8582.14 948.246   3
  -7   9  -7 6952.47 1022.48   2
  -2  -7  -7 7010.82 820.443   4
  -7   9  -7 8577.01 1035.70   4
  -9   7  -4 2780.92 771.523   4
  -7   9  -4 3109.60 677.972   2
  -2  -7  -4 2831.35 383.728   1
  -9   7  -4 3626.72 797.216   2
   9  -2  -4 1879.26 297.512   2
  -2  -7  -4 2776.61 586.408   3
   2  -9  -4 2420.38 626.722   3
   7   2  -4 2669.68 770.181   1
  -7   9  -4 3665.40 791.549   4
  -9   7  -4 2209.74 263.814   3
   9  -2  -4 3613.68 708.431   1
   2  -9  -4 3326.64 529.036   1
  -7   9  -4 3620.95 473.023   3
  -7   9  -1 25673.8 1326.43   4
   7   2  -1 25909.1 1080.58   1
  -9   7  -1 28089.9 1045.66   1
  -2  -7  -1 27008.9 855.758   1
   7   2  -1 26091.9 1032.02   3
   9  -2  -1 25977.8 1140.63   4
   9  -2  -1 26840.2 1190.79   2
  -2  -7  -1 28351.8 1059.28   3
  -9   7  -1 25768.0 1243.52   2
   2  -9  -1 26706.5 1227.82   4
  -7   9  -1 27874.2 1157.04   2
   9  -2  -1 26325.1 1029.28   1
  -9   7  -1 21150.0 1265.36   4
   2  -9  -1 28133.0 1131.88   2
   2  -9  -1 25024.7 1060.32   3
  -7   9  -1 24088.7 954.155   3
  -7   9   2 39753.0 997.416   1
  -9   7   2 37385.1 1141.40   2
   7   2   2 39064.5 1265.61   1
   7   2   2 42414.3 1093.63   3
  -9   7   2 38857.9 1240.92   1
   2  -9   2 36740.0 1495.02   4
  -9   7   2 38899.3 1419.71   4
   9  -2   2 38496.3 663.700   3
  -2  -7   2 39084.8 974.795   2
   2  -9   2 35144.7 1242.86   3
  -7   9   2 38194.3 1275.14   2
  -2  -7   2 37568.3 1335.64   3
   9  -2   2 42231.2 1639.55   4
  -2  -7   2 37363.3 1755.68   1
  -7   9   2 35806.5 1609.25   3
   9  -2   2 42802.1 1979.20   2
  -7   9   2 39800.0 1407.71   4
   9  -2   2 39468.3 1378.35   1
   2  -9   2 37856.4 1213.50   2
  -2  -7   5 60490.2 1549.32   2
   2  -9   5 66073.9 2145.31   2
  -7   9   5 67846.2 2302.22   1
  -9   7   5 64616.3 2481.21   1
   2  -9   5 65036.2 2136.43   4
   9  -2   5 64303.0 2215.66   4
  -2  -7   5 63231.6 1849.87   4
  -9   7   5 63765.1 1245.74   4
  -2  -7   8 4253.58 708.170   4
   2  -9   8 3330.36 860.771   4
   2  -9   8 3790.84 1021.32   2
  -1  -8 -11 13568.7 1747.79   1
   1  -9 -11 16135.3 1825.33   3
   9  -1 -11 16677.0 2068.90   1
   1  -9 -11 13089.0 1682.42   1
   1  -9 -11 16910.8 2085.79   2
  -1  -8 -11 11063.3 1892.90   2
  -1  -8 -11 13355.5 1533.82   3
  -9   8 -11 16031.8 1860.77   2
   8   1 -11 16228.0 2117.41   1
  -8   9 -11 17167.7 2680.50   1
  -8   9 -11 15241.5 1717.65   2
  -9   8 -11 13946.0 2482.35   1
   1  -9  -8 18668.0 1853.88   2
  -9   8  -8 20251.6 1753.79   2
  -8   9  -8 17611.0 1056.20   3
  -9   8  -8 19802.1 1591.67   4
  -8   9  -8 20384.5 1642.45   2
   9  -1  -8 20485.9 1864.90   1
  -9   8  -8 18641.6 994.826   3
  -1  -8  -8 20551.8 1482.46   3
  -1  -8  -8 22098.9 2005.52   2
  -1  -8  -8 19250.4 1698.19   1
   1  -9  -8 17943.8 1115.59   4
  -8   9  -8 19398.1 1506.17   4
   1  -9  -8 21391.7 1612.85   3
  -1  -8  -8 18920.8 1241.19   4
   8   1  -8 20339.9 1939.15   1
   1  -9  -8 18237.3 1520.84   1
  -1  -8  -5 30088.4 1418.76   3
   9  -1  -5 30417.0 1714.86   1
   8   1  -5 30818.0 1810.38   1
  -8   9  -5 32126.4 1044.27   3
  -8   9  -5 31136.3 1638.77   4
   1  -9  -5 27615.7 1311.08   1
   1  -9  -5 27914.4 1458.44   3
  -9   8  -5 29777.0 1728.20   2
  -9   8  -5 31698.4 1701.86   4
  -8   9  -5 29033.1 1625.91   2
  -9   8  -5 33084.9 906.650   3
   9  -1  -2 16184.6 846.182   2
  -8   9  -2 14204.2 938.298   2
  -8   9  -2 15059.0 1142.25   4
   8   1  -2 14325.9 953.457   1
   8   1  -2 16643.0 980.577   3
   9  -1  -2 15390.9 937.355   1
  -9   8  -2 16190.0 1197.05   4
  -9   8  -2 15970.4 1073.37   2
  -9   8  -2 16441.3 696.331   3
  -1  -8  -2 15804.6 874.849   3
  -8   9  -2 16418.1 747.788   3
   1  -9  -2 15124.0 925.770   3
  -1  -8  -2 15218.9 534.300   1
   1  -9   1 56017.6 1530.49   3
  -8   9   1 53704.7 1813.14   3
  -1  -8   1 51334.4 1781.39   1
   9  -1   1 55292.9 1465.10   1
   8   1   1 52517.0 1171.68   3
  -8   9   1 56219.6 1776.90   4
   1  -9   1 54888.2 1396.06   2
   9  -1   1 56400.0 1084.04   3
  -1  -8   1 54848.5 1304.88   2
   9  -1   1 56105.5 2096.77   2
   8   1   1 54377.7 1997.90   2
   1  -9   1 49925.2 1729.79   4
   1  -9   1 51524.4 1763.47   1
   9  -1   1 52683.3 1781.18   4
  -8   9   1 59409.5 1138.00   1
  -9   8   1 51547.8 1743.92   4
  -9   8   1 57183.5 1252.49   1
  -1  -8   1 54996.7 1532.66   3
  -9   8   1 54365.1 1465.33   2
   8   1   1 54556.0 1409.21   1
  -8   9   1 54161.9 1459.21   2
  -8   9   4 23363.0 1272.94   1
  -8   9   4 24951.7 1030.99   4
  -9   8   4 23338.0 1337.04   1
   1  -9   4 23985.3 1169.66   2
  -1  -8   4 24456.7 1039.96   2
  -1  -8   4 23732.5 1259.82   4
   8   1   4 25263.4 986.455   3
   1  -9   4 21610.0 1156.98   3
   1  -9   4 21734.3 1250.91   4
   9  -1   4 24495.9 1402.62   4
  -1  -8   4 22372.5 1232.14   3
  -9   8   4 23567.9 972.950   4
  -1  -8   7 45988.1 1729.87   2
   1  -9   7 40902.5 1834.66   4
   1  -9   7 46384.2 2027.96   2
  -1  -8   7 45183.9 1771.07   4
  -9   9  -9-47.5239 904.897   2
  -9   9  -9 340.142 824.139   4
   9   0  -9 461.047 1068.56   1
   0  -9  -9 1833.02 857.250   3
   0  -9  -9-1000.98 1034.24   2
   0  -9  -9 113.774 609.048   4
  -9   9  -9 1472.45 1484.55   1
   0  -9  -9-1109.62 982.292   1
  -9   9  -6 8161.37 1052.95   4
   0  -9  -6 9481.86 1027.72   3
  -9   9  -6 9279.18 1156.77   2
   9   0  -6 9055.76 1208.31   1
   0  -9  -6 9288.83 1016.17   1
  -9   9  -6 10135.1 651.318   3
   9   0  -3-264.344 249.801   2
   9   0  -3 582.165 549.986   3
  -9   9  -3-43.3371 303.570   3
   0  -9  -3 773.902 520.464   3
   0  -9  -3 151.672 168.668   1
  -9   9  -3 745.999 622.922   2
   9   0  -3-151.651 524.676   1
  -9   9  -3-53.4158 638.758   4
   9   0   0 56505.9 1463.65   1
  -9   9   0 54704.9 1662.34   3
   0  -9   0 56913.4 1503.78   2
   0  -9   0 51006.1 1525.57   1
   0  -9   0 56164.0 1530.57   3
   9   0   0 57428.4 1352.16   3
  -9   9   0 53083.6 1591.15   2
  -9   9   0 53000.5 1899.08   4
  -9   9   0 54684.9 1306.96   1
   9   0   0 54171.9 1891.50   2
   9   0   0 54388.2 1824.66   4
   9   0   3 161.806 285.578   3
   0  -9   3-201.144 359.648   2
   9   0   3-109.199 801.015   2
   0  -9   3 194.897 460.534   3
   0  -9   3-441.548 554.840   4
  -9   9   3 567.731 401.971   2
  -9   9   3 290.555 450.469   4
  -9   9   3 632.843 530.488   1
   0  -9   3 771.630 829.333   1
   9   0   3 510.831 562.113   4
   0  -9   6 7506.20 942.453   4
  -9   9   6 7135.30 1158.81   1
   0  -9   6 7955.07 907.939   2
  10 -10 -10 27777.7 2030.27   1
 -10   0 -10 34784.6 2342.84   4
  10 -10 -10 30992.3 2586.70   3
   0  10 -10 35527.3 3116.30   1
 -10   0 -10 26507.0 1352.06   3
 -10   0 -10 32420.0 2929.83   2
  10 -10 -10 27164.2 2090.82   2
   0  10  -7 315.908 399.984   2
   0  10  -7 317.841 1132.98   1
  10 -10  -7 419.420 279.846   4
  10 -10  -7-35.6523 965.736   3
 -10   0  -7-450.101 737.016   4
 -10   0  -7-460.268 1041.48   2
 -10   0  -7 1171.21 472.886   3
  10 -10  -7 422.897 686.333   1
  10 -10  -4 141701. 2645.48   2
  10 -10  -4 157486. 2507.36   1
 -10   0  -4 144020. 1636.78   3
 -10   0  -4 152668. 3535.02   4
  10 -10  -4 151461. 3746.44   3
  10 -10  -4 154211. 2881.74   4
 -10   0  -4 146951. 4188.68   2
   0  10  -4 159456. 4242.93   1
   0  10  -4 148520. 2226.39   2
 -10   0  -1-37.7267 363.492   1
  10 -10  -1 89.6467 335.367   1
 -10   0  -1 641.665 583.531   4
  10 -10  -1-203.253 472.271   2
   0  10  -1 512.046 476.715   3
 -10   0  -1-39.0785 346.390   3
 -10   0  -1-88.9927 694.087   2
  10 -10  -1 1170.42 646.982   4
  10 -10  -1 425.701 543.867   3
   0  10  -1 43.1299 486.185   1
 -10   0   2 125867. 2052.10   2
  10 -10   2 130451. 1921.80   3
  10 -10   2 128753. 3301.27   4
 -10   0   2 126501. 2583.71   4
   0  10   2 130030. 2805.68   3
  10 -10   2 127282. 3168.13   2
 -10   0   5 324.503 432.622   4
   9 -10 -11 10568.2 1822.41   3
  10  -9 -11 10959.0 2032.28   3
   9 -10 -11 10644.3 1652.96   2
  -1  10 -11 12262.8 2291.32   1
  10  -9 -11 13742.5 1676.69   1
  -9  -1 -11 13466.0 2226.95   2
  -9  -1 -11 7017.57 2029.83   1
   9 -10 -11 11067.9 1543.77   1
 -10   1 -11 10623.6 1979.47   2
 -10   1 -11 9458.21 2013.42   1
   1   9 -11 11322.3 2200.66   1
 -10   1 -11 9162.80 1542.05   4
  -9  -1  -8 1134.04 549.327   3
   1   9  -8 1092.60 439.472   2
  10  -9  -8-767.081 836.692   1
 -10   1  -8 519.364 1100.64   2
  -1  10  -8 680.221 1279.71   1
   9 -10  -8 1932.36 812.117   1
   1   9  -8 1447.81 1365.14   1
  -9  -1  -8 2542.03 1261.26   2
  10  -9  -8 2615.36 1095.57   3
   9 -10  -8 667.916 1018.19   3
 -10   1  -8 1893.33 929.801   4
  -9  -1  -8 3230.94 892.556   4
 -10   1  -8 1012.20 500.187   3
  -1  10  -8 1764.41 544.497   2
  -9  -1  -5 9427.03 1392.89   2
   9 -10  -5 7970.44 765.579   2
  10  -9  -5 8170.70 756.842   2
   9 -10  -5 9146.76 798.142   4
  -9  -1  -5 10387.0 580.484   3
  -1  10  -5 10189.2 692.740   2
 -10   1  -5 8485.53 421.075   3
 -10   1  -5 8940.01 1354.63   2
   9 -10  -5 9802.46 800.214   1
   1   9  -5 8547.93 1274.05   1
 -10   1  -5 9232.58 1115.04   4
   1   9  -5 8817.30 565.009   2
  10  -9  -5 10609.0 764.273   4
  -9  -1  -5 9045.96 1039.28   4
  10  -9  -5 6584.08 1053.16   3
   9 -10  -5 10595.9 1212.98   3
  10  -9  -5 9799.51 873.413   1
  -1  10  -5 8498.38 1428.02   1
   1   9  -2 8022.39 763.698   3
   9 -10  -2 8458.67 946.086   3
  -1  10  -2 8057.00 631.144   2
 -10   1  -2 7237.30 1055.33   2
  -9  -1  -2 8524.02 534.360   3
 -10   1  -2 7678.57 689.444   1
   1   9  -2 6265.92 856.504   1
  10  -9  -2 6981.32 863.562   3
  -9  -1  -2 9651.18 1212.37   2
 -10   1  -2 8865.92 476.717   3
  -9  -1  -2 7723.03 883.617   4
   9 -10  -2 8535.19 529.631   1
 -10   1  -2 8693.70 972.531   4
   9 -10  -2 8952.48 877.318   4
  10  -9  -2 8065.22 574.752   1
  -1  10  -2 6923.59 982.935   1
  -1  10  -2 8355.91 736.887   3
  10  -9  -2 8303.88 859.635   4
  -9  -1  -2 7310.55 652.676   1
   9 -10  -2 6698.46 715.740   2
  10  -9  -2 8772.74 753.469   2
   9 -10   1 2487.37 439.433   3
 -10   1   1 1826.95 542.559   1
  -1  10   1 2694.66 583.764   3
   9 -10   1 2670.26 759.201   4
  -9  -1   1 1720.68 538.355   4
  -1  10   1 1775.97 249.740   1
   1   9   1 1741.54 309.002   1
   1   9   1 1790.08 544.209   3
  10  -9   1 1792.78 383.123   3
  10  -9   1 1858.42 667.206   2
  -9  -1   1 1506.94 525.569   1
  -9  -1   1 2733.77 585.811   2
 -10   1   1 2007.05 587.376   4
  10  -9   1 2148.45 720.288   4
 -10   1   1 1885.31 584.617   2
   9 -10   1 1579.41 609.959   2
  -1  10   4 16738.8 1313.60   3
   9 -10   4 17001.2 1463.42   2
   9 -10   4 19170.3 814.351   3
  10  -9   4 17210.2 658.344   3
   9 -10   4 17631.8 1405.73   4
  10  -9   4 17322.4 1395.79   4
   1   9   4 17874.9 1288.94   3
  -9  -1   4 17006.0 953.045   4
 -10   1   4 17288.4 929.733   4
  -9  -1   7 9441.66 498.063   4
  -9  -1   7 8393.76 463.253   4
  -2  10  -9 8510.20 1885.40   1
  10  -8  -9 10090.2 1712.76   3
  -8  -2  -9 9626.51 1326.79   4
  -8  -2  -9 9225.53 920.473   3
  10  -8  -9 9346.68 1287.53   1
 -10   2  -9 10142.8 1404.79   4
  -2  10  -9 9111.20 884.802   2
 -10   2  -9 7934.87 792.708   3
   8 -10  -9 9384.60 1531.96   3
   2   8  -9 6074.71 551.689   2
   8 -10  -9 9562.29 1248.12   1
   2   8  -9 6906.75 1618.66   1
  -8  -2  -9 9734.89 1689.15   2
 -10   2  -9 10086.3 1740.62   2
 -10   2  -6 14627.6 1327.27   4
  -8  -2  -6 17441.0 905.347   3
 -10   2  -6 15341.6 628.540   3
   8 -10  -6 16837.0 1534.06   3
  -2  10  -6 14907.2 907.639   2
  -8  -2  -6 15703.4 1685.73   2
  10  -8  -6 15129.3 925.428   2
  10  -8  -6 15788.9 1202.21   1
   2   8  -6 14256.9 625.236   2
  10  -8  -6 14074.2 605.103   4
 -10   2  -6 15283.8 1748.51   2
  -8  -2  -6 16812.8 1327.10   4
   2   8  -6 15656.1 1731.86   1
  -2  10  -6 17536.2 1899.19   1
   8 -10  -6 17399.9 1163.94   1
   8 -10  -6 14720.2 869.092   4
 -10   2  -3 25251.5 1473.75   4
   8 -10  -3 22728.8 1187.03   4
  -8  -2  -3 24420.3 1720.06   2
   2   8  -3 24494.6 1551.08   1
   8 -10  -3 22525.9 1079.55   2
  -2  10  -3 24838.0 1002.29   2
  -8  -2  -3 23245.3 1336.09   4
  -8  -2  -3 24228.0 804.403   3
  -2  10  -3 22907.4 1117.14   3
  10  -8  -3 22179.7 1468.58   3
   8 -10  -3 22546.6 1424.57   3
   2   8  -3 20513.4 1122.08   3
  10  -8  -3 23680.0 1063.30   2
  10  -8  -3 24034.1 1162.15   4
  -8  -2  -3 22207.7 1016.70   1
   8 -10  -3 26001.8 804.570   1
  -2  10  -3 26716.7 1745.61   1
  10  -8  -3 25143.6 1046.72   1
 -10   2  -3 21289.4 1613.35   2
  -2  10  -3 23823.1 1287.33   4
 -10   2  -3 21681.3 1117.40   1
 -10   2   0 11188.8 724.946   1
   2   8   0 13089.3 838.325   3
  10  -8   0 13513.4 862.853   3
   8 -10   0 11898.3 807.768   3
  -8  -2   0 12888.2 826.744   1
 -10   2   0 13703.2 1032.23   4
  -2  10   0 13554.7 724.949   1
   2   8   0 12092.6 710.737   1
  10  -8   0 13751.5 786.812   1
  -8  -2   0 13098.9 1072.45   2
  -8  -2   0 12668.3 788.784   3
  10  -8   0 13468.2 1083.83   4
   8 -10   0 11420.3 861.151   2
  -2  10   0 13144.3 912.316   3
   8 -10   0 13960.2 1113.72   4
  -8  -2   0 12737.1 958.881   4
  10  -8   0 14301.4 1031.43   2
 -10   2   0 11868.9 993.123   2
   8 -10   3 32150.7 1750.37   4
   2   8   3 33687.4 1504.53   3
  10  -8   3 31395.9 686.443   3
 -10   2   3 30405.0 1225.10   4
 -10   2   3 32118.5 1659.64   1
  10  -8   3 34197.8 1926.15   2
  10  -8   3 34044.8 1753.51   4
  -2  10   3 34198.6 1636.22   3
  -8  -2   3 32088.2 1263.16   4
   8 -10   3 32029.1 1032.49   3
   8 -10   3 29984.6 1609.84   2
  -8  -2   3 28070.9 1666.09   1
 -10   2   3 33594.1 821.072   2
 -10   2   6 1673.31 294.712   4
  -8  -2   6 1509.26 419.264   4
  -8  -2   6 2210.30 445.505   4
   7 -10 -10 17570.7 1917.84   3
   7 -10 -10 21046.9 1795.89   1
  -7  -3 -10 16962.9 2240.39   1
  -7  -3 -10 18874.9 1715.66   4
   3   7 -10 19111.7 2380.39   1
  10  -7 -10 18308.5 1842.06   1
 -10   3 -10 17614.7 1138.86   3
  -7  -3 -10 17361.3 1310.86   3
  10  -7 -10 23578.6 2397.52   3
  -7  -3 -10 18044.0 2274.85   2
 -10   3 -10 21315.3 2262.84   2
 -10   3 -10 18448.4 1769.94   4
  -3  10 -10 16037.4 1251.50   2
   7 -10 -10 15202.7 1832.79   2
  10  -7 -10 17625.8 1654.13   2
  -3  10 -10 23315.0 2777.84   1
   7 -10  -7 457.167 388.706   4
  -3  10  -7 1052.87 612.056   4
 -10   3  -7 81.4167 295.089   3
  -3  10  -7 474.912 523.483   2
   3   7  -7-628.517 1051.89   1
  -7  -3  -7 32.6001 498.691   3
 -10   3  -7 522.396 355.700   3
  -7  -3  -7 4.25992 668.515   4
   3   7  -7 399.759 233.203   2
  10  -7  -7 225.547 443.067   2
  10  -7  -7 1365.28 754.436   1
   7 -10  -7 1048.57 692.990   1
 -10   3  -7 212.859 709.934   4
  -7  -3  -7 2414.69 1116.33   2
 -10   3  -7 390.052 1030.31   2
  -3  10  -7 224.260 1212.66   1
   7 -10  -7 342.321 876.849   3
  10  -7  -4 119705. 2487.45   1
  -3  10  -4 110990. 2694.64   4
  -7  -3  -4 110954. 3428.94   2
  -7  -3  -4 119602. 2831.35   4
  -3  10  -4 114178. 3627.01   1
  -7  -3  -4 113377. 1859.56   3
   7 -10  -4 120251. 1909.12   1
   7 -10  -4 113177. 2404.63   2
 -10   3  -4 110304. 3459.23   2
  -3  10  -4 113802. 2185.83   2
   7 -10  -4 117804. 3125.57   3
  -3  10  -4 111167. 2355.10   3
 -10   3  -4 110860. 3002.03   4
  10  -7  -4 117493. 2138.06   4
  -7  -3  -4 110557. 2222.89   1
   7 -10  -4 109325. 2344.26   4
  10  -7  -4 114288. 2137.20   2
   3   7  -4 112229. 3301.31   1
   3   7  -1 11161.3 824.741   1
  -7  -3  -1 10331.8 894.330   4
 -10   3  -1 10753.7 707.783   1
   3   7  -1 10407.9 771.823   3
 -10   3  -1 12348.6 1022.03   4
  10  -7  -1 11215.8 673.948   1
  -3  10  -1 10493.5 911.714   4
  -3  10  -1 9122.87 893.183   1
  10  -7  -1 9435.38 900.366   3
  -3  10  -1 11004.6 804.429   3
   7 -10  -1 12419.1 834.937   2
  -7  -3  -1 10994.2 670.738   3
   7 -10  -1 10496.9 879.764   3
  -3  10  -1 10359.7 729.178   2
  10  -7  -1 10895.1 941.628   4
   7 -10  -1 10229.3 929.882   4
 -10   3  -1 9074.69 949.202   2
  -7  -3  -1 10082.2 685.020   1
  -7  -3  -1 9419.98 1029.51   2
  10  -7  -1 11133.8 897.754   2
 -10   3   2 57553.1 1713.39   4
  -7  -3   2 52973.3 1965.65   1
  -7  -3   2 59628.5 1403.38   2
 -10   3   2 58996.8 1302.60   2
  -3  10   2 60558.3 1990.77   3
   3   7   2 61452.4 1238.06   1
   7 -10   2 58078.5 1390.60   3
   7 -10   2 54621.6 1876.36   2
  10  -7   2 57182.0 2224.58   2
  10  -7   2 63500.0 2247.16   4
   3   7   2 63301.8 1768.77   3
  10  -7   2 58985.0 907.526   3
 -10   3   2 59430.6 1812.48   1
   7 -10   2 60406.5 2148.37   4
   7 -10   5 6585.83 976.596   4
 -10   3   5 5742.99 520.218   4
   7 -10   5 6591.95 1131.63   2
  10  -7   5 5843.60 971.207   4
   3   7   5 6744.31 960.254   3
  -6  -4 -11 2168.26 1393.78   1
   6 -10 -11 1072.23 1212.53   2
  -6  -4 -11 1727.16 840.701   3
   6 -10 -11 1283.27 1007.50   1
  -6  -4 -11 2017.28 1469.61   2
  10  -6 -11 2386.61 1537.79   3
  10  -6 -11 2681.57 1269.10   1
 -10   4 -11 1568.23 1727.48   1
   4   6 -11 2544.18 1621.93   1
   6 -10 -11 5073.06 1499.21   3
  -4  10 -11 2387.57 1687.64   1
 -10   4 -11 1209.84 1336.38   2
 -10   4 -11 2304.30 1264.18   4
  -4  10 -11 1001.15 784.815   2
 -10   4  -8 13401.8 828.214   3
   6 -10  -8 15864.1 1338.73   1
  -6  -4  -8 13095.4 1773.61   2
  10  -6  -8 16252.7 1545.77   1
  -6  -4  -8 14252.2 1072.26   3
   4   6  -8 15280.3 1862.28   1
 -10   4  -8 12025.8 733.978   3
  10  -6  -8 11199.3 802.023   2
 -10   4  -8 15434.0 1753.26   2
   6 -10  -8 11783.4 613.427   4
 -10   4  -8 17947.6 1578.83   4
  -4  10  -8 16553.8 2212.25   1
  -6  -4  -8 15378.7 1360.43   4
   6 -10  -8 9017.34 602.399   4
  -4  10  -8 15135.5 1158.93   2
   6 -10  -8 12908.2 1485.42   3
  -4  10  -8 14866.2 1183.12   4
  10  -6  -5 32197.3 1119.47   2
  -6  -4  -5 31625.9 1558.25   4
  10  -6  -5 32903.7 934.658   4
  -4  10  -5 32493.5 1344.65   2
  -6  -4  -5 33561.9 1219.86   3
  10  -6  -5 33273.6 1550.61   1
   6 -10  -5 31999.9 1307.21   4
  -4  10  -5 34712.2 2284.07   1
   6 -10  -5 32008.0 1443.47   2
   6 -10  -5 36813.9 1344.36   1
  -4  10  -5 33727.5 1370.17   3
   4   6  -5 33687.9 2050.15   1
 -10   4  -5 33607.1 2048.37   2
 -10   4  -5 30471.7 1654.44   4
  -6  -4  -5 33612.6 2062.77   2
   6 -10  -5 34740.9 1830.82   3
  -4  10  -5 35701.0 1613.18   4
  -6  -4  -5 33595.2 1390.09   1
  -4  10  -2 36922.7 1245.40   2
  -4  10  -2 38796.4 1607.47   4
   6 -10  -2 33588.5 609.095   1
  -4  10  -2 39913.7 1306.92   3
   6 -10  -2 37062.2 1306.16   2
  -6  -4  -2 36348.3 1081.75   1
  -6  -4  -2 38314.6 1091.30   3
 -10   4  -2 36202.5 1678.58   4
 -10   4  -2 33342.3 1695.96   2
  -6  -4  -2 36564.5 1469.22   4
  -6  -4  -2 33048.3 1728.03   2
  -4  10  -2 38891.5 1811.08   1
  10  -6  -2 38292.8 1313.58   2
   6 -10  -2 36195.8 1466.79   4
  10  -6  -2 37544.6 1424.52   4
   4   6  -2 34070.2 1305.48   3
 -10   4  -2 39514.0 1354.63   1
   4   6  -2 41602.9 1649.88   1
  10  -6  -2 38565.4 1228.35   1
   6 -10  -2 35999.2 1511.46   3
   6 -10   1 8547.49 906.308   4
  10  -6   1 7888.81 692.556   1
  -6  -4   1 8346.31 840.328   1
   6 -10   1 8532.92 650.995   3
  10  -6   1 9186.16 1019.41   2
  -6  -4   1 6801.02 676.833   3
   4   6   1 7525.82 507.210   1
 -10   4   1 8632.27 845.325   4
 -10   4   1 7256.27 631.057   1
   4   6   1 7419.40 651.559   3
  10  -6   1 8498.20 929.877   4
   6 -10   1 8758.80 710.484   2
  -4  10   1 7771.23 771.642   3
 -10   4   1 7940.11 664.440   2
  10  -6   1 8954.64 569.937   3
   4   6   4 22280.6 1248.55   3
   6 -10   4 24211.3 1505.78   4
  -4  10   4 22038.7 1563.33   3
  10  -6   4 24719.9 1510.59   4
   6 -10   4 24200.5 1064.78   3
 -10   4   4 23261.4 982.784   4
   6 -10   4 24165.2 1490.26   2
 -10   4   4 22961.8 1540.07   1
  -6  -4   7 3580.87 521.125   4
 -10   5  -9 12597.3 982.247   3
 -10   5  -9 11773.9 1718.88   2
  10  -5  -9 11558.5 1161.33   2
 -10   5  -9 12964.0 1465.19   4
   5 -10  -9 11999.2 1556.78   3
  -5  10  -9 14004.2 2267.03   1
  -5  -5  -9 11986.1 1139.99   3
   5   5  -9 12094.8 1772.58   1
  -5  10  -9 14372.4 1218.87   4
  -5  10  -9 12804.9 1195.57   2
  -5  -5  -9 12475.9 1340.39   4
  -5  -5  -9 12883.5 1835.58   2
  10  -5  -9 13200.8 1630.72   1
   5 -10  -9 10597.4 1283.64   1
   5 -10  -6 15474.6 1364.08   3
  -5  10  -6 16440.1 1915.95   1
 -10   5  -6 13682.9 1236.81   4
  -5  10  -6 13134.0 963.449   3
  10  -5  -6 14672.9 750.078   2
  -5  -5  -6 13648.7 1073.17   4
  10  -5  -6 15821.4 1290.29   1
 -10   5  -6 12365.2 569.915   3
 -10   5  -6 14451.7 1532.90   2
  -5  10  -6 14565.1 1083.96   2
  -5  -5  -6 16082.1 1019.71   3
   5 -10  -6 14884.9 1024.92   1
  -5  10  -6 15949.2 1183.48   4
   5 -10  -6 13292.2 922.093   4
   5   5  -6 15899.9 1660.78   1
 -10   5  -6 12757.6 508.682   3
  -5  -5  -6 12423.6 1484.68   2
   5   5  -3 36938.0 1469.87   3
   5   5  -3 40430.1 1807.96   1
  10  -5  -3 39478.8 1213.52   2
  -5  -5  -3 37985.8 1533.59   4
   5 -10  -3 39547.0 1440.95   2
 -10   5  -3 39048.7 1771.63   4
 -10   5  -3 36882.3 1861.15   2
  -5  10  -3 39786.2 1655.09   4
  10  -5  -3 40937.3 1436.79   1
  -5  -5  -3 39755.4 1145.78   1
  -5  10  -3 39047.2 1387.86   2
  -5  10  -3 41988.3 1332.98   3
   5 -10  -3 38672.9 658.169   1
   5 -10  -3 38021.4 1646.81   3
   5 -10  -3 37800.7 1452.71   4
  10  -5  -3 39805.3 1292.39   4
  -5  -5  -3 41563.9 1225.66   3
 -10   5  -3 43914.8 1581.15   1
   5 -10   0 56257.5 1872.38   4
  -5  10   0 59702.4 1571.43   2
 -10   5   0 57680.8 1858.64   4
  10  -5   0 61232.6 1902.20   4
  10  -5   0 55594.2 1910.71   2
  -5  -5   0 57656.9 1571.40   1
  -5  -5   0 59896.0 1497.67   3
   5   5   0 54809.3 1433.66   3
  -5  10   0 58355.6 1650.88   3
   5   5   0 59450.4 1404.08   1
  10  -5   0 58082.2 1458.15   1
   5 -10   0 61161.8 1635.43   2
 -10   5   0 58613.4 1425.93   1
  -5  10   0 61948.0 1901.84   4
 -10   5   0 58092.2 1747.25   2
   5 -10   0 55304.2 1471.15   3
 -10   5   3 44166.0 1741.58   1
  -5  10   3 38540.1 1815.62   3
   5 -10   3 39389.2 1604.92   2
  10  -5   3 37121.9 2051.54   2
  -5  -5   3 36604.5 2008.57   1
  -5  -5   3 36202.3 1524.10   3
 -10   5   3 37366.1 1315.48   4
  -5  -5   3 37977.8 721.506   2
  10  -5   3 40150.1 1781.10   4
   5   5   3 42095.3 1416.64   3
 -10   5   3 40957.7 1094.56   2
   5 -10   3 39830.3 1302.22   3
   5 -10   3 40799.8 1785.37   4
   5 -10   6 13871.7 1254.71   4
  -5  -5   6 15005.4 907.542   4
   5 -10   6 16264.7 1491.39   2
   4 -10 -10 18214.1 1844.42   3
 -10   6 -10 20277.0 2082.73   2
 -10   6 -10 18916.1 1747.68   4
  10  -4 -10 19389.9 1936.44   1
  -6  10 -10 19797.4 2697.89   1
  -4  -6 -10 21377.2 1593.15   4
  -6  10 -10 16048.5 1328.58   4
  -4  -6 -10 17665.6 1450.67   3
  -4  -6 -10 19361.7 2253.57   2
 -10   6 -10 19058.0 1310.65   3
   4 -10 -10 16313.1 1882.54   2
   4 -10 -10 17188.4 1613.62   1
   6   4 -10 18870.9 2209.43   1
  -4  -6 -10 19870.0 2144.41   1
  -6  10 -10 16545.3 1533.08   2
   4 -10  -7 4257.59 874.961   1
  -6  10  -7 2358.14 633.339   3
  10  -4  -7 3555.79 441.754   2
  -6  10  -7 3257.14 814.759   2
  -6  10  -7 5008.54 854.007   4
   6   4  -7 3722.55 1112.47   1
 -10   6  -7 4910.34 1033.09   4
  -4  -6  -7 5097.86 748.259   3
 -10   6  -7 3599.45 415.590   3
  -4  -6  -7 4526.79 1188.54   2
 -10   6  -7 4870.57 1159.33   2
 -10   6  -7 3676.23 546.080   3
  -6  10  -7 4496.16 1448.28   1
  10  -4  -7 5853.49 1033.03   1
  -4  -6  -7 3822.18 754.554   4
   4 -10  -7 4486.05 937.551   3
   4 -10  -7 3023.13 603.254   4
  -4  -6  -4 20484.6 883.053   1
   4 -10  -4 19326.7 1290.01   3
  -6  10  -4 21564.8 1332.08   4
  10  -4  -4 20182.7 821.022   2
  -6  10  -4 22452.6 1005.14   3
  -4  -6  -4 19445.6 1009.01   3
   4 -10  -4 20000.2 777.548   1
  -4  -6  -4 20985.8 1178.68   4
 -10   6  -4 18738.6 1338.09   4
  -6  10  -4 22037.6 1191.40   2
  10  -4  -4 21017.1 1213.75   1
   6   4  -4 17308.0 1351.68   1
  10  -4  -4 22081.3 900.725   4
 -10   6  -4 19344.7 1455.41   2
   4 -10  -4 20533.0 1118.67   4
   4 -10  -1 6902.07 716.979   3
  -4  -6  -1 6600.51 583.204   3
  -6  10  -1 6233.89 637.299   2
   6   4  -1 8717.63 711.279   1
   4 -10  -1 7598.72 813.309   4
   4 -10  -1 7189.93 660.971   2
  10  -4  -1 7734.32 775.601   2
 -10   6  -1 7129.25 608.820   1
  10  -4  -1 6522.45 733.270   4
  -4  -6  -1 7617.39 560.595   1
 -10   6  -1 6025.62 820.272   4
  10  -4  -1 7059.41 625.502   1
   6   4  -1 6638.29 639.148   3
  -6  10  -1 7282.10 652.116   3
  -6  10  -1 6597.79 818.582   4
 -10   6  -1 8139.22 872.081   2
  -6  10   2 32094.9 746.360   1
  -6  10   2 36871.0 1628.04   3
  -6  10   2 37909.4 1440.63   4
   4 -10   2 35840.5 1318.46   2
   4 -10   2 39119.5 1273.92   3
  -4  -6   2 35998.2 1742.40   1
   6   4   2 39717.3 1232.62   3
 -10   6   2 35990.6 1305.18   1
 -10   6   2 37870.6 1437.00   4
  10  -4   2 35168.1 1605.96   4
  -4  -6   2 36437.6 1404.18   3
  10  -4   2 35994.7 1889.35   2
   6   4   2 37296.5 1179.17   1
   4 -10   2 35897.9 1597.07   4
  -4  -6   2 37713.8 888.310   2
 -10   6   2 36847.8 1135.85   2
   6   4   5 35558.5 1537.94   3
   4 -10   5 38108.6 1507.87   3
 -10   6   5 32418.7 940.373   4
  10  -4   5 34729.5 1773.30   4
   4 -10   5 37430.8 1819.32   2
   4 -10   5 36588.7 1763.85   4
  -4  -6   5 34952.6 1359.74   4
 -10   6   5 37556.8 2088.39   1
  -4  -6   8 10427.2 833.415   4
   4 -10   8 10131.7 1206.23   4
 -10   7 -11 3219.70 1161.14   4
  -7  10 -11-921.803 1830.75   1
   3 -10 -11 612.172 962.726   1
  -3  -7 -11 2205.35 924.578   3
   7   3 -11 430.228 1325.07   1
  -3  -7 -11 1126.66 1218.21   1
  10  -3 -11 1395.35 1195.71   1
   3 -10 -11 1612.04 1299.86   2
   3 -10 -11 3967.27 1338.50   3
 -10   7 -11 2137.32 1780.90   1
  -3  -7 -11 2376.39 1464.00   2
 -10   7 -11 1381.89 1173.35   2
  -7  10 -11 759.797 885.642   2
  -3  -7  -8 44861.3 2590.17   1
  -7  10  -8 45544.8 3276.60   1
 -10   7  -8 44426.1 2315.81   4
   3 -10  -8 42742.5 2050.27   1
   3 -10  -8 40243.2 1433.77   4
  10  -3  -8 31296.5 1178.28   2
   3 -10  -8 34875.6 1404.61   4
   3 -10  -8 43844.5 2298.62   3
  -3  -7  -8 41093.5 1874.55   3
 -10   7  -8 46356.0 2579.93   2
  -3  -7  -8 42260.0 1883.46   4
  10  -3  -8 33526.8 969.854   2
   7   3  -8 44710.7 2707.12   1
  -7  10  -8 42662.9 2010.11   4
  -3  -7  -8 41663.3 2674.89   2
  10  -3  -8 44721.1 2526.41   1
  -7  10  -8 41121.4 2093.16   2
 -10   7  -8 38933.9 1201.56   3
 -10   7  -5 5338.59 973.842   2
  -7  10  -5 6351.16 882.062   4
  10  -3  -5 7261.30 952.356   1
  -3  -7  -5 5166.76 733.611   4
  -3  -7  -5 5738.20 577.019   1
   3 -10  -5 4753.76 690.114   4
  -7  10  -5 5507.61 610.416   3
   3 -10  -5 4099.37 813.691   3
  -3  -7  -5 5959.47 759.823   3
   3 -10  -5 7339.57 727.363   1
  10  -3  -5 5652.05 436.271   2
   7   3  -5 5240.17 1052.70   1
 -10   7  -5 5830.13 924.942   4
  -7  10  -5 5335.38 809.788   2
 -10   7  -5 4869.99 320.625   3
  -7  10  -2 52852.2 1928.65   4
   3 -10  -2 50078.3 1657.65   3
  -3  -7  -2 51777.6 1480.29   3
  10  -3  -2 50485.0 1490.79   2
   3 -10  -2 49436.7 1696.00   4
   7   3  -2 52026.5 1617.22   3
  -7  10  -2 49176.5 1590.95   2
  10  -3  -2 52782.6 1555.18   1
 -10   7  -2 56204.0 1630.57   1
 -10   7  -2 51797.3 1962.22   4
  -3  -7  -2 49949.3 1079.21   1
   7   3  -2 49648.5 1677.04   1
 -10   7  -2 51922.5 1918.80   2
   3 -10  -2 51563.2 1620.83   2
  -7  10  -2 49608.2 1340.89   3
  10  -3  -2 49510.1 1515.33   4
  -7  10   1 10903.8 943.194   3
   3 -10   1 11639.6 778.445   3
  10  -3   1 12068.1 1156.72   2
  -7  10   1 12418.3 821.386   2
   7   3   1 11130.3 702.744   1
  -7  10   1 13481.8 502.258   1
  10  -3   1 12431.6 551.443   3
 -10   7   1 12300.7 789.453   2
  10  -3   1 9921.73 937.174   4
   7   3   1 12619.9 691.344   3
  10  -3   1 10569.2 761.571   1
 -10   7   1 11517.4 954.949   4
  -7  10   1 12200.2 958.323   4
  -3  -7   1 8797.09 919.250   1
  -3  -7   1 12341.4 825.835   3
 -10   7   1 12757.5 725.062   1
   3 -10   1 11475.0 978.023   4
   3 -10   1 12364.5 805.922   2
   3 -10   4 120534. 2934.16   4
  10  -3   4 121902. 3073.24   4
 -10   7   4 120474. 2137.49   4
  -3  -7   4 121868. 2583.32   4
   3 -10   4 120978. 2536.81   3
  -7  10   4 122901. 2483.24   1
  -3  -7   4 117290. 2753.12   3
 -10   7   4 123146. 3062.21   1
  -3  -7   4 120393. 1818.20   2
   3 -10   4 123101. 2771.96   2
   7   3   4 119695. 2274.60   3
   3 -10   7 983.083 796.235   4
   3 -10   7 822.558 863.811   2
  -3  -7   7 128.310 541.017   4
  -8  10  -9 19371.6 2512.58   1
  -8  10  -9 13745.0 1442.06   2
  10  -2  -9 14850.5 1734.67   1
   2 -10  -9 13911.2 1529.62   3
   8   2  -9 16326.5 1920.27   1
  -8  10  -9 14420.7 1372.55   4
  -2  -8  -9 11650.1 1150.48   4
   2 -10  -9 10473.4 922.273   4
   2 -10  -9 12910.0 1718.66   2
  -2  -8  -9 13854.5 1632.52   1
   2 -10  -9 13109.1 1435.72   1
  -2  -8  -9 15173.9 1354.12   3
  -2  -8  -9 13767.9 1844.62   2
 -10   8  -9 13385.9 1581.52   2
 -10   8  -9 17648.9 1632.63   4
  10  -2  -6 1090.22 200.178   2
  10  -2  -6 708.653 197.807   2
   2 -10  -6 1477.69 709.339   3
 -10   8  -6 1690.41 339.801   3
  -2  -8  -6 2331.81 599.825   4
  -8  10  -6 2347.47 514.741   3
   8   2  -6 3350.47 993.515   1
 -10   8  -6 2699.25 871.893   4
  10  -2  -6 2090.07 805.997   1
   2 -10  -6 1780.71 678.495   1
 -10   8  -6 2149.85 840.463   2
  -8  10  -6 2298.64 759.208   2
  -8  10  -6 2174.01 766.676   4
  -2  -8  -6 1941.36 596.290   3
 -10   8  -3 29606.0 763.973   3
   2 -10  -3 35053.1 1470.41   3
  -2  -8  -3 32909.4 1273.02   3
  -2  -8  -3 33570.6 857.392   1
   8   2  -3 31261.6 1399.27   3
  -8  10  -3 33450.8 1067.33   3
   8   2  -3 31188.2 1514.55   1
  10  -2  -3 31695.2 1401.00   1
 -10   8  -3 33721.0 1724.70   4
  -8  10  -3 34416.3 1473.00   2
  10  -2  -3 31663.9 1054.62   2
 -10   8  -3 30102.1 1599.42   2
  -8  10  -3 31596.1 1620.58   4
  -8  10   0 14372.2 951.790   3
  10  -2   0 13643.8 789.779   1
  -8  10   0 14617.8 870.685   2
   2 -10   0 15897.7 896.000   3
  -2  -8   0 14458.5 870.698   3
 -10   8   0 14426.4 757.966   1
   8   2   0 14018.5 750.986   3
  -2  -8   0 12527.3 842.969   1
  10  -2   0 12573.4 722.343   3
  10  -2   0 17743.3 1210.23   2
 -10   8   0 14588.6 923.737   2
   8   2   0 13001.8 761.724   1
   2 -10   0 12741.5 824.561   2
   2 -10   0 13927.8 1029.66   4
 -10   8   0 14582.5 1095.59   4
  -8  10   0 13522.6 670.609   1
  10  -2   0 12104.0 949.903   4
  -8  10   0 14365.2 1110.08   4
 -10   8   3 28319.6 1230.68   4
 -10   8   3 31985.4 1417.99   1
   8   2   3 31124.3 1013.08   3
  10  -2   3 30962.1 1567.00   4
  10  -2   3 32098.0 1937.22   2
   2 -10   3 30220.0 1227.92   2
   2 -10   3 28857.3 1237.21   3
 -10   8   3 30471.3 1142.38   2
  -2  -8   3 26876.0 1831.63   1
  -2  -8   3 27124.0 1299.37   3
   2 -10   3 29515.4 1485.24   4
  -2  -8   3 30774.6 969.872   2
  -8  10   3 31286.7 1289.08   4
  -8  10   3 28909.1 1099.83   1
  -2  -8   3 28859.9 1349.04   4
  -2  -8   6 14811.4 940.209   2
   2 -10   6 16819.7 1317.07   2
   2 -10   6 16071.0 1300.94   4
  -2  -8   6 15544.8 1084.77   4
 -10   9 -10 3848.52 1162.95   2
   1 -10 -10 4646.98 1194.60   1
  -9  10 -10 2972.72 1720.41   1
   1 -10 -10 2014.99 915.719   3
 -10   9 -10 6466.49 1242.85   4
 -10   9 -10 1726.56 1672.82   1
  -1  -9 -10 3005.47 920.233   3
   1 -10 -10 5117.72 1333.04   2
   9   1 -10 4515.18 1468.01   1
  10  -1 -10 4506.51 1414.66   1
  -1  -9 -10 3635.17 1367.49   2
  -1  -9 -10 5324.17 1034.88   4
  -1  -9 -10 3219.84 1135.27   1
  -9  10 -10 4814.33 1227.86   2
  -9  10 -10 4116.56 1012.78   4
  10  -1  -7 16143.7 1582.53   1
 -10   9  -7 14544.8 1383.15   4
  -1  -9  -7 10570.4 982.865   4
   9   1  -7 18605.2 1736.48   1
  -1  -9  -7 14113.0 1186.43   3
  -9  10  -7 12793.6 861.005   3
   1 -10  -7 14276.8 1294.68   1
   1 -10  -7 13785.2 1253.84   3
   1 -10  -7 13932.1 1020.39   4
  -1  -9  -7 15568.4 1413.49   1
  -9  10  -7 15476.0 1399.07   4
 -10   9  -7 15039.0 810.158   3
 -10   9  -7 15051.1 1469.65   2
  -9  10  -7 14872.9 1432.23   2
  -9  10  -4 15379.3 1193.08   2
   1 -10  -4 15978.1 1152.64   3
 -10   9  -4 16825.4 652.505   3
  -9  10  -4 18109.2 795.711   3
  -1  -9  -4 17316.2 662.728   1
  10  -1  -4 14542.9 1125.75   1
   1 -10  -4 14110.2 775.696   1
  -1  -9  -4 17071.7 1099.19   3
   1 -10  -4 15600.7 543.661   1
 -10   9  -4 16387.8 1307.13   4
   9   1  -4 18408.8 1330.44   1
  -9  10  -4 16783.4 1317.66   4
 -10   9  -4 17231.5 1331.55   2
 -10   9  -1 3231.08 504.916   1
   1 -10  -1 3144.09 565.112   2
  -9  10  -1 3306.04 555.805   3
 -10   9  -1 3041.24 517.237   3
   1 -10  -1 4273.64 603.300   3
  -9  10  -1 3163.03 591.567   2
  -1  -9  -1 3221.53 473.488   1
   9   1  -1 4192.94 575.890   3
   1 -10  -1 3767.25 452.265   1
  10  -1  -1 3991.03 698.743   2
  10  -1  -1 3030.71 508.625   3
  10  -1  -1 4197.24 693.573   4
 -10   9  -1 4587.04 686.411   2
  -9  10  -1 3462.68 735.367   4
   9   1  -1 3951.08 582.577   1
  10  -1  -1 2862.52 519.667   1
  -9  10  -1 4793.05 543.341   1
 -10   9  -1 2698.01 702.749   4
  -1  -9  -1 2233.41 489.845   3
  -1  -9   2 7838.39 1103.51   1
  -1  -9   2 9250.86 622.660   2
   1 -10   2 7156.53 835.813   4
  10  -1   2 9175.62 463.887   3
   9   1   2 8165.74 1094.40   2
 -10   9   2 7854.45 663.291   2
 -10   9   2 9058.42 671.962   1
   1 -10   2 5810.66 679.565   3
  -9  10   2 8427.07 724.225   2
  -1  -9   2 7751.15 746.692   3
  -9  10   2 8738.15 608.005   1
   9   1   2 6740.33 687.098   1
  -1  -9   2 7889.36 819.299   4
   1 -10   2 9159.95 699.393   2
  10  -1   2 7475.81 866.131   4
  10  -1   2 7623.24 1105.16   2
 -10   9   2 8012.78 808.998   4
   9   1   2 8309.34 555.651   3
  -9  10   2 8715.13 847.744   4
  10  -1   2 7900.87 757.297   1
   1 -10   5 8750.83 969.989   4
   1 -10   5 7763.08 906.338   2
 -10   9   5 6207.97 1014.40   1
   1 -10   5 7802.28 892.420   3
  -1  -9   5 9527.33 950.661   4
  -1  -9   5 7886.46 773.466   2
 -10   9   5 9272.57 668.378   4
  -9  10   5 7463.27 989.187   1
   1 -10   8 342.013 774.396   4
   1 -10   8-449.792 836.641   2
  -1  -9   8 685.331 731.043   4
   0 -10 -11 1390.65 1094.21   1
   0 -10 -11-1149.01 979.095   3
 -10  10 -11 3171.05 2106.77   1
  10   0 -11-461.939 1254.25   1
 -10  10 -11 62.3138 957.934   4
   0 -10 -11 1255.51 1321.03   2
 -10  10 -11-166.374 1086.96   2
 -10  10  -8 29677.0 1238.14   3
   0 -10  -8 28637.2 1801.95   3
   0 -10  -8 30272.2 1545.75   4
 -10  10  -8 36873.8 2134.53   4
  10   0  -8 36197.5 2408.38   1
 -10  10  -8 30497.2 2061.38   2
   0 -10  -8 34464.3 2002.77   1
   0 -10  -5 616.825 576.969   3
 -10  10  -5-20.5237 351.577   3
 -10  10  -5 22.8498 665.600   2
 -10  10  -5 885.976 638.063   4
   0 -10  -5 172.705 295.639   1
  10   0  -5 11.7614 673.369   1
  10   0  -2 123353. 2561.25   3
   0 -10  -2 117425. 2374.71   3
  10   0  -2 121452. 2526.92   1
  10   0  -2 121369. 2228.15   2
 -10  10  -2 117495. 2649.01   2
 -10  10  -2 123425. 2070.75   3
   0 -10   1-212.676 517.548   4
 -10  10   1-114.605 304.659   1
  10   0   1-85.6733 371.404   1
 -10  10   1 634.198 566.874   4
  10   0   1-231.546 666.442   2
   0 -10   1-155.943 439.379   3
 -10  10   1 576.290 442.954   2
  10   0   1 205.839 285.244   3
   0 -10   1 271.190 351.506   2
  10   0   1 654.799 556.965   4
   0 -10   1 263.027 594.957   1
  10   0   4 147817. 2022.86   3
   0 -10   4 158648. 2793.47   2
   0 -10   4 151539. 3078.85   3
   0 -10   4 149595. 3223.45   4
 -10  10   4 157037. 2695.17   4
 -10  10   4 150102. 3064.19   1
   0 -10   7 547.572 702.537   4
   0 -10   7 288.336 730.247   2
  11 -11 -11-1989.80 1342.19   3
   0  11 -11 2050.29 1766.44   1
  11 -11 -11 1644.33 1076.96   1
 -11   0 -11-1690.40 1318.50   4
 -11   0 -11-693.204 1437.74   2
 -11   0  -8 9076.79 1291.23   4
   0  11  -8 7998.67 1638.31   1
   0  11  -8 6593.93 637.206   2
  11 -11  -8 10793.4 1629.55   3
  11 -11  -8 9114.96 1124.57   1
 -11   0  -8 7902.20 1640.55   2
 -11   0  -8 7451.75 671.890   3
 -11   0  -5-666.606 702.691   4
   0  11  -5 1285.83 915.048   1
  11 -11  -5 811.904 853.019   3
  11 -11  -5 184.635 474.516   1
 -11   0  -5 341.726 914.750   2
 -11   0  -5 172.861 254.157   3
   0  11  -5 233.344 353.734   2
  11 -11  -5 552.037 512.871   2
  11 -11  -5-524.332 579.426   4
  11 -11  -2 11911.9 942.673   2
 -11   0  -2 11193.1 833.801   1
  11 -11  -2 11846.6 1118.27   4
 -11   0  -2 10991.4 1075.12   4
  11 -11  -2 12109.2 1130.68   3
 -11   0  -2 12855.3 665.029   3
  11 -11  -2 13813.9 737.451   1
   0  11  -2 10844.7 892.413   3
 -11   0  -2 14344.2 1395.66   2
   0  11  -2 13037.2 1123.48   1
   0  11   1 75.2776 257.508   1
  11 -11   1-408.692 675.651   4
   0  11   1 425.071 568.783   3
  11 -11   1 1243.20 621.722   2
 -11   0   1 269.403 506.095   1
 -11   0   1-809.675 561.235   2
 -11   0   1 483.856 571.271   4
  11 -11   1 407.884 386.707   3
  11 -11   4 27361.6 917.325   3
 -11   0   4 25835.6 1243.55   4
 -11   0   7 9.92759 292.861   4
 -11   0   7-15.0803 307.808   4
  -1  11  -9 11704.2 922.561   2
  10 -11  -9 9909.82 1665.84   3
 -10  -1  -9 11792.7 949.689   3
   1  10  -9 14163.0 2209.23   1
   1  10  -9 9042.39 659.083   2
 -11   1  -9 11286.9 1458.39   4
 -10  -1  -9 12299.3 1459.29   4
  11 -10  -9 14460.9 1887.71   3
  10 -11  -9 12964.7 1396.75   1
 -10  -1  -9 11874.6 1879.73   2
  -1  11  -9 12030.0 2048.80   1
 -11   1  -9 10957.0 1827.38   2
 -11   1  -9 11055.5 823.817   3
  11 -10  -9 12840.4 1422.05   1
  -1  11  -6 1151.90 1054.83   1
  11 -10  -6 3340.27 593.094   4
 -11   1  -6 2111.28 769.068   4
 -10  -1  -6 3273.33 458.845   3
 -11   1  -6 2288.69 314.346   3
  10 -11  -6 2907.52 605.082   4
  -1  11  -6 1970.73 452.326   2
  11 -10  -6 3057.53 668.861   1
  11 -10  -6 1679.10 573.459   2
   1  10  -6 2467.37 407.204   2
  10 -11  -6 2423.62 626.704   1
 -10  -1  -6 2416.47 808.113   4
  11 -10  -6 2670.30 974.408   3
 -11   1  -6 3531.20 1184.51   2
 -10  -1  -6 4093.65 1271.14   2
  10 -11  -6 1910.09 885.768   3
   1  10  -6 1595.77 1008.12   1
  11 -10  -3 8102.14 1031.08   3
  10 -11  -3 8976.20 592.567   1
  10 -11  -3 7085.27 986.540   3
  10 -11  -3 7401.13 776.066   2
  10 -11  -3 8620.23 897.049   4
 -10  -1  -3 8096.23 531.586   3
  -1  11  -3 6867.57 798.223   3
 -10  -1  -3 7562.95 1251.19   2
 -10  -1  -3 8502.20 1026.22   4
  -1  11  -3 7600.99 649.570   2
 -11   1  -3 7482.38 999.321   4
 -11   1  -3 5602.00 1135.08   2
 -11   1  -3 7392.04 408.359   3
 -10  -1  -3 7998.29 737.233   1
  11 -10  -3 8286.94 648.201   1
  11 -10  -3 9084.84 908.328   4
  11 -10  -3 7200.25 732.269   2
  -1  11  -3 6847.65 1034.97   1
   1  10  -3 8938.36 1105.20   1
 -11   1  -3 6450.06 727.492   1
 -10  -1   0 1019.60 691.131   2
 -11   1   0 999.443 637.585   4
  11 -10   0 65.3087 473.003   3
   1  10   0-301.098 376.698   1
  11 -10   0 393.221 638.402   4
  11 -10   0 1236.60 453.030   1
 -11   1   0 311.213 419.148   1
   1  10   0-341.895 487.251   3
  -1  11   0 105.599 373.366   1
 -10  -1   0 447.855 434.587   3
  11 -10   0 270.699 567.523   2
  10 -11   0-31.9520 432.664   3
 -10  -1   0 561.254 421.253   1
 -11   1   0-102.651 595.830   2
 -10  -1   0-516.010 557.541   4
  10 -11   0 168.663 675.633   4
  -1  11   0 421.457 494.940   3
  10 -11   0-267.751 528.018   2
 -10  -1   3 13488.5 949.198   4
  -1  11   3 12942.1 1155.92   3
   1  10   3 12489.9 1118.62   3
  11 -10   3 13844.5 616.556   3
 -11   1   3 12601.3 922.709   4
  10 -11   3 13797.3 721.977   3
  10 -11   3 12981.8 1336.03   4
  11 -10   3 12604.3 1286.28   4
 -11   1   3 13823.9 591.503   2
  10 -11   3 13428.7 1259.87   2
 -10  -1   3 12166.0 533.326   2
 -11   1   6 2880.07 496.885   4
 -10  -1   6 3729.09 543.846   4
  -2  11 -10 3626.09 740.877   2
  -2  11 -10 5760.46 1898.55   1
  11  -9 -10 4961.46 1570.97   3
   2   9 -10 3227.26 1494.15   1
  -9  -2 -10 4930.33 806.073   3
  11  -9 -10 3955.98 1126.76   2
 -11   2 -10 4091.63 1477.48   2
   9 -11 -10 5695.50 1163.53   1
  11  -9 -10 5451.89 1192.64   1
 -11   2 -10 4567.44 1349.03   4
   9 -11 -10 4919.31 1404.67   3
  -9  -2 -10 5525.59 1251.24   4
  -9  -2 -10 2410.60 1442.19   2
  11  -9  -7 39234.0 2478.53   3
   9 -11  -7 30154.6 2123.22   3
  -9  -2  -7 37129.7 1326.14   3
   2   9  -7 28372.9 876.704   2
   9 -11  -7 37837.0 1761.49   1
 -11   2  -7 34345.1 2528.41   2
  11  -9  -7 29436.4 1359.75   2
  11  -9  -7 34727.2 1798.54   1
 -11   2  -7 31385.3 1949.75   4
   2   9  -7 33988.3 2552.76   1
 -11   2  -7 33176.4 944.345   3
  -9  -2  -7 31113.9 1884.66   4
  -2  11  -7 33841.6 1364.72   2
  -9  -2  -7 33688.9 2504.28   2
  -2  11  -7 34532.9 2750.46   1
   9 -11  -7 28409.9 1103.23   4
  -9  -2  -4 27600.5 1527.86   4
  11  -9  -4 29565.4 1234.94   1
  -9  -2  -4 30179.9 937.346   3
   9 -11  -4 33245.1 1083.24   1
  11  -9  -4 27012.5 1764.89   3
  -9  -2  -4 27376.4 1269.67   1
 -11   2  -4 29161.3 1687.26   4
  -2  11  -4 29164.9 1131.85   2
  -2  11  -4 28223.0 1342.20   3
   9 -11  -4 27570.7 1672.47   3
   9 -11  -4 29615.3 1382.99   4
   9 -11  -4 27704.3 1289.84   2
  -9  -2  -4 30995.0 2056.73   2
  11  -9  -4 31350.6 1345.65   4
 -11   2  -4 30305.3 2051.25   2
  -2  11  -4 30452.5 2060.18   1
   2   9  -4 29501.3 1927.45   1
  11  -9  -4 29035.1 1248.87   2
  11  -9  -1 68220.2 2063.64   3
   9 -11  -1 66368.0 1893.79   2
 -11   2  -1 63805.5 1664.04   1
  -2  11  -1 69791.7 1872.08   3
  -9  -2  -1 69587.4 1591.90   3
  -2  11  -1 68891.9 1742.18   2
  -9  -2  -1 74561.8 2499.94   2
 -11   2  -1 69904.4 2247.35   4
 -11   2  -1 66560.5 2340.82   2
   9 -11  -1 69708.7 1989.43   3
  11  -9  -1 71361.9 2217.22   4
  -2  11  -1 70081.1 2036.93   1
   2   9  -1 67099.8 1826.45   3
   2   9  -1 68979.6 1869.68   1
  -9  -2  -1 65565.0 1628.96   1
   9 -11  -1 68760.6 2235.23   4
  11  -9  -1 68145.5 2012.37   2
  11  -9  -1 69800.5 1582.47   1
  -9  -2   2 25385.5 1044.87   2
   9 -11   2 24591.3 957.669   3
   2   9   2 25241.5 777.076   1
  11  -9   2 23229.2 736.066   3
  -2  11   2 22983.4 1312.90   3
   9 -11   2 23806.9 1570.93   4
  -9  -2   2 21283.5 1377.64   1
 -11   2   2 23366.4 1293.81   1
  -9  -2   2 25285.1 1242.62   4
 -11   2   2 23919.9 976.400   2
  11  -9   2 23951.6 1572.13   2
   2   9   2 25280.2 1296.42   3
   9 -11   2 24223.9 1403.60   2
 -11   2   2 23987.5 1228.23   4
  11  -9   2 26465.4 1590.79   4
   9 -11   5 25062.6 1076.45   3
  -9  -2   5 23126.3 1097.78   4
 -11   2   5 26911.9 1115.14   4
   8 -11 -11 4030.55 1482.01   3
  11  -8 -11 4634.43 1611.15   3
  -8  -3 -11 1857.02 1487.05   1
   8 -11 -11 3529.44 1190.45   1
   8 -11 -11 5434.06 1585.96   2
  11  -8 -11 4404.87 1226.39   1
  -3  11 -11 6576.38 2242.80   1
 -11   3 -11 5829.38 1517.35   4
   3   8 -11 6984.83 2009.34   1
  -8  -3 -11 4205.34 1684.21   2
 -11   3 -11 7771.20 1851.82   2
   8 -11  -8 3844.66 355.430   4
   8 -11  -8 7322.67 1039.78   1
 -11   3  -8 4743.20 540.884   3
  -8  -3  -8 5416.87 1474.24   2
  -3  11  -8 5204.12 749.431   2
   3   8  -8 3416.50 333.412   2
   8 -11  -8 4685.81 1124.11   3
  -8  -3  -8 5497.93 760.564   3
  -3  11  -8 7717.55 1815.04   1
 -11   3  -8 4963.90 1115.14   4
  -8  -3  -8 4823.52 1025.71   4
   3   8  -8 4990.18 1337.80   1
 -11   3  -8 4653.15 492.774   3
  11  -8  -8 6263.84 1062.41   1
 -11   3  -8 5283.76 1393.20   2
   8 -11  -8 3688.63 418.858   4
  11  -8  -8 4077.32 671.188   2
   8 -11  -5 25156.1 1705.85   3
  -8  -3  -5 26882.8 1547.05   4
  -3  11  -5 25989.2 1168.80   2
   8 -11  -5 28527.0 1130.18   1
  11  -8  -5 26042.9 1329.88   1
 -11   3  -5 23952.1 1573.65   4
   8 -11  -5 26732.8 1252.05   4
 -11   3  -5 25980.4 1968.62   2
   3   8  -5 28681.1 1993.66   1
  11  -8  -5 27344.6 1075.65   4
  11  -8  -5 25047.0 1144.53   2
  -3  11  -5 27680.0 2136.84   1
  -8  -3  -5 25588.1 1262.45   1
  -8  -3  -5 25462.9 2009.20   2
  -8  -3  -5 24745.0 983.987   3
  -3  11  -5 27509.4 1473.88   4
  -3  11  -2 69659.9 2428.04   1
  -8  -3  -2 64340.9 1572.44   1
   8 -11  -2 73872.5 2215.86   3
  -3  11  -2 70032.8 1701.35   2
  -3  11  -2 67015.1 1813.66   3
   3   8  -2 68857.3 1903.83   3
   8 -11  -2 66004.7 1808.85   2
 -11   3  -2 70598.0 1800.74   1
  -8  -3  -2 68847.5 1475.64   3
  11  -8  -2 68301.9 1858.43   2
  11  -8  -2 71343.3 2255.85   3
  11  -8  -2 73313.2 2115.51   4
  -8  -3  -2 67227.8 2532.16   2
 -11   3  -2 67603.8 2322.04   4
  11  -8  -2 70747.8 1621.73   1
   3   8  -2 70743.4 2201.93   1
  -3  11  -2 72188.8 2181.36   4
 -11   3  -2 68651.3 2523.40   2
   8 -11  -2 67720.6 2081.59   4
  -8  -3  -2 64544.4 2080.94   4
   8 -11  -2 68460.1 1123.99   1
   8 -11   1 12130.5 936.682   2
   3   8   1 13221.6 638.569   1
  -3  11   1 9607.36 389.987   1
   3   8   1 13161.8 881.458   3
  -8  -3   1 11723.9 944.737   1
  -8  -3   1 14738.8 1003.53   4
  11  -8   1 14920.5 1226.64   4
  -8  -3   1 14240.7 914.877   3
   8 -11   1 12292.7 754.587   3
  11  -8   1 12642.4 683.857   3
 -11   3   1 12780.9 841.778   1
   8 -11   1 11252.4 1130.02   4
  -3  11   1 13088.1 1009.07   3
 -11   3   1 12459.7 880.743   2
  -8  -3   1 13399.9 978.765   2
  11  -8   1 13131.8 1116.45   2
 -11   3   1 13861.3 1023.62   4
   8 -11   4 21425.2 987.178   3
   8 -11   4 23157.9 1620.56   4
   8 -11   4 19035.6 1490.21   2
   3   8   4 22951.8 1351.89   3
 -11   3   4 21932.4 1065.65   4
  -8  -3   7 4514.57 534.745   4
  -8  -3   7 3522.01 476.007   4
 -11   4  -9 4551.56 636.825   3
   7 -11  -9 4982.68 1256.17   3
  -4  11  -9 3628.03 768.727   2
  -7  -4  -9 4025.53 774.914   3
  -4  11  -9 4882.58 1752.64   1
  -7  -4  -9 4579.97 1148.01   4
  11  -7  -9 3671.83 945.342   2
  11  -7  -9 3541.98 1092.18   1
  -7  -4  -9 5679.22 1522.90   2
   7 -11  -9 5599.11 1041.15   1
 -11   4  -9 5074.69 1415.63   2
 -11   4  -9 4511.88 1104.50   4
   4   7  -9 4577.35 1525.72   1
  11  -7  -6 155.358 578.651   1
  -4  11  -6 2010.40 1209.95   1
  -4  11  -6 1456.17 563.217   2
  11  -7  -6 582.234 440.128   2
  -7  -4  -6 962.774 629.461   4
   7 -11  -6 285.301 481.963   1
  -7  -4  -6 730.732 457.138   3
  -7  -4  -6 667.656 1054.33   2
  -4  11  -6-17.7338 598.554   4
 -11   4  -6-437.389 672.331   4
   7 -11  -6-131.506 779.369   3
   7 -11  -6 744.683 496.289   4
 -11   4  -6 1577.43 998.112   2
   4   7  -6 2538.23 1081.67   1
  -4  11  -3 29935.6 1922.41   1
   4   7  -3 28369.7 1612.45   1
  -4  11  -3 31170.0 1548.98   4
  -7  -4  -3 30112.6 1833.04   2
  -7  -4  -3 29691.2 1017.43   3
 -11   4  -3 30116.5 1639.83   4
  -4  11  -3 29636.4 1187.87   2
   7 -11  -3 28706.9 1546.54   3
   7 -11  -3 28636.5 1271.63   2
  -7  -4  -3 27438.4 1409.20   4
   4   7  -3 28690.1 1370.32   3
  -7  -4  -3 27157.9 1058.89   1
 -11   4  -3 28225.6 1753.10   2
   7 -11  -3 29971.9 703.435   1
 -11   4  -3 28802.9 1298.93   1
  11  -7  -3 30963.3 1304.68   4
   7 -11  -3 29302.6 1376.25   4
  -4  11  -3 28110.3 1235.96   3
  11  -7  -3 30281.3 1198.41   2
  11  -7  -3 30358.7 1231.42   1
  11  -7   0 4710.51 578.038   1
  -7  -4   0 4663.27 597.767   1
  -4  11   0 4954.51 679.900   3
   7 -11   0 5333.48 614.278   3
 -11   4   0 6192.21 759.460   2
  -4  11   0 4644.19 619.300   1
   4   7   0 4483.14 584.482   3
   4   7   0 4733.26 539.109   1
  -7  -4   0 4880.34 590.785   3
  11  -7   0 5115.05 798.966   2
  -4  11   0 3526.41 560.706   2
 -11   4   0 5524.37 778.787   4
  -4  11   0 5125.90 735.989   4
  -7  -4   0 4922.93 793.867   2
   7 -11   0 5406.02 812.348   4
  11  -7   0 4892.49 676.912   3
   7 -11   0 5529.23 638.185   2
 -11   4   0 4434.18 534.006   1
  11  -7   0 6075.48 880.442   4
  -4  11   3 16509.1 1291.76   3
 -11   4   3 15467.2 1203.89   1
 -11   4   3 15759.9 975.289   4
   4   7   3 16480.8 1054.88   3
  11  -7   3 17418.1 1545.54   2
  -7  -4   3 13202.6 573.605   2
  -7  -4   3 12751.5 393.596   2
 -11   4   3 17669.4 726.756   2
  11  -7   3 16856.2 1357.62   4
   7 -11   3 14837.8 1149.89   2
  -7  -4   3 13977.2 1354.41   1
   7 -11   3 17240.2 1334.80   4
   7 -11   3 14884.1 834.688   3
  -7  -4   6 2223.17 522.232   4
 -11   4   6 2132.12 290.737   4
  -5  11 -10 9923.94 1168.93   2
 -11   5 -10 13000.1 1607.33   4
  -6  -5 -10 10557.7 1118.96   3
   5   6 -10 9924.23 1861.42   1
  11  -6 -10 12721.1 1577.27   1
  -6  -5 -10 11665.7 1436.53   4
   6 -11 -10 11262.7 1331.14   1
  -6  -5 -10 10582.1 1780.19   1
  -6  -5 -10 12586.8 2023.63   2
   6 -11 -10 8692.95 1476.02   2
   6 -11 -10 12504.0 1713.98   3
  -5  11 -10 15338.9 2529.87   1
 -11   5 -10 8798.92 1686.03   2
  11  -6  -7 26410.2 1073.78   2
  11  -6  -7 29229.0 1844.21   1
  -5  11  -7 27030.3 1428.04   2
  -5  11  -7 32291.3 2723.68   1
 -11   5  -7 23025.2 686.787   3
   6 -11  -7 27529.6 1899.59   3
 -11   5  -7 26040.6 1800.59   4
   6 -11  -7 25753.3 1211.89   4
  -6  -5  -7 28115.9 2221.90   2
  -6  -5  -7 28422.0 1666.31   4
 -11   5  -7 31274.2 2254.12   2
 -11   5  -7 22775.5 773.765   3
  -5  11  -7 28619.9 1598.69   4
   6 -11  -7 30724.7 1590.48   1
  -6  -5  -7 29506.3 1405.58   3
   5   6  -7 27996.0 2206.80   1
  11  -6  -4 14933.3 814.070   2
  -5  11  -4 14762.9 970.432   2
 -11   5  -4 13945.4 1424.75   2
   6 -11  -4 16253.1 633.552   1
  -6  -5  -4 13661.2 1066.45   4
  -6  -5  -4 13952.6 1368.38   2
   5   6  -4 15889.0 1387.21   1
 -11   5  -4 15319.2 1260.01   4
   6 -11  -4 15305.0 1041.97   4
  -5  11  -4 15192.1 926.017   3
  11  -6  -4 15492.2 859.672   4
   6 -11  -4 15354.1 1030.79   2
  11  -6  -4 13361.4 994.044   1
  -5  11  -4 14910.9 1135.50   4
   6 -11  -4 13974.3 1261.50   3
  -6  -5  -4 14332.7 841.139   1
  -5  11  -4 17424.3 1680.19   1
  -6  -5  -4 13554.0 797.147   3
   6 -11  -1 79976.2 2019.95   3
 -11   5  -1 79723.1 2385.35   4
  11  -6  -1 79203.3 1738.77   1
  -5  11  -1 77059.7 1822.12   2
 -11   5  -1 77752.1 2304.29   2
 -11   5  -1 79152.1 1788.58   1
   5   6  -1 77033.4 1857.36   3
  -6  -5  -1 77436.5 1675.24   1
   6 -11  -1 79777.5 1932.79   2
   5   6  -1 76602.5 1905.20   1
  11  -6  -1 80195.4 2193.46   4
  -5  11  -1 79278.6 1928.65   3
  11  -6  -1 77469.0 2125.51   2
  -6  -5  -1 77682.4 1691.05   3
  -5  11  -1 80157.7 2317.03   4
   6 -11  -1 76231.0 2221.28   4
   5   6   2 30592.8 1038.70   1
 -11   5   2 30576.6 1341.85   4
  -5  11   2 27591.8 1456.01   3
  -6  -5   2 26933.3 1553.70   1
 -11   5   2 28434.6 1280.57   1
   6 -11   2 27023.5 1302.81   2
   6 -11   2 30939.2 1153.78   3
   5   6   2 30794.9 1244.93   3
  11  -6   2 30752.1 1817.97   2
  -6  -5   2 30148.8 1337.25   3
  11  -6   2 31530.5 1659.92   4
   6 -11   2 31925.4 1619.20   4
 -11   5   2 30017.9 1053.75   2
 -11   5   5 29463.6 1047.03   4
   5   6   5 31122.5 1539.04   3
   6 -11   5 31222.3 1808.95   4
  -6  -5   5 31092.6 1296.66   4
   6 -11   5 31252.7 1373.63   3
   6 -11   5 32663.7 1866.72   2
  -6  -5   8 21306.7 969.677   4
  -6  11 -11 15765.6 1485.94   2
 -11   6 -11 20097.7 2217.67   2
 -11   6 -11 19525.3 2649.88   1
   5 -11 -11 15022.9 2049.06   2
   5 -11 -11 22583.7 2147.51   3
  -6  11 -11 21379.6 2937.62   1
   6   5 -11 23568.0 2602.52   1
  -5  -6 -11 20106.4 1578.01   3
  -5  -6 -11 17588.3 2162.84   1
  -5  -6 -11 21258.9 2506.34   2
 -11   6 -11 23423.7 2021.67   4
  11  -5 -11 19399.1 2021.84   1
   5 -11 -11 17343.0 1718.20   1
  -6  11  -8 29463.7 2812.26   1
 -11   6  -8 26634.3 1034.54   3
   5 -11  -8 25883.8 1086.04   4
  11  -5  -8 22066.3 979.589   2
 -11   6  -8 28450.1 2250.51   2
 -11   6  -8 25012.7 865.016   3
   5 -11  -8 28936.5 2030.47   3
  11  -5  -8 28583.2 1949.29   1
  11  -5  -8 26517.5 1376.64   2
  -6  11  -8 29607.3 1690.93   2
  -5  -6  -8 29875.1 1715.98   4
   6   5  -8 31887.6 2448.66   1
   5 -11  -8 22398.3 1137.33   4
 -11   6  -8 28820.0 1980.89   4
  -6  11  -8 28506.9 1643.55   4
  -5  -6  -8 27987.4 2404.94   2
   5 -11  -8 30768.3 1748.17   1
  -5  -6  -8 29684.4 1542.32   3
  11  -5  -5 29662.1 1024.21   2
  -6  11  -5 28833.0 1562.78   4
  -5  -6  -5 33288.8 1353.06   3
  -5  -6  -5 31137.2 1225.78   1
  -6  11  -5 28662.7 1388.90   2
 -11   6  -5 30775.7 1758.99   4
   5 -11  -5 29162.3 1708.91   3
  11  -5  -5 31388.6 1580.27   1
  -6  11  -5 34275.4 2378.76   1
 -11   6  -5 31606.3 1975.81   2
  -5  -6  -5 29008.9 1466.81   4
  -5  -6  -5 30864.2 1982.62   2
   5 -11  -5 27256.3 1297.95   4
   6   5  -5 28619.1 1894.82   1
  -6  11  -5 31268.6 1303.11   3
   5 -11  -5 32298.8 1185.48   1
 -11   6  -2 24313.6 1488.91   2
  11  -5  -2 27163.4 1235.04   4
 -11   6  -2 29812.5 1225.59   1
 -11   6  -2 29537.3 1586.38   4
  -6  11  -2 25691.5 1092.45   3
   5 -11  -2 26374.9 1294.08   3
  -5  -6  -2 29427.9 1086.09   3
   5 -11  -2 28787.6 1258.94   2
  11  -5  -2 28729.3 1254.59   2
  -6  11  -2 26542.1 1428.52   4
  11  -5  -2 29698.0 1165.88   1
   6   5  -2 28064.9 1230.83   3
   5 -11  -2 27555.4 1359.00   4
   6   5  -2 27203.3 1329.23   1
  -5  -6  -2 26196.9 927.467   1
  -6  11  -2 29515.6 1258.17   2
  -5  -6   1 84889.0 1990.91   3
  -6  11   1 89738.2 2349.77   3
   5 -11   1 89919.5 2062.84   2
 -11   6   1 84499.2 1911.26   2
   6   5   1 85965.6 1687.07   1
   5 -11   1 89566.9 1928.05   3
  -5  -6   1 85141.7 2328.88   1
  11  -5   1 90336.3 2027.87   1
   6   5   1 87604.8 1818.73   3
  -6  11   1 86370.5 2024.03   2
   5 -11   1 92528.1 2532.87   4
  11  -5   1 87719.2 2458.22   4
  -6  11   1 89498.1 1075.78   1
 -11   6   1 85408.1 1843.55   1
  11  -5   1 89013.2 2755.63   2
 -11   6   1 87460.6 2307.26   4
  -6  11   1 95488.9 2430.44   4
   6   5   4 17917.0 1072.10   3
   5 -11   4 18077.9 1379.92   4
   5 -11   4 17610.8 1038.33   3
 -11   6   4 16785.9 1376.25   1
  11  -5   4 16838.2 1360.95   4
   5 -11   4 17101.6 1248.73   2
 -11   6   4 17665.5 953.479   4
  -5  -6   7 22539.7 1177.53   4
  -7  11  -9 16355.0 1480.94   2
  11  -4  -9 13610.7 1610.58   1
 -11   7  -9 14932.6 984.782   3
   4 -11  -9 13848.6 923.871   4
  -4  -7  -9 16589.0 1416.69   4
 -11   7  -9 17001.0 1683.42   4
  -7  11  -9 19271.7 2534.30   1
   4 -11  -9 16397.0 1688.45   3
   4 -11  -9 17620.8 1481.08   1
  -4  -7  -9 14423.2 1740.75   1
  -7  11  -9 15908.2 1396.41   4
   7   4  -9 17011.4 2036.98   1
  -4  -7  -9 15562.3 1284.87   3
  -4  -7  -9 17197.4 2118.20   2
 -11   7  -9 16842.6 1876.52   2
  11  -4  -9 10523.5 823.419   2
  -7  11  -6 1789.14 534.782   3
  11  -4  -6 2771.91 397.476   2
  -4  -7  -6 1485.54 951.855   2
   4 -11  -6 2728.11 837.417   3
 -11   7  -6 4581.10 1088.27   2
  -4  -7  -6 2733.45 625.235   3
 -11   7  -6 2013.38 235.711   3
  -4  -7  -6 2400.77 685.015   4
   7   4  -6 2959.21 991.063   1
  -4  -7  -6 2687.57 550.958   1
   4 -11  -6 2495.69 617.443   4
   4 -11  -6 3724.71 685.342   1
  -7  11  -6 3388.85 764.729   2
  11  -4  -6 3798.86 874.429   1
 -11   7  -6 1651.26 281.032   3
 -11   7  -6 2554.00 853.124   4
  -7  11  -6 3054.64 766.666   4
   4 -11  -3 15803.4 1098.76   3
  11  -4  -3 15954.6 870.113   2
  11  -4  -3 16881.9 938.500   4
  -4  -7  -3 17275.2 916.622   3
   7   4  -3 14815.7 1172.89   1
   4 -11  -3 16530.6 1069.44   2
  -4  -7  -3 15260.3 703.026   1
   7   4  -3 15834.6 1082.26   3
  11  -4  -3 18979.0 1096.23   1
 -11   7  -3 15394.0 1304.10   2
 -11   7  -3 18362.6 1106.90   1
  -7  11  -3 18200.3 1080.60   2
  -7  11  -3 16280.6 887.828   3
 -11   7  -3 17482.0 1302.17   4
  -7  11  -3 16295.4 1204.78   4
   4 -11  -3 15889.9 1069.92   4
  -7  11   0 4040.63 573.698   2
  -4  -7   0 4162.91 585.054   3
 -11   7   0 4003.79 525.619   1
   4 -11   0 4543.95 578.504   3
   4 -11   0 3991.96 573.119   2
  11  -4   0 3980.75 692.365   4
  -7  11   0 4380.85 768.828   4
 -11   7   0 4541.64 650.718   2
   7   4   0 3659.52 524.911   3
  -7  11   0 4135.38 417.538   1
   4 -11   0 4409.70 754.651   4
  -4  -7   0 4333.58 639.654   1
  11  -4   0 3609.03 525.258   1
 -11   7   0 4209.40 756.065   4
   7   4   0 3456.97 511.052   1
  -7  11   0 4406.27 641.376   3
  11  -4   0 4759.87 872.710   2
 -11   7   3 32902.2 1357.55   4
   7   4   3 34114.7 1241.93   3
  -7  11   3 34984.7 1403.68   4
  11  -4   3 30074.5 1969.79   2
   4 -11   3 34005.3 1323.04   3
  11  -4   3 33988.3 1741.06   4
  -4  -7   3 34388.0 1493.04   3
  -4  -7   3 34568.8 2004.56   1
   4 -11   3 34494.6 1661.11   4
 -11   7   3 34744.8 1166.92   2
  -7  11   3 31115.6 1747.19   3
  -7  11   3 29421.8 950.739   1
  -4  -7   3 35994.3 910.846   2
   4 -11   3 36247.8 1488.40   2
 -11   7   3 33888.0 1558.31   1
   4 -11   6 865.555 754.463   4
 -11   7   6 145.905 212.462   4
   4 -11   6 366.969 789.255   2
  -4  -7   6 33.3215 545.728   4
   3 -11 -10 12016.5 1559.32   3
  -3  -8 -10 8805.15 1783.93   2
  -3  -8 -10 8057.44 1479.47   1
  -3  -8 -10 7801.50 1114.71   3
  11  -3 -10 10141.2 1664.61   1
   8   3 -10 8383.99 1696.01   1
  -3  -8 -10 9236.19 1181.56   4
 -11   8 -10 8347.99 1393.70   4
  -8  11 -10 9741.70 2178.40   1
  -8  11 -10 7066.55 1141.59   4
   3 -11 -10 9807.30 1354.45   1
  -8  11 -10 10074.6 1324.09   2
   3 -11 -10 7971.28 1587.64   2
 -11   8 -10 9184.80 1655.63   2
  11  -3  -7 2776.87 326.916   2
   3 -11  -7 3426.16 706.151   4
 -11   8  -7 4394.57 1092.21   2
   3 -11  -7 3919.61 830.269   1
  11  -3  -7 5824.51 1116.97   1
 -11   8  -7 4193.98 439.637   3
   3 -11  -7 5138.86 998.372   3
 -11   8  -7 4212.22 915.679   4
  -3  -8  -7 4367.10 1253.58   2
   8   3  -7 5123.54 1216.72   1
  -3  -8  -7 2465.41 686.315   4
  11  -3  -7 2326.80 360.763   2
  -8  11  -7 5596.16 953.737   4
  -8  11  -7 4111.07 715.363   3
  -3  -8  -7 4675.00 796.294   3
  -8  11  -7 4850.50 995.034   2
   3 -11  -4 20690.4 1311.46   3
   8   3  -4 19654.4 1436.22   1
  -8  11  -4 20305.0 1224.17   2
  -3  -8  -4 22073.7 1158.96   3
  -8  11  -4 21460.8 983.886   3
  -8  11  -4 20779.3 1418.72   4
   3 -11  -4 15892.6 609.524   1
  11  -3  -4 20884.2 1275.92   1
 -11   8  -4 20710.6 1470.42   4
  -3  -8  -4 19420.4 795.174   1
   3 -11  -4 21028.1 1201.90   4
 -11   8  -4 21179.8 1504.91   2
  11  -3  -4 20185.9 833.552   2
  11  -3  -1 11108.2 774.495   1
 -11   8  -1 13026.5 1157.12   4
  -8  11  -1 10684.0 782.859   3
   3 -11  -1 10450.6 816.482   3
  -8  11  -1 11571.6 879.849   2
  11  -3  -1 11333.1 920.546   4
  -3  -8  -1 12378.4 810.844   3
   8   3  -1 11724.3 815.812   3
   3 -11  -1 13023.0 885.506   2
  11  -3  -1 12664.6 1020.79   2
  -8  11  -1 10288.5 1013.39   4
   8   3  -1 11431.8 808.825   1
  -3  -8  -1 10246.2 690.147   1
 -11   8  -1 10804.5 761.649   1
 -11   8  -1 13228.4 1023.50   2
   3 -11  -1 11888.4 991.249   4
  -3  -8   2 66547.7 2409.31   1
   8   3   2 69126.9 1739.00   1
   3 -11   2 68557.2 1822.50   3
  11  -3   2 66529.5 2234.25   4
  11  -3   2 65123.5 956.167   3
  -8  11   2 67858.7 1289.30   1
  -8  11   2 70038.2 2355.39   3
  11  -3   2 67942.9 2660.73   2
  -3  -8   2 67431.8 1905.40   3
   3 -11   2 68446.6 1790.64   2
  -3  -8   2 69687.8 1397.12   2
  -8  11   2 66704.3 1829.07   2
 -11   8   2 66176.1 1632.57   2
 -11   8   2 68572.9 1766.26   1
 -11   8   2 66942.1 2007.85   4
   3 -11   2 64845.9 2143.53   4
   8   3   2 70346.5 1559.55   3
  11  -3   2 69242.9 1930.51   1
  -8  11   2 69470.1 2037.01   4
  -8  11   5 28536.9 1521.27   1
  -3  -8   5 24813.6 973.580   2
 -11   8   5 29125.4 1050.02   4
   3 -11   5 29085.2 1624.50   2
   3 -11   5 28542.9 1446.73   3
   8   3   5 29331.9 1376.04   3
 -11   8   5 27093.7 1773.77   1
  -3  -8   5 27971.5 1386.39   4
   3 -11   5 29356.0 1673.65   4
  -3  -8   8 3368.15 752.343   4
   3 -11   8 3295.89 1122.83   2
   9   2 -11 15348.5 2270.28   1
   2 -11 -11 15653.7 1786.97   3
  -2  -9 -11 14782.1 1546.71   3
  11  -2 -11 15338.2 2060.71   1
   2 -11 -11 14070.6 1554.14   1
   2 -11 -11 12258.7 2031.26   2
 -11   9 -11 19172.4 2680.02   1
  -9  11 -11 15866.9 2786.49   1
  -2  -9 -11 13288.2 1701.40   1
  -2  -9 -11 16728.3 2224.90   2
 -11   9 -11 15955.7 1726.71   4
 -11   9 -11 16759.9 1951.45   2
  -9  11 -11 12817.8 1578.62   2
   2 -11  -8 20100.3 1633.58   3
   9   2  -8 25007.9 2156.83   1
  11  -2  -8 18188.7 1732.71   1
  -9  11  -8 17586.1 1529.85   2
 -11   9  -8 18930.5 886.526   3
  -2  -9  -8 19155.1 1695.08   1
  -2  -9  -8 20443.4 1378.94   4
  -2  -9  -8 21945.8 2077.38   2
  -9  11  -8 20232.6 2430.00   1
   2 -11  -8 17415.0 1111.67   4
 -11   9  -8 20791.6 1710.99   4
  -9  11  -8 19728.6 1589.88   4
 -11   9  -8 20916.0 1847.49   2
   2 -11  -8 18520.8 1412.92   1
   2 -11  -8 14802.8 1139.95   4
  -9  11  -8 16412.0 1091.37   3
  -2  -9  -8 19399.6 1427.86   3
  -9  11  -5 22073.2 1426.26   2
  -2  -9  -5 21618.7 889.126   1
   2 -11  -5 23304.0 1444.68   3
 -11   9  -5 19377.1 658.154   3
  -2  -9  -5 21179.2 1262.48   3
 -11   9  -5 19609.3 1554.10   2
  11  -2  -5 22974.1 1487.66   1
 -11   9  -5 21743.7 1551.37   4
  -9  11  -5 22665.6 1001.84   3
   2 -11  -5 21598.1 1021.77   1
   9   2  -5 21963.9 1599.64   1
  -9  11  -5 21968.4 1495.73   4
 -11   9  -2 23203.8 881.363   3
 -11   9  -2 23488.1 1491.87   4
   2 -11  -2 23756.5 1211.35   3
  11  -2  -2 23904.1 1190.46   4
  11  -2  -2 22366.0 1139.70   2
  -2  -9  -2 22764.2 792.750   1
  -9  11  -2 24972.6 1268.27   2
  -9  11  -2 22658.7 995.762   3
   9   2  -2 21807.8 1177.86   1
  11  -2  -2 23899.4 1174.70   1
 -11   9  -2 25404.8 1188.05   1
 -11   9  -2 22445.6 1340.26   2
  -2  -9  -2 25016.3 1160.02   3
  -9  11  -2 25315.2 1464.84   4
   9   2  -2 24251.4 1213.89   3
   2 -11  -2 24844.3 1350.19   4
  -9  11   1 71266.3 2192.49   3
   9   2   1 69744.5 1710.31   1
  -9  11   1 74329.5 1352.52   1
   2 -11   1 65926.8 2129.50   4
 -11   9   1 72049.3 2231.09   4
  -9  11   1 71561.8 1827.62   2
   2 -11   1 74985.9 1886.24   3
  11  -2   1 69671.6 2493.89   2
 -11   9   1 70343.2 1570.08   1
  -2  -9   1 71651.6 1886.55   3
  11  -2   1 72930.8 1347.35   3
  -2  -9   1 71626.4 1618.39   2
   9   2   1 72225.6 1505.77   3
  -2  -9   1 69656.9 2199.43   1
   2 -11   1 70548.4 1728.45   2
  11  -2   1 70476.7 2241.87   4
  -9  11   1 72544.4 2193.17   4
  11  -2   1 72169.7 1821.34   1
 -11   9   1 72037.3 1849.86   2
   2 -11   4 33743.6 1499.24   2
 -11   9   4 36505.8 1698.20   1
  -9  11   4 30773.1 1383.54   1
   2 -11   4 32329.5 1440.51   3
  -2  -9   4 32499.0 1564.67   3
   9   2   4 32111.8 1134.77   3
   2 -11   4 33334.5 1694.05   4
  -9  11   4 33342.0 1327.72   4
 -11   9   4 32279.7 1284.27   4
  -2  -9   4 36724.9 1233.80   2
  -2  -9   4 30874.4 1478.26   4
   2 -11   7 30069.2 1808.40   4
  -2  -9   7 26722.8 1261.77   2
  -2  -9   7 27270.6 1538.88   4
 -10  11  -9 6313.50 1221.07   2
  -1 -10  -9 6788.69 1105.40   3
   1 -11  -9 5484.39 1079.49   3
 -11  10  -9 7782.13 1324.22   4
   1 -11  -9 5521.54 1396.42   2
  -1 -10  -9 6402.00 1464.86   2
   1 -11  -9 6295.40 1164.20   1
  -1 -10  -9 7088.36 986.875   4
  -1 -10  -9 4893.68 1119.92   1
  11  -1  -9 7606.01 1416.20   1
   1 -11  -9 6244.07 882.069   4
  10   1  -9 7885.29 1583.60   1
 -10  11  -9 6656.33 1925.15   1
 -10  11  -9 6289.66 1187.19   4
 -11  10  -9 8258.15 1388.09   2
 -10  11  -6 3658.04 903.415   2
 -11  10  -6 3477.45 472.598   3
  11  -1  -6 4408.39 1000.79   1
 -10  11  -6 3787.84 541.641   3
 -10  11  -6 2934.48 873.148   4
  -1 -10  -6 3607.34 824.240   3
   1 -11  -6 3760.55 826.029   3
  -1 -10  -6 3587.82 503.252   1
 -11  10  -6 3834.20 904.668   4
  10   1  -6 2332.97 963.217   1
 -11  10  -6 3959.13 977.746   2
   1 -11  -6 3110.46 723.058   1
 -11  10  -3 11687.8 660.409   3
  10   1  -3 12213.6 1004.60   1
   1 -11  -3 12892.9 990.222   3
  -1 -10  -3 11324.3 515.735   1
 -11  10  -3 12812.1 1239.31   4
 -10  11  -3 9865.33 950.093   2
  11  -1  -3 12999.2 1010.45   1
  11  -1  -3 11151.7 711.576   2
 -11  10  -3 12413.1 1114.85   2
 -10  11  -3 11309.2 1174.96   4
 -10  11  -3 10696.5 709.872   3
  -1 -10  -3 10703.1 886.408   3
  -1 -10   0 793.564 554.348   1
  10   1   0 94.1378 368.132   3
  11  -1   0 158.961 440.430   1
   1 -11   0 63.6421 424.018   3
   1 -11   0 415.039 515.307   1
  -1 -10   0 362.434 477.916   3
 -11  10   0 293.724 640.399   4
   1 -11   0 38.0175 384.596   2
 -11  10   0-63.2468 455.333   2
  11  -1   0 351.749 381.196   3
  11  -1   0 372.269 649.782   2
  -1 -10   0 525.032 413.660   2
  10   1   0 949.423 673.357   2
  11  -1   0 174.580 563.347   4
 -10  11   0 278.453 625.520   4
 -10  11   0 299.299 541.451   3
  10   1   0-92.4574 404.908   1
   1 -11   0 872.651 607.019   4
 -10  11   0 346.536 353.825   1
 -10  11   0-120.588 460.894   2
 -11  10   0-285.055 346.922   1
 -10  11   3 8504.79 772.493   1
  -1 -10   3 8756.94 677.867   2
 -11  10   3 6760.19 782.815   1
  -1 -10   3 7067.32 1207.65   1
   1 -11   3 7721.33 810.171   3
 -11  10   3 9154.02 788.040   2
  -1 -10   3 8320.89 864.595   3
  10   1   3 7941.07 596.438   3
  11  -1   3 6598.35 416.588   3
   1 -11   3 8422.99 714.088   2
 -10  11   3 8244.60 795.250   2
 -10  11   3 7986.33 817.915   4
 -11  10   3 8444.34 845.271   4
  11  -1   3 8451.07 1012.56   4
   1 -11   3 7614.27 913.107   4
  -1 -10   3 7104.50 866.627   4
  -1 -10   6 2470.41 691.925   2
 -11  10   6 2803.50 1020.82   1
   1 -11   6 1172.16 729.477   4
 -10  11   6 1791.07 947.144   1
   1 -11   6 2301.04 808.805   2
  -1 -10   6 2123.60 750.927   4
   0 -11 -10 9732.05 1450.57   1
 -11  11 -10 6899.22 1303.57   2
  11   0 -10 10314.3 1764.69   1
   0 -11 -10 7898.08 1238.37   3
 -11  11 -10 9442.50 2256.70   1
 -11  11 -10 9048.23 1367.45   4
   0 -11 -10 12560.3 1930.05   2
   0 -11  -7 485.233 595.925   4
   0 -11  -7-362.012 665.407   3
 -11  11  -7 1219.63 804.164   2
 -11  11  -7 452.903 488.398   3
   0 -11  -7 625.231 723.207   1
  11   0  -7-28.3228 873.346   1
 -11  11  -7 1600.23 938.206   4
 -11  11  -4 28555.0 1632.43   2
 -11  11  -4 28047.3 985.851   3
  11   0  -4 29734.7 1565.29   1
   0 -11  -4 24185.0 669.391   1
   0 -11  -4 27158.8 1424.57   3
 -11  11  -4 29746.9 1766.28   4
   0 -11  -1 258.183 427.500   1
 -11  11  -1-280.723 384.091   1
  11   0  -1-96.6562 445.790   1
  11   0  -1-284.365 439.174   3
 -11  11  -1 437.452 476.839   2
   0 -11  -1-137.024 451.846   3
  11   0  -1 57.3786 553.234   2
 -11  11  -1 384.019 477.310   3
 -11  11  -1 68.8543 639.940   4
   0 -11   2 14570.8 1366.91   1
 -11  11   2 12173.1 1029.74   4
  11   0   2 14889.1 681.083   3
 -11  11   2 13275.1 896.873   2
 -11  11   2 14925.0 826.453   1
  11   0   2 13916.6 1251.92   4
   0 -11   2 14911.8 847.233   2
   0 -11   2 12779.2 958.334   3
   0 -11   2 13991.6 1131.18   4
  11   0   2 12270.1 931.910   1
  11   0   2 15301.8 1398.49   2
 -11  11   5 683.978 491.023   4
   0 -11   5-498.089 658.418   4
   0 -11   5 401.645 628.647   2
   0 -11   5-633.816 607.063   3
 -11  11   5 625.242 723.862   1
   0 -11   8 6995.60 1075.42   2
   0  12  -9 704.947 1324.77   1
 -12   0  -9 764.644 480.732   3
   0  12  -9 392.194 466.298   2
  12 -12  -9-913.512 847.435   1
 -12   0  -9 524.781 930.247   4
  12 -12  -9-1674.94 1285.32   3
 -12   0  -9-846.126 1421.14   2
 -12   0  -6 19921.8 1641.75   4
  12 -12  -6 19407.1 1167.48   4
   0  12  -6 18168.0 922.129   2
 -12   0  -6 18512.1 1966.25   2
  12 -12  -6 19981.5 1785.85   3
  12 -12  -6 17685.7 1151.01   1
   0  12  -6 19590.0 2054.72   1
 -12   0  -6 17911.6 677.910   3
   0  12  -3-1042.73 751.184   1
  12 -12  -3 468.650 367.182   1
 -12   0  -3 903.623 914.712   2
  12 -12  -3 197.817 514.659   2
 -12   0  -3-45.3403 609.553   4
  12 -12  -3 742.124 732.895   3
 -12   0  -3 200.443 317.356   3
  12 -12  -3 165.617 596.811   4
 -12   0   0 647.713 604.714   4
  12 -12   0 966.634 525.316   3
   0  12   0 154.935 497.431   3
  12 -12   0-591.510 708.661   4
  12 -12   0 362.445 591.637   2
   0  12   0 717.409 396.486   1
 -12   0   0 1394.44 737.733   2
 -12   0   0 395.506 443.683   1
 -12   0   3 97.0283 322.157   2
 -12   0   3-502.057 538.460   4
  12 -12   3-164.762 357.445   3
 -12   0   6 20757.6 1099.52   4
 -12   1 -10 18992.8 2428.17   2
  11 -12 -10 12921.9 1842.64   3
 -11  -1 -10 13754.7 1738.16   4
   1  11 -10 19443.0 2480.49   1
  11 -12 -10 15052.8 1531.69   1
  12 -11 -10 15535.7 2153.81   3
 -11  -1 -10 13270.7 2155.95   2
  -1  12 -10 16864.9 2614.80   1
  12 -11 -10 13006.8 1461.48   1
 -12   1 -10 13340.4 1753.39   4
  11 -12  -7 32691.1 2279.00   3
  -1  12  -7 34557.5 2738.29   1
 -12   1  -7 25838.5 813.167   3
   1  11  -7 26697.4 986.071   2
  12 -11  -7 30070.1 2317.86   3
  11 -12  -7 32054.7 1593.86   1
  12 -11  -7 33135.9 1699.02   1
 -11  -1  -7 36195.2 2667.98   2
 -12   1  -7 30807.1 2018.89   4
  -1  12  -7 27483.2 1162.59   2
  12 -11  -7 27304.0 1039.06   4
 -11  -1  -7 31341.1 2004.17   4
 -12   1  -7 27899.8 2383.13   2
  11 -12  -7 30229.5 1252.78   4
   1  11  -7 30010.1 2505.16   1
 -11  -1  -7 32874.7 1148.48   3
  -1  12  -4 36210.6 2250.76   1
  12 -11  -4 38136.4 2085.27   3
  11 -12  -4 34918.5 1937.68   3
 -11  -1  -4 33498.0 2259.23   2
  -1  12  -4 33357.2 1222.05   2
  12 -11  -4 33199.7 1475.66   2
 -11  -1  -4 32722.0 1817.11   4
 -11  -1  -4 34224.5 959.101   3
 -12   1  -4 27639.4 2048.21   2
 -12   1  -4 27885.2 684.677   3
 -12   1  -4 33707.5 1893.05   4
  12 -11  -4 35823.9 1587.63   4
  11 -12  -4 36976.7 1682.16   4
  12 -11  -4 38001.3 1337.51   1
   1  11  -4 35791.3 2135.41   1
  11 -12  -4 38126.4 1229.04   1
  12 -11  -1 70541.9 2214.09   2
   1  11  -1 72076.6 1998.56   1
  11 -12  -1 75855.7 2235.61   3
  11 -12  -1 72939.3 2160.02   2
  12 -11  -1 73835.8 1746.23   1
 -11  -1  -1 70427.3 1680.95   3
 -11  -1  -1 67587.7 2313.30   4
  12 -11  -1 78437.9 2298.78   3
  12 -11  -1 72694.1 2443.23   4
  -1  12  -1 69997.1 2062.24   3
  11 -12  -1 73860.4 2501.74   4
 -12   1  -1 70984.7 2431.04   4
 -12   1  -1 65884.9 1806.79   1
 -11  -1  -1 64150.8 1759.49   1
  -1  12  -1 69986.6 2015.04   1
 -11  -1  -1 73625.0 2654.72   2
   1  11  -1 69900.7 1995.38   3
  11 -12  -1 71846.1 1634.00   1
 -12   1  -1 69699.2 2548.28   2
 -12   1   2 52179.4 1898.72   4
   1  11   2 51142.9 1010.52   1
   1  11   2 53296.0 1968.83   3
 -11  -1   2 51510.5 1542.05   2
 -12   1   2 55832.1 1584.02   2
  -1  12   2 53345.8 2033.37   3
 -11  -1   2 51837.8 1859.20   4
  12 -11   2 51646.3 1256.62   3
  11 -12   2 52928.5 1409.80   3
 -11  -1   5 19081.7 1078.20   4
  11 -12   5 17776.5 888.015   3
 -12   1   5 17485.2 1025.13   4
 -12   2 -11 5265.84 1506.79   4
  12 -10 -11 7104.40 1829.02   3
  10 -12 -11 6092.56 1646.54   3
   2  10 -11 7278.44 1995.92   1
  10 -12 -11 4836.69 1447.30   2
  12 -10 -11 5360.43 1286.77   1
  10 -12 -11 3857.38 1199.31   1
 -10  -2 -11 4998.53 1751.84   2
 -12   2 -11 4340.47 1713.19   2
  -2  12 -11 5982.36 2162.07   1
  -2  12  -8 5195.57 1656.98   1
  10 -12  -8 2845.73 442.611   4
   2  10  -8 5152.06 1543.23   1
 -10  -2  -8 5287.05 695.312   3
 -12   2  -8 3880.45 436.152   3
   2  10  -8 2659.20 376.300   2
  10 -12  -8 4937.56 1217.17   3
  12 -10  -8 5327.53 1010.47   1
 -12   2  -8 4974.50 1118.41   4
 -10  -2  -8 5087.17 1121.48   4
  10 -12  -8 5944.79 902.088   1
  -2  12  -8 3454.25 645.125   2
 -10  -2  -8 3400.09 1369.16   2
  12 -10  -8 3949.67 1360.07   3
 -12   2  -8 4328.89 1411.24   2
  12 -10  -5 15372.0 1536.51   3
 -10  -2  -5 12978.7 1576.28   2
  12 -10  -5 12627.0 968.095   2
  10 -12  -5 12561.0 1383.31   3
 -10  -2  -5 13943.2 726.751   3
 -12   2  -5 13807.6 1369.25   4
  12 -10  -5 13813.9 990.706   1
  10 -12  -5 14767.9 870.726   1
  10 -12  -5 13958.5 1057.17   4
 -12   2  -5 15975.9 1676.12   2
  -2  12  -5 12718.9 845.334   2
  12 -10  -5 15271.0 1025.59   4
  -2  12  -5 17249.5 1842.26   1
   2  10  -5 11043.4 1422.87   1
 -10  -2  -5 12118.2 1234.83   4
   2  10  -2 27810.0 1478.24   1
  10 -12  -2 31392.7 1609.23   3
  12 -10  -2 27468.7 1581.53   3
 -10  -2  -2 28465.4 1528.67   4
 -10  -2  -2 26640.7 1822.39   2
  12 -10  -2 29027.2 1379.97   2
 -10  -2  -2 25473.6 1124.87   1
 -12   2  -2 25295.0 1170.06   1
  12 -10  -2 27584.6 1071.97   1
 -12   2  -2 30535.0 1683.29   4
 -10  -2  -2 29155.1 1029.37   3
  10 -12  -2 26558.8 874.056   1
  -2  12  -2 28440.6 1174.13   2
   2  10  -2 24803.2 1243.75   3
  12 -10  -2 29635.8 1516.41   4
  10 -12  -2 28151.9 1547.38   4
  -2  12  -2 26476.2 1299.05   3
  10 -12  -2 27110.5 1332.94   2
  -2  12  -2 30099.8 1687.03   1
 -12   2  -2 28678.5 1849.14   2
 -10  -2   1 20580.2 1219.19   2
   2  10   1 21652.8 1203.59   3
  10 -12   1 18263.2 924.795   3
 -12   2   1 20964.6 1293.86   4
 -10  -2   1 17814.1 1159.87   1
  -2  12   1 20547.2 610.553   1
 -10  -2   1 19990.3 1222.93   4
  12 -10   1 18469.0 1389.23   2
  -2  12   1 20337.3 1249.06   3
 -12   2   1 18512.3 1089.05   1
   2  10   1 21575.1 791.609   1
 -12   2   1 21990.1 1189.65   2
  10 -12   1 18908.5 1472.33   4
  10 -12   1 21017.9 1313.40   2
  12 -10   1 20176.8 903.204   3
  12 -10   1 19603.6 1437.66   4
 -12   2   4 5263.77 366.251   2
  10 -12   4 5589.82 562.428   3
  12 -10   4 4895.92 369.920   3
 -12   2   4 6179.30 726.864   4
 -10  -2   4 5159.80 688.535   4
 -12   2   7 3047.64 326.136   4
 -10  -2   7 4125.67 556.818   4
 -10  -2   7 3323.72 543.632   4
   9 -12  -9 354.955 1099.50   3
   3   9  -9 2782.38 1497.39   1
  -3  12  -9 533.369 543.433   2
 -12   3  -9 1211.04 417.111   3
 -12   3  -9-660.517 1261.72   2
   9 -12  -9-723.116 722.323   1
  -3  12  -9-1844.84 1674.27   1
  -9  -3  -9 1000.10 911.216   4
  -9  -3  -9 664.148 583.028   3
  12  -9  -9-1912.10 916.372   1
  12  -9  -9-23.3376 1188.94   3
  -9  -3  -9 1189.86 1286.98   2
 -12   3  -9 1525.53 1019.00   4
  12  -9  -6 6971.89 927.230   1
   3   9  -6 8855.39 1421.11   1
  -3  12  -6 7525.79 775.424   2
  -9  -3  -6 7198.08 652.229   3
  12  -9  -6 8207.75 814.348   2
   9 -12  -6 7292.33 781.449   1
   9 -12  -6 7608.66 1197.49   3
  -9  -3  -6 8103.22 1099.40   4
  -3  12  -6 8323.66 996.018   4
 -12   3  -6 8788.38 1481.91   2
  12  -9  -6 7506.55 631.134   4
  -9  -3  -6 8418.89 1453.51   2
  -3  12  -6 8785.81 1601.92   1
 -12   3  -6 9269.47 1185.48   4
   9 -12  -6 6930.31 805.906   4
  12  -9  -3 989.648 751.721   3
  -9  -3  -3 838.973 584.178   4
  -9  -3  -3 207.108 378.256   1
  12  -9  -3 252.533 430.900   2
   3   9  -3 847.812 720.120   1
  -3  12  -3 530.770 537.956   3
  -9  -3  -3 576.303 364.634   3
   9 -12  -3 708.478 483.858   2
  -3  12  -3 642.703 443.821   2
  12  -9  -3 749.990 600.644   4
  -3  12  -3 57.3738 573.757   4
  12  -9  -3 730.306 432.646   1
   9 -12  -3 345.943 537.407   4
  -9  -3  -3 861.240 885.411   2
   9 -12  -3 873.007 692.706   3
 -12   3  -3-37.2672 649.296   4
  -3  12  -3 402.328 751.237   1
 -12   3  -3-223.109 790.167   2
   9 -12  -3 624.230 293.461   1
   9 -12   0 16263.3 974.630   3
   9 -12   0 17024.2 1121.79   2
 -12   3   0 17088.5 1260.86   4
   3   9   0 17811.9 1022.72   3
  12  -9   0 17034.6 1294.09   4
 -12   3   0 15747.1 942.345   1
  -3  12   0 16869.9 1091.22   3
  12  -9   0 17258.1 961.419   1
  -9  -3   0 17396.2 1161.68   4
  -9  -3   0 16497.6 1001.93   1
  -9  -3   0 16362.0 953.978   3
   9 -12   0 17757.0 1337.73   4
   3   9   0 17244.7 860.134   1
  12  -9   0 16284.6 1248.14   2
  12  -9   0 18206.4 1052.81   3
  -9  -3   0 17176.3 1292.46   2
  -3  12   0 18136.2 882.008   1
 -12   3   0 17088.6 1185.31   2
   9 -12   3 3353.63 830.396   2
  -9  -3   3 2935.65 619.360   4
  -9  -3   3 2936.50 363.965   2
  12  -9   3 2880.41 275.060   3
   9 -12   3 3062.87 499.981   3
   9 -12   3 3452.29 941.085   4
 -12   3   3 3716.22 443.790   2
 -12   3   3 4115.44 675.797   4
   3   9   3 4383.13 803.654   3
 -12   3   6 17809.7 847.598   4
  -9  -3   6 19800.2 1033.41   4
 -12   4 -10 3768.73 1263.65   4
  12  -8 -10 2753.83 1165.47   1
  12  -8 -10 4456.61 1496.63   3
  -8  -4 -10 2592.31 744.108   3
   4   8 -10 3496.35 1444.18   1
  -4  12 -10 1584.20 702.880   2
   8 -12 -10 4986.72 1398.68   3
   8 -12 -10 2740.22 955.607   1
  -8  -4 -10 2952.01 1185.02   4
  -8  -4 -10 5288.55 1596.64   2
 -12   4 -10 1988.74 1263.10   2
  -4  12 -10 3082.68 1868.32   1
  -8  -4  -7 30466.0 2438.54   2
   8 -12  -7 30778.2 2053.67   3
  -4  12  -7 31347.4 1474.12   2
  12  -8  -7 31065.4 1807.11   1
   8 -12  -7 34086.3 1585.27   1
 -12   4  -7 33525.6 2431.44   2
  -8  -4  -7 33426.7 1399.63   3
  12  -8  -7 27084.9 1250.74   2
  -4  12  -7 33117.9 2761.76   1
 -12   4  -7 34099.6 2032.13   4
   8 -12  -7 29098.9 1312.38   4
   4   8  -7 30472.5 2350.18   1
  -8  -4  -7 32348.3 1873.38   4
  -4  12  -7 31097.9 1677.17   4
  -8  -4  -4 26954.7 1932.89   2
  -4  12  -4 31665.0 1295.72   2
  -4  12  -4 30418.5 1368.37   3
 -12   4  -4 34006.3 1864.37   4
   4   8  -4 32137.1 1938.56   1
   8 -12  -4 29361.6 1725.69   3
 -12   4  -4 28809.9 1961.50   2
  -8  -4  -4 29767.2 1254.31   1
   8 -12  -4 33559.4 911.517   1
  12  -8  -4 32312.6 1287.13   2
  -8  -4  -4 31719.1 1109.63   3
  -4  12  -4 29758.4 1602.09   4
   8 -12  -4 31146.1 1463.06   4
  12  -8  -4 34041.3 1374.55   4
  12  -8  -4 31879.4 1370.22   1
  -8  -4  -4 30685.2 1600.13   4
  -4  12  -4 32608.5 2160.50   1
 -12   4  -1 111311. 2930.87   4
  -4  12  -1 108021. 2353.84   3
  -8  -4  -1 107586. 2037.56   3
   8 -12  -1 109639. 2445.41   2
  12  -8  -1 111078. 2825.21   4
  -4  12  -1 113954. 2803.87   4
  -4  12  -1 105272. 2581.58   1
  12  -8  -1 106655. 2612.78   3
   4   8  -1 103933. 2242.15   3
  -8  -4  -1 105653. 2937.22   2
   4   8  -1 104873. 2252.60   1
   8 -12  -1 107599. 2788.94   4
  -4  12  -1 109443. 2280.50   2
 -12   4  -1 101661. 2797.38   2
   8 -12  -1 105250. 2421.17   3
  12  -8  -1 111882. 2121.15   1
  -8  -4  -1 103228. 2591.69   4
  -8  -4  -1 101138. 2049.81   1
 -12   4  -1 102417. 2136.02   1
  12  -8  -1 107483. 2635.51   2
  -8  -4   2 9070.07 1107.56   1
  -8  -4   2 10006.4 903.939   3
 -12   4   2 9172.06 680.730   2
   8 -12   2 8165.51 1045.95   4
  12  -8   2 9093.73 1111.83   4
   8 -12   2 8261.29 685.522   3
 -12   4   2 7104.67 803.216   1
   4   8   2 8435.40 590.869   1
  -8  -4   2 9084.61 765.169   2
  12  -8   2 8666.30 448.419   3
   8 -12   2 8650.26 911.941   2
 -12   4   2 11528.0 988.750   4
  -4  12   2 9748.57 1032.65   3
  12  -8   2 8681.76 1166.51   2
   4   8   2 8638.77 851.628   3
   8 -12   5 60155.8 1782.85   3
 -12   4   5 59747.6 1621.77   4
   4   8   5 60965.4 2257.95   3
  -8  -4   8 474.220 371.843   4
  -8  -4   8 347.665 337.123   4
  -7  -5 -11 18046.1 1430.17   3
  12  -7 -11 14417.1 1766.82   1
   7 -12 -11 15772.1 1642.14   1
   7 -12 -11 15900.0 1998.85   2
  -7  -5 -11 17033.6 2184.45   1
   7 -12 -11 15736.7 2053.86   3
  -7  -5 -11 19798.6 2521.43   2
  12  -7 -11 23022.8 2710.21   3
  -5  12 -11 18191.5 2829.63   1
 -12   5 -11 17781.7 1975.41   4
 -12   5 -11 16028.6 2197.72   2
   5   7 -11 22461.0 2648.93   1
  -7  -5  -8 4832.94 733.960   3
   7 -12  -8 4919.79 900.212   1
   5   7  -8 5982.11 1429.56   1
  -5  12  -8 4277.97 776.408   2
 -12   5  -8 2875.77 302.121   3
  12  -7  -8 4373.62 1079.63   1
  -7  -5  -8 5128.97 1449.95   2
  12  -7  -8 4054.18 654.587   2
  -7  -5  -8 4774.05 964.538   4
 -12   5  -8 5747.29 1197.37   4
   7 -12  -8 3818.58 644.171   4
  -5  12  -8 7322.31 1827.69   1
 -12   5  -8 4707.41 1335.00   2
  -5  12  -8 6030.50 1011.18   4
 -12   5  -8 3561.29 378.806   3
   7 -12  -8 4101.40 1214.98   3
  -5  12  -5 83877.5 3537.81   1
 -12   5  -5 75773.7 3107.94   2
   7 -12  -5 74760.9 2684.05   3
  12  -7  -5 75340.6 1821.40   2
  -7  -5  -5 71879.4 1917.40   1
  -7  -5  -5 77518.0 2481.70   4
  -5  12  -5 73826.1 2080.63   3
   7 -12  -5 87131.7 1679.92   1
  12  -7  -5 80761.5 2384.55   1
 -12   5  -5 78428.8 2764.50   4
  -5  12  -5 81085.6 2561.32   4
   7 -12  -5 75492.6 2160.72   4
  -7  -5  -5 75654.4 3188.22   2
  -7  -5  -5 78385.2 1865.01   3
  12  -7  -5 79949.3 1759.68   4
  -5  12  -5 74525.3 2080.75   2
   5   7  -5 78203.2 3084.59   1
  12  -7  -2 3853.83 582.558   1
 -12   5  -2 3189.34 857.874   2
  12  -7  -2 4779.47 763.403   4
   7 -12  -2 4568.06 775.798   4
   5   7  -2 4395.54 731.894   1
  -5  12  -2 3432.31 569.756   2
   7 -12  -2 4011.22 649.469   2
  -7  -5  -2 3902.26 527.024   3
   5   7  -2 4184.23 651.661   3
  -5  12  -2 4064.49 763.506   4
   7 -12  -2 1896.41 642.668   3
  -7  -5  -2 4356.79 969.738   2
  -5  12  -2 4284.01 952.192   1
 -12   5  -2 3005.73 578.256   1
 -12   5  -2 4838.93 912.529   4
  -7  -5  -2 3822.68 508.305   1
  -7  -5  -2 3960.14 695.225   4
  -5  12  -2 4530.80 661.346   3
  12  -7  -2 3979.44 711.095   2
 -12   5   1 28683.0 1256.27   2
  12  -7   1 27731.2 1638.60   2
  12  -7   1 32516.3 1108.47   3
   7 -12   1 31440.0 1354.20   2
  -5  12   1 25086.4 554.596   1
   5   7   1 31529.7 1054.22   1
   7 -12   1 30219.5 1632.07   4
  -7  -5   1 29677.9 1470.38   1
  -5  12   1 21501.1 726.140   1
   5   7   1 31415.2 1261.58   3
   7 -12   1 31258.0 1235.67   3
 -12   5   1 29318.6 1213.14   1
  12  -7   1 31005.7 1661.98   4
 -12   5   1 30377.5 1503.35   4
  -7  -5   1 28757.9 1276.55   3
  12  -7   1 28970.4 1248.25   1
  -5  12   1 29684.1 1441.65   3
   7 -12   4 18314.7 998.963   3
   5   7   4 19851.0 1244.93   3
 -12   5   4 19187.2 1044.36   4
   7 -12   4 17477.7 1452.06   4
   7 -12   4 18199.8 1412.01   2
 -12   5   4 18848.4 809.066   2
  -7  -5   7 16784.4 1018.53   4
 -12   6  -9 444.052 1138.90   2
  -6  -6  -9-50.3972 624.287   3
 -12   6  -9 855.001 412.683   3
  -6  12  -9 679.782 728.136   2
 -12   6  -9 1529.91 1013.83   4
   6   6  -9 269.797 1169.52   1
   6 -12  -9 654.702 798.840   1
  12  -6  -9 494.045 716.556   2
   6 -12  -9-19.6944 956.319   3
  -6  12  -9 457.562 750.361   4
  12  -6  -9 127.452 883.203   1
   6 -12  -9 357.619 399.039   4
  -6  12  -9-302.610 1403.19   1
  -6  -6  -9 1234.73 886.513   4
  -6  -6  -9-179.007 1137.82   2
   6   6  -6 13032.8 1493.81   1
  -6  12  -6 10861.1 974.164   2
   6 -12  -6 12532.7 1312.43   3
  12  -6  -6 13123.7 1214.73   1
   6 -12  -6 14250.3 962.696   1
   6 -12  -6 12691.5 1004.67   4
  -6  -6  -6 11402.0 1522.35   2
  -6  12  -6 14803.8 1266.32   4
 -12   6  -6 11933.4 1289.65   4
  12  -6  -6 12535.5 778.743   2
 -12   6  -6 10829.2 1439.57   2
  -6  -6  -6 13265.8 964.823   3
  -6  -6  -6 13705.3 1197.58   4
  -6  12  -6 14889.5 1930.68   1
  -6  -6  -3 2638.41 656.028   4
   6 -12  -3 2880.91 729.677   3
  -6  12  -3 3809.51 622.164   3
  -6  -6  -3 3279.37 521.045   3
  -6  12  -3 2848.14 549.326   2
  12  -6  -3 2672.25 561.934   4
 -12   6  -3 2213.79 824.307   2
  -6  -6  -3 3142.73 455.849   1
   6 -12  -3 2946.84 586.668   2
   6   6  -3 2469.76 726.823   1
  -6  12  -3 3452.60 734.942   4
  12  -6  -3 4164.72 636.350   1
 -12   6  -3 3285.17 842.426   4
   6 -12  -3 5029.31 780.627   4
  12  -6  -3 3343.40 601.735   2
 -12   6   0 119482. 2906.79   4
 -12   6   0 117325. 2638.83   2
 -12   6   0 113848. 2167.76   1
  -6  12   0 117765. 2531.48   3
   6 -12   0 112188. 2258.30   3
  12  -6   0 117041. 2850.80   4
  -6  -6   0 114669. 2389.82   1
   6 -12   0 123358. 2507.91   2
  -6  -6   0 121416. 2332.56   3
  -6  12   0 116323. 2368.71   2
  -6  12   0 123675. 2933.25   4
  12  -6   0 120002. 2284.05   1
   6   6   0 116027. 2131.65   1
  12  -6   0 114806. 2913.57   2
   6 -12   0 116283. 2874.03   4
   6   6   0 111889. 2165.24   3
  -6  -6   3 2986.00 966.266   1
  -6  -6   3 2689.36 289.205   2
   6   6   3 3431.71 606.830   3
  12  -6   3 3079.72 766.946   4
   6 -12   3 2955.05 553.192   3
 -12   6   3 2286.40 729.004   1
  -6  -6   3 2772.26 690.164   3
 -12   6   3 2564.66 431.151   2
 -12   6   3 2805.63 636.603   4
   6 -12   3 3206.72 710.467   2
   6 -12   3 3109.48 794.434   4
  -6  -6   6 11848.0 939.351   4
 -12   6   6 11715.5 597.119   4
  -6  -6   9 511.309 363.818   4
  -7  12 -10 3275.72 969.368   4
   5 -12 -10 5309.29 1095.69   1
   5 -12 -10 5965.77 1356.96   3
  -7  12 -10 3316.63 977.101   2
 -12   7 -10 4910.56 1443.18   2
   7   5 -10 3710.00 1636.84   1
  -7  12 -10 7716.33 2185.73   1
  12  -5 -10 3960.24 1244.61   1
  -5  -7 -10 5434.66 1622.44   2
   5 -12 -10 3739.84 1368.30   2
  -5  -7 -10 4507.93 1336.83   1
 -12   7 -10 3467.15 1152.90   4
  -5  -7 -10 3887.56 1119.97   4
  -5  -7 -10 5223.43 969.289   3
   7   5  -7 18842.8 1833.98   1
   5 -12  -7 18612.7 1637.19   3
  12  -5  -7 18677.8 1565.53   1
  -7  12  -7 17242.8 1303.62   2
  -5  -7  -7 17374.2 1342.51   4
  -5  -7  -7 17294.1 1878.09   2
  -5  -7  -7 16829.9 1164.23   3
  -7  12  -7 20098.0 2261.58   1
 -12   7  -7 17878.9 1804.56   2
  12  -5  -7 15907.2 783.833   2
   5 -12  -7 13729.6 1082.28   4
  -7  12  -7 18977.6 1441.82   4
   5 -12  -7 20379.7 1282.14   1
 -12   7  -7 18082.2 1595.95   4
  -7  12  -4 18668.5 1139.95   2
   5 -12  -4 16923.1 1133.96   4
   7   5  -4 20180.3 1504.66   1
  -5  -7  -4 16431.7 1155.82   4
  -5  -7  -4 17163.5 839.216   1
  -5  -7  -4 18379.7 998.111   3
  12  -5  -4 17356.6 1142.08   1
   5 -12  -4 15036.5 431.862   1
  12  -5  -4 19596.8 994.619   4
  -7  12  -4 17004.0 980.108   3
 -12   7  -4 17531.0 1389.16   4
 -12   7  -4 18618.9 1490.48   2
  -7  12  -4 16487.6 1279.03   4
   5 -12  -4 17551.2 1284.64   3
  12  -5  -4 15893.9 890.973   2
   5 -12  -1 23664.3 1143.10   2
 -12   7  -1 23476.4 1372.91   2
  -7  12  -1 26558.4 1493.61   4
  -5  -7  -1 24890.6 1085.01   3
  -7  12  -1 23240.9 1139.33   2
   5 -12  -1 24549.5 1219.85   3
  12  -5  -1 24704.5 1083.84   1
  12  -5  -1 23165.6 1287.34   4
   7   5  -1 25940.3 1158.72   3
  -5  -7  -1 25127.8 1052.13   1
 -12   7  -1 24487.7 1086.72   1
   7   5  -1 26429.2 1191.76   1
  -7  12  -1 24102.7 1174.25   3
  12  -5  -1 24457.0 1382.89   2
 -12   7  -1 26534.5 1515.81   4
   5 -12  -1 26252.7 1427.85   4
  12  -5   2 4465.50 384.566   3
  12  -5   2 4188.17 289.254   3
  -5  -7   2 4583.41 916.912   1
 -12   7   2 4081.28 554.315   2
   7   5   2 4967.56 640.127   3
   5 -12   2 5496.54 661.296   3
  -7  12   2 4496.84 859.301   3
   7   5   2 4146.72 549.393   1
  -7  12   2 4053.75 309.148   1
 -12   7   2 3915.17 629.323   1
  -5  -7   2 5579.95 472.309   2
   5 -12   2 4494.44 658.912   2
  -5  -7   2 4515.81 700.491   3
  -7  12   2 4858.00 754.063   4
  12  -5   2 4653.77 861.440   4
   5 -12   2 4460.24 830.434   4
 -12   7   2 6181.31 798.110   4
  12  -5   2 4110.55 1002.72   2
   7   5   5 76583.5 2207.83   3
   5 -12   5 80504.3 2249.55   3
  -5  -7   5 77346.3 2197.23   4
 -12   7   5 78542.0 1756.60   4
   5 -12   5 77478.3 2711.47   2
  -5  -7   8 4556.98 777.691   4
  12  -4 -11 15586.4 1900.26   1
  -8  12 -11 13889.6 1525.05   2
   4 -12 -11 14984.5 1589.15   1
  -4  -8 -11 18700.7 2419.93   2
  -4  -8 -11 11354.3 1779.56   1
   4 -12 -11 12707.7 1889.25   2
 -12   8 -11 17032.8 2054.39   2
   8   4 -11 22369.9 2513.78   1
 -12   8 -11 13286.5 2425.43   1
  -8  12 -11 19489.0 3144.09   1
   4 -12 -11 18330.1 2019.85   3
 -12   8 -11 16878.6 1826.46   4
  -4  -8 -11 15394.8 1489.13   3
 -12   8  -8 1444.80 1044.60   2
   4 -12  -8 2547.19 994.581   3
 -12   8  -8 219.901 357.914   3
  -4  -8  -8-95.9756 598.927   3
 -12   8  -8-3.45643 303.400   3
   4 -12  -8 672.983 745.893   1
  -4  -8  -8 2307.06 1133.45   2
   8   4  -8 1175.49 1088.55   1
  -8  12  -8 357.044 689.038   2
  12  -4  -8 1303.02 987.842   1
  -4  -8  -8-132.763 699.649   4
   4 -12  -8 547.386 491.929   4
  -8  12  -8 208.576 746.837   4
   4 -12  -8 807.134 692.948   4
  -8  12  -8 3957.90 1786.01   1
  12  -4  -8 718.708 309.977   2
 -12   8  -8 1279.31 972.947   4
  12  -4  -8 363.844 366.109   2
  -8  12  -5 52319.2 1985.21   2
  -8  12  -5 55798.6 1650.29   3
  -4  -8  -5 53075.6 1807.14   3
  -4  -8  -5 50318.9 1936.20   4
  12  -4  -5 53254.4 2085.67   1
   4 -12  -5 50928.4 1857.14   4
   4 -12  -5 51952.0 2165.49   3
 -12   8  -5 57111.3 2450.63   4
  -4  -8  -5 53090.0 1457.96   1
 -12   8  -5 50913.0 2404.22   2
  -8  12  -5 50989.9 2174.03   4
  12  -4  -5 46502.4 1269.75   2
   8   4  -5 53302.8 2444.85   1
   4 -12  -5 50649.1 1301.09   1
   4 -12  -2 8207.49 899.709   4
 -12   8  -2 8390.38 776.734   1
  -8  12  -2 8619.54 805.478   2
   8   4  -2 8128.04 850.758   1
  -4  -8  -2 7902.75 587.877   1
   8   4  -2 7006.58 752.162   3
   4 -12  -2 7427.04 784.055   2
  -8  12  -2 8789.30 1029.31   4
  12  -4  -2 7108.65 705.933   1
  12  -4  -2 8937.10 838.293   4
  -4  -8  -2 8022.18 698.493   3
 -12   8  -2 10156.5 1134.43   4
  -8  12  -2 9224.29 770.230   3
  12  -4  -2 8033.12 808.325   2
   4 -12  -2 6988.96 810.069   3
 -12   8  -2 7915.20 996.482   2
  12  -4   1 113389. 2332.50   1
 -12   8   1 116003. 2352.89   2
   8   4   1 113389. 2064.32   3
  -8  12   1 109246. 2711.52   3
  -8  12   1 120884. 1531.36   1
 -12   8   1 116935. 2868.40   4
 -12   8   1 110354. 2109.39   1
  -8  12   1 115144. 2417.32   2
  -4  -8   1 114720. 2431.37   3
   4 -12   1 119456. 2423.56   2
  12  -4   1 113437. 1705.21   3
  -4  -8   1 107681. 2699.86   1
  12  -4   1 117367. 3271.33   2
  -8  12   1 114792. 2795.32   4
   4 -12   1 116626. 2348.56   3
  12  -4   1 113115. 2860.50   4
   4 -12   1 105375. 2762.35   4
   8   4   1 119078. 2172.19   1
   8   4   4 30030.1 1285.64   3
  -8  12   4 27208.7 1176.14   1
   4 -12   4 31582.4 1431.06   3
  -4  -8   4 30645.0 1563.54   3
 -12   8   4 28452.5 1265.12   4
   4 -12   4 28830.6 1696.93   4
   4 -12   4 30803.2 1603.99   2
  -4  -8   4 30174.4 1451.50   4
  -4  -8   4 31038.7 958.326   2
 -12   8   4 28210.9 1628.60   1
  -4  -8   7 30401.0 1514.16   4
 -12   9  -9 2296.05 1158.06   2
  -9  12  -9 1699.10 775.369   2
   3 -12  -9 239.229 877.339   3
  -9  12  -9 4112.03 1717.62   1
  -3  -9  -9 3035.19 840.930   3
  -3  -9  -9 3492.60 1229.82   1
   9   3  -9 1869.57 1135.24   1
 -12   9  -9 1839.48 628.119   3
  12  -3  -9 3217.04 1087.34   1
  -3  -9  -9 2395.75 852.610   4
  -3  -9  -9 3726.24 1305.09   2
   3 -12  -9 1575.23 629.325   4
  -9  12  -9 3628.51 1033.92   4
 -12   9  -9 3823.96 1208.99   4
   3 -12  -9 2577.87 895.690   1
   3 -12  -6 15889.1 1305.89   3
  -3  -9  -6 15443.3 1158.30   3
  -3  -9  -6 15541.6 895.348   1
 -12   9  -6 11746.9 493.752   3
  -9  12  -6 16132.4 972.011   3
  12  -3  -6 19215.6 1480.57   1
  -3  -9  -6 16712.5 1200.73   4
   3 -12  -6 17144.6 1031.09   1
  -9  12  -6 16749.9 1328.05   2
 -12   9  -6 16714.4 1525.42   4
   9   3  -6 15315.2 1562.91   1
 -12   9  -6 17841.4 1641.36   2
  -9  12  -6 16886.8 1422.69   4
   3 -12  -6 13487.1 1089.07   4
  -9  12  -3 2234.23 502.470   3
  -3  -9  -3 2450.33 564.323   3
   3 -12  -3 2955.11 661.419   3
  -9  12  -3 3454.71 780.602   4
 -12   9  -3 3216.40 796.549   2
   9   3  -3 3452.56 736.547   1
  12  -3  -3 3411.71 591.693   4
 -12   9  -3 3249.27 856.690   4
  -3  -9  -3 2837.51 382.499   1
  12  -3  -3 2636.98 610.810   1
   3 -12  -3 4090.00 770.842   4
  12  -3  -3 3228.54 632.266   2
  -9  12  -3 3865.00 685.128   2
   3 -12   0 14489.2 950.232   3
  -9  12   0 14254.1 1018.54   3
  -9  12   0 14781.6 722.184   1
  -9  12   0 14995.7 1188.14   4
   3 -12   0 14837.1 934.100   2
  -3  -9   0 15365.0 945.623   3
   9   3   0 15661.2 868.316   3
  12  -3   0 14883.1 912.400   1
 -12   9   0 15719.5 1018.57   2
  12  -3   0 14248.7 806.479   3
  -9  12   0 12934.4 895.402   2
 -12   9   0 14429.7 814.049   1
  12  -3   0 13915.1 1069.99   4
   9   3   0 14379.1 885.518   1
 -12   9   0 16453.6 1252.15   4
  12  -3   0 15262.0 1253.46   2
  -3  -9   0 13097.7 963.144   1
   3 -12   0 15147.6 1187.80   4
  -3  -9   3 711.817 568.181   4
  -9  12   3-98.7840 399.221   1
  -9  12   3 295.365 507.294   4
  -3  -9   3 1058.91 359.335   2
   3 -12   3 754.902 684.008   4
   3 -12   3 384.534 500.369   2
   3 -12   3 886.196 509.341   3
 -12   9   3 655.802 438.733   2
  -3  -9   3 710.512 532.405   3
 -12   9   3 1056.29 612.114   1
 -12   9   3 138.811 497.711   4
   9   3   3 568.144 444.087   3
  -3  -9   3 161.976 884.071   1
  -3  -9   6 7551.22 672.639   2
   3 -12   6 9984.38 1216.17   2
  -3  -9   6 8598.34 952.859   4
 -12   9   6 10144.1 630.876   4
 -10  12 -10 7264.77 2071.24   1
  -2 -10 -10 6171.19 1640.56   2
   2 -12 -10 5625.75 1224.61   3
  -2 -10 -10 5053.39 1011.12   4
  10   2 -10 4763.17 1448.04   1
   2 -12 -10 6367.26 1608.91   2
 -12  10 -10 7957.68 1456.96   2
  12  -2 -10 6037.55 1364.04   1
 -12  10 -10 6991.17 1409.93   4
 -10  12 -10 6347.25 1252.54   2
  -2 -10 -10 7115.79 1364.27   1
 -10  12 -10 6287.61 1246.80   4
  -2 -10 -10 6853.76 1093.36   3
   2 -12 -10 5174.38 1143.92   1
 -12  10  -7 3141.78 448.866   3
   2 -12  -7 4137.85 819.631   1
 -12  10  -7 4401.46 1087.05   2
   2 -12  -7 4271.09 903.661   3
  -2 -10  -7 3567.22 785.136   3
  12  -2  -7 2960.98 1002.75   1
  -2 -10  -7 4131.55 825.896   4
   2 -12  -7 2662.61 754.777   4
  10   2  -7 3922.90 1120.24   1
 -10  12  -7 2867.00 901.311   2
 -10  12  -7 3458.69 644.870   3
 -12  10  -7 4513.44 1056.28   4
 -10  12  -7 3477.44 976.768   4
  -2 -10  -7 2366.65 566.854   1
 -10  12  -4 6154.31 837.543   2
 -12  10  -4 4988.91 423.986   3
  -2 -10  -4 5690.39 451.627   1
  -2 -10  -4 6261.11 768.694   3
 -10  12  -4 6101.43 600.819   3
 -10  12  -4 6069.35 972.895   4
  10   2  -4 5567.94 883.119   1
 -12  10  -4 4974.06 926.841   2
  12  -2  -4 4647.98 786.948   1
   2 -12  -4 3233.09 288.145   1
 -12  10  -4 5933.28 1033.05   4
  12  -2  -4 5196.69 509.938   2
   2 -12  -4 5797.74 842.192   4
   2 -12  -4 6596.48 856.092   3
 -10  12  -1 24191.1 1215.19   3
 -12  10  -1 23108.6 1262.69   2
  10   2  -1 22751.2 1140.56   1
  -2 -10  -1 23084.6 1122.00   3
  12  -2  -1 23948.2 1383.45   2
  12  -2  -1 22585.9 1110.96   1
  10   2  -1 22380.0 1108.23   3
   2 -12  -1 24222.0 1203.66   2
  -2 -10  -1 24104.4 1047.42   1
  12  -2  -1 24102.3 1145.81   3
 -12  10  -1 26352.7 1128.39   1
 -12  10  -1 24783.2 1559.53   4
  12  -2  -1 23037.4 1288.75   4
 -10  12  -1 25589.5 1540.06   4
 -10  12  -1 24976.1 1064.48   1
 -10  12  -1 24195.7 1223.38   2
   2 -12  -1 22545.2 1189.94   3
   2 -12  -1 23198.5 1415.90   4
 -10  12   2 24947.8 1586.36   3
  12  -2   2 31327.1 809.527   3
  10   2   2 27265.1 1250.11   1
   2 -12   2 28864.1 1334.84   3
  -2 -10   2 25693.8 1713.41   1
 -10  12   2 27847.5 1271.00   2
  -2 -10   2 27499.2 1022.89   2
 -10  12   2 29401.8 1023.39   1
 -12  10   2 28981.5 1201.48   1
  12  -2   2 28026.5 1918.29   2
   2 -12   2 28061.1 1219.11   2
  12  -2   2 27458.7 1296.32   1
  10   2   2 30958.0 1073.42   3
  -2 -10   2 29205.9 1383.44   3
 -12  10   2 28705.4 1459.19   4
  12  -2   2 27357.5 1566.44   4
 -12  10   2 27922.1 1192.32   2
 -10  12   2 28384.0 1459.15   4
  -2 -10   2 28971.2 1523.54   4
   2 -12   2 27970.1 1536.10   4
  10   2   5 12638.6 888.266   3
 -12  10   5 13360.3 867.521   4
  -2 -10   5 11119.4 1065.76   4
   2 -12   5 12948.3 1158.62   2
 -10  12   5 12115.6 1120.68   1
   2 -12   5 13299.1 1102.53   3
  -2 -10   5 10802.0 1071.84   3
 -12  10   5 14167.3 1334.19   1
  -2 -10   5 13666.8 900.988   2
   1 -12  -8 4773.36 931.103   1
   1 -12  -8 6166.43 1061.08   3
 -11  12  -8 2711.14 979.043   2
  -1 -11  -8 4621.04 957.581   3
  12  -1  -8 5142.46 1269.66   1
  11   1  -8 5706.65 1342.27   1
   1 -12  -8 4592.77 786.637   4
  -1 -11  -8 5220.17 867.939   4
  -1 -11  -8 5868.02 1146.74   1
  -1 -11  -8 6781.51 1453.69   2
 -11  12  -8 4959.13 1129.08   4
 -12  11  -8 5195.77 1244.09   2
 -12  11  -8 6839.43 1254.03   4
 -12  11  -5 18580.2 784.073   3
  -1 -11  -5 18667.6 1286.97   3
  11   1  -5 19173.3 1478.82   1
 -11  12  -5 17076.6 879.636   3
   1 -12  -5 16234.1 885.508   1
  12  -1  -5 16934.8 1362.43   1
  -1 -11  -5 17360.2 720.255   1
   1 -12  -5 19184.5 1342.98   3
 -11  12  -5 17310.5 1384.00   2
   1 -12  -5 15322.1 590.542   1
 -12  11  -5 18196.8 1559.62   4
 -11  12  -5 17668.2 1481.41   4
 -12  11  -5 16245.2 1454.83   2
 -12  11  -2 46815.4 1402.87   3
  -1 -11  -2 47914.7 1199.75   1
 -11  12  -2 45083.8 1755.29   2
   1 -12  -2 45920.7 1642.32   3
  11   1  -2 48419.2 1739.52   3
  12  -1  -2 49367.2 1705.43   2
  12  -1  -2 50099.0 1792.15   3
 -12  11  -2 49435.5 2175.96   4
  11   1  -2 49278.4 1736.04   1
  12  -1  -2 48353.9 1678.16   1
  -1 -11  -2 49485.0 1702.53   3
 -11  12  -2 49315.8 1534.27   3
 -12  11  -2 48029.4 1857.23   2
 -11  12  -2 48817.1 2122.96   4
 -12  11  -2 51791.8 1709.09   1
  12  -1   1 67316.7 2549.49   2
  12  -1   1 67885.0 1896.63   1
 -11  12   1 73146.4 1530.29   1
 -11  12   1 71703.7 2367.66   3
  -1 -11   1 69070.5 2320.25   4
 -12  11   1 67654.4 1909.33   2
 -11  12   1 67778.9 1901.16   2
   1 -12   1 68227.7 1969.82   3
  -1 -11   1 61888.1 1896.23   3
  12  -1   1 72160.7 1499.08   3
  -1 -11   1 69252.1 1756.92   2
  12  -1   1 69799.7 2385.60   4
  11   1   1 67078.1 1860.25   1
  11   1   1 68586.0 2592.88   2
   1 -12   1 65381.5 2221.95   1
 -12  11   1 70897.0 1632.48   1
  -1 -11   1 66082.3 2303.25   1
   1 -12   1 69364.4 1799.92   2
 -12  11   1 69845.6 2318.63   4
  11   1   1 71110.4 1573.59   3
   1 -12   1 68840.0 2345.69   4
 -11  12   1 68946.3 2319.49   4
  -1 -11   4 29722.4 1624.35   4
  12  -1   4 26944.5 798.296   3
   1 -12   4 34927.0 1638.82   3
 -12  11   4 34328.4 1463.48   4
  -1 -11   4 34813.9 1638.49   3
 -11  12   4 35915.8 1506.91   4
  11   1   4 31535.4 1055.63   3
  -1 -11   4 34738.8 1367.74   2
 -11  12   4 32886.3 1480.01   1
 -12  11   4 34811.6 1656.78   1
   1 -12   4 34242.8 1500.90   2
   1 -12   7 25299.7 1639.26   2
  -1 -11   7 24290.3 1385.38   2
   0 -12  -9 753.998 848.093   3
 -12  12  -9-201.889 902.692   4
   0 -12  -9-1276.80 1158.22   2
  12   0  -9-169.224 1029.10   1
   0 -12  -9-242.352 620.123   4
 -12  12  -9 101.436 943.987   2
   0 -12  -9-725.366 878.890   1
   0 -12  -6 16810.4 1134.73   1
   0 -12  -6 18934.8 1384.13   3
 -12  12  -6 18894.3 895.530   3
  12   0  -6 19619.9 1599.12   1
 -12  12  -6 18302.8 1596.83   4
   0 -12  -6 18334.1 796.424   1
 -12  12  -6 21940.6 1677.83   2
 -12  12  -3 256.304 655.099   4
 -12  12  -3 337.130 445.647   3
 -12  12  -3-586.978 558.134   2
   0 -12  -3 354.907 542.867   3
   0 -12  -3 51.3415 208.413   1
  12   0  -3-530.883 548.927   1
 -12  12   0 634.413 616.789   3
  12   0   0 461.458 432.910   1
   0 -12   0 400.177 612.520   4
   0 -12   0 563.989 506.886   3
 -12  12   0 1415.46 762.796   4
 -12  12   0-165.301 393.899   1
  12   0   0 210.513 391.954   3
   0 -12   0 626.527 431.926   2
   0 -12   0 1122.68 590.699   1
 -12  12   0 607.078 525.656   2
  12   0   0 74.5573 650.298   2
   0 -12   3-441.088 448.959   2
   0 -12   3 686.288 554.359   3
 -12  12   3-120.202 431.326   2
 -12  12   3-207.963 495.713   1
   0 -12   3-46.8802 896.420   1
  12   0   3-602.719 330.118   3
 -12  12   3-191.146 554.160   4
   0 -12   6 21354.3 1382.07   2
 -12  12   6 19291.2 1654.03   1
  13 -13 -10 34527.2 2077.74   1
 -13   0 -10 34137.9 3092.87   2
 -13   0 -10 33316.6 2533.48   4
   0  13 -10 42214.0 3531.49   1
  13 -13 -10 36272.0 2916.56   3
  13 -13  -7 1970.45 1094.68   3
 -13   0  -7 14.2290 883.306   4
 -13   0  -7-39.3023 269.129   3
  13 -13  -7-77.2705 624.029   4
   0  13  -7 219.158 420.751   2
   0  13  -7-483.919 1218.45   1
 -13   0  -7 1569.66 1359.66   2
  13 -13  -7 12.6761 591.810   1
  13 -13  -4 134772. 2430.21   1
  13 -13  -4 128512. 3727.36   3
 -13   0  -4 120274. 1723.46   3
   0  13  -4 126854. 2394.61   2
 -13   0  -4 130788. 3682.40   4
   0  13  -4 138154. 4023.89   1
 -13   0  -4 130999. 4315.36   2
  13 -13  -4 132405. 3195.15   4
  13 -13  -1 1170.40 658.016   3
  13 -13  -1 1439.21 813.368   4
   0  13  -1 969.805 526.405   1
  13 -13  -1-61.2332 423.450   1
 -13   0  -1 93.9051 624.691   4
 -13   0  -1-153.164 771.315   2
 -13   0   2 99041.1 2260.00   2
 -13   0   2 96308.0 2683.58   4
  13 -13   2 98078.3 1911.94   3
  13 -13   5 147.731 398.861   3
 -13   0   5-29.0028 527.560   4
 -13   0   8 25403.1 817.222   4
  -1  13  -8 2140.48 1421.69   1
  12 -13  -8 1865.21 1072.17   3
 -13   1  -8 1842.60 315.760   3
 -13   1  -8 5709.11 1604.79   2
 -12  -1  -8 2994.03 528.274   3
   1  12  -8 2415.50 1378.63   1
  -1  13  -8 1968.03 526.265   2
 -12  -1  -8 2521.62 1118.50   4
   1  12  -8 1765.32 462.959   2
 -13   1  -8 1582.07 922.392   4
 -12  -1  -8 899.932 1272.84   2
  13 -12  -8 4546.62 1371.53   3
  12 -13  -8 2779.95 730.938   1
  13 -12  -8 2349.86 773.912   1
  13 -12  -5 4093.01 664.487   1
  13 -12  -5 2747.93 992.861   3
  -1  13  -5 4525.94 1243.73   1
  12 -13  -5 3281.30 1000.25   3
 -12  -1  -5 3798.65 1201.46   2
   1  12  -5 1566.60 966.509   1
   1  12  -5 3529.29 509.869   2
 -12  -1  -5 3954.00 438.599   3
  -1  13  -5 3489.87 549.304   2
 -13   1  -5 2320.67 243.838   3
 -12  -1  -5 4443.35 988.989   4
  13 -12  -5 3521.63 764.407   4
  12 -13  -5 4439.73 822.661   4
  12 -13  -5 3922.56 564.431   1
 -13   1  -5 2336.76 888.462   4
 -13   1  -5 1849.69 1046.99   2
  12 -13  -2 11148.1 709.826   1
   1  12  -2 9766.36 1068.96   1
  12 -13  -2 10775.2 1174.91   4
  13 -12  -2 11083.4 1156.59   3
 -13   1  -2 10027.1 1153.47   4
 -12  -1  -2 10413.0 697.627   3
  13 -12  -2 11244.2 777.409   1
  13 -12  -2 12643.0 1189.04   4
  -1  13  -2 9389.47 1027.06   1
 -12  -1  -2 12868.9 1199.93   4
 -12  -1  -2 12895.9 1473.12   2
 -13   1  -2 9330.31 1304.29   2
  12 -13  -2 11962.8 1168.36   3
  13 -12  -2 8577.96 898.501   2
  13 -12   1 23236.0 1050.29   3
  12 -13   1 24565.0 1094.51   3
   1  12   1 27883.2 891.775   1
 -12  -1   1 26794.5 1472.33   2
  -1  13   1 26905.1 792.215   1
 -13   1   1 23358.4 1425.88   4
 -13   1   1 24664.4 1346.76   2
 -12  -1   1 26148.6 1476.46   4
 -13   1   4 974.167 245.323   2
 -13   1   4 992.095 549.951   4
  12 -13   4 1173.70 429.510   3
  13 -12   4 1199.93 356.872   3
 -12  -1   4 655.575 534.360   4
 -12  -1   7 22820.4 1099.11   4
 -13   1   7 19971.1 940.426   4
  13 -11  -9 11022.9 1759.71   3
  11 -13  -9 11955.3 1715.97   3
  -2  13  -9 11762.1 941.286   2
  11 -13  -9 13824.2 1351.87   1
  13 -11  -9 11848.5 1348.59   1
 -13   2  -9 13192.3 2067.09   2
  -2  13  -9 14099.0 2321.62   1
 -11  -2  -9 12103.9 2069.82   2
 -11  -2  -9 12802.9 1594.22   4
 -13   2  -9 13944.1 1626.20   4
   2  11  -9 11497.0 2063.48   1
 -11  -2  -9 11494.1 899.919   3
  13 -11  -6 5171.89 1232.72   3
  -2  13  -6 4482.84 616.110   2
  11 -13  -6 4007.43 842.124   4
  11 -13  -6 5245.91 1132.34   3
  13 -11  -6 5296.65 762.834   4
  -2  13  -6 4709.08 1372.52   1
  11 -13  -6 5063.99 722.227   1
  13 -11  -6 4388.52 761.283   1
 -11  -2  -6 5153.08 991.820   4
 -11  -2  -6 5348.36 1347.25   2
 -11  -2  -6 4691.52 538.395   3
 -13   2  -6 3419.79 1015.11   4
   2  11  -6 5770.51 1436.99   1
 -13   2  -6 5549.33 1337.47   2
  11 -13  -3 13742.6 1291.46   3
 -13   2  -3 13623.3 1318.96   4
  13 -11  -3 12916.9 835.852   1
 -11  -2  -3 12369.1 709.047   3
  11 -13  -3 12914.5 1174.91   4
  11 -13  -3 13598.2 700.654   1
  13 -11  -3 14054.5 1155.65   4
 -11  -2  -3 11962.3 1202.98   4
 -11  -2  -3 15852.3 1590.17   2
  -2  13  -3 13371.7 1332.54   1
 -13   2  -3 13554.9 1506.32   2
  13 -11  -3 12245.5 973.306   2
  13 -11  -3 11315.4 1250.28   3
  -2  13  -3 12371.6 867.862   2
   2  11  -3 14405.9 1317.65   1
 -11  -2   0 1127.86 514.530   1
  13 -11   0 755.446 673.389   4
  11 -13   0 723.941 564.055   2
  11 -13   0 1295.92 550.406   3
   2  11   0 1268.28 530.622   3
 -13   2   0 230.234 451.076   1
  -2  13   0 224.895 414.124   1
  13 -11   0 1115.93 688.726   2
  13 -11   0 349.382 435.191   1
 -11  -2   0 1146.13 532.263   3
 -11  -2   0 470.427 571.859   4
 -13   2   0 1489.79 657.016   4
  11 -13   0 918.294 730.533   4
  13 -11   0 406.220 549.455   3
  -2  13   0 249.504 563.988   3
 -11  -2   0 1582.96 747.759   2
   2  11   0 1181.78 427.807   1
 -13   2   0-106.055 664.511   2
 -13   2   3 28447.8 987.598   2
  13 -11   3 28336.6 855.242   3
  11 -13   3 28577.3 1117.97   3
 -11  -2   3 27593.0 1414.96   4
 -13   2   3 27902.0 1422.27   4
 -11  -2   6 7782.45 808.372   4
 -13   2   6 7999.36 748.043   4
  10 -13 -10 37172.6 2088.06   1
  13 -10 -10 33514.0 2882.01   3
  10 -13 -10 35352.7 2687.10   3
  -3  13 -10 31882.3 3164.00   1
  -3  13 -10 30326.8 1523.75   2
   3  10 -10 39131.3 3240.05   1
  13 -10 -10 32738.5 2198.42   1
 -13   3 -10 34232.7 2606.95   4
 -10  -3 -10 32184.9 2880.34   2
 -10  -3 -10 34354.8 2351.15   4
 -13   3 -10 36032.0 3066.19   2
  13 -10  -7-1466.27 1130.08   3
 -13   3  -7 1377.73 906.383   4
  10 -13  -7 1126.92 967.669   3
   3  10  -7 1964.93 1185.10   1
  13 -10  -7 701.617 607.279   2
 -10  -3  -7-1053.76 826.816   4
 -10  -3  -7 932.510 477.726   3
  13 -10  -7 916.481 739.479   1
  13 -10  -7 820.681 322.473   4
 -10  -3  -7 1667.39 1142.07   2
  -3  13  -7 897.908 495.885   2
 -13   3  -7 1642.25 1170.95   2
  10 -13  -7 173.646 552.439   1
  -3  13  -7 1313.63 1271.14   1
  10 -13  -7 777.233 659.971   4
  13 -10  -4 65738.9 1987.76   2
  13 -10  -4 69447.5 2767.08   3
  13 -10  -4 73102.4 2225.82   4
 -10  -3  -4 65216.7 1513.91   3
  -3  13  -4 66509.3 1830.41   2
 -13   3  -4 71077.5 2735.24   4
 -10  -3  -4 63581.2 2381.75   4
 -10  -3  -4 64937.7 3000.36   2
  -3  13  -4 73749.3 3072.09   1
 -13   3  -4 63574.1 2904.28   2
  13 -10  -4 64762.8 1884.81   1
  10 -13  -4 64498.5 2180.85   4
   3  10  -4 67540.6 2729.48   1
  10 -13  -4 66001.8 2556.40   3
  10 -13  -4 68863.1 1416.67   1
 -10  -3  -1 1562.16 810.685   2
  -3  13  -1 2707.58 690.627   1
  13 -10  -1 3412.30 742.829   3
  -3  13  -1 2815.20 637.216   3
  10 -13  -1 3795.74 680.440   3
 -10  -3  -1 2831.25 726.238   4
   3  10  -1 2826.15 600.454   1
 -10  -3  -1 2304.31 513.900   1
   3  10  -1 2704.12 609.712   3
  13 -10  -1 1310.79 646.653   2
 -10  -3  -1 2291.75 515.856   3
 -13   3  -1 3568.77 857.976   4
  13 -10  -1 2741.14 523.154   1
  -3  13  -1 3283.70 573.780   2
  13 -10  -1 3734.44 861.922   4
  10 -13  -1 3487.05 677.399   2
  10 -13  -1 2354.19 819.304   4
 -13   3  -1 1915.25 513.562   1
 -13   3  -1 2358.90 820.429   2
   3  10   2 149064. 3139.38   3
   3  10   2 146492. 2057.25   1
  13 -10   2 139863. 1863.79   3
  10 -13   2 140910. 2428.54   3
 -10  -3   2 151881. 2742.73   2
 -13   3   2 143545. 3111.12   4
 -10  -3   2 140972. 3037.56   4
 -13   3   2 144515. 2512.44   2
 -13   3   5 2136.21 571.409   4
  10 -13   5 3570.99 617.292   3
 -10  -3   5 3439.95 665.640   4
 -10  -3   8 29028.3 1042.00   4
  -9  -4  -8 7397.00 1684.97   2
   9 -13  -8 7218.09 1382.97   3
  -4  13  -8 4327.00 740.830   2
   4   9  -8 4519.33 1408.88   1
  -9  -4  -8 5975.47 763.810   3
  -9  -4  -8 6357.94 1135.38   4
  13  -9  -8 5639.86 1107.71   1
   9 -13  -8 6591.12 897.421   1
  -4  13  -8 6420.97 1720.27   1
 -13   4  -8 5075.11 1207.22   4
 -13   4  -8 7379.46 1598.51   2
  13  -9  -8 6953.70 1522.09   3
 -13   4  -5 7504.29 1125.72   4
   9 -13  -5 9380.27 644.247   1
  -9  -4  -5 8177.46 684.618   3
  -4  13  -5 8962.52 820.395   2
   9 -13  -5 9304.77 1200.11   3
  13  -9  -5 9668.97 923.794   1
  -9  -4  -5 9530.99 1086.00   4
  -9  -4  -5 9482.28 1456.33   2
  13  -9  -5 10634.5 864.257   4
 -13   4  -5 10481.6 1488.80   2
   9 -13  -5 9131.05 924.881   4
   4   9  -5 9750.15 1384.68   1
  13  -9  -5 7868.31 796.788   2
  -4  13  -5 11478.1 1643.41   1
  -4  13  -5 9381.76 1037.94   4
  -4  13  -2 12403.6 1264.42   1
  13  -9  -2 12011.0 1170.15   3
  -9  -4  -2 12681.0 841.481   1
   9 -13  -2 13967.7 1147.87   3
   4   9  -2 14443.0 1129.82   1
  13  -9  -2 14647.6 885.785   1
   9 -13  -2 14074.6 1013.60   2
  -4  13  -2 14801.6 929.086   2
  -9  -4  -2 15021.9 829.515   3
  -9  -4  -2 14694.4 1429.61   2
 -13   4  -2 15564.8 1376.93   4
  13  -9  -2 13644.9 1138.08   4
 -13   4  -2 14762.6 1373.01   2
  -4  13  -2 12633.4 962.893   3
   9 -13  -2 11296.9 1062.74   4
  -9  -4  -2 12714.5 1106.01   4
  -4  13  -2 14902.4 1219.39   4
  13  -9  -2 14846.7 1122.13   2
   4   9   1 39093.2 1164.20   1
  13  -9   1 42341.1 2047.60   4
  -4  13   1 31013.3 758.194   1
   9 -13   1 36057.2 1296.00   3
   4   9   1 37726.4 1485.19   3
  -9  -4   1 35914.7 1639.43   1
  13  -9   1 35521.9 1899.72   2
  -9  -4   1 42918.5 1744.52   2
   9 -13   1 37331.6 1888.54   4
  -9  -4   1 39513.7 1545.89   3
  -9  -4   1 37816.7 1640.36   4
 -13   4   1 36509.0 1450.09   1
 -13   4   1 41638.2 1805.56   4
   9 -13   1 37106.8 1623.07   2
  13  -9   1 40256.7 1278.19   3
 -13   4   1 40239.6 1550.81   2
  -4  13   1 36922.2 1653.09   3
   4   9   4 29125.6 1637.75   3
 -13   4   4 31122.7 972.706   2
   9 -13   4 28599.8 1207.24   3
 -13   4   4 28249.6 1341.21   4
  -9  -4   7 1943.76 588.908   4
  -9  -4   7 2211.68 612.982   4
   8 -13  -9 5281.24 1346.85   3
  -8  -5  -9 4554.85 779.191   3
   5   8  -9 4907.66 1663.82   1
  -5  13  -9 3687.54 832.688   2
  -8  -5  -9 4319.20 1081.23   4
 -13   5  -9 3510.11 1244.43   4
  -8  -5  -9 3906.30 1567.80   2
  13  -8  -9 3481.58 1049.18   1
  -5  13  -9 4982.09 1764.03   1
   8 -13  -9 4270.13 904.878   1
 -13   5  -9 4786.72 1440.66   2
   5   8  -6 12669.0 1549.82   1
  13  -8  -6 8717.25 789.193   2
  -8  -5  -6 10980.8 848.247   3
 -13   5  -6 11134.1 1281.38   4
   8 -13  -6 13766.1 843.116   1
  -5  13  -6 12957.1 1783.18   1
  -5  13  -6 11151.6 940.739   2
  13  -8  -6 11000.6 1100.94   1
   8 -13  -6 9955.83 975.808   4
 -13   5  -6 11079.2 1499.13   2
  -8  -5  -6 10434.7 1124.50   4
  13  -8  -6 12658.2 755.941   4
   8 -13  -6 9888.35 1284.35   3
  -8  -5  -6 11292.3 1596.50   2
  -5  13  -6 10200.4 1155.94   4
  13  -8  -3 29123.6 1357.20   2
   8 -13  -3 28259.7 1494.74   4
  -8  -5  -3 27841.8 1137.04   1
  -5  13  -3 30723.4 1659.78   4
  -5  13  -3 32533.5 1407.50   3
  -5  13  -3 31162.2 1308.16   2
   5   8  -3 31555.0 1753.70   1
   8 -13  -3 32361.1 1692.96   3
  -8  -5  -3 31400.4 1149.86   3
 -13   5  -3 30580.8 1912.42   2
  13  -8  -3 29496.0 1268.89   1
 -13   5  -3 32789.1 1837.10   4
  13  -8  -3 32433.6 1475.73   4
  -5  13  -3 33780.1 2027.70   1
   8 -13  -3 24409.5 591.857   1
  -8  -5  -3 29360.7 1534.88   4
  -8  -5  -3 29331.3 1876.62   2
  13  -8   0 26276.9 1288.27   3
   8 -13   0 22976.5 1464.91   4
  13  -8   0 26287.4 1184.69   1
   8 -13   0 24045.4 1271.37   2
   5   8   0 23672.0 1050.42   1
   8 -13   0 22888.4 1153.36   3
   5   8   0 23658.6 1143.35   3
  13  -8   0 25664.7 1551.23   4
  -8  -5   0 22420.6 1177.40   1
  -8  -5   0 24907.4 1178.96   3
  -5  13   0 22677.0 1188.22   2
 -13   5   0 24651.6 1505.35   4
 -13   5   0 22181.1 1094.94   1
  -5  13   0 24842.3 1135.82   1
  -8  -5   0 23774.5 1450.69   2
  -5  13   0 25866.6 1365.99   3
  13  -8   0 24903.2 1517.43   2
 -13   5   0 24171.4 1360.03   2
  -5  13   0 24519.2 1461.01   4
   5   8   3 26174.7 1367.57   3
 -13   5   3 26033.8 999.445   2
   8 -13   3 24436.4 1141.74   3
 -13   5   3 24861.2 1317.05   4
  -8  -5   3 24523.6 987.255   2
   8 -13   3 23780.4 1507.72   2
 -13   5   6 4896.86 555.400   4
  -8  -5   6 5051.07 755.580   4
   6   7 -10 9996.52 1982.94   1
   7 -13 -10 9328.67 1610.01   3
  -6  13 -10 9458.81 1086.88   2
  -7  -6 -10 8591.57 1059.46   3
 -13   6 -10 10478.9 1844.85   2
  13  -7 -10 7289.51 1390.26   1
  -6  13 -10 10165.6 2264.76   1
  -7  -6 -10 9933.74 1931.24   2
  -7  -6 -10 9048.34 1386.94   4
   7 -13 -10 9924.39 1259.94   1
 -13   6 -10 11247.1 1745.75   4
   7 -13  -7 528.998 954.014   3
  -7  -6  -7 765.253 530.558   3
  -6  13  -7 1828.21 664.170   2
   6   7  -7 1877.84 1126.28   1
  -6  13  -7 372.271 670.933   4
  -7  -6  -7 516.315 689.087   4
   7 -13  -7 946.180 565.521   1
  -7  -6  -7 932.978 1002.92   2
  13  -7  -7 709.049 507.525   2
  13  -7  -7 2193.00 837.877   1
 -13   6  -7 3464.67 1008.23   4
  -6  13  -7 1043.17 1272.78   1
 -13   6  -7 1338.35 1087.84   2
   7 -13  -7 893.419 677.143   4
  13  -7  -4 45571.2 1552.07   2
   7 -13  -4 45090.3 2036.37   3
   6   7  -4 46534.8 2202.95   1
  -6  13  -4 44914.1 1672.03   2
  -6  13  -4 44781.6 1615.16   3
   7 -13  -4 38187.5 733.331   1
  -7  -6  -4 42689.3 1366.22   1
   7 -13  -4 44225.3 1814.73   4
  -7  -6  -4 45380.0 1921.07   4
  -7  -6  -4 40001.7 2247.62   2
  -6  13  -4 49628.4 2696.19   1
  -7  -6  -4 44630.6 1446.62   3
  13  -7  -4 46705.3 1582.11   4
  13  -7  -4 46223.5 1739.20   1
 -13   6  -4 44558.5 2120.30   4
 -13   6  -4 47246.5 2417.13   2
  -6  13  -4 46720.9 2049.23   4
  -6  13  -1 31609.9 1401.79   3
   7 -13  -1 33235.2 1427.08   2
 -13   6  -1 32446.9 1271.12   1
   6   7  -1 34892.2 1398.16   3
  -6  13  -1 35529.8 1411.33   2
  -7  -6  -1 34201.7 1293.51   3
  13  -7  -1 35796.5 1306.78   1
 -13   6  -1 34058.0 1698.38   2
   6   7  -1 34740.9 1407.65   1
  -7  -6  -1 34465.5 1295.81   1
   7 -13  -1 32363.0 1421.68   3
  13  -7  -1 34089.7 1616.24   2
  13  -7  -1 36463.1 1668.30   4
 -13   6  -1 36775.4 1805.80   4
   7 -13  -1 36638.6 1753.61   4
  -6  13  -1 35667.6 1770.74   4
   7 -13   2 33189.6 1533.63   2
   6   7   2 34653.5 1414.40   3
  13  -7   2 34179.2 1810.22   4
 -13   6   2 31188.1 1416.41   1
  13  -7   2 30712.8 778.661   3
 -13   6   2 32856.5 1242.45   2
  13  -7   2 32330.2 2047.20   2
  -7  -6   2 34588.8 1517.49   3
   7 -13   2 32151.1 1266.83   3
  -6  13   2 31114.4 1680.76   3
 -13   6   2 36519.6 1613.10   4
   6   7   2 34547.2 1209.86   1
   7 -13   2 36540.7 1872.68   4
  -7  -6   2 31586.8 1750.37   1
   6   7   5 13979.4 1177.58   3
   7 -13   5 17257.8 1109.29   3
 -13   6   5 15569.8 960.532   4
  -7  -6   8 7635.88 831.726   4
  -7  13 -11 2457.49 953.107   2
 -13   7 -11 4623.42 1585.92   2
   6 -13 -11 1274.00 1199.04   3
  -6  -7 -11 3223.08 958.072   3
  13  -6 -11 2261.61 1248.37   1
   7   6 -11 3977.37 1851.35   1
  -7  13 -11 4211.41 2186.81   1
  -6  -7 -11 814.448 1186.92   1
   6 -13 -11 1062.53 1191.73   2
  -6  -7 -11 1662.07 1512.10   2
 -13   7 -11 4079.85 1435.22   4
   6 -13  -8 12013.8 1156.24   1
  -7  13  -8 7481.09 977.617   2
   6 -13  -8 11117.6 1473.36   3
  -7  13  -8 12996.6 2112.69   1
   7   6  -8 10331.0 1689.54   1
  -6  -7  -8 9729.37 1713.84   2
  -6  -7  -8 8916.41 1132.56   4
 -13   7  -8 11394.9 1488.50   4
  -6  -7  -8 10396.9 1008.93   3
 -13   7  -8 11470.5 1687.29   2
  13  -6  -8 12451.4 1456.49   1
  -7  13  -8 8090.01 1100.38   4
   6 -13  -5 16695.6 1361.47   3
  -6  -7  -5 15903.3 1607.94   2
  -7  13  -5 17845.6 1347.75   4
  -6  -7  -5 16234.2 1009.73   3
  13  -6  -5 16192.6 930.604   2
   7   6  -5 19099.7 1634.86   1
 -13   7  -5 15934.3 1434.94   4
   6 -13  -5 17909.2 676.445   1
  -6  -7  -5 16094.2 1239.09   4
  13  -6  -5 17587.7 1237.55   1
  -7  13  -5 16072.0 1120.91   2
   6 -13  -5 15776.3 1152.88   4
  -6  -7  -5 15481.9 930.600   1
  -7  13  -5 16313.0 1866.86   1
  13  -6  -5 19308.0 991.136   4
  -7  13  -5 16273.6 1068.21   3
 -13   7  -5 14963.7 1529.07   2
   6 -13  -2 37891.7 1614.71   3
  -7  13  -2 37247.5 1439.64   3
  -7  13  -2 33206.8 1359.73   2
  -6  -7  -2 34315.5 1258.56   3
 -13   7  -2 38737.0 1901.51   4
   7   6  -2 35425.5 1553.85   1
   6 -13  -2 32693.1 1445.13   2
   7   6  -2 34997.7 1481.82   3
  13  -6  -2 37498.8 1582.71   4
  -6  -7  -2 34449.5 1188.97   1
  13  -6  -2 34977.3 1368.15   1
  13  -6  -2 36170.8 1583.13   2
 -13   7  -2 34580.4 1828.75   2
   6 -13  -2 35777.9 1685.81   4
 -13   7  -2 34086.2 1409.28   1
  -7  13  -2 38654.0 1798.26   4
 -13   7   1 33711.3 1364.81   2
  -7  13   1 37348.2 1703.21   3
   6 -13   1 35032.8 1467.41   2
  13  -6   1 34154.8 1910.74   2
   7   6   1 34687.2 1220.82   1
   7   6   1 35474.3 1327.47   3
   6 -13   1 35057.6 1346.84   3
  13  -6   1 33287.4 1373.85   1
  -6  -7   1 31947.7 1392.76   3
 -13   7   1 35330.5 1667.67   4
  13  -6   1 36077.7 1803.05   4
  -7  13   1 29944.1 1332.92   2
  -7  13   1 36388.8 1680.89   4
  -7  13   1 36589.0 779.721   1
   6 -13   1 34805.0 1750.95   4
 -13   7   1 33464.3 1300.05   1
  -6  -7   1 32078.6 1608.55   1
   7   6   4 48937.4 1779.32   3
 -13   7   4 49054.8 1429.13   2
   6 -13   4 45387.5 1635.55   3
 -13   7   4 44602.0 1628.81   4
   6 -13   4 49876.5 2144.63   2
  -6  -7   7 1079.13 649.846   4
  -8  13  -9 4797.25 1009.32   2
   5 -13  -9 6807.54 1309.28   3
 -13   8  -9 8647.59 1583.60   2
  13  -5  -9 6144.08 1305.41   1
   5 -13  -9 4059.30 669.293   4
   8   5  -9 4902.99 1362.94   1
  -5  -8  -9 6312.99 975.343   3
  -5  -8  -9 6019.30 1055.36   4
  -8  13  -9 8136.17 1966.33   1
 -13   8  -9 5082.11 1276.62   4
  -8  13  -9 7560.20 1208.49   4
   5 -13  -9 7073.88 1079.30   1
  -5  -8  -9 7703.25 1622.64   2
 -13   8  -6 3381.72 1013.12   2
 -13   8  -6 3820.22 1055.83   4
  -8  13  -6 5515.05 875.403   2
   5 -13  -6 5614.18 1069.93   3
  -5  -8  -6 5161.95 742.713   3
  13  -5  -6 5870.74 981.502   1
   8   5  -6 3909.04 1082.83   1
  -5  -8  -6 3957.87 812.027   4
  -8  13  -6 4888.16 1346.66   1
  13  -5  -6 4037.92 550.073   2
  -5  -8  -6 4244.12 1130.65   2
  -8  13  -6 5154.65 743.353   3
   5 -13  -6 5242.64 622.003   1
  -8  13  -6 6519.11 1050.11   4
   5 -13  -6 4752.15 812.031   4
  -5  -8  -6 3627.92 620.490   1
  -8  13  -3 22263.7 1237.93   2
  -8  13  -3 20071.4 1060.66   3
   8   5  -3 22234.2 1409.41   1
   5 -13  -3 20671.7 1309.36   4
 -13   8  -3 23133.2 1596.76   4
  13  -5  -3 24138.5 1219.02   4
  13  -5  -3 22109.1 1200.55   1
  -5  -8  -3 22012.2 1085.14   3
   5 -13  -3 23679.3 1400.48   3
  -5  -8  -3 22268.1 920.266   1
  13  -5  -3 23506.2 1189.29   2
  -8  13  -3 22934.8 1477.94   4
 -13   8  -3 23995.3 1607.60   2
 -13   8   0 24316.9 1311.72   2
 -13   8   0 26145.4 1111.75   1
  -8  13   0 24490.7 1335.64   3
  -5  -8   0 23166.9 1278.00   1
  -8  13   0 23215.0 1437.82   4
 -13   8   0 27776.9 1585.28   4
  13  -5   0 27857.8 1681.13   2
   5 -13   0 25878.6 1243.16   3
   5 -13   0 23517.9 1189.92   2
   8   5   0 26694.3 1149.10   3
  -8  13   0 23603.0 1184.85   2
  -5  -8   0 26286.1 1237.70   3
  13  -5   0 25671.8 1180.39   1
  13  -5   0 23159.3 1400.66   4
  -8  13   0 27223.9 925.247   1
   8   5   0 25226.2 1120.65   1
   5 -13   0 24901.2 1466.21   4
   8   5   3 34856.2 1413.63   1
   5 -13   3 31992.2 1538.01   2
   8   5   3 35689.0 1410.62   3
 -13   8   3 33163.8 1589.20   1
  -5  -8   3 34781.6 961.394   2
 -13   8   3 35439.1 1277.10   2
   5 -13   3 35408.3 1447.51   3
  -5  -8   3 31535.7 1544.70   3
 -13   8   3 33705.7 1525.38   4
  -8  13   3 34891.6 1563.97   4
   5 -13   6 11852.0 1089.22   3
 -13   8   6 11252.4 687.611   4
  -5  -8   6 9712.98 982.617   4
  -9  13 -10 5239.47 1113.73   4
  -9  13 -10 6666.34 1134.03   2
 -13   9 -10 5644.95 1515.09   2
  -4  -9 -10 4433.62 1077.93   4
  -4  -9 -10 6133.60 1012.50   3
   4 -13 -10 3048.98 1113.29   3
  13  -4 -10 8847.47 1513.14   1
   9   4 -10 7239.15 1678.25   1
  -4  -9 -10 8214.37 1822.19   2
   4 -13 -10 5234.07 1483.46   2
   4 -13 -10 3659.85 947.490   1
  -4  -9 -10 3565.07 1273.76   1
 -13   9 -10 6153.93 1436.57   4
  -9  13 -10 8364.47 2137.24   1
   4 -13  -7 1304.50 754.649   4
 -13   9  -7 1632.68 1047.08   2
   9   4  -7 3348.62 1156.61   1
   4 -13  -7 1839.79 842.035   3
  -9  13  -7 3376.65 855.814   2
  -4  -9  -7 2392.50 702.497   3
  -9  13  -7 2585.46 1391.78   1
  13  -4  -7 1501.09 307.242   2
  13  -4  -7 1118.52 301.569   2
  -4  -9  -7 3202.71 785.287   4
  -4  -9  -7 1342.58 1131.02   2
  13  -4  -7 3696.14 986.429   1
 -13   9  -7 2926.35 956.244   4
  -9  13  -7 2405.95 678.076   3
   4 -13  -7 3806.96 730.492   1
  -9  13  -7 2968.50 914.058   4
  13  -4  -4 26499.7 1144.91   2
   4 -13  -4 22240.9 1409.45   3
  -4  -9  -4 24692.9 926.446   1
  -9  13  -4 26019.5 1652.02   4
  -9  13  -4 25804.6 1162.55   3
   9   4  -4 23343.7 1555.43   1
  -4  -9  -4 25736.4 1252.93   3
  13  -4  -4 25855.4 1438.48   1
  -9  13  -4 24827.6 1383.17   2
 -13   9  -4 26242.1 1736.04   4
 -13   9  -4 26231.2 1760.76   2
   4 -13  -4 24082.8 1440.83   4
 -13   9  -1 40432.5 1736.65   2
 -13   9  -1 42822.4 2013.60   4
  13  -4  -1 35736.7 1370.20   1
  -9  13  -1 36482.0 1465.18   3
   4 -13  -1 37947.8 1477.50   3
  -4  -9  -1 38835.4 1365.53   1
  -4  -9  -1 39478.7 1418.55   3
   4 -13  -1 37399.2 1488.41   2
   9   4  -1 38959.8 1486.02   3
  13  -4  -1 40897.5 1704.56   4
   9   4  -1 36618.8 1421.29   1
 -13   9  -1 37276.9 1363.61   1
  13  -4  -1 44504.3 1894.32   2
  -9  13  -1 39456.2 1502.20   2
  -9  13  -1 34644.8 1736.65   4
   4 -13  -1 39123.2 1783.74   4
  -9  13   2 10816.6 1160.84   3
   9   4   2 12071.6 892.233   1
   4 -13   2 13405.0 970.847   2
  -4  -9   2 13476.7 1011.35   3
 -13   9   2 13377.8 893.364   2
 -13   9   2 13518.5 1110.59   4
   4 -13   2 12500.2 938.201   3
  13  -4   2 13724.5 519.580   3
  -4  -9   2 13018.3 719.147   2
  13  -4   2 11437.4 1365.88   2
  -9  13   2 14225.4 655.544   1
   9   4   2 15010.2 881.177   3
  -9  13   2 12479.6 959.491   2
 -13   9   2 12743.9 936.843   1
  13  -4   2 14153.6 1025.98   1
   4 -13   2 10595.5 1086.69   4
  -4  -9   2 11377.3 1289.83   1
  -9  13   2 12464.4 1059.39   4
 -13   9   5 10735.4 810.052   4
   9   4   5 9802.89 902.864   3
   4 -13   5 8843.34 959.389   3
  -9  13   5 11240.2 1007.55   1
  -4  -9   5 7460.71 899.168   4
   4 -13   5 8612.35 1099.68   2
  -4  -9   5 7705.92 611.574   2
  -4  -9   8 4097.77 900.455   4
 -13  10  -8 43110.7 2472.67   4
  -3 -10  -8 39506.1 2755.66   2
 -10  13  -8 35171.7 2065.49   2
   3 -13  -8 35532.2 1563.88   4
  10   3  -8 38235.2 2616.70   1
  -3 -10  -8 35063.9 1832.80   3
  13  -3  -8 37563.8 2358.08   1
  -3 -10  -8 33921.8 2077.91   1
 -10  13  -8 42669.9 3437.60   1
   3 -13  -8 37324.2 1735.92   1
 -10  13  -8 40295.4 2232.80   4
 -13  10  -8 36073.2 2399.42   2
  -3 -10  -8 37138.3 1886.55   4
   3 -13  -8 34180.3 2022.41   3
   3 -13  -5 2314.70 732.657   4
 -13  10  -5 1912.18 223.425   3
 -13  10  -5 3970.31 945.262   2
  -3 -10  -5 1644.78 628.130   3
 -10  13  -5 2809.27 557.034   3
  -3 -10  -5 2905.35 452.362   1
   3 -13  -5 1957.12 223.054   1
 -10  13  -5 3891.97 944.237   4
  13  -3  -5 2670.71 410.459   2
 -10  13  -5 3595.91 771.143   2
  10   3  -5 2634.19 824.723   1
   3 -13  -5 5046.12 859.108   3
 -13  10  -5 3564.35 973.895   4
  13  -3  -5 3450.61 817.901   1
   3 -13  -5 2939.22 354.562   1
 -13  10  -2 117138. 3024.23   2
 -10  13  -2 130665. 2515.55   3
 -10  13  -2 131031. 2841.13   2
   3 -13  -2 132246. 2852.56   3
  -3 -10  -2 128710. 2558.18   3
  -3 -10  -2 131539. 2140.32   1
  10   3  -2 126410. 2730.85   3
  10   3  -2 129667. 2845.54   1
  13  -3  -2 137494. 2930.06   4
  13  -3  -2 136092. 2916.96   2
 -13  10  -2 136705. 2723.95   1
 -13  10  -2 134469. 3553.99   4
   3 -13  -2 131850. 3163.83   4
  13  -3  -2 131249. 2672.80   1
 -10  13  -2 139406. 3451.47   4
   3 -13   1 3013.46 772.669   4
  13  -3   1 3760.80 804.217   4
 -10  13   1 4422.20 883.279   3
  -3 -10   1 2970.77 817.219   1
 -10  13   1 3398.11 414.569   1
 -13  10   1 4761.11 670.493   2
 -13  10   1 2202.04 477.120   1
  10   3   1 3552.52 522.625   3
   3 -13   1 3658.79 665.167   3
 -10  13   1 3630.28 634.178   2
  -3 -10   1 3336.57 640.835   3
  13  -3   1 4076.24 471.611   3
   3 -13   1 2888.10 550.808   2
  10   3   1 3620.74 560.332   1
  -3 -10   1 3201.63 503.221   2
 -13  10   1 3601.10 846.022   4
  13  -3   1 2579.94 907.175   2
  13  -3   1 2974.28 602.082   1
 -10  13   1 3196.88 782.605   4
 -10  13   4 70751.6 2096.57   4
 -13  10   4 71729.1 2509.61   1
  -3 -10   4 71356.3 1676.07   2
 -13  10   4 71274.5 1969.23   2
  10   3   4 69067.5 1766.16   3
   3 -13   4 69041.5 2171.60   3
  -3 -10   4 65624.2 2271.06   3
  -3 -10   4 64843.6 2278.74   4
 -13  10   4 65814.5 1989.58   4
 -10  13   4 59953.0 1771.92   1
   3 -13   4 71214.0 2310.40   2
  -3 -10   7 129.787 438.208   2
   3 -13   7 167.924 971.979   2
  -3 -10   7-133.647 718.236   4
 -13  11  -9 5054.11 1296.86   2
  -2 -11  -9 5918.99 1056.80   3
   2 -13  -9 6484.03 1170.89   3
 -11  13  -9 6322.07 1886.60   1
  13  -2  -9 6000.45 1367.50   1
 -11  13  -9 6620.50 1164.68   2
  -2 -11  -9 6137.27 1018.33   4
  -2 -11  -9 7782.77 1258.01   1
   2 -13  -9 4196.46 741.922   4
  -2 -11  -9 5985.26 1557.44   2
  11   2  -9 8024.93 1535.53   1
   2 -13  -9 7123.84 1033.38   1
 -13  11  -9 6873.80 1379.84   4
 -11  13  -9 8262.00 1356.14   4
 -11  13  -6 6808.15 1035.35   2
   2 -13  -6 5305.30 460.233   1
  -2 -11  -6 6708.54 941.428   3
 -13  11  -6 6365.61 1181.35   4
   2 -13  -6 8377.90 1066.57   3
 -13  11  -6 4818.31 444.562   3
  11   2  -6 6167.24 1132.67   1
  -2 -11  -6 5808.31 572.951   1
  13  -2  -6 6662.39 1056.48   1
 -11  13  -6 6231.76 726.586   3
 -11  13  -6 8300.87 1225.60   4
   2 -13  -6 6684.38 723.710   1
 -13  11  -6 6361.92 1139.64   2
 -13  11  -3 21784.1 1514.12   2
 -13  11  -3 20202.7 854.782   3
 -11  13  -3 21452.7 1340.80   2
 -11  13  -3 21450.3 1071.15   3
   2 -13  -3 22756.8 1310.47   3
  -2 -11  -3 22113.5 1219.29   3
  -2 -11  -3 21074.1 796.965   1
  11   2  -3 21669.4 1360.63   1
  13  -2  -3 21929.0 1150.62   2
  13  -2  -3 20718.5 1234.96   1
 -13  11  -3 24421.6 1671.01   4
 -11  13  -3 21674.5 1596.93   4
  13  -2   0 1712.01 808.658   2
  -2 -11   0 1339.33 646.926   1
 -11  13   0 1661.75 656.968   3
 -13  11   0 43.7673 461.388   2
  11   2   0 1165.60 480.623   1
 -11  13   0 1032.40 378.120   1
 -13  11   0 824.026 637.073   4
 -11  13   0 1096.53 711.614   4
  -2 -11   0 1482.25 510.129   3
 -11  13   0 1779.18 516.709   2
 -13  11   0 696.855 399.459   1
  11   2   0 1154.13 464.753   3
   2 -13   0 657.247 473.180   2
  13  -2   0 859.675 432.294   3
  13  -2   0 703.433 459.332   1
  13  -2   0 1512.81 695.576   4
   2 -13   0-82.4036 480.974   3
   2 -13   0 405.277 635.009   4
 -11  13   3 11818.7 949.090   2
  -2 -11   3 11204.8 1020.38   3
  11   2   3 12871.4 1028.24   1
   2 -13   3 12586.4 938.383   2
 -11  13   3 14635.7 915.329   1
  13  -2   3 11697.7 519.963   3
  11   2   3 12997.1 820.915   3
 -13  11   3 11478.1 1014.18   1
  -2 -11   3 11325.6 1083.57   4
 -13  11   3 12390.9 911.839   2
   2 -13   3 12604.4 1016.51   3
  -2 -11   3 13482.9 825.523   2
 -13  11   3 14117.3 1120.55   4
 -11  13   3 14068.9 1103.40   4
  -2 -11   6 5455.81 784.784   2
   2 -13   6 6567.26 999.226   3
 -11  13   6 4652.14 1050.73   1
   2 -13   6 4111.50 974.852   2
 -13  11   6 5612.56 631.956   4
  -1 -12 -10 3171.33 1065.42   1
  -1 -12 -10 5864.27 1218.55   3
   1 -13 -10 3518.00 1020.76   1
 -12  13 -10 2748.04 1131.10   2
   1 -13 -10 4656.07 1175.78   3
 -12  13 -10 5164.75 2075.54   1
 -13  12 -10 6942.50 1467.64   2
  -1 -12 -10 5193.54 1728.75   2
  13  -1 -10 6197.04 1431.25   1
 -12  13 -10 7066.55 1409.35   4
  12   1 -10 4691.73 1426.31   1
   1 -13 -10 7235.43 1747.24   2
 -13  12 -10 5758.10 1364.24   4
 -12  13  -7 22590.2 1778.22   2
  12   1  -7 22027.6 1851.88   1
   1 -13  -7 22456.1 1631.19   3
  -1 -12  -7 26431.0 1660.54   3
 -13  12  -7 19674.0 897.495   3
 -12  13  -7 23151.2 1153.76   3
  13  -1  -7 25030.4 1917.35   1
 -13  12  -7 26004.8 1934.25   4
  -1 -12  -7 24048.9 1491.85   4
   1 -13  -7 23676.0 1352.89   1
  -1 -12  -7 21897.0 1406.96   1
 -12  13  -7 25807.7 1915.43   4
   1 -13  -7 20564.4 929.349   1
 -13  12  -7 24472.2 1890.24   2
  -1 -12  -7 20500.8 995.291   1
   1 -13  -4 453.360 565.688   3
  13  -1  -4 839.687 621.801   1
 -12  13  -4 1175.93 650.678   2
 -13  12  -4 1025.15 421.374   3
 -13  12  -4-189.927 616.718   2
 -12  13  -4 1049.68 494.911   3
  -1 -12  -4 1421.97 551.545   3
  -1 -12  -4 746.717 258.428   1
   1 -13  -4 753.101 158.683   1
   1 -13  -4 354.824 198.634   1
 -13  12  -4 1984.70 854.506   4
 -12  13  -4 2408.79 809.276   4
  12   1  -4 652.704 623.081   1
  13  -1  -1 20601.3 1120.11   1
 -13  12  -1 24059.3 1242.76   3
 -13  12  -1 23477.7 1340.68   2
 -12  13  -1 22747.9 1293.62   2
 -12  13  -1 25857.9 1148.22   1
   1 -13  -1 26658.8 1297.17   3
  -1 -12  -1 23240.4 1212.66   3
  12   1  -1 25714.6 1237.57   3
  13  -1  -1 26926.1 1253.37   3
   1 -13  -1 23209.6 1003.93   1
  13  -1  -1 26805.6 1538.47   2
 -13  12  -1 27513.1 1211.59   1
  -1 -12  -1 23184.8 1102.84   1
 -12  13  -1 26038.4 1650.41   4
 -13  12  -1 25466.9 1657.97   4
 -12  13  -1 25589.5 1338.35   3
  12   1  -1 25085.3 1264.16   1
  12   1   2 11926.8 938.026   1
   1 -13   2 10622.3 821.902   2
 -12  13   2 11903.6 1112.29   4
  13  -1   2 11539.7 637.091   3
 -13  12   2 9862.88 842.810   2
  13  -1   2 10406.1 928.555   1
 -12  13   2 10582.3 874.536   2
   1 -13   2 10025.6 929.945   3
  -1 -12   2 10374.9 962.674   3
  12   1   2 10723.6 711.322   3
 -13  12   2 10679.8 820.094   1
 -12  13   2 10405.0 759.470   1
  -1 -12   2 8278.89 1150.21   1
 -13  12   2 10440.7 1056.14   4
  -1 -12   2 10186.3 760.701   2
  12   1   5 4765.20 604.740   3
 -12  13   5 4293.26 920.108   1
 -13  12   5 2947.03 911.056   1
  -1 -12   5 4150.26 875.686   3
   1 -13   5 4988.84 897.155   2
   1 -13   5 3307.35 753.245   3
 -13  12   5 4781.83 678.684   4
  -1 -12   5 4093.55 795.327   2
 -12  13   5 6180.26 763.676   4
   0 -13  -8 40127.9 2136.84   3
  13   0  -8 38931.1 2502.96   1
   0 -13  -8 34361.8 1766.85   4
   0 -13  -8 36242.9 1832.43   1
 -13  13  -8 41659.5 2488.59   4
 -13  13  -8 39162.8 2401.54   2
 -13  13  -5-52.7622 450.633   3
   0 -13  -5 912.221 692.038   3
   0 -13  -5 424.443 246.739   1
 -13  13  -5 65.4319 676.511   2
  13   0  -5 683.931 749.232   1
 -13  13  -5 979.408 856.923   4
 -13  13  -2 88194.4 2591.08   2
 -13  13  -2 86650.5 2279.75   1
   0 -13  -2 98726.4 2524.52   3
  13   0  -2 82718.7 2303.15   1
  13   0  -2 94671.7 2409.25   2
 -13  13  -2 91505.6 2220.26   3
 -13  13  -2 95662.4 3095.09   4
  13   0   1 1048.58 518.711   1
   0 -13   1 1413.31 595.584   3
  13   0   1-61.3862 355.074   3
 -13  13   1-35.1394 544.832   2
   0 -13   1 708.380 458.206   2
 -13  13   1-86.3511 380.225   1
  13   0   1-308.770 811.200   2
   0 -13   1 1324.53 801.685   1
 -13  13   1 8.83656 637.732   4
   0 -13   4 146368. 2961.15   2
   0 -13   4 139930. 3302.83   3
 -13  13   4 139723. 3060.55   4
 -13  13   4 138293. 3149.10   1
   0 -13   7-370.999 797.693   2
  14 -14  -8 4046.68 836.485   1
  14 -14  -8 6562.50 1443.34   3
   0  14  -8 5049.78 1708.30   1
 -14   0  -8 4341.06 1240.75   4
   0  14  -8 3059.07 570.674   2
 -14   0  -8 4549.91 1471.51   2
  14 -14  -5-198.947 864.400   3
   0  14  -5-162.752 894.835   1
 -14   0  -5 358.605 827.568   4
 -14   0  -5 276.945 259.833   3
   0  14  -5 299.755 428.707   2
  14 -14  -5 648.894 480.744   1
  14 -14  -5 224.261 716.861   4
 -14   0  -5 1910.47 1164.37   2
  14 -14  -2 14950.8 898.102   1
 -14   0  -2 15325.6 1579.74   2
  14 -14  -2 15912.2 1347.18   3
 -14   0  -2 17128.2 1472.29   4
   0  14  -2 13631.1 1208.89   1
  14 -14   1-552.200 449.982   3
   0  14   1 603.499 323.372   1
 -14   0   1 1101.11 681.922   4
 -14   0   1 555.038 623.164   2
 -14   0   4 2638.28 331.971   2
  14 -14   4 2705.49 508.028   3
 -14   0   4 3943.07 810.059   4
 -14   0   7 303.319 571.124   4
  14 -13  -9 10821.6 1865.66   3
  -1  14  -9 9841.72 2054.01   1
  -1  14  -9 6896.34 759.728   2
  13 -14  -9 10534.2 1188.77   1
  14 -13  -9 9399.50 1220.95   1
 -13  -1  -9 12346.1 2063.18   2
 -14   1  -9 13816.9 1731.01   4
 -14   1  -9 12379.1 2103.74   2
   1  13  -9 12424.4 2096.44   1
 -13  -1  -9 10183.7 1584.85   4
  13 -14  -9 10385.4 1810.25   3
  14 -13  -6 1716.31 1059.65   3
  -1  14  -6 4099.13 1334.31   1
  14 -13  -6 1095.64 548.321   1
  13 -14  -6 2497.64 606.810   1
 -13  -1  -6 2333.49 415.421   3
  13 -14  -6 1148.53 754.439   4
  -1  14  -6 2235.46 522.353   2
   1  13  -6 2418.68 1151.50   1
 -14   1  -6 1875.23 1028.59   4
 -14   1  -6 2821.25 1259.05   2
  14 -13  -6 1450.77 780.650   4
 -13  -1  -6 2889.21 1020.95   4
 -13  -1  -6 2075.54 1245.71   2
  13 -14  -6 1923.80 1040.79   3
  14 -13  -3 18895.1 1495.65   3
  14 -13  -3 18578.3 992.689   1
  13 -14  -3 16411.9 1384.17   4
 -13  -1  -3 18157.8 849.269   3
  13 -14  -3 17237.3 892.511   1
 -13  -1  -3 18502.1 1520.74   4
 -14   1  -3 20506.1 1576.02   4
 -13  -1  -3 17544.2 1716.10   2
  14 -13  -3 19142.8 1407.74   4
  -1  14  -3 17473.7 1503.28   1
 -14   1  -3 15810.3 1677.61   2
  13 -14  -3 21291.9 1601.33   3
   1  13  -3 16373.6 1495.23   1
  -1  14   0 7333.71 645.271   1
  14 -13   0 6241.90 780.734   3
  13 -14   0 4986.69 739.197   3
   1  13   0 5661.26 596.167   1
 -13  -1   0 7402.45 1050.88   2
 -14   1   0 6903.05 979.281   4
 -14   1   0 5941.52 948.611   2
 -13  -1   0 7325.81 958.068   4
  14 -13   3 14420.8 760.680   3
  13 -14   3 13719.3 835.127   3
 -14   1   3 12148.0 1104.31   4
 -13  -1   3 15369.8 1188.72   4
 -14   1   3 15112.4 813.061   2
 -13  -1   3 14016.3 787.503   2
 -13  -1   6 2168.53 643.028   4
 -14   1   6 2013.57 658.480   4
  14 -12 -10 10664.7 1984.80   3
  12 -14 -10 8481.12 1837.33   3
  -2  14 -10 9971.02 2177.84   1
 -12  -2 -10 9449.06 2084.03   2
  12 -14 -10 10429.7 1288.17   1
  14 -12 -10 12295.1 1458.29   1
 -14   2 -10 8860.24 1633.34   4
 -12  -2 -10 9545.36 1618.28   4
 -14   2 -10 10361.1 2018.75   2
   2  12 -10 12002.6 2258.45   1
  14 -12  -7 21812.2 2105.48   3
  12 -14  -7 18879.8 1266.58   4
 -12  -2  -7 25399.0 2408.92   2
  -2  14  -7 19692.3 1111.50   2
 -12  -2  -7 21613.0 973.124   3
  12 -14  -7 21842.8 1251.63   1
  14 -12  -7 23524.1 1482.89   1
  -2  14  -7 28337.8 2603.32   1
 -12  -2  -7 23403.7 1819.18   4
 -14   2  -7 24309.7 1948.43   4
  14 -12  -7 21815.9 1135.32   4
 -14   2  -7 21333.8 2220.09   2
   2  12  -7 22210.7 2239.60   1
  12 -14  -7 22906.0 1992.53   3
 -12  -2  -4 14564.2 1707.67   2
  14 -12  -4 14150.2 1528.98   3
  12 -14  -4 13754.4 774.937   1
 -12  -2  -4 13734.5 769.745   3
  -2  14  -4 14917.4 949.722   2
  12 -14  -4 12682.0 1199.58   4
  12 -14  -4 16024.4 1497.84   3
 -12  -2  -4 12134.0 1285.13   4
 -14   2  -4 14444.8 1420.35   4
  14 -12  -4 13932.3 1187.95   4
 -14   2  -4 13225.9 1653.35   2
  -2  14  -4 13851.6 1582.68   1
   2  12  -4 13327.0 1438.59   1
  14 -12  -4 14978.7 966.141   1
  14 -12  -1 36705.7 1725.47   3
  12 -14  -1 34770.7 1615.52   3
   2  12  -1 35100.2 1480.79   1
  14 -12  -1 37010.6 1404.55   1
 -12  -2  -1 37750.6 1383.60   3
  -2  14  -1 32476.0 1493.70   1
 -12  -2  -1 33135.8 1734.95   4
 -12  -2  -1 35143.6 2023.38   2
 -14   2  -1 36158.3 1915.11   4
  14 -12  -1 35242.9 1904.68   4
 -14   2  -1 34875.0 1959.29   2
  12 -14   2 21389.6 1031.76   3
   2  12   2 19794.9 793.537   1
 -12  -2   2 18596.2 1284.18   4
 -14   2   2 21914.9 1379.20   4
  14 -12   2 19663.0 848.229   3
 -14   2   2 21971.0 1137.58   2
 -12  -2   2 22005.5 1220.16   2
  12 -14   5 55786.4 1653.69   3
 -12  -2   5 59229.3 2000.07   4
 -14   2   5 56707.8 1952.71   4
 -12  -2   8 18325.2 920.919   4
  14 -11  -8 2551.76 1260.11   3
 -11  -3  -8 2776.49 977.106   4
 -11  -3  -8 4869.27 727.773   3
  -3  14  -8 4166.65 705.931   2
   3  11  -8 6486.64 1569.60   1
  -3  14  -8 2767.74 1504.05   1
 -11  -3  -8 5300.26 1497.49   2
  11 -14  -8 6524.31 1387.25   3
  11 -14  -8 3044.58 762.737   1
  14 -11  -8 4840.67 966.335   1
 -14   3  -8 5669.33 1542.28   2
 -14   3  -8 4040.51 1091.32   4
  14 -11  -5 8686.76 1375.06   3
  14 -11  -5 7366.57 868.740   2
  -3  14  -5 6877.41 744.463   2
 -11  -3  -5 7544.27 649.906   3
 -14   3  -5 8240.66 1224.39   4
 -11  -3  -5 7123.19 1429.58   2
 -14   3  -5 8789.86 1431.42   2
  11 -14  -5 9189.13 1292.23   3
 -11  -3  -5 9056.82 1151.16   4
  14 -11  -5 8392.02 883.698   1
  14 -11  -5 8967.61 963.032   4
  -3  14  -5 8114.14 1453.66   1
  11 -14  -5 7883.24 1000.05   4
  11 -14  -5 8831.84 666.063   1
   3  11  -5 10521.4 1410.23   1
  14 -11  -2 14294.6 1159.80   2
  14 -11  -2 13769.9 1322.37   3
  14 -11  -2 16086.4 1284.31   4
   3  11  -2 12477.1 1109.90   1
  11 -14  -2 14605.0 1227.01   3
 -11  -3  -2 12940.8 914.430   1
  -3  14  -2 14259.1 974.192   2
  14 -11  -2 14865.1 915.006   1
 -14   3  -2 13450.4 1390.15   2
 -11  -3  -2 12178.1 1437.54   2
 -14   3  -2 14089.1 1316.26   4
  -3  14  -2 14094.5 1284.33   1
  11 -14  -2 14155.1 1258.35   4
 -11  -3  -2 13846.7 848.175   3
 -11  -3  -2 13772.8 1206.64   4
   3  11   1 10805.6 687.215   1
  14 -11   1 10909.0 772.719   3
  11 -14   1 10589.8 817.162   3
  -3  14   1 9484.90 470.634   1
 -11  -3   1 11993.3 1108.01   2
 -11  -3   1 9197.65 914.416   3
 -11  -3   1 9446.57 997.828   4
 -14   3   1 10500.9 1096.55   4
 -14   3   1 10303.1 941.307   2
 -14   3   4 25465.9 872.312   2
  11 -14   4 24042.8 1122.56   3
 -11  -3   4 25364.3 1375.11   4
 -11  -3   7 4155.54 688.841   4
 -14   3   7 3393.29 493.331   4
 -11  -3   7 3132.01 677.991   4
 -10  -4  -9 3672.94 1483.79   2
  -4  14  -9 4103.53 1649.31   1
  14 -10  -9 6414.80 1663.96   3
 -10  -4  -9 5149.57 774.556   3
  10 -14  -9 8039.06 1069.01   1
  -4  14  -9 4517.07 799.910   2
  10 -14  -9 5107.06 1351.75   3
   4  10  -9 5496.85 1689.09   1
 -14   4  -9 6970.28 1385.41   4
  14 -10  -9 5702.07 1159.18   1
 -10  -4  -9 6324.31 1350.95   4
 -14   4  -9 5288.25 1716.55   2
  14 -10  -6 36.5337 948.215   3
  14 -10  -6 1722.20 682.219   1
  10 -14  -6 857.538 438.937   1
   4  10  -6 1361.22 1057.39   1
  14 -10  -6 446.985 533.187   2
 -10  -4  -6 1430.56 488.798   3
  -4  14  -6 724.380 508.733   2
 -10  -4  -6 2121.61 727.060   4
  10 -14  -6 884.034 797.207   3
  14 -10  -6 1518.54 570.166   4
 -10  -4  -6-142.497 1037.62   2
 -14   4  -6 490.206 783.489   4
  10 -14  -6 1237.72 682.054   4
 -14   4  -6 1138.25 1122.55   2
  -4  14  -6 1548.31 1297.39   1
  -4  14  -3 13918.2 1224.97   4
  14 -10  -3 13202.4 1327.16   3
  14 -10  -3 11130.7 964.550   2
  14 -10  -3 11236.0 840.213   1
 -14   4  -3 12821.5 1333.64   4
   4  10  -3 11374.1 1224.43   1
 -10  -4  -3 12201.2 873.343   1
 -14   4  -3 15684.3 1545.57   2
  14 -10  -3 13753.7 1178.42   4
  -4  14  -3 11940.9 893.990   2
 -10  -4  -3 12571.4 787.154   3
  10 -14  -3 12091.1 1185.78   3
 -10  -4  -3 11825.7 1479.29   2
  10 -14  -3 12849.7 1184.73   4
 -10  -4  -3 12507.2 1152.20   4
  -4  14  -3 13854.1 1479.81   1
  10 -14  -3 11151.9 551.353   1
 -14   4   0 1175.38 693.368   2
  14 -10   0-417.140 680.458   2
 -14   4   0 1107.45 694.392   4
  -4  14   0 444.954 470.934   1
  14 -10   0 654.519 545.413   3
 -10  -4   0-328.349 707.072   2
   4  10   0 155.615 377.601   1
  10 -14   0 1530.80 529.597   3
   4  10   0 112.192 476.172   3
  14 -10   0 664.376 482.999   1
 -10  -4   0-47.5446 476.929   3
 -10  -4   0-399.468 588.311   4
  14 -10   0 1298.72 818.608   4
 -10  -4   0 1299.56 551.760   1
 -10  -4   3 7892.46 643.458   2
  14 -10   3 7211.78 393.929   3
  10 -14   3 8288.80 744.400   3
 -10  -4   3 8600.47 941.652   4
 -14   4   3 8275.05 938.973   4
 -14   4   3 9403.60 689.270   2
 -10  -4   6 5060.00 780.268   4
 -14   4   6 4572.50 686.365   4
  -5  14 -10 2810.06 1901.19   1
  14  -9 -10 1482.95 1444.47   3
   9 -14 -10 1770.06 859.014   1
  -9  -5 -10 2399.78 718.070   3
   5   9 -10 736.214 1462.91   1
  -5  14 -10 1395.62 715.802   2
  -9  -5 -10 3029.05 1515.33   2
   9 -14 -10 2401.58 1286.00   3
  -9  -5 -10 1774.85 1133.06   4
  14  -9 -10 1797.17 974.335   1
 -14   5 -10 3126.24 1352.20   4
 -14   5 -10 2911.31 1427.46   2
   9 -14  -7 24264.7 1933.73   3
  -5  14  -7 25553.4 1404.79   2
 -14   5  -7 22233.5 2130.85   2
   5   9  -7 27401.9 2287.97   1
  -9  -5  -7 24561.7 1232.30   3
   9 -14  -7 25114.1 1240.74   1
  -5  14  -7 24766.1 1661.01   4
  14  -9  -7 25386.3 1638.57   1
  -9  -5  -7 24397.8 2275.07   2
  -9  -5  -7 23516.1 1722.17   4
  -5  14  -7 28326.4 2659.67   1
 -14   5  -7 26635.7 1960.00   4
   9 -14  -7 19553.8 1296.80   4
  14  -9  -7 20019.7 1180.40   2
  14  -9  -4 5884.55 766.276   2
   5   9  -4 6817.44 1136.08   1
  -9  -5  -4 5787.20 1169.00   2
   9 -14  -4 5539.85 995.705   3
   9 -14  -4 5232.14 373.239   1
  -5  14  -4 5833.92 729.861   2
  -9  -5  -4 5029.15 595.885   3
  -9  -5  -4 5211.84 645.210   1
  -5  14  -4 6028.89 1298.10   1
  14  -9  -4 6133.66 757.901   1
  -9  -5  -4 7639.89 988.680   4
 -14   5  -4 4127.83 999.302   4
  14  -9  -4 6068.98 798.501   4
 -14   5  -4 7155.69 1210.94   2
  -5  14  -4 5650.97 937.603   4
   9 -14  -4 6718.80 955.295   4
  14  -9  -1 28755.7 1539.85   3
   9 -14  -1 25282.4 1360.96   3
  -5  14  -1 26607.0 1399.80   3
  14  -9  -1 27504.6 1224.03   1
 -14   5  -1 26722.9 1671.03   4
  -9  -5  -1 26766.3 1176.52   3
   5   9  -1 25889.4 1235.16   1
  -5  14  -1 25512.6 1247.95   2
  -5  14  -1 27012.8 1513.91   1
  14  -9  -1 24388.6 1552.34   4
  -9  -5  -1 23628.3 1178.68   1
  -9  -5  -1 22224.3 1382.30   4
  -9  -5  -1 24976.5 1666.22   2
   9 -14  -1 24891.2 1580.54   4
 -14   5  -1 22575.4 1517.18   2
  14  -9  -1 23962.6 1477.60   2
  -5  14  -1 27697.7 1598.72   4
 -14   5   2 27498.6 1186.63   2
  14  -9   2 26500.5 812.471   3
   5   9   2 27825.4 1419.65   3
  -9  -5   2 28298.0 1356.17   2
   9 -14   2 28489.6 1223.26   3
  -9  -5   2 25222.1 1399.75   3
   5   9   2 27937.3 1083.17   1
 -14   5   2 27369.7 1521.65   4
   9 -14   5 41607.0 1623.43   3
 -14   5   5 38161.4 1505.69   4
  -9  -5   8 9568.73 817.731   4
   8 -14  -8 7416.32 865.222   1
   8 -14  -8 6165.67 1332.02   3
  -6  14  -8 5796.04 900.813   2
  -8  -6  -8 5964.45 829.357   3
 -14   6  -8 7315.75 1541.69   2
  14  -8  -8 6310.99 1105.26   1
  -8  -6  -8 4002.95 994.432   4
   6   8  -8 8208.75 1682.01   1
  -6  14  -8 6864.05 1857.71   1
  -8  -6  -8 5140.42 1519.16   2
 -14   6  -8 5405.58 1225.09   4
  -6  14  -8 5879.04 1050.12   4
  14  -8  -5 22684.5 1180.14   2
   6   8  -5 25726.8 1912.53   1
   8 -14  -5 24157.9 1679.99   3
  -8  -6  -5 28077.6 1231.53   3
  -8  -6  -5 20551.1 1133.08   1
  14  -8  -5 25111.1 1413.85   1
  -8  -6  -5 25382.3 2080.52   2
  -8  -6  -5 24742.9 1571.88   4
  14  -8  -5 26867.0 1242.81   4
  -6  14  -5 23808.3 2212.21   1
   8 -14  -5 24226.1 765.522   1
 -14   6  -5 22722.6 1713.82   4
  -6  14  -5 26155.2 1365.40   2
 -14   6  -5 24655.9 1927.26   2
   8 -14  -5 22989.8 1418.33   4
  -6  14  -5 28160.4 1710.33   4
  -6  14  -2 2275.05 734.662   4
  14  -8  -2 1792.37 638.326   2
  14  -8  -2 1733.57 669.755   4
   8 -14  -2 1688.33 638.488   3
  -6  14  -2 3140.05 631.386   3
 -14   6  -2 2228.48 812.347   4
  -8  -6  -2 2960.54 538.634   1
  -8  -6  -2 2184.27 498.630   3
  -6  14  -2 2478.82 554.574   2
  -8  -6  -2 953.162 621.873   4
  -8  -6  -2 2437.91 874.799   2
  -6  14  -2 2228.90 842.759   1
  14  -8  -2 2199.12 491.676   1
   8 -14  -2 3014.04 785.778   4
 -14   6  -2 2775.18 862.650   2
   6   8  -2 1509.59 636.807   1
  14  -8   1 110144. 2191.26   3
  14  -8   1 91743.3 3102.12   2
  -6  14   1 88250.0 1146.20   1
   8 -14   1 98542.3 2234.39   3
   6   8   1 97727.6 1984.27   1
  -8  -6   1 93022.4 2694.72   1
   8 -14   1 95630.4 2513.14   2
  14  -8   1 100037. 2428.65   1
  -8  -6   1 99643.2 2453.45   3
   6   8   1 97461.4 2306.14   3
  -8  -6   1 101996. 2663.95   2
 -14   6   1 96056.2 2759.08   4
  -6  14   1 81156.9 1499.14   1
 -14   6   1 92529.3 2238.96   1
 -14   6   1 94392.4 2341.54   2
   6   8   4 14240.1 1184.92   3
   8 -14   4 17676.9 1076.89   3
 -14   6   4 16859.7 870.410   2
 -14   6   4 14688.9 1056.97   4
  -8  -6   7 4902.63 772.984   4
  -7  14  -9 4143.06 1017.17   4
 -14   7  -9 2935.75 1355.20   2
  -7  -7  -9 4613.42 1620.18   2
  -7  14  -9 3536.47 1819.74   1
   7 -14  -9 1634.60 522.188   4
  -7  14  -9 4101.83 864.550   2
   7   7  -9 3791.11 1533.37   1
   7 -14  -9 3300.58 832.745   1
   7 -14  -9 4851.46 1308.65   3
  -7  -7  -9 3294.20 1034.58   4
  -7  -7  -9 5346.21 892.037   3
  14  -7  -9 2402.77 1021.97   1
 -14   7  -9 3802.96 1260.48   4
  -7  14  -6 3978.60 879.756   4
 -14   7  -6 4452.84 1210.07   2
  14  -7  -6 4297.17 651.685   2
  -7  14  -6 6973.17 1522.96   1
   7 -14  -6 4514.43 968.376   3
  -7  -7  -6 4617.34 690.630   3
  -7  14  -6 3300.65 698.702   2
   7 -14  -6 4546.00 480.073   1
   7   7  -6 2858.80 1082.63   1
 -14   7  -6 5415.62 1111.17   4
  14  -7  -6 4458.01 903.586   1
  -7  -7  -6 4320.65 913.773   4
  -7  -7  -6 5128.10 1270.37   2
   7 -14  -6 2969.02 767.881   4
   7 -14  -3 22479.7 1431.23   4
   7 -14  -3 22995.0 1441.25   3
  -7  14  -3 22023.3 1196.89   3
  -7  14  -3 24760.5 1281.92   2
  -7  -7  -3 24339.5 1105.00   3
  -7  -7  -3 21844.1 1391.06   4
   7   7  -3 21945.7 1428.50   1
  14  -7  -3 23050.4 1294.81   4
 -14   7  -3 22051.1 1689.13   2
 -14   7  -3 24780.0 1665.77   4
  14  -7  -3 22210.8 1200.10   1
  14  -7  -3 23219.9 1311.26   2
  -7  14  -3 22907.3 1529.55   4
  -7  -7  -3 22024.6 1006.13   1
 -14   7   0 783.992 549.926   2
  -7  -7   0 344.715 550.799   1
   7 -14   0 841.104 512.290   3
   7 -14   0 15.1875 523.600   2
   7   7   0 285.228 460.485   3
   7   7   0 540.968 402.506   1
  -7  -7   0-546.896 469.880   3
  14  -7   0 1411.67 717.629   4
  -7  14   0 309.710 471.599   2
  -7  14   0 254.006 572.803   3
  -7  14   0 1211.66 680.748   4
  14  -7   0 222.445 422.130   1
 -14   7   0 94.5801 407.972   1
  14  -7   0 103.272 673.022   2
 -14   7   0-430.240 669.381   4
   7 -14   0 800.016 695.538   4
 -14   7   3 26259.9 1112.37   2
  -7  -7   3 24446.8 770.942   2
   7 -14   3 24030.4 1213.02   3
 -14   7   3 24357.2 1383.34   4
  -7  -7   3 22227.1 1398.89   3
   7   7   3 27422.4 1397.75   3
   7 -14   3 21334.5 1430.52   2
   7   7   3 26056.4 1218.97   1
  -7  -7   6 4364.43 780.133   4
   7 -14   6 3774.89 817.573   3
 -14   7   6 3502.74 548.108   4
  -7  -7   9 2784.65 596.670   4
  -8  14 -10 5294.80 1132.28   4
 -14   8 -10 6001.50 1530.45   2
  -6  -8 -10 4818.77 1112.62   4
  -8  14 -10 4237.79 1049.74   2
  -6  -8 -10 4129.56 911.872   3
  14  -6 -10 6670.65 1374.00   1
  -8  14 -10 6457.60 2058.56   1
   8   6 -10 5906.09 1764.11   1
  -6  -8 -10 5643.67 1792.97   2
   6 -14 -10 4845.84 1053.65   1
  -6  -8 -10 3723.64 1350.05   1
   6 -14 -10 6649.18 1438.73   3
 -14   8 -10 6207.07 1463.90   4
  -8  14  -7 4198.42 954.204   4
 -14   8  -7 5220.30 1273.23   2
   8   6  -7 7558.95 1438.27   1
  -8  14  -7 5271.32 860.324   2
   6 -14  -7 5926.89 1160.38   3
  -6  -8  -7 6084.45 865.287   3
  14  -6  -7 4842.61 1013.94   1
  -6  -8  -7 6109.62 1436.53   2
  -6  -8  -7 4641.93 938.741   4
   6 -14  -7 4814.38 699.341   1
  -8  14  -7 6234.83 1652.80   1
 -14   8  -7 5214.33 1183.88   4
  14  -6  -7 4442.93 593.992   2
   6 -14  -7 3836.68 874.712   4
   6 -14  -4 17020.2 1314.27   3
  -8  14  -4 15584.4 1101.80   2
  -6  -8  -4 14196.1 1168.79   4
   8   6  -4 12935.0 1253.72   1
  -6  -8  -4 15013.3 846.284   1
  -6  -8  -4 15328.2 977.681   3
  -8  14  -4 15925.5 1058.62   3
  14  -6  -4 16476.5 1170.63   1
  14  -6  -4 16019.0 1033.32   4
 -14   8  -4 14562.5 1381.51   4
  -8  14  -4 14697.2 1295.72   4
 -14   8  -4 13126.7 1426.39   2
  14  -6  -4 12728.2 951.275   2
   6 -14  -4 12269.5 1115.86   4
   8   6  -1 94035.9 2255.71   1
 -14   8  -1 96340.9 2773.62   2
  -8  14  -1 96389.4 2393.69   3
   6 -14  -1 92875.8 2359.95   3
  -8  14  -1 94472.3 2311.75   2
  14  -6  -1 96547.4 2230.62   1
  -6  -8  -1 98353.7 2239.55   1
   8   6  -1 99337.8 2328.04   3
  -6  -8  -1 99733.1 2231.35   3
 -14   8  -1 94977.3 2184.34   1
  14  -6  -1 100715. 2732.36   4
 -14   8  -1 94673.8 2942.82   4
  14  -6  -1 97490.7 2809.78   2
   6 -14  -1 93868.0 2753.80   4
  -8  14  -1 106339. 2981.13   4
  14  -6   2 3184.54 430.546   3
   6 -14   2 4322.88 727.436   2
 -14   8   2 3816.94 596.140   2
  -6  -8   2 4080.61 995.948   1
   8   6   2 4732.58 650.621   3
   6 -14   2 3122.98 614.509   3
  14  -6   2 4315.62 357.962   3
  -6  -8   2 4565.79 785.321   3
  14  -6   2 3876.51 717.712   1
 -14   8   2 3455.88 638.161   1
   8   6   2 4599.41 605.169   1
  -8  14   2 3371.97 302.653   1
 -14   8   2 4577.96 781.019   4
  -8  14   2 4803.44 800.060   4
   8   6   5 23607.7 1399.76   3
  -6  -8   5 22067.8 1365.94   4
   6 -14   5 25591.5 1409.04   3
 -14   8   5 25403.4 1221.04   4
 -14   9  -8 11164.3 1539.49   4
   5 -14  -8 12336.8 1476.03   3
   5 -14  -8 14292.5 1179.71   1
  -9  14  -8 10532.4 1168.44   2
   9   5  -8 10187.2 1621.59   1
  -5  -9  -8 10796.2 1122.89   3
  -5  -9  -8 12072.0 1816.13   2
  14  -5  -8 12040.4 1457.23   1
  -5  -9  -8 12853.1 1336.53   4
  -9  14  -8 11849.9 2221.44   1
  -9  14  -8 15275.3 1533.83   4
 -14   9  -8 12909.4 1711.98   2
   5 -14  -5 36639.1 1894.31   3
   9   5  -5 42087.2 2256.90   1
  -9  14  -5 36744.2 1728.56   2
  -5  -9  -5 38213.7 1571.46   3
  -9  14  -5 42616.2 1640.45   3
  -5  -9  -5 37283.3 1258.68   1
  14  -5  -5 41509.4 1896.52   1
 -14   9  -5 36868.4 2216.19   2
  -5  -9  -5 44408.0 1952.15   4
 -14   9  -5 39457.1 2208.82   4
  14  -5  -5 37192.8 1333.63   2
  -9  14  -5 43128.4 2144.66   4
   5 -14  -5 37229.2 1778.06   4
   5 -14  -2 26998.1 1434.38   3
  -9  14  -2 31127.8 1378.27   3
  -9  14  -2 27974.6 1389.42   2
  -5  -9  -2 27500.1 1224.66   3
  14  -5  -2 28523.7 1311.43   1
  -5  -9  -2 29333.1 1167.69   1
   9   5  -2 30049.2 1476.05   1
   5 -14  -2 27674.6 1560.60   4
  14  -5  -2 27944.7 1418.64   4
  -9  14  -2 27448.6 1655.34   4
  14  -5  -2 30738.0 1569.06   2
 -14   9  -2 27704.4 1752.66   4
 -14   9  -2 26844.4 1665.38   2
  -9  14   1 26916.9 1547.89   3
 -14   9   1 29435.2 1346.43   2
  14  -5   1 28684.2 1329.05   1
   5 -14   1 28351.6 1372.88   2
   9   5   1 29679.3 1216.49   3
   5 -14   1 27637.5 1282.76   3
   9   5   1 27999.6 1229.06   1
  -9  14   1 29472.3 1391.74   2
  -5  -9   1 29551.4 1374.86   3
  14  -5   1 29829.9 994.035   3
  -5  -9   1 26804.6 1569.93   1
  14  -5   1 30994.6 1943.65   2
  -9  14   1 30230.6 857.743   1
  -9  14   1 28068.8 1596.74   4
 -14   9   1 28519.8 1633.22   4
 -14   9   1 28776.4 1237.71   1
  -5  -9   4 5199.19 499.089   2
   9   5   4 4422.75 734.645   3
 -14   9   4 6239.45 790.314   4
   5 -14   4 5800.73 756.630   3
 -14   9   4 6187.24 669.152   2
  -5  -9   4 5901.61 884.051   3
  -9  14   4 4112.59 564.688   1
   5 -14   4 5406.59 935.850   2
  -5  -9   4 5252.28 832.172   4
  -5  -9   7 19073.0 1406.63   4
 -10  14  -9 13426.4 2312.08   1
  -4 -10  -9 7542.12 1039.00   3
 -10  14  -9 8600.45 1215.02   2
   4 -14  -9 9625.17 1106.22   1
  14  -4  -9 10561.1 1467.50   1
  -4 -10  -9 8830.62 1436.59   1
   4 -14  -9 10433.7 1436.99   3
  10   4  -9 12713.2 1834.58   1
   4 -14  -9 6535.79 809.968   4
  -4 -10  -9 10457.4 1851.14   2
  -4 -10  -9 8508.76 1192.57   4
 -14  10  -9 13300.8 1658.11   4
 -14  10  -9 9772.56 1601.68   2
 -10  14  -9 8296.34 1284.22   4
 -10  14  -6 5244.17 906.424   2
 -14  10  -6 5200.60 1093.92   2
  -4 -10  -6 3496.64 839.677   4
   4 -14  -6 5642.79 1010.29   3
   4 -14  -6 4042.95 481.402   1
  -4 -10  -6 4092.83 740.973   3
  14  -4  -6 5493.85 979.099   1
   4 -14  -6 2379.15 320.476   1
  14  -4  -6 2628.50 404.430   2
  10   4  -6 3206.28 1019.71   1
  -4 -10  -6 3723.02 551.078   1
 -10  14  -6 2439.70 675.619   3
 -14  10  -6 4322.57 1021.67   4
 -10  14  -6 5479.16 1031.17   4
 -14  10  -3 8847.02 1225.87   4
 -10  14  -3 6533.24 817.823   2
 -10  14  -3 6621.46 739.198   3
   4 -14  -3 6124.08 882.005   3
  -4 -10  -3 7650.92 816.776   3
  10   4  -3 6097.25 847.702   1
  14  -4  -3 6625.08 800.514   1
  14  -4  -3 6507.64 816.950   4
  -4 -10  -3 6572.09 571.865   1
  14  -4  -3 6096.36 796.931   2
 -10  14  -3 6496.11 1003.90   4
 -14  10  -3 5682.31 984.853   2
 -10  14   0 199.317 330.989   1
  14  -4   0 571.546 453.746   1
 -10  14   0 143.736 638.278   3
 -14  10   0 714.385 430.198   1
 -14  10   0 86.1702 484.622   2
  -4 -10   0 164.261 565.342   1
   4 -14   0 208.573 494.140   3
  14  -4   0 1051.96 818.703   2
  10   4   0 596.551 463.555   3
  -4 -10   0 560.784 487.187   3
   4 -14   0 996.726 514.510   2
 -10  14   0-258.432 466.549   2
  14  -4   0 322.073 424.466   3
  14  -4   0 894.201 656.535   4
  10   4   0 498.977 469.166   1
 -14  10   0 1128.39 729.479   4
 -10  14   0 874.238 670.020   4
   4 -14   3 12424.4 1060.87   2
 -14  10   3 14401.6 942.007   2
  10   4   3 13078.1 926.307   3
  -4 -10   3 12253.4 720.270   2
   4 -14   3 15102.4 1096.07   3
  -4 -10   3 12717.1 1099.94   3
  10   4   3 12843.7 1022.40   1
 -10  14   3 13166.0 744.188   1
 -14  10   3 13205.6 1076.23   4
 -10  14   3 12885.7 1087.34   4
 -14  10   3 14038.7 1140.37   1
   4 -14   6 509.839 740.491   3
 -14  10   6 1255.57 480.996   4
  -4 -10   6 161.428 364.389   2
  -4 -10   6 651.991 726.870   4
   3 -14 -10 5636.90 1546.74   2
 -11  14 -10 7144.39 1406.51   4
 -11  14 -10 9268.23 1349.65   2
 -14  11 -10 6891.69 1528.28   2
  11   3 -10 8848.59 1743.89   1
  -3 -11 -10 6582.47 1073.50   3
  -3 -11 -10 6295.94 1340.69   1
   3 -14 -10 7082.47 1289.35   3
  -3 -11 -10 4717.09 1064.44   4
  14  -3 -10 6096.92 1408.22   1
  -3 -11 -10 7434.76 1922.41   2
 -11  14 -10 8502.38 2187.98   1
 -14  11 -10 9439.20 1635.42   4
 -14  11  -7 4347.27 1137.45   2
 -14  11  -7 2363.58 278.475   3
  -3 -11  -7 4757.25 926.035   3
   3 -14  -7 3423.02 674.563   1
   3 -14  -7 5112.30 1036.62   3
 -11  14  -7 4114.42 953.013   2
 -11  14  -7 3517.34 746.052   3
 -14  11  -7 5489.29 1166.80   4
  -3 -11  -7 2751.42 587.645   1
  -3 -11  -7 3418.00 860.149   4
  14  -3  -7 2674.68 928.981   1
  11   3  -7 5589.88 1221.13   1
   3 -14  -7 2702.55 451.126   1
 -11  14  -7 5379.49 1148.12   4
   3 -14  -4 23111.6 1437.19   3
 -11  14  -4 20451.6 1105.23   3
  -3 -11  -4 20891.9 1215.83   3
  11   3  -4 18072.7 1401.44   1
  14  -3  -4 21995.5 1394.89   1
  14  -3  -4 21245.3 1077.05   2
 -11  14  -4 19861.1 1337.98   2
 -14  11  -4 20849.7 1672.26   4
  -3 -11  -4 21242.0 841.901   1
 -11  14  -4 24765.6 1718.21   4
 -14  11  -4 19948.9 1567.76   2
  -3 -11  -1 10529.4 879.058   1
 -11  14  -1 11059.9 996.309   3
 -11  14  -1 9558.29 909.377   2
   3 -14  -1 9293.03 895.192   3
  -3 -11  -1 10030.2 839.812   3
 -11  14  -1 10487.4 1193.91   4
 -14  11  -1 10073.5 813.420   1
  11   3  -1 9756.37 866.272   3
  14  -3  -1 9987.29 872.978   3
 -14  11  -1 9432.02 984.886   2
  14  -3  -1 12514.5 1098.08   4
  14  -3  -1 10739.0 1147.56   2
  14  -3  -1 9839.26 839.148   1
 -11  14  -1 11984.0 833.933   1
 -14  11  -1 12567.1 1276.85   4
  11   3  -1 10245.6 873.693   1
   3 -14   2 15917.3 1050.91   2
 -14  11   2 15379.8 986.290   2
  14  -3   2 15868.7 653.570   3
  -3 -11   2 16150.2 869.200   2
   3 -14   2 15551.0 1102.20   3
  -3 -11   2 14181.2 1100.10   3
 -11  14   2 15185.5 1064.78   2
 -11  14   2 15553.8 802.451   1
 -14  11   2 15912.1 1032.23   1
  14  -3   2 16619.1 1133.23   1
  11   3   2 15770.2 1046.52   1
  11   3   2 14698.5 883.498   3
  -3 -11   2 14081.9 1476.56   1
 -14  11   2 13913.2 1193.86   4
 -11  14   2 16521.0 1263.72   4
  11   3   5 9179.92 833.925   3
   3 -14   5 10906.3 1229.12   2
  -3 -11   5 8474.15 826.002   2
   3 -14   5 8413.64 1010.09   3
  -3 -11   5 8120.61 1044.56   3
 -11  14   5 8868.54 1013.95   1
 -14  11   5 9111.42 845.134   4
 -12  14  -8 25716.9 1901.69   2
   2 -14  -8 27249.1 1881.12   3
  -2 -12  -8 24334.7 1686.11   3
  12   2  -8 28401.2 2237.87   1
  14  -2  -8 28340.9 2113.27   1
  -2 -12  -8 27967.7 2474.16   2
  -2 -12  -8 20104.3 1492.42   4
  -2 -12  -8 21867.6 1596.67   1
   2 -14  -8 25539.3 1488.06   4
   2 -14  -8 25373.2 1426.56   1
 -14  12  -8 26975.8 2081.70   4
 -12  14  -8 29934.9 2105.87   4
 -14  12  -8 26443.3 2088.85   2
  -2 -12  -5 48155.8 1187.85   1
 -12  14  -5 48593.4 2185.54   2
 -14  12  -5 39464.3 1048.11   3
 -12  14  -5 49616.5 1599.34   3
  -2 -12  -5 51216.6 2008.28   3
  12   2  -5 49885.6 2298.61   1
  14  -2  -5 48185.2 2200.10   1
   2 -14  -5 54671.5 2236.82   3
 -14  12  -5 54850.3 2626.29   4
 -12  14  -5 53527.9 2518.38   4
 -14  12  -5 49322.8 2429.28   2
 -14  12  -2 19101.6 1023.61   3
  -2 -12  -2 20584.6 989.121   1
 -14  12  -2 20236.0 1332.43   2
 -12  14  -2 20154.2 1174.94   3
 -12  14  -2 19757.8 1320.06   2
  14  -2  -2 19287.7 1184.19   1
 -12  14  -2 18362.8 1491.75   4
   2 -14  -2 21374.3 1263.71   3
  -2 -12  -2 19697.5 1166.82   3
 -12  14  -2 20047.5 1169.61   1
  14  -2  -2 17969.7 1230.16   2
  12   2  -2 17398.1 1156.90   1
 -14  12  -2 19808.4 1561.35   4
 -12  14   1 33680.3 1832.91   3
 -12  14   1 35854.1 1156.17   1
 -14  12   1 33397.6 1481.74   2
   2 -14   1 32926.2 1403.39   2
  12   2   1 34410.5 1236.68   3
 -12  14   1 31666.5 1434.37   2
  -2 -12   1 32641.3 1500.75   3
  14  -2   1 34860.1 1147.58   3
  -2 -12   1 33155.0 1322.33   2
  14  -2   1 34325.2 2105.55   2
  12   2   1 31989.6 1392.04   1
  14  -2   1 32763.5 1443.15   1
   2 -14   1 34819.6 1526.04   3
  -2 -12   1 30207.9 1778.19   1
 -14  12   1 36126.0 1870.54   4
 -12  14   1 34468.8 1805.81   4
 -14  12   1 31383.8 1243.99   1
   2 -14   4 15636.5 1200.75   2
 -14  12   4 17196.9 1389.49   1
  -2 -12   4 15635.5 986.273   2
  12   2   4 13583.1 830.223   3
   2 -14   4 14988.8 1194.44   3
 -14  12   4 15453.8 1092.86   2
  -2 -12   4 14278.8 1203.44   3
 -14  12   4 15631.8 1146.75   4
 -12  14   4 12590.1 992.528   1
 -12  14   4 16770.7 1211.46   4
  -2 -12   7 15147.5 1110.85   2
   2 -14   7 17328.6 1619.06   2
   1 -14  -9 4115.20 897.118   1
 -14  13  -9 5002.81 1268.54   2
 -13  14  -9 5387.63 1255.49   2
  -1 -13  -9 2544.32 958.830   3
  14  -1  -9 5641.25 1326.09   1
  13   1  -9 5020.72 1334.88   1
 -13  14  -9 6407.81 1294.52   4
 -14  13  -9 4314.86 1235.44   4
  -1 -13  -9 5418.62 1572.61   2
   1 -14  -9 3734.38 822.595   4
  -1 -13  -9 3582.73 890.484   4
  -1 -13  -9 7203.18 1154.51   1
   1 -14  -9 4737.04 1128.19   3
 -14  13  -6 1451.19 983.196   2
 -13  14  -6 646.772 781.266   2
 -14  13  -6 3334.86 1016.67   4
   1 -14  -6 2379.62 804.295   3
 -13  14  -6 1279.12 601.990   3
  -1 -13  -6 1205.55 362.542   1
   1 -14  -6 1103.23 282.378   1
 -13  14  -6 2330.15 959.929   4
   1 -14  -6 1354.05 473.895   1
 -14  13  -6 1305.73 469.926   3
  13   1  -6 1712.17 881.771   1
  -1 -13  -6 1757.40 765.777   3
  14  -1  -6 1798.54 848.289   1
  14  -1  -3 10745.3 878.114   2
 -14  13  -3 12305.9 1159.90   2
 -13  14  -3 11998.6 937.601   3
   1 -14  -3 10372.9 983.970   3
  -1 -13  -3 11228.8 978.674   3
  -1 -13  -3 9209.81 589.835   1
  14  -1  -3 11273.2 1049.74   1
  13   1  -3 9772.37 1012.33   1
 -14  13  -3 10902.2 830.483   3
 -13  14  -3 11056.8 1096.18   2
 -14  13  -3 11897.1 1336.11   4
 -13  14  -3 11599.3 1306.52   4
 -13  14   0 6317.05 1011.92   4
  13   1   0 6449.45 684.586   3
 -13  14   0 6883.10 851.670   2
  13   1   0 6255.93 742.128   1
   1 -14   0 5205.19 726.198   3
  -1 -13   0 7815.03 849.794   3
 -14  13   0 5778.55 629.777   1
  14  -1   0 6156.52 762.400   1
 -14  13   0 6842.40 1028.21   4
  14  -1   0 6946.38 689.204   3
  -1 -13   0 7038.64 778.412   2
 -13  14   0 5856.78 606.384   1
   1 -14   0 6003.70 823.858   1
  14  -1   0 7136.54 1096.93   2
  -1 -13   0 5960.63 893.818   1
 -14  13   0 6689.93 824.862   2
 -13  14   0 6625.36 957.192   3
   1 -14   3 17644.1 1120.01   2
  -1 -13   3 19037.9 1068.90   2
  13   1   3 19421.5 942.446   3
 -13  14   3 19204.7 1141.75   1
  14  -1   3 17112.6 1235.26   1
 -14  13   3 19551.8 1243.57   1
 -14  13   3 17917.2 1150.57   2
   1 -14   3 18257.3 1253.50   3
  -1 -13   3 16132.5 1242.64   3
  14  -1   3 19827.0 803.923   3
 -14  13   3 21046.0 1391.59   4
 -13  14   3 18060.6 1300.80   4
 -13  14   3 16938.8 1145.68   2
  13   1   3 16937.7 1247.50   1
  -1 -13   6 1838.39 800.454   2
   1 -14   6 2736.74 855.368   3
 -13  14   6 1070.45 940.198   1
 -14  13   6 3090.97 656.770   4
   1 -14   6 3297.93 985.564   2
 -14  14 -10 10984.8 1643.93   2
   0 -14 -10 7732.45 1238.71   3
 -14  14 -10 10713.5 2552.37   1
   0 -14 -10 9336.18 1924.18   2
 -14  14 -10 8466.10 1561.89   4
  14   0 -10 7208.68 1504.33   1
   0 -14  -7-259.625 594.580   1
 -14  14  -7 1355.38 956.802   2
   0 -14  -7-288.921 794.988   3
 -14  14  -7-996.624 928.458   4
   0 -14  -7 38.2331 362.038   1
 -14  14  -7 769.995 567.396   3
  14   0  -7-1027.58 856.308   1
  14   0  -4 3272.53 779.902   1
 -14  14  -4 2958.09 617.587   3
   0 -14  -4 1924.11 262.296   1
 -14  14  -4 3283.82 810.078   2
   0 -14  -4 2846.55 745.925   3
 -14  14  -4 4667.77 1018.39   4
 -14  14  -1 1191.14 677.003   3
 -14  14  -1 714.605 598.686   2
   0 -14  -1 737.802 541.869   3
   0 -14  -1 1312.70 602.850   1
 -14  14  -1 1217.59 511.587   1
  14   0  -1 256.618 507.892   3
  14   0  -1 1049.71 723.142   2
 -14  14  -1 47.9927 696.538   4
  14   0  -1 500.516 498.940   1
   0 -14   2 13762.3 953.963   2
  14   0   2 12739.2 1045.63   1
 -14  14   2 15087.5 1081.51   2
   0 -14   2 14663.5 1141.45   3
 -14  14   2 13975.6 934.890   1
   0 -14   2 13915.0 1495.15   1
 -14  14   2 16638.5 1315.51   4
  14   0   2 14667.5 812.384   3
   0 -14   5 290.774 717.873   2
 -14  14   5 1042.70 767.481   1
 -14  14   5 126.832 576.298   4
   0 -14   5-205.882 656.189   3
  15 -15  -9 2014.34 1508.19   3
  15 -15  -9-506.082 768.389   1
 -15   0  -9-1548.79 1406.35   2
 -15   0  -9 1150.95 1161.76   4
   0  15  -9 1822.02 1579.19   1
  15 -15  -6 14980.6 1788.88   3
  15 -15  -6 12408.2 974.076   1
 -15   0  -6 13596.7 1588.22   4
 -15   0  -6 13276.7 1921.81   2
  15 -15  -6 10609.4 1237.62   4
   0  15  -6 14499.8 1858.52   1
   0  15  -3-522.681 739.190   1
  15 -15  -3-789.208 806.232   3
  15 -15  -3 373.693 460.946   1
 -15   0  -3 968.959 780.515   4
 -15   0  -3 459.218 930.256   2
   0  15   0 39503.6 1364.02   1
 -15   0   0 43496.8 2127.49   4
 -15   0   0 44156.4 2209.69   2
  15 -15   0 41456.1 1674.68   3
 -15   0   3 392.933 422.940   2
  15 -15   3 30.5907 411.689   3
 -15   0   3 560.870 689.418   4
 -15   0   6 33847.1 1646.80   4
  14 -15 -10 2873.61 928.768   1
  15 -14 -10 2450.75 1002.18   1
  14 -15 -10 5744.33 1676.41   3
  -1  15 -10 2415.34 1605.25   1
   1  14 -10 2481.31 1692.32   1
 -14  -1 -10 3110.97 1355.43   4
 -15   1 -10 5149.01 1533.41   4
 -14  -1 -10 2452.26 1796.42   2
 -15   1 -10 5634.24 1877.21   2
  15 -14 -10 3581.30 1559.12   3
  15 -14  -7 15520.8 1859.64   3
  14 -15  -7 15741.5 1894.48   3
 -15   1  -7 15951.4 2098.35   2
 -14  -1  -7 18655.2 1797.70   4
 -14  -1  -7 16514.3 2172.03   2
 -14  -1  -7 12707.3 655.901   3
  -1  15  -7 12234.2 910.541   2
   1  14  -7 20214.5 2143.49   1
  15 -14  -7 16004.5 1181.43   1
 -15   1  -7 16976.3 1793.46   4
  -1  15  -7 15379.3 2076.68   1
  14 -15  -7 14388.1 1125.39   1
  15 -14  -4 26557.5 1968.00   3
 -15   1  -4 25252.1 2142.45   2
  14 -15  -4 20607.6 1731.40   3
  -1  15  -4 24599.7 1973.48   1
  15 -14  -4 23296.4 1182.69   1
  14 -15  -4 23566.6 1089.96   1
 -14  -1  -4 22369.6 1752.38   4
 -14  -1  -4 21695.9 908.067   3
 -14  -1  -4 23285.0 2183.66   2
 -15   1  -4 24123.9 1843.10   4
  15 -14  -4 19652.8 1474.57   4
   1  14  -4 22882.1 1919.29   1
  -1  15  -1 40167.4 1665.40   1
  15 -14  -1 41088.9 1913.54   3
  15 -14  -1 36988.9 1482.32   1
  14 -15  -1 42452.5 1855.98   3
 -14  -1  -1 41041.1 2268.22   2
   1  14  -1 37996.6 1563.06   1
 -14  -1  -1 34813.6 1890.98   4
 -15   1  -1 39248.3 2104.73   4
 -15   1  -1 38159.9 2169.27   2
  14 -15   2 17047.7 979.954   3
   1  14   2 12949.1 633.603   1
 -14  -1   2 15309.6 1297.19   4
 -15   1   2 18240.8 1390.82   4
 -14  -1   2 17881.5 1179.41   2
  15 -14   2 16655.2 886.222   3
 -15   1   2 15390.3 1074.48   2
 -15   1   5 30444.2 1608.37   4
  14 -15   5 33119.5 1282.65   3
 -14  -1   5 33296.8 1668.43   4
 -14  -1   8 6249.21 723.721   4
 -15   1   8 5057.07 567.537   4
   2  13  -8 4398.49 1644.64   1
  15 -13  -8 5232.24 1598.72   3
  -2  15  -8 2669.47 1663.57   1
  13 -15  -8 2179.95 713.070   1
  13 -15  -8 3436.53 1286.64   3
 -15   2  -8 3650.69 1185.67   4
 -13  -2  -8 3533.67 1156.46   4
 -13  -2  -8 1898.81 492.154   3
  -2  15  -8 1540.73 586.404   2
  15 -13  -8 1688.27 834.964   1
 -13  -2  -8 3168.00 1564.68   2
 -15   2  -8 2366.82 1543.47   2
  15 -13  -5 2999.73 854.469   4
 -13  -2  -5 3401.40 1000.68   4
  -2  15  -5 3844.44 1315.87   1
  15 -13  -5 1192.92 953.754   3
  13 -15  -5 3550.95 1081.87   3
   2  13  -5 2498.72 1082.87   1
 -13  -2  -5 2838.31 480.873   3
  -2  15  -5 2908.49 591.006   2
  13 -15  -5 3586.10 938.954   4
 -15   2  -5 2655.25 1032.05   4
 -13  -2  -5 4894.59 1405.66   2
  13 -15  -5 2734.64 529.207   1
 -15   2  -5 2814.80 1161.05   2
  15 -13  -5 3839.64 664.529   1
 -13  -2  -2 7429.45 1258.14   2
  15 -13  -2 6070.34 1030.77   3
  13 -15  -2 6231.90 961.681   3
   2  13  -2 5760.49 885.024   1
 -15   2  -2 6667.40 1206.55   2
 -13  -2  -2 5832.80 655.960   3
 -15   2  -2 7311.52 1126.24   4
  13 -15  -2 6014.21 600.274   1
  -2  15  -2 6260.96 978.774   1
  15 -13  -2 5746.63 704.480   1
 -13  -2  -2 6101.67 975.606   4
 -15   2   1 31049.1 1585.72   2
  15 -13   1 29870.3 1242.23   3
  13 -15   1 28335.3 1258.79   3
 -15   2   1 31311.1 1767.92   4
 -13  -2   1 27832.2 1628.33   4
  -2  15   1 31833.0 884.139   1
 -13  -2   1 34094.3 1753.35   2
   2  13   1 29232.2 1054.78   1
 -15   2   4 12473.5 666.558   2
  13 -15   4 11053.0 841.087   3
 -13  -2   4 12292.4 1118.73   4
  15 -13   4 10923.1 606.285   3
 -15   2   4 10669.3 1089.01   4
 -13  -2   7 12266.2 1043.78   4
 -15   2   7 12662.2 935.499   4
  -3  15  -9 329.774 1507.54   1
 -12  -3  -9 756.310 1037.83   4
  12 -15  -9 1146.66 1200.29   3
   3  12  -9 788.279 1636.84   1
  15 -12  -9 149.441 781.570   1
  -3  15  -9-13.3588 578.863   2
  15 -12  -9 608.828 1441.06   3
 -15   3  -9 234.583 1029.62   4
 -12  -3  -9-1617.59 1276.18   2
 -15   3  -9 235.643 1459.25   2
  12 -15  -9 816.604 718.241   1
  12 -15  -6 10705.4 1440.99   3
  -3  15  -6 10792.5 918.348   2
  12 -15  -6 9091.09 1126.17   4
  12 -15  -6 11418.3 820.055   1
  -3  15  -6 11066.6 1738.64   1
 -12  -3  -6 10692.9 1355.24   4
  15 -12  -6 12046.3 1088.35   4
 -12  -3  -6 9329.87 1639.54   2
 -12  -3  -6 10501.5 756.190   3
  15 -12  -6 11442.3 1062.54   1
 -15   3  -6 11511.0 1445.85   4
 -15   3  -6 10489.9 1721.47   2
   3  12  -6 14030.2 1682.91   1
  15 -12  -6 12338.7 1676.85   3
  -3  15  -3 1195.18 841.571   1
 -15   3  -3 549.543 934.023   2
  15 -12  -3-100.627 776.990   3
  12 -15  -3 783.439 731.474   3
  15 -12  -3 299.546 479.143   1
   3  12  -3 107.393 773.769   1
 -12  -3  -3 402.162 414.183   3
  -3  15  -3 376.950 442.103   2
 -12  -3  -3 1801.64 1058.80   2
 -12  -3  -3 325.416 666.137   4
 -15   3  -3 1603.19 847.962   4
  15 -12  -3 1101.96 753.749   4
  12 -15  -3 611.806 342.355   1
  15 -12   0 18924.7 1241.64   3
  12 -15   0 16752.9 1092.77   3
 -12  -3   0 17335.0 1314.75   4
 -12  -3   0 15148.8 1066.09   3
   3  12   0 17826.0 979.240   1
 -15   3   0 19711.4 1470.35   4
 -15   3   0 16962.9 1362.45   2
 -12  -3   0 20175.9 1533.31   2
  15 -12   0 19247.6 1169.79   1
  -3  15   0 18668.9 951.249   1
 -15   3   3 13424.5 829.714   2
  15 -12   3 13526.8 662.772   3
  12 -15   3 14207.5 937.167   3
 -12  -3   3 14439.0 1180.14   4
 -15   3   3 13786.1 1170.42   4
 -12  -3   3 14716.8 841.420   2
 -12  -3   6 3847.30 735.272   4
 -15   3   6 3295.97 691.869   4
  11 -15 -10 16557.7 2088.96   3
  15 -11 -10 15369.4 2283.33   3
  11 -15 -10 15913.2 1390.46   1
  15 -11 -10 14504.8 1593.58   1
   4  11 -10 19668.5 2592.09   1
 -11  -4 -10 18745.9 2555.11   2
 -11  -4 -10 14318.2 1850.26   4
  -4  15 -10 19564.0 2866.68   1
 -15   4 -10 13984.6 1908.01   4
 -15   4 -10 16916.2 2385.48   2
  11 -15  -7 21238.9 1889.93   3
  -4  15  -7 19964.9 1207.66   2
 -11  -4  -7 23987.5 1195.75   3
  15 -11  -7 21113.2 1025.95   4
  -4  15  -7 25851.7 2559.09   1
 -15   4  -7 21006.5 2211.19   2
  15 -11  -7 22520.0 1500.03   1
  11 -15  -7 23846.2 1212.73   1
  15 -11  -7 22375.4 2213.82   3
 -11  -4  -7 23736.5 2389.31   2
 -11  -4  -7 21017.0 1742.37   4
 -15   4  -7 27026.9 2053.98   4
  11 -15  -7 17975.1 1344.85   4
   4  11  -7 22640.3 2250.06   1
  15 -11  -4 31148.1 2062.97   3
   4  11  -4 34672.4 2073.68   1
  15 -11  -4 30010.7 1531.93   2
  11 -15  -4 29515.6 1899.68   3
  -4  15  -4 29084.2 1348.27   2
 -11  -4  -4 32147.3 1220.92   3
  15 -11  -4 30649.0 1429.89   1
  11 -15  -4 29881.5 916.084   1
 -11  -4  -4 31959.0 1834.81   4
 -11  -4  -4 31095.2 2379.26   2
  15 -11  -4 31901.9 1705.52   4
  -4  15  -4 31961.3 2274.79   1
 -15   4  -4 34147.5 2109.91   4
 -15   4  -4 30625.0 2187.83   2
  11 -15  -4 26935.6 1649.71   4
  15 -11  -1 14563.8 1212.33   3
  11 -15  -1 13015.1 1088.33   3
   4  11  -1 11062.6 923.078   1
 -11  -4  -1 12617.3 919.832   3
  -4  15  -1 12103.1 1000.84   2
 -11  -4  -1 11219.8 1097.87   4
 -15   4  -1 11278.3 1197.93   2
 -11  -4  -1 13401.7 1405.87   2
 -15   4  -1 11806.9 1300.55   4
  -4  15  -1 10837.7 1036.28   1
  15 -11  -1 11638.0 876.219   1
 -15   4   2 17415.4 1035.67   2
  15 -11   2 17608.8 784.148   3
  11 -15   2 18994.8 1057.21   3
 -11  -4   2 22272.6 1302.65   2
   4  11   2 17742.3 881.494   1
 -11  -4   2 19479.8 1327.78   4
 -15   4   2 18301.4 1372.18   4
 -11  -4   5 51915.5 1982.85   4
 -15   4   5 51445.2 1851.56   4
 -11  -4   8 9350.61 867.745   4
  15 -10  -8 1902.88 1288.31   3
  10 -15  -8 4028.19 1287.27   3
  15 -10  -8 2994.52 961.771   1
 -10  -5  -8 2764.34 656.795   3
   5  10  -8-189.562 1291.76   1
  -5  15  -8 3186.02 733.083   2
 -15   5  -8 2782.30 1128.34   4
 -10  -5  -8 2987.92 1066.19   4
 -10  -5  -8 3493.74 1472.25   2
  10 -15  -8 2457.42 654.950   1
  -5  15  -8 4858.96 1744.42   1
 -15   5  -8 1541.26 1311.72   2
   5  10  -5 22914.4 1910.66   1
 -10  -5  -5 23687.2 2127.89   2
  15 -10  -5 20497.0 1242.15   2
  10 -15  -5 26003.9 1833.12   3
 -10  -5  -5 23853.0 1103.09   3
 -15   5  -5 21188.2 1935.46   2
  15 -10  -5 24801.9 1384.41   1
  -5  15  -5 22569.7 1251.29   2
 -10  -5  -5 22022.6 1587.37   4
  15 -10  -5 26236.9 1405.63   4
  -5  15  -5 26814.1 2285.82   1
 -15   5  -5 21208.0 1733.43   4
  10 -15  -5 22304.0 1489.43   4
  -5  15  -5 23860.1 1630.51   4
  10 -15  -5 22407.3 795.937   1
 -10  -5  -2 23465.8 1507.03   4
  10 -15  -2 24058.5 1439.12   3
  -5  15  -2 25012.3 1593.82   4
   5  10  -2 20203.8 1301.14   1
  15 -10  -2 22350.4 1154.61   1
 -10  -5  -2 22510.6 1104.07   3
  -5  15  -2 22406.2 1210.41   2
 -15   5  -2 23261.5 1723.54   4
 -10  -5  -2 20630.2 1745.71   2
  -5  15  -2 24751.7 1677.61   1
  15 -10  -2 23983.4 1568.66   4
 -10  -5  -2 20740.5 1120.40   1
 -15   5  -2 20123.1 1586.51   2
  15 -10  -2 22571.9 1561.02   3
  15 -10  -2 23114.6 1492.32   2
   5  10   1 68715.4 1698.04   1
  -5  15   1 57219.6 1090.15   1
  15 -10   1 77044.4 1911.82   3
  10 -15   1 64058.6 1841.85   3
 -10  -5   1 65868.1 2114.30   3
 -15   5   1 71082.4 2526.93   4
 -10  -5   1 65822.6 2318.37   4
 -10  -5   1 70584.9 2419.74   2
 -15   5   1 65911.7 2106.19   2
 -15   5   4 28005.6 1054.81   2
  10 -15   4 26168.4 1285.41   3
 -10  -5   7 3618.45 768.621   4
 -10  -5   7 2396.26 750.937   4
 -15   5   7 3050.01 458.099   4
  15  -9  -9 137.696 881.597   1
 -15   6  -9 909.228 1087.29   4
   9 -15  -9 1398.39 1129.96   3
  -6  15  -9 1786.75 1691.67   1
  -9  -6  -9 833.935 627.012   3
  -6  15  -9 328.515 655.540   2
   6   9  -9-1315.03 1285.40   1
   9 -15  -9 523.705 646.488   1
  -9  -6  -9 1819.51 953.219   4
  -9  -6  -9 888.953 1260.53   2
 -15   6  -9 653.088 1264.01   2
  15  -9  -6 9079.84 919.666   2
   6   9  -6 10981.4 1529.65   1
   9 -15  -6 9448.91 1106.19   4
  15  -9  -6 10071.7 850.107   4
   9 -15  -6 8206.41 1232.46   3
  -6  15  -6 10999.8 1018.56   2
  -9  -6  -6 11482.8 940.083   3
  -9  -6  -6 9594.85 1176.29   4
 -15   6  -6 10330.9 1585.14   2
  15  -9  -6 10383.5 1159.71   1
   9 -15  -6 8898.02 622.009   1
  -9  -6  -6 9197.54 1582.16   2
  -6  15  -6 12029.6 1914.89   1
 -15   6  -6 9929.28 1313.08   4
  -6  15  -6 8761.86 1091.85   4
 -15   6  -3 4208.37 1030.10   2
  -6  15  -3 4991.70 894.066   4
  -6  15  -3 2870.20 977.038   1
  15  -9  -3 4637.73 692.685   1
  15  -9  -3 3340.00 779.181   2
   9 -15  -3 2622.22 797.105   4
   9 -15  -3 4308.97 863.859   3
  -6  15  -3 3559.05 641.642   2
  -9  -6  -3 4316.85 636.954   3
  -9  -6  -3 4333.66 819.469   4
  -9  -6  -3 4217.85 1036.76   2
 -15   6  -3 3095.09 907.365   4
   6   9  -3 2375.52 763.803   1
  15  -9  -3 4939.27 836.585   4
  -9  -6  -3 3855.46 599.028   1
  -6  15   0 14086.2 1245.60   4
  15  -9   0 14533.9 1105.32   3
  15  -9   0 13850.3 982.106   1
   9 -15   0 12067.6 925.169   3
   6   9   0 11225.4 828.419   1
  -9  -6   0 11304.4 999.632   1
  -9  -6   0 11428.3 940.185   3
  -6  15   0 11933.2 971.346   2
  -9  -6   0 12953.1 1268.86   2
  -6  15   0 12228.8 918.426   1
 -15   6   0 11034.0 1188.19   4
 -15   6   0 12023.2 1107.93   2
  15  -9   0 11684.6 1304.69   2
   6   9   3 7561.39 962.528   3
 -15   6   3 7499.24 687.831   2
   9 -15   3 7196.41 774.672   3
  -9  -6   3 7545.45 761.820   2
 -15   6   3 8383.66 957.883   4
   6   9   3 7833.76 757.893   1
   9 -15   6 10855.4 1050.25   3
 -15   6   6 10555.4 860.495   4
  -9  -6   6 8063.44 942.657   4
   8 -15 -10 16136.5 1920.50   3
  -7  15 -10 11887.4 1249.95   2
  -8  -7 -10 10997.0 1126.07   3
  15  -8 -10 12336.4 1551.37   1
   7   8 -10 8973.65 1954.96   1
  -7  15 -10 16501.5 2774.97   1
  -8  -7 -10 15772.1 2347.30   2
  -8  -7 -10 11220.8 1498.85   4
 -15   7 -10 13533.5 1845.94   4
 -15   7 -10 13120.5 2058.86   2
 -15   7  -7 13628.7 1746.15   2
  15  -8  -7 8413.72 859.594   2
   7   8  -7 12074.4 1704.13   1
   8 -15  -7 13188.4 1498.98   3
  -7  15  -7 16961.5 2247.61   1
  -7  15  -7 11383.8 1110.80   2
  -8  -7  -7 13411.7 1048.90   3
   8 -15  -7 11787.2 790.557   1
  15  -8  -7 12901.3 1290.29   1
 -15   7  -7 13116.8 1591.94   4
  -8  -7  -7 12022.5 1736.88   2
  -8  -7  -7 11944.4 1331.33   4
   8 -15  -7 8984.37 1123.24   4
  -7  15  -7 11942.6 1312.63   4
  -8  -7  -4 22256.1 1095.58   1
 -15   7  -4 26952.6 1864.40   4
  -7  15  -4 28008.2 1413.17   2
  -8  -7  -4 24060.2 1159.40   3
   7   8  -4 25673.6 1760.01   1
  15  -8  -4 26577.6 1399.15   1
   8 -15  -4 23634.3 1612.46   3
  -8  -7  -4 25400.8 2019.93   2
  -8  -7  -4 23771.2 1536.50   4
  15  -8  -4 27625.3 1425.79   4
  -7  15  -4 25071.0 2097.16   1
 -15   7  -4 25951.2 1895.88   2
   8 -15  -4 24519.8 1551.82   4
  15  -8  -4 25591.7 1370.29   2
  -7  15  -4 28452.6 1747.05   4
  -7  15  -1 52572.7 1940.65   3
   8 -15  -1 56283.7 1950.74   3
 -15   7  -1 54256.0 2335.06   4
  -7  15  -1 57058.7 1867.58   2
  -8  -7  -1 50947.1 1671.59   3
  -8  -7  -1 52391.2 1735.32   1
  15  -8  -1 57116.3 1788.07   1
   7   8  -1 56319.6 1822.53   1
  -7  15  -1 55469.4 2099.90   1
  15  -8  -1 55279.0 2200.15   4
  15  -8  -1 53274.0 2220.88   2
 -15   7  -1 57010.5 2283.75   2
  -7  15  -1 61635.8 2377.01   4
  15  -8   2 27299.3 878.361   3
 -15   7   2 27009.9 1239.49   2
   7   8   2 25271.3 1325.48   3
  -8  -7   2 23958.3 1372.99   3
 -15   7   2 24143.9 1480.45   4
   7   8   2 26830.8 1197.33   1
   8 -15   2 25531.8 1247.10   3
   8 -15   5 22281.9 1355.55   3
 -15   7   5 20340.6 1208.61   4
 -15   8  -8 7772.30 1480.19   2
   7 -15  -8 8436.26 1371.25   3
  -8  15  -8 7463.07 1052.23   2
  -7  -8  -8 7777.27 953.799   3
   7 -15  -8 8144.07 848.787   1
  -7  -8  -8 8346.11 1179.86   4
  15  -7  -8 8417.33 1276.75   1
   8   7  -8 7807.55 1559.41   1
  -7  -8  -8 6849.47 1551.69   2
 -15   8  -8 9309.94 1586.37   4
  -8  15  -8 8641.79 2007.33   1
  -8  15  -8 7836.51 1191.65   4
   8   7  -5 23672.5 1807.00   1
   7 -15  -5 20888.1 1568.62   3
  -8  15  -5 21929.7 1347.26   2
 -15   8  -5 18955.2 1648.48   4
  -7  -8  -5 21802.9 1230.92   3
  -7  -8  -5 17583.0 1021.64   1
  -7  -8  -5 18323.0 1380.34   4
  15  -7  -5 24650.3 1277.58   4
  -8  15  -5 20288.3 1558.80   4
  -7  -8  -5 22231.4 1985.13   2
  -8  15  -5 21918.8 2153.52   1
 -15   8  -5 19133.0 1781.17   2
  15  -7  -5 23063.0 1456.53   1
   7 -15  -5 17705.4 1386.42   4
  15  -7  -5 18313.8 1133.80   2
 -15   8  -2 24859.5 1708.30   4
  15  -7  -2 25548.9 1279.30   1
  -8  15  -2 25323.9 1356.52   3
 -15   8  -2 25331.8 1687.42   2
  -8  15  -2 25349.6 1321.79   2
  -7  -8  -2 26344.6 1217.78   3
   8   7  -2 24099.0 1346.97   1
  -7  -8  -2 24029.7 1149.59   1
  15  -7  -2 26629.4 1520.98   4
  15  -7  -2 28097.6 1590.94   2
   7 -15  -2 26061.8 1464.14   3
  -8  15  -2 26485.4 1695.13   4
  -8  15   1 55783.7 2219.56   4
 -15   8   1 55055.2 1842.28   2
   8   7   1 57659.2 1687.55   1
   8   7   1 56144.9 1758.61   3
   7 -15   1 54611.5 1803.13   3
 -15   8   1 53058.0 2194.41   4
  15  -7   1 56004.8 1921.15   1
  -7  -8   1 57576.0 1955.01   3
  -8  15   1 56106.5 1911.88   2
  -8  15   1 60063.4 1092.25   1
  -7  -8   1 55135.6 2244.64   1
 -15   8   4 25483.5 1411.54   4
  -7  -8   4 24068.3 791.780   2
 -15   8   4 26817.6 1212.62   2
   7 -15   4 26411.3 1374.00   3
   8   7   4 25717.0 1451.69   3
  -7  -8   7 9539.69 1077.77   4
 -15   8   7 9920.92 592.134   4
  -9  15  -9 1682.08 927.060   4
 -15   9  -9-28.6061 1127.34   2
   6 -15  -9 3365.59 1143.58   3
  -9  15  -9 913.398 744.276   2
  -6  -9  -9 1991.85 764.754   3
  -6  -9  -9 3172.71 952.381   4
  -6  -9  -9 1143.41 1364.63   2
   9   6  -9 611.947 1252.49   1
   6 -15  -9 2531.03 768.597   1
   6 -15  -9 2421.44 630.578   4
  15  -6  -9 2156.33 1035.36   1
  -9  15  -9 1665.01 1784.11   1
 -15   9  -9 3178.38 1227.41   4
   6 -15  -6 10585.5 1273.31   3
  -9  15  -6 8353.01 995.694   2
   9   6  -6 10946.2 1411.53   1
  -6  -9  -6 7807.62 886.718   3
   6 -15  -6 8098.34 460.499   1
  -6  -9  -6 9470.14 1526.74   2
  -6  -9  -6 7404.75 749.325   1
  15  -6  -6 9773.53 1144.27   1
  -9  15  -6 9131.17 1802.55   1
  -6  -9  -6 10246.9 1118.25   4
 -15   9  -6 10058.8 1346.26   4
  15  -6  -6 9154.65 798.067   2
 -15   9  -6 9118.36 1400.44   2
  -9  15  -6 8898.79 1184.92   4
  15  -6  -3 8248.31 850.855   1
   6 -15  -3 7050.24 963.079   3
  -9  15  -3 8279.61 887.255   3
  -9  15  -3 7807.44 881.055   2
  -6  -9  -3 7384.73 745.921   3
   9   6  -3 7168.80 966.707   1
  15  -6  -3 8128.88 913.490   4
  15  -6  -3 7653.26 911.908   2
  -6  -9  -3 7460.82 684.357   1
  -9  15  -3 6217.29 987.524   4
 -15   9  -3 6587.68 1161.01   4
 -15   9  -3 7270.52 1085.96   2
 -15   9   0 12077.3 1255.32   4
 -15   9   0 11572.2 897.832   1
  -6  -9   0 11955.7 1095.34   1
  -9  15   0 12118.7 1077.04   3
   9   6   0 12245.3 880.117   1
   6 -15   0 13928.6 1033.22   3
   9   6   0 10609.5 835.569   3
 -15   9   0 11752.4 1024.47   2
  -9  15   0 10642.5 918.049   2
  -6  -9   0 12022.5 961.173   3
  15  -6   0 11720.8 1289.45   2
  -9  15   0 12465.2 710.623   1
  15  -6   0 11319.7 907.505   1
  -9  15   0 12956.6 1268.99   4
 -15   9   3 4740.35 659.098   2
   9   6   3 3689.00 698.278   3
 -15   9   3 3816.11 800.347   4
  -6  -9   3 4306.40 455.456   2
   6 -15   3 3613.59 703.472   3
  -6  -9   3 3828.20 759.866   3
  -9  15   3 2061.74 293.988   1
   9   6   3 4155.11 697.393   1
   9   6   6 7767.47 1051.52   3
 -15   9   6 10586.2 822.443   4
  -6  -9   6 7792.01 1004.15   4
 -10  15 -10 3650.07 1153.46   4
  -5 -10 -10 2057.66 1096.77   1
  -5 -10 -10 4891.97 1773.01   2
  -5 -10 -10 2099.38 995.258   4
   5 -15 -10 3442.01 1152.81   3
 -10  15 -10 2520.39 975.792   2
 -10  15 -10 2475.45 2122.32   1
  -5 -10 -10 3075.44 926.368   3
  10   5 -10 620.378 1386.13   1
 -15  10 -10 3753.03 1421.08   2
  15  -5 -10 3104.71 1221.30   1
 -15  10 -10 3498.54 1399.79   4
 -15  10  -7 5817.49 1275.76   2
   5 -15  -7 5245.50 1045.54   3
  -5 -10  -7 4530.98 821.892   3
  15  -5  -7 2920.26 441.567   2
  10   5  -7 6671.60 1306.64   1
  -5 -10  -7 6372.79 1499.37   2
  -5 -10  -7 5074.82 941.376   4
 -10  15  -7 5322.18 942.803   2
 -10  15  -7 5993.21 1161.76   4
 -10  15  -7 5158.91 1778.63   1
 -15  10  -7 7198.69 1282.35   4
   5 -15  -7 5474.23 590.603   1
  15  -5  -7 5006.36 1027.55   1
 -10  15  -4 22842.9 1390.83   2
   5 -15  -4 24507.0 1569.77   3
  15  -5  -4 26960.5 1409.36   4
 -10  15  -4 22651.6 1244.71   3
  -5 -10  -4 25210.6 1325.03   3
  10   5  -4 25522.1 1644.85   1
  15  -5  -4 25914.1 1471.10   1
  15  -5  -4 22484.3 1246.71   2
 -15  10  -4 24657.3 1822.56   4
  -5 -10  -4 21672.0 970.312   1
 -10  15  -4 22110.7 1622.57   4
 -15  10  -4 24366.9 1786.98   2
 -15  10  -1 66430.6 2307.83   2
  -5 -10  -1 69017.7 2040.98   1
   5 -15  -1 65503.6 2035.64   3
 -10  15  -1 65200.8 2048.71   2
  15  -5  -1 67731.9 1987.35   1
  -5 -10  -1 72058.0 2043.43   3
  10   5  -1 67954.3 2016.02   1
 -10  15  -1 63912.5 2083.96   3
  15  -5  -1 67345.6 2339.63   4
  15  -5  -1 72192.8 2598.20   2
 -15  10  -1 70471.9 2707.73   4
 -10  15  -1 68034.0 2588.73   4
 -15  10   2 23034.5 1188.71   2
  10   5   2 21520.8 1124.09   3
   5 -15   2 20853.3 1244.71   3
  15  -5   2 23675.4 742.317   3
  -5 -10   2 20511.6 959.549   2
  -5 -10   2 22121.8 1340.80   3
 -10  15   2 22312.6 1318.05   2
 -10  15   2 23159.2 819.704   1
 -10  15   2 22731.1 1494.92   4
 -15  10   2 20761.3 1234.95   1
  -5 -10   2 20028.4 1685.35   1
 -15  10   2 24023.9 1510.26   4
  15  -5   2 20195.9 1276.42   1
  10   5   2 22523.6 1207.50   1
  10   5   5 20571.7 1281.42   3
   5 -15   5 24473.8 1514.65   3
 -15  10   5 21782.1 1220.48   4
  -5 -10   5 20802.4 921.063   2
   4 -15  -8 10482.6 970.817   1
 -11  15  -8 10612.0 1259.36   2
   4 -15  -8 10833.4 1380.52   3
  -4 -11  -8 7999.50 1157.72   4
  -4 -11  -8 9609.83 1133.65   3
  11   4  -8 9307.93 1586.35   1
  15  -4  -8 9299.56 1375.70   1
 -11  15  -8 15453.1 2468.49   1
  -4 -11  -8 9428.91 1772.85   2
 -15  11  -8 11841.6 1590.51   4
 -11  15  -8 10000.7 1466.90   4
 -15  11  -8 8357.76 1561.37   2
  -4 -11  -5 44770.1 1313.97   1
 -11  15  -5 48273.8 2101.88   2
   4 -15  -5 51850.9 2231.59   3
 -11  15  -5 47791.4 1689.34   3
  -4 -11  -5 50432.1 1911.21   3
  11   4  -5 45596.0 2288.49   1
  15  -4  -5 50002.0 2135.37   1
  15  -4  -5 42249.9 1382.51   2
 -15  11  -5 48991.0 2530.96   4
 -11  15  -5 54226.0 2530.56   4
 -15  11  -5 50888.4 2564.84   2
  15  -4  -2 17359.8 1268.60   4
 -11  15  -2 16176.0 1114.87   3
   4 -15  -2 17325.0 1205.67   3
 -11  15  -2 16072.3 1171.77   2
  -4 -11  -2 15664.2 946.832   1
  -4 -11  -2 15301.0 1047.69   3
  15  -4  -2 14748.4 1063.19   1
  11   4  -2 15763.4 1149.54   1
  15  -4  -2 14171.0 1229.18   2
 -15  11  -2 15437.6 1430.61   4
 -11  15  -2 16481.0 1462.21   4
 -15  11  -2 16985.4 1361.95   2
 -15  11   1 9993.11 809.330   1
  15  -4   1 8297.41 834.527   1
 -11  15   1 10647.0 629.544   1
 -15  11   1 10374.2 918.082   2
  11   4   1 9702.10 781.764   3
   4 -15   1 9981.18 924.767   3
 -11  15   1 10722.7 930.817   2
  -4 -11   1 9584.77 931.832   3
  11   4   1 10221.8 870.666   1
  15  -4   1 10491.5 700.143   3
  -4 -11   1 10515.9 832.227   2
  -4 -11   1 8718.36 1095.30   1
 -15  11   1 9845.68 1143.75   4
 -11  15   1 10768.5 1127.13   4
  -4 -11   4 30865.9 1177.09   2
  11   4   4 28858.5 1323.67   3
 -11  15   4 31890.7 1589.06   4
   4 -15   4 28142.9 1655.74   2
   4 -15   4 29056.7 1561.74   3
 -15  11   4 32341.4 1434.77   2
  -4 -11   4 29189.8 1670.18   3
 -11  15   4 25183.9 1153.74   1
 -15  11   4 27453.7 1487.44   4
  -4 -11   7 11204.0 682.428   2
 -15  12  -9 542.004 1197.50   2
   3 -15  -9 710.142 591.989   4
 -12  15  -9 1601.58 886.398   2
   3 -15  -9-89.3179 914.486   3
  -3 -12  -9-89.9274 810.685   3
  12   3  -9-1344.74 1226.63   1
  -3 -12  -9 305.860 706.067   4
  -3 -12  -9-610.282 1232.84   2
 -12  15  -9 2877.88 1830.51   1
  15  -3  -9 1199.18 958.307   1
  -3 -12  -9 1437.88 952.960   1
 -15  12  -9 673.356 1172.91   4
 -12  15  -9 534.499 1134.96   4
   3 -15  -6 2747.52 325.025   1
 -15  12  -6 4539.97 1116.01   2
   3 -15  -6 1512.71 195.019   1
   3 -15  -6 3772.51 960.331   3
 -12  15  -6 3894.09 878.408   2
  -3 -12  -6 3403.46 798.923   3
 -12  15  -6 2750.82 679.243   3
  -3 -12  -6 2663.04 468.122   1
  12   3  -6 3578.44 983.980   1
 -15  12  -6 4086.85 1064.30   4
  15  -3  -6 3353.23 874.163   1
 -12  15  -6 2623.10 994.776   4
 -15  12  -3 13127.3 1253.43   2
 -12  15  -3 11777.7 1104.72   2
 -12  15  -3 12223.2 955.346   3
  -3 -12  -3 13667.4 1030.29   3
   3 -15  -3 13368.4 1136.45   3
  -3 -12  -3 12981.0 772.732   1
  15  -3  -3 12166.4 1043.38   2
  12   3  -3 13656.3 1183.30   1
  15  -3  -3 14127.7 1122.35   1
 -15  12  -3 14782.2 1462.76   4
 -12  15  -3 13555.8 1399.44   4
 -12  15   0 19108.3 1370.21   3
  12   3   0 22106.6 1203.84   1
 -15  12   0 20856.1 1309.21   2
 -12  15   0 18705.2 1185.70   2
 -15  12   0 19177.9 1056.87   1
   3 -15   0 19250.2 1193.26   3
  -3 -12   0 20747.4 1213.87   3
  12   3   0 19826.3 1096.93   3
  -3 -12   0 18025.0 1287.84   1
  15  -3   0 17988.9 1119.36   1
  15  -3   0 20948.9 1072.84   3
 -12  15   0 20324.8 951.229   1
  15  -3   0 21249.1 1650.06   2
 -15  12   0 21314.3 1593.56   4
 -12  15   0 21236.8 1563.28   4
 -12  15   3 738.672 656.955   4
   3 -15   3 141.610 540.077   2
  12   3   3 480.579 478.602   3
  15  -3   3 610.412 241.187   3
 -15  12   3 1376.76 665.353   4
  -3 -12   3 1239.59 448.286   2
  12   3   3 1350.80 610.712   1
 -15  12   3 951.802 619.796   1
   3 -15   3-103.564 570.934   3
 -15  12   3 643.569 513.430   2
 -12  15   3 1503.88 534.096   1
  -3 -12   3 757.223 629.457   3
 -12  15   3 416.662 565.519   2
   3 -15   6 12356.1 1259.84   3
 -12  15   6 9927.90 1205.53   1
  -3 -12   6 8504.56 866.889   2
 -15  12   6 11910.3 918.411   4
 -15  13 -10-259.488 1078.96   2
 -13  15 -10 1181.20 1030.20   2
   2 -15 -10 529.918 941.229   3
  15  -2 -10 891.710 1058.34   1
  13   2 -10 1221.16 1232.58   1
  -2 -13 -10 2408.72 1008.53   3
   2 -15 -10 2205.46 1402.54   2
  -2 -13 -10 450.625 849.943   4
  -2 -13 -10 1942.95 1586.03   2
 -15  13 -10 1500.22 1276.79   4
 -13  15 -10 1018.17 1873.12   1
 -13  15 -10 1106.23 1197.86   4
 -13  15  -7 12975.0 1394.26   2
 -15  13  -7 7070.72 491.886   3
   2 -15  -7 14271.7 1399.36   3
  -2 -13  -7 12806.9 1271.17   3
 -13  15  -7 9022.30 897.154   3
  13   2  -7 14674.1 1602.80   1
 -15  13  -7 11583.5 1527.42   2
  -2 -13  -7 9796.21 751.093   1
  15  -2  -7 15081.2 1525.53   1
 -15  13  -7 13512.8 1576.50   4
   2 -15  -7 9380.40 541.169   1
  -2 -13  -7 11607.5 1109.21   1
  -2 -13  -7 11947.3 1254.61   4
   2 -15  -7 10576.3 794.240   1
 -13  15  -7 14733.2 1617.80   4
 -15  13  -4 10232.9 1210.99   2
 -15  13  -4 10151.3 688.927   3
  15  -2  -4 12157.1 1104.02   1
 -13  15  -4 9377.23 1109.40   2
 -13  15  -4 10868.7 898.800   3
   2 -15  -4 9879.70 1079.87   3
  -2 -13  -4 9078.21 944.577   3
  -2 -13  -4 9752.55 616.937   1
  13   2  -4 11555.9 1203.06   1
  15  -2  -4 10477.4 800.345   2
 -15  13  -4 11374.6 1346.44   4
 -13  15  -4 12376.3 1371.80   4
  -2 -13  -1 25591.4 1331.32   1
 -13  15  -1 30180.8 1572.15   3
 -15  13  -1 29717.7 1560.80   2
  15  -2  -1 28347.6 1393.92   1
 -13  15  -1 29062.3 1265.68   1
 -13  15  -1 28688.2 1531.57   2
   2 -15  -1 28498.5 1442.46   3
  -2 -13  -1 28340.7 1371.11   3
  15  -2  -1 30038.9 1401.47   3
  15  -2  -1 34109.2 1859.04   2
 -15  13  -1 33658.8 1962.09   4
 -13  15  -1 32717.3 1950.34   4
  13   2  -1 29212.1 1427.17   1
  13   2   2 5877.57 787.996   1
 -15  13   2 5906.99 942.595   4
   2 -15   2 5403.19 735.406   2
  13   2   2 5340.01 604.119   3
 -15  13   2 5187.68 726.757   2
  15  -2   2 6392.89 543.419   3
  -2 -13   2 5926.25 677.530   2
   2 -15   2 4502.28 785.932   3
 -13  15   2 4245.66 739.560   2
  15  -2   2 5383.81 842.992   1
  -2 -13   2 6269.98 855.382   3
 -15  13   2 5065.05 706.931   1
 -13  15   2 5311.05 620.452   1
  -2 -13   2 4252.07 1127.38   1
 -13  15   2 6792.59 964.644   4
 -13  15   5 3753.04 716.642   4
 -13  15   5 3042.36 848.962   1
  13   2   5 3209.39 639.538   3
   2 -15   5 1557.29 868.016   2
  -2 -13   5 3638.81 771.490   2
   2 -15   5 1776.50 784.745   3
  -2 -13   5 3257.65 889.263   3
 -15  13   5 2843.31 650.699   4
 -15  14  -8 5607.21 1310.47   2
  -1 -14  -8 6537.38 1120.23   3
 -14  15  -8 6601.96 1217.75   2
   1 -15  -8 6307.11 1118.57   3
  15  -1  -8 6222.21 1264.39   1
   1 -15  -8 6579.22 960.114   4
  -1 -14  -8 5945.42 1012.12   1
  -1 -14  -8 8116.30 1149.41   4
  14   1  -8 6692.31 1362.03   1
   1 -15  -8 6579.90 876.683   1
 -15  14  -8 9654.82 1556.40   4
 -14  15  -8 8225.90 1413.13   4
 -15  14  -5 26539.5 1831.74   2
 -14  15  -5 24244.9 1676.30   2
 -15  14  -5 22616.9 1026.70   3
 -14  15  -5 22394.8 1178.70   3
 -14  15  -5 23309.5 1857.02   4
  -1 -14  -5 25927.1 1564.05   3
  14   1  -5 27127.3 1758.80   1
  15  -1  -5 24001.8 1680.33   1
  -1 -14  -5 20528.5 750.168   1
   1 -15  -5 26872.2 1694.61   3
 -15  14  -5 24649.8 1922.10   4
 -14  15  -2 18216.2 1235.48   3
 -15  14  -2 16294.9 1304.78   2
 -14  15  -2 16183.9 1286.77   2
   1 -15  -2 16218.8 1167.34   3
  -1 -14  -2 15493.0 1110.29   3
 -15  14  -2 16423.8 1525.33   4
  15  -1  -2 17371.5 1297.89   2
 -15  14  -2 16493.9 1114.48   3
  15  -1  -2 15649.3 1145.68   1
  -1 -14  -2 13940.9 852.528   1
  14   1  -2 17136.3 1221.34   1
 -14  15  -2 17224.4 1564.55   4
 -14  15   1 33395.7 1239.07   1
  15  -1   1 36158.1 1600.51   1
  -1 -14   1 31691.0 1873.68   1
 -15  14   1 30656.9 1506.60   2
 -14  15   1 33530.8 1543.32   2
  14   1   1 35065.2 1302.88   3
   1 -15   1 31624.3 1545.77   3
  -1 -14   1 31243.6 1557.32   3
  15  -1   1 35740.1 1252.92   3
  -1 -14   1 32296.9 1421.84   2
  14   1   1 33638.3 1529.68   1
 -15  14   1 35111.8 1926.24   4
 -14  15   1 36887.6 1959.24   4
 -15  14   1 29922.1 1259.93   1
   1 -15   4 22440.4 1401.27   2
 -15  14   4 21090.4 1505.52   1
  -1 -14   4 22701.7 1310.11   2
  15  -1   4 17434.6 715.916   3
  14   1   4 21865.8 981.043   3
   1 -15   4 26717.3 1599.24   3
 -15  14   4 24810.5 1442.26   2
  -1 -14   4 23653.1 1572.40   3
 -14  15   4 20038.0 1361.06   1
 -15  14   4 25583.1 1522.39   4
 -14  15   4 23019.3 1425.79   4
  -1 -14   7 11246.2 1214.54   2
 -15  15  -9 374.304 921.660   2
   0 -15  -9-63.4429 847.985   3
   0 -15  -9 952.955 765.004   4
 -15  15  -9-92.5560 1039.68   4
  15   0  -9-920.960 1120.06   1
 -15  15  -6 30725.7 2021.28   2
 -15  15  -6 25755.8 1191.87   3
   0 -15  -6 29148.3 1773.32   3
  15   0  -6 33020.6 2055.36   1
   0 -15  -6 20109.8 939.669   1
 -15  15  -6 30136.0 2165.53   4
   0 -15  -3 215.204 250.920   1
 -15  15  -3 196.212 581.549   3
 -15  15  -3 322.028 642.307   2
   0 -15  -3 176.070 618.541   3
  15   0  -3 261.776 565.584   1
 -15  15  -3 973.943 856.159   4
 -15  15   0 37931.4 1876.06   3
 -15  15   0 41076.2 1797.27   2
   0 -15   0 40802.1 1730.02   3
  15   0   0 40875.8 1680.07   1
 -15  15   0 40066.5 1458.84   1
  15   0   0 40434.3 1502.07   3
  15   0   0 38893.1 2146.81   2
   0 -15   0 36693.6 1759.77   1
 -15  15   0 41285.5 2195.66   4
  15   0   3 380.142 419.109   3
   0 -15   3 1043.55 573.219   2
  15   0   3 3.08912 635.416   1
   0 -15   3 297.932 633.034   3
 -15  15   3 76.5246 512.854   2
 -15  15   3 354.603 597.032   1
 -15  15   3-583.279 690.619   4
   0 -15   6 13848.6 1419.17   3
   0 -15   6 13303.1 1419.04   2
 -15  15   6 15237.3 1132.09   4
  16 -16  -7 314.171 1148.12   3
   0  16  -7 280.801 1211.27   1
  16 -16  -7-270.038 597.577   1
 -16   0  -7-1301.09 1018.80   4
 -16   0  -7-1384.46 1413.20   2
  16 -16  -4 29721.4 2093.06   3
 -16   0  -4 28353.3 2058.66   4
  16 -16  -4 27533.6 1276.71   1
   0  16  -4 31582.4 2177.20   1
 -16   0  -4 27100.0 2324.79   2
  16 -16  -1 450.614 679.717   3
   0  16  -1-175.350 529.153   1
 -16   0  -1 683.340 776.370   4
 -16   0  -1-232.211 858.348   2
  16 -16   2 53642.1 1619.82   3
 -16   0   2 60125.5 2492.42   4
 -16   0   2 57716.3 2031.38   2
  16 -16   5 965.893 530.107   3
 -16   0   5 459.776 697.083   4
  16 -15  -8 3569.25 1306.10   3
  15 -16  -8 6409.72 1552.81   3
  -1  16  -8 3024.99 1529.06   1
   1  15  -8 1848.35 1406.04   1
  16 -15  -8 3018.54 825.042   1
 -16   1  -8 2659.50 1449.08   2
  15 -16  -8 2161.00 700.970   1
  -1  16  -8 2569.67 594.947   2
 -15  -1  -8 4074.88 1231.91   4
 -16   1  -8 1633.76 1045.54   4
 -15  -1  -8 2299.77 1552.14   2
  16 -15  -5 4631.13 718.521   1
  16 -15  -5 5550.09 1218.44   3
  15 -16  -5 4710.43 1203.16   3
  -1  16  -5 4027.81 1167.42   1
  15 -16  -5 3772.12 612.651   1
   1  15  -5 3438.47 1192.16   1
 -15  -1  -5 3481.51 484.922   3
 -15  -1  -5 5522.97 1166.81   4
 -16   1  -5 4246.38 1155.26   4
 -15  -1  -5 2436.65 1315.55   2
 -16   1  -5 3104.54 1283.04   2
  16 -15  -2 4172.61 974.598   3
  15 -16  -2 2390.32 793.307   3
  16 -15  -2 2126.44 565.309   1
  -1  16  -2 3343.61 855.511   1
   1  15  -2 2337.14 752.372   1
 -15  -1  -2 2330.57 853.779   4
 -16   1  -2 1638.28 863.035   4
  15 -16  -2 2847.58 595.444   1
 -15  -1  -2 3542.85 1139.45   2
 -16   1  -2 1264.16 868.225   2
  16 -15   1 20807.9 1135.46   3
 -15  -1   1 22234.9 1592.20   4
  -1  16   1 22335.2 839.551   1
 -16   1   1 19341.3 1517.48   4
 -16   1   1 21032.2 1438.74   2
 -15  -1   1 20024.0 1471.53   2
  15 -16   1 19198.1 1125.26   3
   1  15   1 22897.2 931.630   1
 -15  -1   4 1047.89 314.511   2
 -16   1   4 1277.02 408.386   2
  16 -15   4 1483.20 453.881   3
  15 -16   4 1247.24 521.695   3
 -15  -1   4 876.822 666.694   4
 -16   1   4 1588.53 737.080   4
 -15  -1   7 4677.31 849.626   4
 -16   1   7 3305.44 789.396   4
  16 -14  -9 7262.54 1652.08   3
  -2  16  -9 8053.04 1947.27   1
  14 -16  -9 4272.65 1498.37   3
  14 -16  -9 3914.93 852.010   1
   2  14  -9 6852.82 1805.41   1
  16 -14  -9 5885.43 1058.98   1
 -14  -2  -9 8502.91 1552.18   4
 -16   2  -9 7447.21 1555.29   4
 -14  -2  -9 6070.17 1734.08   2
 -16   2  -9 3162.16 1619.80   2
  16 -14  -6 10843.1 1599.48   3
  -2  16  -6 9808.12 1710.91   1
  14 -16  -6 7190.45 1302.45   3
 -14  -2  -6 6512.96 604.363   3
  -2  16  -6 7347.70 812.104   2
 -14  -2  -6 8319.02 1327.09   4
  16 -14  -6 6462.65 1079.39   4
 -16   2  -6 9957.69 1460.73   4
   2  14  -6 10521.6 1637.87   1
  14 -16  -6 7018.18 1081.56   4
 -14  -2  -6 6580.85 1547.78   2
  16 -14  -6 6027.75 824.843   1
  14 -16  -6 7485.71 784.298   1
 -16   2  -6 8631.49 1659.32   2
  16 -14  -3 27370.7 1900.24   3
   2  14  -3 24142.8 1711.62   1
  14 -16  -3 25568.4 1754.43   3
  14 -16  -3 22759.3 1026.36   1
 -14  -2  -3 23659.0 1080.52   3
  16 -14  -3 24628.3 1252.74   1
 -14  -2  -3 22385.0 1667.10   4
 -14  -2  -3 27283.4 2163.73   2
 -16   2  -3 27377.6 1906.55   4
 -16   2  -3 24468.8 2079.49   2
  -2  16  -3 25528.3 1839.08   1
  14 -16   0 3586.57 735.177   3
  -2  16   0 3962.50 566.286   1
  16 -14   0 2876.97 704.780   3
   2  14   0 3965.44 596.798   1
 -16   2   0 3361.44 880.707   4
 -14  -2   0 5055.06 939.439   4
 -14  -2   0 4893.94 1042.30   2
 -16   2   0 3100.39 883.093   2
 -16   2   3 35972.2 1317.98   2
  16 -14   3 35853.1 1160.03   3
  14 -16   3 35923.8 1376.37   3
 -14  -2   3 34833.1 1801.31   4
 -16   2   3 36083.3 1848.71   4
 -14  -2   3 35013.9 1294.64   2
 -16   2   6 5293.90 894.192   4
 -14  -2   6 4281.40 824.680   4
  16 -13 -10 20535.4 2581.27   3
  13 -16 -10 18837.6 2221.54   3
 -13  -3 -10 13717.3 1805.54   4
  16 -13 -10 14739.0 1568.84   1
 -13  -3 -10 15674.7 2463.33   2
 -16   3 -10 20892.9 2301.76   4
 -16   3 -10 18800.3 2589.50   2
  -3  16 -10 21521.1 2840.16   1
   3  13 -10 11627.9 2238.68   1
  -3  16  -7 4476.57 1570.74   1
  16 -13  -7 4557.38 1331.23   3
  13 -16  -7 6062.53 1357.04   3
   3  13  -7 4343.77 1511.17   1
 -13  -3  -7 4550.73 635.018   3
  13 -16  -7 4362.38 651.492   1
  -3  16  -7 4647.58 708.452   2
 -13  -3  -7 8475.88 1783.11   2
 -13  -3  -7 3831.42 1136.94   4
  16 -13  -7 5281.70 914.358   1
 -16   3  -7 5122.26 1211.25   4
 -16   3  -7 5060.42 1437.33   2
   3  13  -4 57480.4 2699.43   1
  16 -13  -4 58868.5 2716.12   3
  13 -16  -4 61375.1 2758.76   3
  16 -13  -4 59022.4 1898.88   1
 -13  -3  -4 59043.1 1601.15   3
 -13  -3  -4 62753.7 2646.56   4
  -3  16  -4 54747.6 1843.46   2
  16 -13  -4 59025.7 2416.05   4
  13 -16  -4 55263.8 1426.07   1
 -13  -3  -4 61649.4 3260.56   2
 -16   3  -4 60128.1 2832.07   4
  -3  16  -4 62470.8 3012.57   1
 -16   3  -4 57826.2 3045.37   2
  16 -13  -1 1055.49 696.121   3
  13 -16  -1 1036.21 636.704   3
  -3  16  -1 900.487 599.296   1
  16 -13  -1 1392.19 528.629   1
 -13  -3  -1 1220.68 760.487   4
 -13  -3  -1 1448.96 589.725   3
   3  13  -1 1547.96 561.147   1
 -13  -3  -1 2191.67 923.287   2
 -16   3  -1 434.877 738.732   4
 -16   3  -1 1619.78 837.989   2
  13 -16   2 72570.2 1959.81   3
  16 -13   2 68327.8 1584.72   3
   3  13   2 67724.9 1580.02   1
 -16   3   2 70937.1 2095.51   2
 -13  -3   2 71645.8 2501.64   4
 -16   3   2 72399.4 2583.67   4
 -13  -3   2 74203.9 2301.62   2
 -13  -3   5 4311.46 816.418   4
  13 -16   5 2226.73 608.682   3
 -16   3   5 3304.64 824.255   4
 -13  -3   8 22260.4 1229.33   4
  -4  16  -8 740.874 1507.71   1
 -12  -4  -8 638.859 977.385   4
  16 -12  -8 1080.14 1302.73   3
  16 -12  -8 1062.66 801.296   1
  12 -16  -8 186.944 1084.82   3
  12 -16  -8 1377.36 595.350   1
 -12  -4  -8 2043.47 1328.91   2
   4  12  -8 2885.82 1344.64   1
 -12  -4  -8 592.777 578.955   3
  -4  16  -8 1520.17 647.008   2
 -16   4  -8 740.479 1319.93   2
 -16   4  -8 1006.18 1012.79   4
  16 -12  -5 17069.3 1793.19   3
   4  12  -5 13549.0 1620.78   1
  12 -16  -5 16638.0 1596.64   3
  12 -16  -5 13186.6 723.754   1
 -12  -4  -5 14979.1 909.969   3
  -4  16  -5 13802.4 1020.21   2
 -16   4  -5 16658.9 1658.17   4
 -12  -4  -5 15842.2 1481.51   4
  16 -12  -5 15220.5 1294.43   4
  -4  16  -5 14337.0 1830.50   1
 -16   4  -5 14340.3 1736.41   2
 -12  -4  -5 16496.6 1923.26   2
  16 -12  -5 15286.3 1109.54   1
  16 -12  -2 13150.2 1338.16   3
 -16   4  -2 8495.21 1240.36   4
  12 -16  -2 9484.79 1079.48   3
   4  12  -2 9449.37 968.201   1
 -12  -4  -2 8679.01 805.711   3
  -4  16  -2 9506.73 867.930   2
 -16   4  -2 9801.63 1320.28   2
 -12  -4  -2 8587.41 1064.30   4
  16 -12  -2 9865.73 856.209   1
 -12  -4  -2 11870.6 1528.07   2
  -4  16  -2 10028.2 1195.11   1
  16 -12   1 32732.7 1338.82   3
  12 -16   1 29210.2 1306.15   3
  -4  16   1 29545.8 806.755   1
 -12  -4   1 32525.4 1587.76   3
 -12  -4   1 30399.1 1712.89   4
 -16   4   1 29556.7 1766.69   4
 -16   4   1 31907.1 1613.05   2
   4  12   1 32131.2 1197.29   1
 -16   4   4 7666.61 638.918   2
  12 -16   4 7557.91 780.770   3
 -16   4   4 8507.97 1023.73   4
 -12  -4   4 8510.97 1016.68   4
 -12  -4   7 13930.8 1142.86   4
 -16   4   7 12622.1 914.865   4
 -12  -4   7 10229.1 1036.34   4
  16 -11  -9 1831.88 954.237   1
  -5  16  -9 3169.14 1786.72   1
  16 -11  -9 2092.91 1409.94   3
 -16   5  -9 3619.27 1335.14   4
  11 -16  -9 2832.69 1219.68   3
 -11  -5  -9 1530.35 674.137   3
   5  11  -9 3616.64 1605.11   1
  -5  16  -9 2045.92 754.012   2
 -11  -5  -9 622.940 1366.44   2
 -11  -5  -9 2418.02 1084.30   4
  11 -16  -9 1591.36 661.020   1
 -16   5  -9 1348.36 1285.71   2
   5  11  -6 6284.96 1402.59   1
  -5  16  -6 5475.66 770.860   2
 -11  -5  -6 5113.79 725.252   3
 -16   5  -6 5771.97 1260.32   4
 -11  -5  -6 3652.25 968.228   4
  16 -11  -6 4585.16 829.268   4
  16 -11  -6 6553.15 952.072   1
  16 -11  -6 7171.48 1467.51   3
  11 -16  -6 5304.10 1258.59   3
 -11  -5  -6 6740.61 1475.46   2
  11 -16  -6 4079.77 517.048   1
  11 -16  -6 4825.36 1017.18   4
  -5  16  -6 4179.43 1472.08   1
 -16   5  -6 4623.00 1295.18   2
  -5  16  -3 2833.68 784.057   4
  16 -11  -3 1847.76 882.270   3
  16 -11  -3 2065.01 767.839   2
  -5  16  -3 2941.20 1054.27   1
  11 -16  -3 1101.94 763.586   3
  16 -11  -3 2475.33 585.940   1
  16 -11  -3 2628.50 851.033   4
 -11  -5  -3 2932.98 578.638   3
 -11  -5  -3 3039.39 822.297   4
  -5  16  -3 2292.98 626.362   2
   5  11  -3 1689.63 765.446   1
 -11  -5  -3 1993.92 1058.24   2
 -16   5  -3 1351.81 815.809   4
 -16   5  -3 4110.44 1074.95   2
  -5  16   0 1952.04 539.208   1
  16 -11   0 1964.71 694.595   3
 -16   5   0 1877.58 765.040   2
   5  11   0 1135.51 487.721   1
  11 -16   0 1887.25 615.522   3
 -11  -5   0 3302.23 961.289   2
 -11  -5   0 1344.13 612.498   3
 -16   5   0 1623.89 824.896   4
 -11  -5   0 2164.13 688.225   4
  16 -11   0 1305.09 578.336   1
 -11  -5   3 8896.39 806.087   2
 -16   5   3 7906.26 721.285   2
  16 -11   3 5988.34 415.645   3
  11 -16   3 7070.87 785.682   3
 -11  -5   3 7334.38 1002.14   4
 -16   5   3 7716.53 984.084   4
   5  11   3 6685.08 708.970   1
  11 -16   6-339.528 633.655   3
 -11  -5   6 1069.48 650.211   4
 -16   5   6 932.752 598.067   4
  16 -10 -10 11287.1 2220.46   3
  10 -16 -10 11562.7 1861.22   3
  -6  16 -10 8142.03 1087.33   2
   6  10 -10 9371.54 1961.86   1
  16 -10 -10 8170.10 1419.79   1
 -16   6 -10 12040.9 2131.63   2
 -10  -6 -10 12053.9 2240.13   2
 -10  -6 -10 8452.20 1516.84   4
  -6  16 -10 14492.1 2647.13   1
 -16   6 -10 12812.8 1801.78   4
  16 -10  -7 1187.42 762.941   1
  10 -16  -7 2259.32 1045.42   3
  -6  16  -7 573.409 789.302   4
 -10  -6  -7 468.584 548.407   3
   6  10  -7 1072.28 1086.68   1
  -6  16  -7 1421.96 691.352   2
 -10  -6  -7 566.199 819.718   4
 -10  -6  -7 3689.96 1350.88   2
 -16   6  -7 695.006 944.921   4
  10 -16  -7 1741.22 486.952   1
  -6  16  -7 1896.65 1516.09   1
 -16   6  -7 2621.41 1305.37   2
  10 -16  -4 43051.7 2153.80   3
   6  10  -4 39313.5 2166.14   1
  -6  16  -4 40294.2 1663.56   2
 -10  -6  -4 40938.5 1476.31   3
 -10  -6  -4 39850.9 2018.46   4
 -10  -6  -4 36609.4 2454.28   2
  16 -10  -4 42713.0 1885.95   4
  -6  16  -4 39680.8 2562.71   1
  16 -10  -4 37853.5 1769.55   2
 -16   6  -4 38062.7 2210.83   4
 -16   6  -4 40900.3 2432.39   2
  16 -10  -4 41907.1 1709.54   1
  -6  16  -4 40417.6 2100.43   4
   6  10  -1 2555.07 631.184   1
  -6  16  -1 3561.60 827.415   4
  16 -10  -1 4476.27 929.233   3
 -16   6  -1 2488.78 838.377   2
 -16   6  -1 2087.16 859.054   4
 -10  -6  -1 2735.87 589.744   3
  -6  16  -1 2733.08 638.597   2
 -10  -6  -1 2709.27 762.541   4
  10 -16  -1 1260.80 587.936   3
 -10  -6  -1 2159.33 871.895   2
  -6  16  -1 3704.50 822.460   1
 -10  -6  -1 1605.89 618.056   1
  16 -10  -1 3791.16 646.397   1
 -16   6   2 26178.2 1251.30   2
  16 -10   2 24805.6 875.710   3
  10 -16   2 24430.2 1245.34   3
   6  10   2 23782.6 1116.10   1
 -16   6   2 26041.2 1581.64   4
 -10  -6   2 26380.1 1549.81   3
 -10  -6   2 26362.2 1468.80   2
  10 -16   5 7441.15 867.616   3
 -16   6   5 8024.07 943.970   4
 -10  -6   8 23452.4 1348.83   4
  16  -9  -8 4868.34 1060.48   1
   9 -16  -8 6105.12 1303.87   3
  -7  16  -8 5725.78 913.669   2
  -9  -7  -8 6489.59 1131.96   4
  -9  -7  -8 8009.75 942.144   3
   9 -16  -8 6371.86 751.710   1
   7   9  -8 6127.80 1542.24   1
  -9  -7  -8 11031.7 1889.64   2
 -16   7  -8 6211.60 1495.11   2
 -16   7  -8 7032.93 1435.84   4
  -7  16  -8 9334.21 2003.92   1
  -7  16  -8 7254.29 1121.83   4
   9 -16  -5 25192.3 1772.30   3
   7   9  -5 27668.2 1988.42   1
  16  -9  -5 25909.6 1518.58   1
  -7  16  -5 24941.4 1401.74   2
  -9  -7  -5 26493.8 1287.40   3
  16  -9  -5 27768.0 1441.44   4
  -9  -7  -5 21139.6 2000.00   2
  -9  -7  -5 24805.7 1662.47   4
  -7  16  -5 28594.7 2398.13   1
 -16   7  -5 23569.4 1849.16   4
 -16   7  -5 24161.7 2071.90   2
  -7  16  -5 28447.4 1836.51   4
  16  -9  -5 23872.8 1396.94   2
   9 -16  -2 32578.7 1685.41   3
  16  -9  -2 33678.1 1451.60   1
  -7  16  -2 31831.0 1504.41   2
  16  -9  -2 30583.6 1740.56   2
  -9  -7  -2 32999.8 1380.75   3
   7   9  -2 30156.5 1559.50   1
  -9  -7  -2 33236.2 2080.29   2
  -9  -7  -2 32329.4 1757.51   4
  -7  16  -2 33768.2 1934.71   1
  -9  -7  -2 30511.6 1356.97   1
  16  -9  -2 32351.7 1750.99   4
 -16   7  -2 32469.2 1945.17   4
 -16   7  -2 31060.1 1896.02   2
  -7  16  -2 32023.8 1872.17   4
  -7  16   1 13070.2 504.218   1
  16  -9   1 16630.0 1022.74   3
   7   9   1 15112.3 917.789   1
  -7  16   1 11963.0 699.539   1
   9 -16   1 14659.7 1024.95   3
  -9  -7   1 13361.1 1096.86   3
  -9  -7   1 14682.8 1270.42   2
 -16   7   1 14551.2 1082.18   2
  16  -9   1 15053.2 1143.32   1
 -16   7   1 15167.4 1335.96   4
  -9  -7   4 13465.3 536.859   2
 -16   7   4 17369.2 965.129   2
   9 -16   4 17535.7 1173.98   3
  -9  -7   4 12714.7 715.925   2
 -16   7   4 15692.2 1218.85   4
  -9  -7   7 6705.61 1003.47   4
 -16   7   7 7422.46 639.336   4
  -8  16  -9 761.632 887.524   4
 -16   8  -9-973.575 1235.97   2
  -8  -8  -9 2028.16 979.718   4
   8 -16  -9 834.906 1022.51   3
  -8  -8  -9 27.7764 661.135   3
  -8  16  -9 193.862 711.606   2
   8   8  -9 171.443 1307.24   1
  16  -8  -9 721.889 951.975   1
   8 -16  -9 772.219 611.548   1
 -16   8  -9 859.915 1143.26   4
  -8  16  -9 1057.21 1804.75   1
  -8  -8  -9-447.114 1269.20   2
  -8  16  -6 4956.11 1045.15   4
  16  -8  -6 2300.67 678.417   2
  16  -8  -6 3820.89 866.336   1
  -8  16  -6 4355.23 856.481   2
   8 -16  -6 2984.53 1005.69   3
  -8  -8  -6 5225.93 797.092   3
   8   8  -6 5733.94 1222.92   1
  -8  -8  -6 3960.94 887.085   4
  -8  -8  -6 2255.78 1215.81   2
 -16   8  -6 3976.87 1092.42   4
  -8  16  -6 3099.29 1320.58   1
   8 -16  -6 2289.49 280.724   1
 -16   8  -6 6810.44 1396.88   2
  -8  16  -3 2869.27 859.187   4
  16  -8  -3 1111.29 672.651   2
 -16   8  -3 864.003 768.394   2
   8 -16  -3 1365.17 678.167   3
  -8  -8  -3 820.625 461.463   1
  -8  -8  -3 1493.07 528.859   3
  -8  16  -3 412.100 517.581   2
  -8  -8  -3 1468.54 902.260   2
  -8  -8  -3 908.927 669.865   4
  -8  16  -3 1193.34 960.636   1
   8   8  -3 1911.54 738.540   1
 -16   8  -3-912.233 806.556   4
  16  -8  -3 1927.48 574.305   1
  16  -8  -3 1458.15 670.144   4
 -16   8   0 18832.6 1305.13   2
  -8  -8   0 20027.8 1388.68   1
   8 -16   0 19580.0 1179.18   3
  -8  -8   0 19529.1 1199.79   3
  -8  16   0 18757.3 1182.97   2
 -16   8   0 20510.1 1529.67   4
   8   8   0 20258.2 1107.23   1
  -8  16   0 22044.6 1564.02   4
  16  -8   0 19031.7 1171.90   1
   8   8   3 2043.72 686.101   3
 -16   8   3 1348.09 485.995   2
   8 -16   3 1704.44 586.846   3
  -8  -8   3 947.998 327.761   2
  -8  -8   3 1337.87 675.147   3
   8   8   3 334.810 484.213   1
 -16   8   3 2727.66 766.477   4
   8 -16   6 5293.47 919.750   3
 -16   8   6 4445.74 685.578   4
  -9  16 -10 6402.68 1268.72   4
 -16   9 -10 4709.83 1487.28   2
   7 -16 -10 7323.14 1487.07   3
   9   7 -10 8927.65 2036.47   1
  -7  -9 -10 4921.12 913.296   3
  -9  16 -10 5715.36 1096.12   2
 -16   9 -10 6868.92 1618.18   4
  -9  16 -10 6974.09 2178.23   1
  -7  -9 -10 8735.12 2028.02   2
  16  -7 -10 6466.12 1313.37   1
  -7  -9 -10 6488.56 1277.20   4
  16  -7  -7 5406.27 698.105   2
   7 -16  -7 6914.46 1196.63   3
  -9  16  -7 7176.52 1006.90   2
   9   7  -7 7852.90 1447.45   1
  -7  -9  -7 8392.37 950.681   3
   7 -16  -7 7403.93 536.495   1
  16  -7  -7 8326.29 1211.13   1
  -7  -9  -7 7676.16 1562.43   2
  -7  -9  -7 8464.94 1166.57   4
  -9  16  -7 9723.84 1971.99   1
 -16   9  -7 10476.8 1511.84   4
 -16   9  -7 8317.30 1487.93   2
  -9  16  -7 9514.78 1304.95   4
 -16   9  -4 11515.8 1446.66   2
   7 -16  -4 16385.0 1363.51   3
  -9  16  -4 14712.8 1156.44   2
  -7  -9  -4 13152.5 1022.50   3
   9   7  -4 13241.4 1303.39   1
  -7  -9  -4 14443.4 1279.53   4
  16  -7  -4 15466.0 1170.97   4
 -16   9  -4 14751.8 1521.31   4
  16  -7  -4 14093.1 1147.94   1
  16  -7  -4 12996.5 1090.29   2
  -9  16  -4 14853.0 1434.10   4
  -7  -9  -4 12018.5 849.486   1
  -9  16  -1 11810.2 1241.81   4
   7 -16  -1 11535.7 1038.91   3
  -7  -9  -1 11965.1 1020.89   1
  -9  16  -1 12823.8 988.387   2
  -7  -9  -1 11458.2 937.022   3
  16  -7  -1 13913.8 1003.95   1
   9   7  -1 10688.8 921.519   1
 -16   9  -1 12802.7 1324.06   4
  16  -7  -1 11238.2 1265.29   2
 -16   9  -1 13299.0 1238.88   2
 -16   9   2 29529.4 1369.69   2
   9   7   2 29694.9 1411.90   3
   7 -16   2 29612.1 1416.83   3
  -9  16   2 27343.4 707.463   1
  16  -7   2 31132.8 874.717   3
  -7  -9   2 28963.9 1562.80   3
  16  -7   2 28396.1 1531.30   1
   9   7   2 31059.4 1387.93   1
 -16   9   2 30394.6 1716.79   4
  -9  16   2 32484.1 1748.07   4
   9   7   5 23697.8 1510.90   3
   7 -16   5 26662.5 1584.39   3
 -16   9   5 25265.0 1377.66   4
 -10  16  -8 19330.7 1534.02   2
   6 -16  -8 22527.1 1887.58   3
  10   6  -8 23359.1 2234.70   1
  -6 -10  -8 21599.8 1470.33   3
   6 -16  -8 22272.3 1074.06   1
 -16  10  -8 25743.4 2291.18   2
  16  -6  -8 19714.3 1750.87   1
  -6 -10  -8 19214.4 2256.17   2
 -10  16  -8 29641.8 3029.27   1
  -6 -10  -8 21317.7 1645.71   4
 -16  10  -8 24805.1 2118.74   4
 -10  16  -8 23648.5 1897.63   4
  -6 -10  -5 5585.10 642.898   1
   6 -16  -5 8740.54 1158.49   3
 -10  16  -5 7858.84 981.581   2
  -6 -10  -5 9019.42 965.922   3
  10   6  -5 7957.84 1219.90   1
  16  -6  -5 7103.39 1001.97   1
 -16  10  -5 8057.61 1295.01   4
  16  -6  -5 6939.09 862.190   2
 -16  10  -5 7575.83 1320.07   2
 -10  16  -5 8786.16 1211.80   4
  -6 -10  -5 7058.12 1055.89   4
  16  -6  -2 23406.4 1283.68   1
 -10  16  -2 22639.4 1348.31   3
   6 -16  -2 23778.8 1428.33   3
 -10  16  -2 21926.1 1324.07   2
  -6 -10  -2 24837.1 1267.29   3
  -6 -10  -2 20626.6 1122.78   1
  10   6  -2 20597.4 1308.36   1
  16  -6  -2 22019.4 1417.94   4
  16  -6  -2 22146.9 1520.49   2
 -16  10  -2 20106.6 1650.80   4
 -10  16  -2 24539.5 1674.67   4
 -16  10  -2 25275.5 1697.74   2
 -10  16   1 3142.85 860.953   4
 -16  10   1 3770.25 719.410   2
  -6 -10   1 3872.94 929.421   1
  16  -6   1 3012.41 708.044   1
 -10  16   1 2694.44 388.690   1
  10   6   1 2645.63 611.948   1
  10   6   1 1778.73 557.620   3
   6 -16   1 2919.53 639.953   3
  16  -6   1 3156.47 499.643   3
  -6 -10   1 3147.37 682.961   3
 -10  16   1 3530.18 673.656   2
 -16  10   1 2061.99 797.527   4
  10   6   4 43150.7 1771.16   3
  -6 -10   4 44458.1 1258.72   2
 -16  10   4 43937.5 1875.19   4
 -16  10   4 43628.0 1630.76   2
   6 -16   4 43900.0 1848.92   3
  -6 -10   4 38834.7 1961.21   3
 -16  10   7 2672.49 507.408   4
  -5 -11  -9 5644.64 1037.52   3
   5 -16  -9 5279.24 1193.86   3
 -11  16  -9 5861.06 1088.93   2
  16  -5  -9 7404.68 1325.38   1
  11   5  -9 6326.91 1546.97   1
   5 -16  -9 4729.41 755.705   4
  -5 -11  -9 5258.27 1077.28   4
  -5 -11  -9 4706.81 1591.44   2
  -5 -11  -9 6044.96 1258.98   1
 -11  16  -9 7847.66 2332.67   1
 -16  11  -9 6772.79 1561.90   4
 -11  16  -9 8156.71 1348.54   4
 -16  11  -9 8187.05 1618.76   2
  16  -5  -6 844.771 731.361   1
 -16  11  -6-114.487 1005.19   2
 -11  16  -6-74.0771 650.045   2
  -5 -11  -6 640.626 434.513   1
  -5 -11  -6 516.168 643.619   3
   5 -16  -6 1278.91 820.651   3
  -5 -11  -6-267.521 650.619   4
  11   5  -6 566.212 861.022   1
 -16  11  -6 1313.66 909.859   4
  16  -5  -6 276.767 444.756   2
 -11  16  -6 1045.59 826.680   4
 -11  16  -3 7274.74 869.414   3
   5 -16  -3 8935.97 1024.58   3
 -11  16  -3 7124.44 890.327   2
  -5 -11  -3 7547.33 814.068   3
  11   5  -3 8231.27 986.350   1
  -5 -11  -3 6874.32 702.469   1
  16  -5  -3 5498.32 914.543   2
  16  -5  -3 8141.75 971.125   4
 -16  11  -3 6332.48 1139.38   4
  16  -5  -3 7162.12 890.194   1
 -11  16  -3 8129.71 1186.00   4
 -16  11  -3 5671.90 991.058   2
 -11  16   0 713.359 712.004   4
  16  -5   0 1019.86 512.934   1
 -16  11   0 784.511 534.350   2
  -5 -11   0 1209.07 755.640   1
   5 -16   0 105.462 502.202   3
  11   5   0 875.336 519.393   3
 -16  11   0 1914.07 837.912   4
  -5 -11   0 664.838 511.255   3
 -11  16   0 1465.84 572.838   2
  16  -5   0 832.517 492.637   3
  16  -5   0 1851.95 973.379   2
 -11  16   0 379.389 372.872   1
  11   5   0 334.194 463.590   1
 -11  16   3 1293.50 691.788   4
  16  -5   3 1417.90 184.708   3
  11   5   3 2354.86 640.432   3
  11   5   3 1795.52 593.750   1
 -11  16   3 2577.12 451.951   1
  -5 -11   3 2157.84 445.813   2
   5 -16   3 2227.89 684.741   3
 -16  11   3 1421.88 509.229   2
  -5 -11   3 2093.58 726.098   3
 -16  11   3 3054.41 761.181   4
  11   5   6 3955.17 866.079   3
   5 -16   6 6632.04 1046.28   3
  -5 -11   6 3573.69 483.117   2
 -16  11   6 6342.83 776.095   4
 -16  12 -10 1825.37 1341.88   4
 -16  12 -10 1614.06 1293.05   2
   4 -16 -10 211.947 1016.11   3
 -12  16 -10 1130.51 951.839   2
  -4 -12 -10 766.163 852.591   3
  16  -4 -10-819.878 1229.72   1
  12   4 -10 1922.55 1360.62   1
  -4 -12 -10 1923.62 1007.72   4
 -12  16 -10 2039.88 1209.19   4
  -4 -12 -10 935.273 1617.36   2
 -12  16 -10-239.678 1824.48   1
  -4 -12 -10 1235.73 1074.59   1
 -12  16  -7 12883.9 1307.34   2
   4 -16  -7 13075.4 1408.81   3
  -4 -12  -7 11692.9 1168.85   3
   4 -16  -7 9362.50 540.925   1
 -12  16  -7 13944.1 1619.71   4
  12   4  -7 10363.3 1469.13   1
  16  -4  -7 11235.3 1409.19   1
  -4 -12  -7 11771.7 1773.57   2
  -4 -12  -7 13120.3 1318.12   4
 -16  12  -7 14530.5 1726.59   4
 -16  12  -7 12065.8 1627.31   2
 -12  16  -4 7657.54 960.099   2
 -12  16  -4 6184.85 831.579   3
   4 -16  -4 7880.83 1069.28   3
  -4 -12  -4 7050.39 869.991   3
  16  -4  -4 5042.21 851.740   1
  -4 -12  -4 6349.62 630.049   1
  16  -4  -4 7081.90 869.572   2
 -16  12  -4 6628.73 1222.57   4
 -12  16  -4 6592.42 1161.81   4
  12   4  -4 4890.07 899.156   1
 -16  12  -4 7965.15 1193.07   2
  -4 -12  -1 31231.9 1542.23   1
 -12  16  -1 27865.0 1556.94   3
   4 -16  -1 30959.6 1560.79   3
 -12  16  -1 31828.0 1564.54   2
  16  -4  -1 30347.6 1456.18   1
  -4 -12  -1 30840.2 1465.19   3
  16  -4  -1 31799.5 1460.34   3
 -12  16  -1 32290.6 1307.49   1
 -16  12  -1 32739.1 1679.65   2
  16  -4  -1 33241.2 1943.99   2
 -16  12  -1 31782.2 2005.88   4
  12   4  -1 30698.9 1458.33   1
 -12  16  -1 33542.9 1957.17   4
  12   4   2 5771.20 767.721   1
  12   4   2 7876.05 816.221   3
 -16  12   2 6402.00 784.692   2
   4 -16   2 5790.58 818.537   3
  16  -4   2 7714.02 539.832   3
  -4 -12   2 7867.67 694.200   2
  -4 -12   2 6755.10 879.664   3
 -12  16   2 7945.96 875.671   2
 -16  12   2 7260.30 828.814   1
 -12  16   2 7497.73 622.426   1
  16  -4   2 7371.33 891.716   1
 -16  12   2 8464.25 1080.92   4
 -12  16   2 7490.15 1008.00   4
  12   4   5 12123.4 1003.08   3
   4 -16   5 13792.6 1285.51   3
  -4 -12   5 13492.7 1329.07   3
 -12  16   5 11991.2 1038.64   1
  -4 -12   5 13928.8 1008.11   2
 -16  12   5 17025.7 1181.41   4
   3 -16  -8 22183.3 1134.81   1
 -13  16  -8 23189.3 1860.46   2
  -3 -13  -8 27291.0 1771.82   4
   3 -16  -8 25680.4 1935.82   3
  -3 -13  -8 28042.8 1793.78   3
  13   3  -8 30867.8 2392.91   1
  16  -3  -8 26863.2 2116.77   1
  -3 -13  -8 30523.3 2721.02   2
  -3 -13  -8 23397.7 1593.76   1
 -16  13  -8 29734.4 2314.88   4
 -13  16  -8 31021.8 2250.61   4
 -16  13  -8 27373.9 2306.99   2
  16  -3  -5 1984.05 796.039   1
 -16  13  -5 1607.21 925.076   2
 -13  16  -5 2363.99 729.972   3
   3 -16  -5 2020.55 843.756   3
 -13  16  -5 2525.35 777.333   2
  -3 -13  -5 2167.22 739.782   3
  -3 -13  -5 1856.10 437.904   1
 -16  13  -5 1539.80 988.890   4
  13   3  -5 3013.22 884.353   1
  16  -3  -5 2176.66 473.517   2
 -13  16  -5 3581.81 1078.42   4
  16  -3  -2 69421.5 2224.72   1
 -16  13  -2 70431.5 2518.48   2
 -13  16  -2 69920.0 2296.66   3
   3 -16  -2 68683.5 2258.57   3
  -3 -13  -2 68252.9 2135.04   3
  -3 -13  -2 66288.9 1890.21   1
  16  -3  -2 74144.2 2556.84   2
  13   3  -2 68726.4 2246.12   1
 -16  13  -2 74127.1 2993.58   4
 -13  16  -2 77118.0 2951.19   4
 -13  16  -2 76183.4 2486.42   2
  -3 -13   1 1883.05 913.806   1
 -16  13   1 636.101 565.503   2
  13   3   1 1145.10 491.167   3
   3 -16   1-339.872 589.790   3
  -3 -13   1-22.3913 603.592   3
 -13  16   1 1105.16 576.057   2
  16  -3   1 857.975 424.849   3
  -3 -13   1 837.170 493.451   2
 -16  13   1 1452.11 520.120   1
 -13  16   1 1470.07 700.988   4
  16  -3   1 1073.16 570.901   1
 -16  13   1 2693.69 876.217   4
 -13  16   1 1096.61 388.864   1
  13   3   1 1058.40 577.969   1
  -3 -13   4 60521.5 1841.42   2
  13   3   4 53659.4 1709.95   3
 -13  16   4 62580.9 2306.26   4
   3 -16   4 59823.0 2296.60   3
 -16  13   4 60424.7 2078.96   2
  -3 -13   4 57008.0 2336.05   3
 -16  13   4 60463.2 2257.61   4
  -2 -14  -9 6163.05 1635.86   2
 -14  16  -9 6181.70 1246.37   2
 -16  14  -9 5048.55 1367.24   4
 -16  14  -9 3961.76 1192.97   2
   2 -16  -9 4363.47 1100.40   3
  -2 -14  -9 6080.44 1088.75   3
   2 -16  -9 4639.75 900.283   4
  -2 -14  -9 3957.41 991.683   4
  14   2  -9 3850.63 1264.68   1
  16  -2  -9 5885.88 1367.35   1
 -14  16  -9 5464.34 1356.85   4
  16  -2  -6 2163.91 843.978   1
 -16  14  -6 2466.36 370.403   3
 -16  14  -6 4263.49 1151.64   2
 -14  16  -6 2863.79 783.260   3
 -14  16  -6 4012.90 984.154   2
   2 -16  -6 4127.52 1011.75   3
  -2 -14  -6 2909.12 886.719   3
 -14  16  -6 3732.19 1055.24   4
  -2 -14  -6 2610.62 449.119   1
  14   2  -6 4659.14 1098.35   1
 -16  14  -6 3647.89 1137.49   4
 -16  14  -3 26172.1 1167.47   3
  -2 -14  -3 27873.8 1109.88   1
 -16  14  -3 29231.1 1770.49   2
 -14  16  -3 29358.6 1498.09   3
 -14  16  -3 31030.1 1732.56   2
   2 -16  -3 30595.2 1660.75   3
  -2 -14  -3 30090.9 1542.77   3
  16  -2  -3 31744.3 1555.60   2
  14   2  -3 31040.3 1676.50   1
  16  -2  -3 31749.8 1626.29   1
 -16  14  -3 35638.7 2215.20   4
 -14  16  -3 32634.8 2066.03   4
 -16  14   0 3493.62 768.192   2
  14   2   0 4130.32 716.729   1
 -14  16   0 3561.83 715.708   2
   2 -16   0 3528.86 697.599   3
  -2 -14   0 4482.55 747.623   3
  16  -2   0 3905.77 641.065   3
  16  -2   0 4418.40 735.708   1
  14   2   0 2912.13 614.439   3
 -14  16   0 3260.09 554.971   1
  -2 -14   0 3874.62 883.875   1
 -16  14   0 3310.99 958.986   4
 -14  16   0 4423.85 977.247   4
  14   2   3 25914.8 1203.91   3
  16  -2   3 27851.2 935.532   3
  -2 -14   3 25795.6 1278.68   2
 -14  16   3 24858.4 1308.53   1
  16  -2   3 24693.1 1548.68   1
 -16  14   3 23753.8 1462.25   1
 -16  14   3 23407.2 1364.86   2
   2 -16   3 27294.1 1580.25   3
  -2 -14   3 23406.3 1540.37   3
 -14  16   3 24988.9 1434.03   2
  14   2   3 26297.8 1557.20   1
 -16  14   3 26996.0 1639.88   4
 -14  16   3 27483.3 1678.17   4
 -16  14   6 8468.50 969.181   4
   2 -16   6 9927.71 1280.64   3
  -2 -14   6 7476.22 1226.64   3
  -2 -14   6 6191.80 1023.54   2
 -14  16   6 3995.22 1061.03   1
 -16  15  -7 4346.55 1176.80   2
 -15  16  -7 4532.49 1050.80   2
   1 -16  -7 3339.14 962.907   3
  -1 -15  -7 2562.13 889.752   3
   1 -16  -7 2621.94 501.636   1
  15   1  -7 2923.22 1087.10   1
  -1 -15  -7 1223.49 616.824   1
 -16  15  -7 2617.89 1046.72   4
  16  -1  -7 1870.10 916.706   1
 -15  16  -7 4219.86 1211.31   4
  15   1  -4 1436.25 762.686   1
 -15  16  -4 1732.76 715.684   3
  16  -1  -4 1399.55 683.437   1
 -15  16  -4 1106.58 675.684   2
   1 -16  -4 416.322 601.539   3
  -1 -15  -4 404.902 600.423   3
 -16  15  -4 678.891 749.471   2
  -1 -15  -4 614.534 308.010   1
 -15  16  -4 1466.05 906.232   4
 -16  15  -4 1875.56 890.441   4
 -16  15  -4 1738.70 626.326   3
 -15  16  -1 19935.1 1429.02   3
  15   1  -1 18719.2 1219.89   1
  16  -1  -1 19081.2 1231.10   1
 -16  15  -1 19601.6 1392.67   2
  -1 -15  -1 17971.0 1207.64   1
   1 -16  -1 16162.8 1178.70   3
  -1 -15  -1 17965.9 1220.21   3
 -15  16  -1 17464.6 1345.62   2
  16  -1  -1 18877.5 1547.37   2
 -16  15  -1 18718.7 1592.10   4
 -15  16  -1 21169.2 1724.87   4
  15   1   2 2552.41 647.239   1
 -16  15   2 1262.84 595.942   1
 -15  16   2 2887.33 629.739   1
  16  -1   2 1418.54 638.785   1
  16  -1   2 3066.18 523.065   3
  15   1   2 2800.83 541.281   3
   1 -16   2 1882.52 674.903   3
 -16  15   2 3127.78 705.371   2
  -1 -15   2 2298.02 726.347   3
 -15  16   2 3148.70 685.621   2
 -16  15   2 3705.95 910.376   4
 -15  16   2 2355.45 823.928   4
  15   1   5 2921.45 548.199   3
   1 -16   5 4508.39 1029.28   2
 -15  16   5 3438.50 971.706   1
  -1 -15   5 4792.80 966.426   2
   1 -16   5 7410.87 1125.06   3
  -1 -15   5 7287.33 1071.02   3
 -16  15   5 4995.28 854.957   4
 -15  16   5 4618.28 865.548   4
 -16  16  -8 31226.8 2246.70   2
   0 -16  -8 35654.9 2164.83   3
  16   0  -8 33296.8 2356.41   1
   0 -16  -8 35661.3 1981.06   4
 -16  16  -8 37746.9 2636.45   4
  16   0  -5 416.123 737.886   1
 -16  16  -5 185.648 624.756   3
 -16  16  -5-350.425 756.723   2
   0 -16  -5-547.752 752.141   3
 -16  16  -5 445.245 922.594   4
 -16  16  -2 49515.4 1977.04   3
 -16  16  -2 53077.3 2239.67   2
   0 -16  -2 51401.9 2032.85   3
 -16  16  -2 54874.1 2688.81   4
  16   0  -2 48759.0 2004.68   1
  16   0   1 82.7640 563.767   1
  16   0   1 439.266 447.602   3
   0 -16   1 681.750 618.728   3
 -16  16   1 734.897 544.055   2
 -16  16   1-489.489 503.397   1
   0 -16   1 1493.75 938.005   1
 -16  16   1 658.221 778.245   4
 -16  16   4 28347.6 1740.14   1
   0 -16   4 27863.6 1560.52   2
  16   0   4 25952.9 1008.90   3
   0 -16   4 30785.6 1834.37   3
 -16  16   4 29836.0 1652.63   2
 -16  16   4 31110.7 1751.19   4
  17 -17  -8 5191.74 1564.33   3
   0  17  -8 6199.71 1783.29   1
  17 -17  -8 3217.38 747.746   1
 -17   0  -8 2744.66 1278.76   4
 -17   0  -8 5188.61 1653.94   2
  17 -17  -5-1222.36 1123.01   3
   0  17  -5-383.456 1014.10   1
 -17   0  -5 1613.72 1272.78   2
 -17   0  -5 470.218 969.323   4
  17 -17  -5 1089.41 527.247   1
   0  17  -2 23641.0 1564.05   1
  17 -17  -2 20243.2 1638.87   3
 -17   0  -2 18308.1 1694.01   4
 -17   0  -2 20075.7 1962.76   2
  17 -17  -2 19899.4 1198.96   1
  17 -17   1 756.814 541.493   3
   0  17   1-181.883 343.709   1
 -17   0   1 304.144 736.312   4
 -17   0   1 1353.35 775.398   2
 -17   0   4 2717.66 474.252   2
  17 -17   4 2123.15 594.182   3
 -17   0   4 1990.83 823.909   4
 -17   0   7-500.510 751.215   4
 -16  -1  -9 6575.32 1901.92   2
  17 -16  -9 7532.66 1813.25   3
  16 -17  -9 5602.10 1643.01   3
  -1  17  -9 2354.59 1665.95   1
   1  16  -9 4425.74 1601.78   1
  17 -16  -9 1899.49 783.806   1
  16 -17  -9 3890.56 851.849   1
 -16  -1  -9 6599.39 1615.43   4
 -17   1  -9 6857.27 1526.91   4
 -17   1  -9 4367.37 1766.95   2
  17 -16  -6 4343.02 1255.26   3
  16 -17  -6 3271.13 639.490   1
  16 -17  -6 5077.96 1279.20   3
  -1  17  -6 4505.09 1489.78   1
   1  16  -6 5829.26 1437.40   1
 -16  -1  -6 2393.59 379.261   3
 -16  -1  -6 3348.88 1408.92   2
 -16  -1  -6 3772.85 1133.87   4
 -17   1  -6 5439.56 1370.82   4
 -17   1  -6 4054.69 1447.90   2
  17 -16  -6 2841.38 701.316   1
   1  16  -3 29411.1 1945.08   1
  17 -16  -3 32558.3 2080.65   3
  16 -17  -3 34488.3 2110.60   3
  16 -17  -3 28978.1 1298.61   1
  17 -16  -3 28489.6 1378.24   1
 -16  -1  -3 32890.5 2140.95   4
 -17   1  -3 31515.5 2113.84   4
 -17   1  -3 32301.6 2435.92   2
 -16  -1  -3 27316.7 2296.46   2
  -1  17  -3 30516.3 1995.85   1
  17 -16   0 8249.11 960.457   3
  16 -17   0 8910.99 974.314   3
  -1  17   0 8807.53 747.983   1
   1  16   0 8492.15 757.357   1
 -17   1   0 8844.95 1245.44   4
 -16  -1   0 10700.0 1338.79   2
 -17   1   0 9293.25 1226.64   2
 -16  -1   0 10959.5 1286.74   4
  16 -17   3 14652.1 984.068   3
  17 -16   3 14781.6 899.203   3
 -17   1   3 15014.4 1376.91   4
 -16  -1   3 16208.3 1009.29   2
 -17   1   3 13449.1 956.876   2
 -16  -1   6 10851.6 1191.89   4
 -17   1   6 11586.4 1180.85   4
  17 -15  -7 35596.9 2657.18   3
  15 -17  -7 29213.1 2376.92   3
 -15  -2  -7 27470.1 2185.33   4
 -15  -2  -7 20284.1 884.699   3
  -2  17  -7 23352.6 1287.61   2
 -17   2  -7 28948.6 2859.20   2
 -15  -2  -7 30230.7 2808.13   2
 -17   2  -7 26713.7 2259.23   4
  -2  17  -7 23683.6 2484.62   1
  17 -15  -7 25456.3 1479.59   1
   2  15  -7 27200.8 2504.27   1
  15 -17  -7 25596.7 1259.27   1
  17 -15  -4 4235.22 1188.18   3
  15 -17  -4 2834.94 1028.96   3
  -2  17  -4 3666.13 1213.95   1
   2  15  -4 4031.68 1167.21   1
  15 -17  -4 2148.66 507.381   1
 -15  -2  -4 3463.02 556.240   3
 -15  -2  -4 3902.56 1066.60   4
  17 -15  -4 2483.56 641.065   1
 -17   2  -4 1694.80 899.694   4
 -15  -2  -4 3766.85 1360.21   2
 -17   2  -4 4342.02 1321.50   2
  -2  17  -1 18039.5 1216.10   1
  17 -15  -1 19694.5 1499.29   3
  15 -17  -1 16718.0 1302.09   3
  17 -15  -1 17370.3 1193.02   1
 -15  -2  -1 18555.3 1562.25   4
 -17   2  -1 17252.1 1587.25   4
 -15  -2  -1 19152.3 1796.45   2
 -17   2  -1 20972.4 1742.54   2
   2  15  -1 15988.3 1118.22   1
  17 -15   2 16923.1 938.443   3
  15 -17   2 18529.5 1115.52   3
   2  15   2 15954.9 793.025   1
 -15  -2   2 17617.8 1447.50   4
 -17   2   2 17714.7 1486.13   4
 -15  -2   2 19687.4 1333.30   2
 -17   2   2 20090.6 1269.18   2
  15 -17   5 31207.1 1421.26   3
 -15  -2   5 30724.8 1744.58   4
 -17   2   5 31206.4 1768.48   4
 -15  -2   8 3624.55 812.919   4
  -3  17  -8 8172.44 1952.44   1
  17 -14  -8 5969.34 1660.72   3
  14 -17  -8 5506.67 1487.74   3
   3  14  -8 5557.33 1664.41   1
  -3  17  -8 7229.68 872.145   2
 -14  -3  -8 9026.32 1494.43   4
  14 -17  -8 4800.59 748.117   1
 -17   3  -8 9689.23 1634.09   4
 -14  -3  -8 8582.51 1833.90   2
 -17   3  -8 8183.19 1877.56   2
  17 -14  -8 6092.58 1004.12   1
  -3  17  -5 539.857 978.576   1
  17 -14  -5 1275.96 1057.86   3
  14 -17  -5 1253.14 1016.28   3
  14 -17  -5 575.053 439.455   1
   3  14  -5 2159.58 1145.30   1
 -17   3  -5 1098.12 989.148   4
 -14  -3  -5 1074.96 482.537   3
  -3  17  -5 880.799 594.746   2
 -14  -3  -5 993.217 888.830   4
  17 -14  -5 76.6948 823.098   4
 -14  -3  -5 223.033 1077.12   2
 -17   3  -5 2769.15 1160.12   2
  17 -14  -5 706.900 554.099   1
  -3  17  -2 3940.95 928.504   1
  14 -17  -2 3913.16 868.345   3
   3  14  -2 4346.69 863.561   1
 -17   3  -2 3652.00 1016.64   4
  17 -14  -2 4189.54 975.516   3
 -14  -3  -2 4544.52 710.938   3
 -14  -3  -2 3083.30 865.961   4
 -14  -3  -2 3868.22 1167.44   2
  17 -14  -2 3432.83 691.497   1
 -17   3  -2 2617.33 1066.50   2
  17 -14   1 8115.98 784.146   3
  14 -17   1 6802.11 793.494   3
  -3  17   1 7659.90 507.192   1
 -14  -3   1 9243.01 1182.89   2
 -14  -3   1 9847.34 1143.52   4
 -17   3   1 9115.80 1216.63   4
 -17   3   1 7938.28 999.222   2
   3  14   1 8153.35 710.640   1
 -14  -3   4 7698.11 491.102   2
 -17   3   4 12607.9 1264.84   4
 -17   3   4 11738.4 787.710   2
  14 -17   4 8950.64 849.021   3
  17 -14   4 7227.44 519.568   3
 -14  -3   4 10428.0 1169.02   4
 -14  -3   7 4806.14 916.003   4
 -17   3   7 3812.01 774.167   4
  -4  17  -9 1664.29 1680.79   1
  13 -17  -9 4061.72 1420.38   3
  17 -13  -9 3337.73 980.644   1
 -13  -4  -9 4388.30 1721.44   2
  17 -13  -9 7038.61 1776.60   3
  -4  17  -9 4931.55 813.542   2
   4  13  -9 5864.52 1793.39   1
 -17   4  -9 4910.10 1431.43   4
 -13  -4  -9 5244.90 1340.20   4
  13 -17  -9 3415.28 787.793   1
 -17   4  -9 4880.99 1624.73   2
 -17   4  -6 2420.23 1078.89   4
  13 -17  -6 1794.32 476.062   1
 -13  -4  -6 899.209 855.559   4
  -4  17  -6 4521.25 1494.82   1
  17 -13  -6 2737.26 1227.81   3
  13 -17  -6 2770.53 1141.19   3
   4  13  -6 3252.22 1261.83   1
 -13  -4  -6 2842.25 585.364   3
  17 -13  -6 3011.92 771.259   1
  -4  17  -6 2858.47 661.115   2
  17 -13  -6 1501.04 840.507   4
 -13  -4  -6 2583.49 1295.23   2
 -17   4  -6 3536.90 1288.04   2
  17 -13  -3 9575.14 1278.88   3
  13 -17  -3 8588.71 1175.87   3
   4  13  -3 12615.7 1325.81   1
  17 -13  -3 7735.05 828.624   1
 -13  -4  -3 9758.49 838.000   3
  -4  17  -3 8233.82 905.322   2
 -17   4  -3 10644.4 1505.32   2
 -13  -4  -3 8777.61 1225.98   4
 -13  -4  -3 11367.2 1610.98   2
 -17   4  -3 9554.63 1357.98   4
  -4  17  -3 12119.4 1463.02   1
 -17   4   0 4182.45 910.692   2
  17 -13   0 3875.17 850.921   3
  13 -17   0 4051.48 739.233   3
  17 -13   0 3787.38 733.519   1
 -13  -4   0 4422.73 767.536   3
 -17   4   0 4545.96 961.360   4
   4  13   0 3744.32 608.227   1
 -13  -4   0 4092.16 897.678   4
 -13  -4   0 4540.26 1042.23   2
  -4  17   0 3634.86 592.204   1
 -17   4   3 9104.36 787.461   2
  17 -13   3 8127.06 565.308   3
  13 -17   3 9782.37 874.622   3
 -17   4   3 9214.66 1124.27   4
   4  13   3 7114.68 693.094   1
 -13  -4   3 9246.74 839.131   2
 -13  -4   6 2647.99 796.957   4
  13 -17   6 991.640 661.396   3
 -17   4   6 2478.71 754.628   4
  -5  17 -10 3723.68 2040.91   1
  17 -12 -10 1009.31 1042.56   1
  17 -12 -10 5131.39 1917.61   3
  12 -17 -10 3755.39 1404.00   3
   5  12 -10 3662.77 1709.91   1
 -12  -5 -10 1971.43 1263.72   4
 -17   5 -10 2806.32 1627.67   2
 -12  -5 -10 4635.40 1950.67   2
 -17   5 -10 1874.18 1438.64   4
  17 -12  -7 20326.4 2268.79   3
   5  12  -7 19743.5 2092.89   1
  12 -17  -7 16878.3 1810.36   3
  -5  17  -7 14633.5 1131.79   2
 -12  -5  -7 15152.6 1046.16   3
 -12  -5  -7 18002.9 2157.85   2
 -12  -5  -7 17408.6 1691.64   4
  17 -12  -7 16210.9 1384.52   1
  -5  17  -7 21414.7 2434.76   1
 -17   5  -7 16127.8 2080.76   2
 -17   5  -7 15874.3 1742.13   4
  12 -17  -7 13686.4 835.517   1
  17 -12  -4 4475.91 1234.92   3
  17 -12  -4 4323.03 751.708   1
  12 -17  -4 4207.14 1044.22   3
  12 -17  -4 2585.83 364.895   1
 -12  -5  -4 3799.94 642.925   3
   5  12  -4 4314.02 1073.17   1
  -5  17  -4 4308.94 701.491   2
 -12  -5  -4 5859.48 1069.43   4
 -17   5  -4 5711.73 1201.69   4
  17 -12  -4 3632.07 940.370   4
 -12  -5  -4 5661.49 1355.86   2
 -17   5  -4 4730.30 1248.02   2
  -5  17  -4 4197.50 1239.86   1
  17 -12  -1 29192.3 1701.28   3
  17 -12  -1 28503.6 1420.19   1
  12 -17  -1 27175.1 1511.14   3
   5  12  -1 25704.5 1330.66   1
 -12  -5  -1 26126.3 1360.82   3
  -5  17  -1 29562.5 1614.56   1
 -12  -5  -1 25402.4 1667.74   4
 -12  -5  -1 27603.2 1972.38   2
 -17   5  -1 27610.7 1901.15   4
 -17   5  -1 25461.5 1743.99   2
 -17   5   2 8773.46 855.352   2
  17 -12   2 8094.37 618.307   3
  12 -17   2 8714.59 849.153   3
   5  12   2 8013.46 727.218   1
 -12  -5   2 9743.79 1122.23   4
 -12  -5   2 9502.64 1079.54   2
 -17   5   2 9109.83 1105.34   4
 -17   5   5 25649.3 1004.01   2
  12 -17   5 28540.6 1482.33   3
 -12  -5   5 27943.5 1660.22   4
 -17   5   5 27259.3 1559.47   4
 -12  -5   8 5783.55 910.466   4
  17 -11  -8 4342.28 1538.73   3
  17 -11  -8 3888.08 949.678   1
  11 -17  -8 6178.26 1409.16   3
  -6  17  -8 4497.38 835.920   2
 -11  -6  -8 3684.47 774.027   3
   6  11  -8 6440.51 1682.24   1
  11 -17  -8 3101.20 637.504   1
 -11  -6  -8 4661.89 1156.40   4
 -11  -6  -8 3207.57 1493.59   2
 -17   6  -8 4674.05 1277.17   4
  -6  17  -8 5004.12 1743.22   1
 -17   6  -8 6480.33 1671.75   2
  11 -17  -5 19305.6 1672.45   3
   6  11  -5 20272.3 1841.33   1
  -6  17  -5 16422.8 1172.80   2
 -11  -6  -5 18376.7 1078.24   3
 -11  -6  -5 20306.4 2134.04   2
  17 -11  -5 20776.2 1434.68   4
  -6  17  -5 18786.6 2050.72   1
 -17   6  -5 19401.0 1779.94   4
 -17   6  -5 17035.3 1854.73   2
  17 -11  -5 17997.1 1267.62   1
  -6  17  -5 20212.3 1618.44   4
 -11  -6  -5 18285.7 1576.75   4
  -6  17  -2 9982.75 1233.72   4
  17 -11  -2 10170.3 1239.06   3
  11 -17  -2 10630.8 1136.81   3
   6  11  -2 9122.94 1005.43   1
 -11  -6  -2 9341.57 851.588   3
  -6  17  -2 10103.3 944.745   2
 -11  -6  -2 9588.36 1088.12   4
  17 -11  -2 9643.85 920.141   1
  -6  17  -2 11149.0 1304.41   1
 -11  -6  -2 9607.48 1392.73   2
 -17   6  -2 7818.12 1181.62   4
 -17   6  -2 10602.1 1333.74   2
  17 -11   1 27807.7 1301.71   3
   6  11   1 26369.5 1184.61   1
  11 -17   1 22702.0 1305.93   3
  17 -11   1 25961.3 1476.09   1
 -17   6   1 26512.5 1752.60   4
 -11  -6   1 24433.5 1446.03   3
 -11  -6   1 26139.9 1656.66   4
 -11  -6   1 27068.3 1731.66   2
  -6  17   1 21621.8 754.489   1
 -17   6   1 22544.7 1400.35   2
 -17   6   4 15503.7 933.626   2
 -11  -6   4 10635.3 442.406   2
  11 -17   4 13564.5 1083.17   3
 -11  -6   4 15672.4 1338.99   4
 -17   6   4 15298.3 1241.30   4
 -11  -6   4 11166.1 608.349   2
 -11  -6   7 3193.62 863.714   4
 -17   6   7 2893.98 610.318   4
 -17   7  -9 1607.69 1330.96   2
  17 -10  -9 788.343 941.795   1
  17 -10  -9 1788.20 1540.62   3
  10 -17  -9 656.950 1066.93   3
 -10  -7  -9 522.759 693.084   3
  -7  17  -9 221.545 715.646   2
   7  10  -9-369.964 1316.68   1
 -10  -7  -9 611.930 1504.04   2
 -17   7  -9 398.459 1184.00   4
 -10  -7  -9 917.715 1010.45   4
  -7  17  -9 2574.62 1821.60   1
  10 -17  -6 6609.94 1228.21   3
   7  10  -6 7268.92 1375.78   1
  10 -17  -6 4179.01 358.427   1
  -7  17  -6 6396.26 852.674   2
 -10  -7  -6 7603.91 840.550   3
 -17   7  -6 8798.96 1378.66   4
  17 -10  -6 7604.46 960.594   4
 -10  -7  -6 7833.07 1182.77   4
  17 -10  -6 7062.29 990.185   1
 -10  -7  -6 7187.13 1610.80   2
  -7  17  -6 7138.10 1570.45   1
 -17   7  -6 7688.09 1513.16   2
  -7  17  -6 9035.53 1255.30   4
  17 -10  -6 4869.35 912.353   2
 -17   7  -3 1780.94 872.331   2
  17 -10  -3 1987.03 833.722   2
  17 -10  -3 2508.74 631.263   1
  10 -17  -3 4519.55 920.736   3
 -17   7  -3 3869.29 1002.79   4
 -10  -7  -3 3297.55 627.764   3
   7  10  -3 3233.26 827.538   1
  -7  17  -3 2810.27 638.500   2
 -10  -7  -3 1758.49 750.727   4
 -10  -7  -3 2398.29 987.602   2
  -7  17  -3 2723.28 1115.68   1
  -7  17  -3 4470.04 986.898   4
  17 -10   0 10770.3 1104.02   3
  10 -17   0 7318.03 843.322   3
  17 -10   0 8523.64 914.686   1
 -10  -7   0 7919.43 902.564   3
  -7  17   0 6930.79 870.918   2
 -10  -7   0 10619.1 1265.41   2
 -17   7   0 9563.15 1212.24   4
  -7  17   0 9642.92 915.659   1
   7  10   0 8754.34 813.970   1
 -17   7   0 8722.49 1052.19   2
   7  10   3 1741.72 597.222   1
 -17   7   3 1490.40 525.742   2
  10 -17   3 1660.34 594.208   3
 -10  -7   3 1780.79 675.245   2
 -17   7   3 2930.77 811.125   4
  10 -17   6 1121.28 752.249   3
 -17   7   6 105.961 569.835   4
 -17   8 -10 1945.58 1540.83   2
 -17   8 -10 3965.80 1458.99   4
   9 -17 -10 5105.73 1446.21   3
  -9  -8 -10 1795.74 811.631   3
  -8  17 -10 1523.31 801.078   2
  17  -9 -10 3718.12 1215.27   1
   8   9 -10 3596.55 1605.25   1
  -9  -8 -10 1520.98 1022.79   4
  -9  -8 -10 7309.09 1862.36   2
  -8  17 -10 7880.59 2405.80   1
 -17   8  -7 8527.58 1370.31   4
   9 -17  -7 7083.27 1301.69   3
   8   9  -7 10967.4 1675.19   1
  -8  17  -7 6548.55 972.595   2
  -9  -8  -7 9124.03 1003.28   3
  17  -9  -7 7849.91 1116.39   1
  -9  -8  -7 10076.7 1756.87   2
  -9  -8  -7 8515.32 1244.02   4
   9 -17  -7 5991.02 482.889   1
 -17   8  -7 7907.64 1544.68   2
  -8  17  -7 8969.70 1906.29   1
  -8  17  -7 9916.15 1350.18   4
 -17   8  -4 14827.5 1505.44   4
   9 -17  -4 12429.4 1305.62   3
   8   9  -4 11810.6 1395.46   1
  -8  17  -4 11006.0 1039.63   2
  -9  -8  -4 10348.6 890.079   3
  -9  -8  -4 12396.9 1634.12   2
  -9  -8  -4 11101.2 1194.99   4
  -8  17  -4 13800.2 1749.06   1
  17  -9  -4 11619.6 1108.40   4
 -17   8  -4 9306.88 1364.74   2
  17  -9  -4 11232.3 1130.90   2
  17  -9  -4 10968.2 1029.98   1
  -8  17  -4 12568.6 1356.92   4
   8   9  -1 26811.5 1381.64   1
   9 -17  -1 29078.9 1543.92   3
  -9  -8  -1 26597.7 1473.92   1
  -9  -8  -1 31474.2 1464.68   3
  -8  17  -1 32999.3 1577.58   2
  -9  -8  -1 32948.1 2043.74   2
  -8  17  -1 30324.5 1699.39   1
  17  -9  -1 29530.2 1463.28   1
 -17   8  -1 28689.8 1853.30   4
 -17   8  -1 29811.1 1785.50   2
  -8  17  -1 31332.8 1885.64   4
  17  -9   2 14043.6 764.232   3
 -17   8   2 13273.7 1017.78   2
   9 -17   2 12831.1 999.362   3
  -9  -8   2 13527.1 1219.08   3
  -9  -8   2 14140.5 1233.71   2
   8   9   2 13990.1 982.565   1
 -17   8   2 13943.5 1278.55   4
   9 -17   5 32948.9 1698.97   3
 -17   8   5 28949.5 1287.82   2
 -17   8   5 29492.7 1574.00   4
  -9  17  -8 22.6329 866.475   4
  17  -8  -8 1310.97 928.205   1
 -17   9  -8 1367.56 1217.27   2
  -8  -9  -8 1590.20 710.847   3
   8 -17  -8 924.041 1003.11   3
  -8  -9  -8 2003.21 912.181   4
  -9  17  -8 1016.06 747.570   2
  -8  -9  -8 1132.95 1297.49   2
   9   8  -8 1634.04 1321.43   1
 -17   9  -8 1563.83 1102.38   4
   8 -17  -8 445.885 365.612   1
  -9  17  -8 627.531 1626.39   1
   8 -17  -5 26074.8 1782.70   3
   9   8  -5 29663.4 2001.80   1
  -8  -9  -5 28456.2 1433.30   3
  -8  -9  -5 23731.0 2094.66   2
  17  -8  -5 28320.4 1531.67   4
  -9  17  -5 31585.6 2578.98   1
  -8  -9  -5 27707.0 1780.86   4
  -9  17  -5 29007.6 1624.61   2
  17  -8  -5 30230.0 1670.08   1
 -17   9  -5 31345.6 2188.42   4
  17  -8  -5 26531.9 1493.82   2
 -17   9  -5 28966.6 2157.77   2
  -9  17  -5 30785.3 2037.74   4
   8 -17  -2 12038.4 1150.38   3
  17  -8  -2 11545.8 979.010   1
  -9  17  -2 12392.0 1035.47   2
  -8  -9  -2 12310.4 988.129   3
  -8  -9  -2 10695.6 941.137   1
   9   8  -2 10151.0 1005.32   1
 -17   9  -2 11544.5 1374.31   4
  17  -8  -2 12096.2 1261.70   2
 -17   9  -2 11127.9 1297.41   2
  -9  17  -2 13062.6 1347.31   4
  17  -8   1 34730.2 1481.30   3
 -17   9   1 27836.7 1458.98   2
   9   8   1 29336.1 1358.56   1
   8 -17   1 27323.0 1401.10   3
  -8  -9   1 29019.2 1537.62   3
  -9  17   1 31562.7 870.829   1
  -9  17   1 29777.6 1540.43   2
  17  -8   1 30137.3 1561.03   1
 -17   9   1 30576.1 1853.24   4
  -9  17   1 32243.1 1852.15   4
  -8  -9   4 11085.1 634.901   2
 -17   9   4 11997.8 918.312   2
   8 -17   4 12552.0 1123.24   3
  -8  -9   4 11967.1 1258.74   3
 -17   9   4 11889.5 1173.50   4
 -17   9   7 5148.18 628.402   4
 -10  17  -9 4898.70 1209.72   4
 -17  10  -9 3678.38 1398.28   2
   7 -17  -9 2990.48 1135.84   3
  -7 -10  -9 3880.42 863.414   3
 -10  17  -9 4892.14 1037.24   2
  10   7  -9 4941.39 1458.88   1
  -7 -10  -9 2705.10 989.314   4
  -7 -10  -9 2768.43 1479.01   2
 -10  17  -9 6034.06 2025.07   1
 -17  10  -9 4576.50 1394.77   4
  17  -7  -9 4054.72 1109.47   1
 -17  10  -6 1102.62 1008.19   2
  10   7  -6 3817.13 1147.77   1
  17  -7  -6 2437.82 867.525   1
   7 -17  -6 2314.30 924.321   3
  -7 -10  -6 1533.01 719.175   3
 -10  17  -6 1527.27 737.901   2
  -7 -10  -6 2012.01 871.340   4
 -10  17  -6 1092.08 934.102   4
  -7 -10  -6 1234.75 1116.97   2
 -10  17  -6 1895.06 1412.08   1
 -17  10  -6-507.989 995.493   4
  17  -7  -6 1789.57 724.030   2
 -10  17  -3 2017.33 815.931   4
 -17  10  -3 806.267 794.871   2
  -7 -10  -3 1437.98 544.378   1
   7 -17  -3 628.153 676.601   3
  -7 -10  -3 1390.23 520.384   3
 -10  17  -3 2113.60 634.978   2
  17  -7  -3 863.981 584.901   1
 -17  10  -3 3075.54 949.686   4
  10   7  -3 1584.88 697.442   1
  17  -7  -3 1690.54 824.652   2
 -17  10   0 8810.65 986.149   2
  -7 -10   0 9078.31 1109.97   1
   7 -17   0 6651.39 890.402   3
 -10  17   0 7101.71 890.060   2
  -7 -10   0 7931.06 886.524   3
 -10  17   0 9861.96 686.802   1
  17  -7   0 7308.47 837.001   1
 -10  17   0 9951.52 1211.15   4
 -17  10   0 11195.4 1299.13   4
  10   7   0 7572.01 803.133   1
  10   7   3 4116.48 783.129   3
 -17  10   3 4014.57 646.172   2
  -7 -10   3 3154.22 487.696   2
   7 -17   3 3690.59 706.858   3
  -7 -10   3 3456.25 854.844   3
 -17  10   3 4764.74 918.240   4
  10   7   3 2934.80 708.895   1
   7 -17   6 9943.56 1159.05   3
 -17  10   6 5673.03 793.756   4
 -11  17 -10 2383.36 1173.85   4
 -17  11 -10 2353.27 1473.40   2
   6 -17 -10 2682.59 1197.00   3
 -17  11 -10 4936.71 1535.09   4
  -6 -11 -10 3732.11 961.699   3
 -11  17 -10 2950.77 998.507   2
  -6 -11 -10 505.171 1097.11   1
  11   6 -10 207.637 1280.80   1
  -6 -11 -10 649.171 1484.82   2
  -6 -11 -10 3636.40 1097.20   4
 -11  17 -10 5350.63 2302.90   1
  17  -6 -10 1574.15 1115.23   1
 -11  17  -7 2028.94 965.358   4
  -6 -11  -7 2526.71 848.771   4
  17  -6  -7 3034.97 940.804   1
 -17  11  -7 3655.07 1259.34   2
   6 -17  -7 2426.48 941.264   3
 -11  17  -7 2320.79 835.184   2
  -6 -11  -7 2600.73 767.148   3
  -6 -11  -7 2389.73 1232.62   2
  11   6  -7 2779.94 1211.91   1
 -11  17  -7 4965.06 1823.20   1
 -17  11  -7 3999.73 1220.88   4
   6 -17  -4 13084.9 1271.76   3
 -11  17  -4 15165.4 1241.27   2
  -6 -11  -4 13830.0 1083.01   3
  11   6  -4 14535.3 1360.97   1
  17  -6  -4 16217.2 1260.99   4
  -6 -11  -4 12825.6 869.308   1
  17  -6  -4 13737.0 1212.62   2
 -17  11  -4 14976.7 1596.44   4
  17  -6  -4 13813.0 1161.09   1
 -11  17  -4 13401.2 1438.37   4
 -17  11  -4 14366.0 1516.37   2
 -17  11  -1 26716.4 1649.34   2
  -6 -11  -1 27875.3 1514.02   1
   6 -17  -1 28902.4 1485.98   3
 -11  17  -1 27374.2 1458.15   2
  -6 -11  -1 26595.9 1375.37   3
  17  -6  -1 25971.9 1369.78   1
  17  -6  -1 24916.4 1785.13   2
 -17  11  -1 29782.3 2025.26   4
  11   6  -1 26776.4 1394.85   1
 -11  17  -1 28929.9 1906.57   4
 -17  11   2 9033.31 914.075   2
  11   6   2 7652.60 841.184   3
   6 -17   2 8484.70 928.452   3
  17  -6   2 9038.03 551.911   3
  -6 -11   2 7790.74 707.533   2
  17  -6   2 7842.71 934.180   1
  -6 -11   2 7223.83 962.967   3
 -11  17   2 9639.67 997.660   2
 -11  17   2 8171.15 563.798   1
 -17  11   2 9991.00 1181.53   4
  11   6   2 7462.86 852.222   1
 -11  17   2 9832.77 1171.09   4
 -17  11   5 17602.8 1263.97   4
   6 -17   5 19425.3 1460.64   3
  -6 -11   5 17037.1 921.885   2
 -17  12  -8 5099.17 1271.90   2
 -12  17  -8 3326.58 1856.81   1
   5 -17  -8 3475.67 1116.02   3
 -12  17  -8 3867.69 988.254   2
  -5 -12  -8 4762.43 941.326   3
  17  -5  -8 6331.98 1293.04   1
  12   5  -8 4920.71 1247.87   1
  -5 -12  -8 5017.93 1056.30   4
  -5 -12  -8 5771.61 1586.62   2
 -17  12  -8 6084.49 1389.36   4
 -12  17  -8 7742.09 1366.33   4
 -17  12  -5 23097.3 1883.51   2
 -12  17  -5 25138.5 1625.48   2
   5 -17  -5 22465.8 1680.97   3
 -12  17  -5 20798.5 1369.19   3
  -5 -12  -5 22849.0 1454.90   3
  12   5  -5 24371.0 1853.28   1
  17  -5  -5 21817.2 1524.62   1
  17  -5  -5 21204.4 1192.94   2
 -17  12  -5 21551.0 1892.77   4
  -5 -12  -5 17790.9 957.403   1
 -12  17  -5 25786.8 1916.78   4
 -17  12  -2 7760.67 1041.79   2
  17  -5  -2 8140.14 901.073   1
 -12  17  -2 8016.19 1002.61   3
  -5 -12  -2 7631.92 860.096   1
   5 -17  -2 8131.15 970.841   3
 -12  17  -2 7199.03 901.028   2
  -5 -12  -2 8709.34 896.835   3
  12   5  -2 10621.9 1027.28   1
  17  -5  -2 8701.99 1157.43   2
 -17  12  -2 8215.99 1233.31   4
 -12  17  -2 8884.08 1163.43   4
  17  -5   1 22153.4 1331.43   1
 -12  17   1 23741.7 931.332   1
 -17  12   1 24215.6 1386.14   2
  12   5   1 20454.8 1179.86   3
   5 -17   1 21814.4 1300.69   3
 -12  17   1 21908.6 1367.78   2
  -5 -12   1 23803.6 1430.26   3
  12   5   1 23152.3 1292.80   1
  17  -5   1 25489.2 1066.77   3
  -5 -12   1 21693.7 1198.36   2
 -17  12   1 22090.0 1654.64   4
  -5 -12   1 21294.6 1699.84   1
 -12  17   1 26532.1 1718.13   4
 -12  17   4 2063.94 512.192   1
  12   5   4 1832.35 683.064   3
  -5 -12   4 3118.84 588.221   2
  -5 -12   4 3900.55 972.013   3
   5 -17   4 4273.88 826.325   3
 -17  12   4 2863.83 663.139   2
 -12  17   4 1892.03 705.237   4
 -17  12   4 2265.04 764.351   4
 -17  12   7 20171.3 1125.64   4
   4 -17  -9 1361.27 637.446   4
 -17  13  -9 2357.32 1231.90   2
   4 -17  -9 4255.19 1206.38   3
 -13  17  -9 3444.57 999.291   2
  -4 -13  -9 1493.07 845.146   3
  13   4  -9 2968.68 1407.71   1
  -4 -13  -9 3128.68 962.723   4
  -4 -13  -9 3591.81 1623.74   2
 -13  17  -9 5301.39 2200.73   1
  -4 -13  -9 1313.69 915.502   1
 -17  13  -9 4777.96 1418.98   4
  17  -4  -9 459.713 1014.82   1
 -13  17  -9 2640.23 1221.30   4
 -17  13  -6 2955.32 1020.50   2
  17  -4  -6 1779.50 881.599   1
   4 -17  -6 2372.12 914.699   3
 -13  17  -6 2043.21 795.548   3
 -13  17  -6 3278.72 910.954   2
  -4 -13  -6 2036.55 750.423   3
  -4 -13  -6 2036.90 520.631   1
  13   4  -6 1082.42 907.789   1
 -17  13  -6 3100.53 1087.66   4
  17  -4  -6 1157.47 320.751   2
 -13  17  -6 3541.12 1047.71   4
 -17  13  -3 7062.88 1091.67   2
 -13  17  -3 7173.47 940.189   3
 -13  17  -3 7884.12 950.216   2
   4 -17  -3 7504.74 944.667   3
  -4 -13  -3 6230.12 717.137   1
  -4 -13  -3 6022.46 832.338   3
  13   4  -3 9165.88 1073.38   1
  17  -4  -3 6743.66 1010.22   2
 -17  13  -3 8096.46 1286.05   4
 -13  17  -3 8065.52 1220.08   4
  17  -4  -3 7652.45 957.538   1
  17  -4   0 3444.52 695.365   1
  -4 -13   0 4819.69 952.240   1
  13   4   0 3131.11 673.468   1
 -13  17   0 3228.74 535.776   1
 -17  13   0 3181.23 752.272   2
  -4 -13   0 4430.33 762.595   3
   4 -17   0 2307.20 662.093   3
  17  -4   0 3588.08 620.314   3
 -13  17   0 2891.14 716.393   2
 -17  13   0 3365.36 998.538   4
 -13  17   0 2478.24 858.874   4
 -13  17   3 9439.15 805.299   1
  13   4   3 8710.34 912.321   3
  17  -4   3 10148.6 522.848   3
  -4 -13   3 7713.90 745.049   2
 -17  13   3 10104.4 933.267   2
   4 -17   3 8042.28 971.972   3
  -4 -13   3 8726.39 1093.99   3
  13   4   3 8135.50 1008.83   1
 -17  13   3 9569.04 1148.08   4
 -13  17   3 10369.8 1191.04   4
  13   4   6 2077.20 804.213   3
   4 -17   6 1915.02 857.978   3
 -13  17   6 1789.02 878.499   1
  -4 -13   6-12.1615 582.847   2
 -17  13   6 2276.85 682.384   4
  17  -3  -7 2630.34 1060.96   1
   3 -17  -7 4961.90 1085.16   3
 -14  17  -7 3121.50 965.119   2
  -3 -14  -7 3240.45 944.969   3
  -3 -14  -7 3747.80 954.141   4
  14   3  -7 3739.69 1220.64   1
 -17  14  -7 4947.93 1243.12   4
 -14  17  -7 5039.27 1255.75   4
 -17  14  -7 6387.82 1375.27   2
 -17  14  -4 7936.73 1183.76   2
 -14  17  -4 7269.66 948.030   3
 -14  17  -4 9891.00 1165.92   2
   3 -17  -4 10161.5 1150.49   3
  -3 -14  -4 8685.09 1002.87   3
  -3 -14  -4 9299.46 717.829   1
  14   3  -4 8752.02 1128.78   1
  17  -3  -4 9200.76 948.733   2
  17  -3  -4 10011.0 1121.91   1
 -17  14  -4 11233.3 1497.95   4
 -14  17  -4 10311.6 1390.05   4
 -14  17  -1 7891.86 807.155   1
 -17  14  -1 8758.45 1029.56   2
 -14  17  -1 8428.29 989.681   2
  17  -3  -1 7053.04 854.228   1
   3 -17  -1 8512.63 933.768   3
  -3 -14  -1 9128.50 953.447   3
  17  -3  -1 9791.71 1329.90   2
 -17  14  -1 9692.79 1303.58   4
  -3 -14  -1 8275.05 948.296   1
 -14  17  -1 7716.12 1180.26   4
  14   3  -1 8196.01 941.163   1
 -14  17   2 2840.87 559.071   1
  14   3   2 4287.51 668.402   3
  17  -3   2 4228.13 511.538   3
 -14  17   2 3789.12 769.473   2
   3 -17   2 2920.42 725.570   3
 -17  14   2 3796.47 692.244   2
  -3 -14   2 2863.59 579.756   2
  14   3   2 2624.08 715.086   1
  -3 -14   2 2412.75 729.781   3
  17  -3   2 2670.70 724.082   1
 -17  14   2 5837.67 1018.88   4
 -14  17   2 7095.86 1099.14   4
 -14  17   5 550.208 713.984   1
 -14  17   5 394.315 604.414   4
  14   3   5 1467.41 637.708   3
  -3 -14   5 914.490 722.111   2
   3 -17   5 1039.70 748.113   3
  -3 -14   5 158.657 774.033   3
 -17  14   5 1110.46 709.720   4
 -17  15  -8 5257.47 1316.55   2
   2 -17  -8 7032.92 1248.32   3
  -2 -15  -8 6265.77 1171.11   3
 -15  17  -8 4601.38 1134.13   2
  17  -2  -8 6838.50 1356.96   1
  -2 -15  -8 6109.03 1092.72   4
  -2 -15  -8 5045.84 951.546   1
  15   2  -8 5838.69 1309.12   1
 -17  15  -8 5918.79 1435.01   4
 -15  17  -8 4622.50 1362.73   4
 -17  15  -5 17499.9 836.122   3
 -17  15  -5 26215.3 1918.69   2
 -15  17  -5 26388.3 1780.73   2
 -15  17  -5 22270.7 1362.14   3
   2 -17  -5 27680.6 1765.05   3
  -2 -15  -5 25894.2 1580.07   3
  -2 -15  -5 18014.1 798.941   1
  15   2  -5 26504.6 1828.32   1
  17  -2  -5 25477.5 1736.28   1
 -17  15  -5 28848.4 2107.98   4
 -15  17  -5 27820.1 2113.69   4
  17  -2  -2 16890.6 1267.68   1
 -15  17  -2 16167.9 1329.98   3
 -17  15  -2 16304.0 1385.13   2
 -15  17  -2 19551.0 1434.35   2
   2 -17  -2 17148.7 1275.57   3
  15   2  -2 15257.5 1213.88   1
  -2 -15  -2 15515.1 1035.04   1
  -2 -15  -2 18128.7 1265.94   3
  17  -2  -2 17045.0 1401.95   2
 -17  15  -2 12783.3 1477.40   4
 -15  17  -2 15315.0 1562.16   4
 -17  15   1 15633.6 1209.56   2
  15   2   1 15692.4 1028.70   3
 -15  17   1 17121.0 1232.79   2
   2 -17   1 17535.5 1266.63   3
  -2 -15   1 14553.0 1205.92   3
  17  -2   1 17649.0 985.555   3
  15   2   1 19735.1 1304.07   1
  -2 -15   1 16161.4 1583.02   1
 -15  17   1 16036.8 946.115   1
 -17  15   1 17999.2 1583.82   4
  17  -2   1 16051.7 1226.58   1
 -15  17   1 18652.1 1551.30   4
  17  -2   4 2227.54 327.906   3
  15   2   4 3638.37 669.779   3
  -2 -15   4 3859.21 781.226   2
 -15  17   4 3548.26 790.717   1
   2 -17   4 4014.63 910.221   3
  -2 -15   4 3330.35 905.026   3
 -17  15   4 2927.82 750.886   2
 -17  15   4 5269.29 921.304   4
 -15  17   4 5201.02 981.906   4
   1 -17  -9 8791.11 1392.34   3
  -1 -16  -9 9068.90 1350.22   3
 -17  16  -9 7867.69 1429.94   2
 -16  17  -9 9975.67 1570.69   2
  16   1  -9 12712.6 1815.16   1
  17  -1  -9 8857.80 1519.69   1
 -16  17  -9 14409.9 1893.62   4
  -1 -16  -9 10219.2 2057.56   2
   1 -17  -9 8287.92 1096.61   4
  -1 -16  -9 7414.76 1154.66   4
 -17  16  -9 14210.2 1877.27   4
 -17  16  -6 11834.3 1426.16   2
  17  -1  -6 6318.89 1147.91   1
 -16  17  -6 9059.51 1270.29   2
   1 -17  -6 10267.8 1238.55   3
  -1 -16  -6 7802.38 1122.94   3
  16   1  -6 11692.3 1407.19   1
  -1 -16  -6 5331.53 568.183   1
 -17  16  -6 12599.7 1689.17   4
 -16  17  -6 9568.20 1527.29   4
 -17  16  -3 12946.9 1066.02   3
 -16  17  -3 13024.4 1170.00   3
 -17  16  -3 14761.6 1354.87   2
 -16  17  -3 14696.1 1341.67   2
   1 -17  -3 11481.8 1191.19   3
  -1 -16  -3 11721.2 1122.04   3
  16   1  -3 13320.0 1256.34   1
  -1 -16  -3 8739.14 667.235   1
 -17  16  -3 13354.1 1530.73   4
  17  -1  -3 13427.4 1184.14   1
 -16  17  -3 12533.2 1511.97   4
 -17  16   0 8585.19 1013.35   2
 -16  17   0 7074.40 913.380   2
   1 -17   0 7809.40 951.254   3
 -16  17   0 7428.11 790.775   1
  -1 -16   0 7570.30 984.749   3
  16   1   0 6862.67 892.424   1
  17  -1   0 8424.79 849.194   3
  17  -1   0 7666.54 906.842   1
  -1 -16   0 6897.40 1077.86   1
 -17  16   0 10167.7 1301.57   4
 -16  17   0 8784.72 1257.77   4
 -17  16   3 28740.9 1807.00   4
  16   1   3 29541.3 1281.59   3
  17  -1   3 29960.6 1138.53   3
 -16  17   3 25644.5 1463.03   1
 -17  16   3 26614.6 1579.87   1
 -17  16   3 30249.5 1649.93   2
   1 -17   3 26248.6 1690.37   3
  -1 -16   3 28312.9 1749.19   3
 -16  17   3 27011.8 1576.48   2
  16   1   3 26433.0 1686.74   1
 -16  17   3 30818.3 1845.55   4
  17  -1   3 25723.2 1667.56   1
  -1 -16   6 4083.39 1122.51   2
   1 -17   6 5139.29 1143.25   3
  -1 -16   6 4936.92 1143.81   3
 -17  16   6 5042.34 886.862   4
 -17  17  -7 283.658 847.121   2
   0 -17  -7-62.0361 816.915   3
  17   0  -7 1656.36 1000.11   1
 -17  17  -7 24.3659 985.615   4
 -17  17  -4 1738.01 749.062   3
 -17  17  -4 3687.42 923.795   2
  17   0  -4 2382.14 793.467   1
   0 -17  -4 922.990 673.214   3
 -17  17  -4 3706.14 1092.04   4
 -17  17  -1 741.761 844.970   3
  17   0  -1-277.019 557.859   1
 -17  17  -1 331.964 590.160   2
   0 -17  -1 475.354 573.096   3
   0 -17  -1-225.505 630.735   1
 -17  17  -1-301.345 826.032   4
  17   0   2 16429.1 1333.03   1
  17   0   2 18736.6 1034.46   3
 -17  17   2 19270.2 1337.05   2
   0 -17   2 19695.6 1459.78   3
 -17  17   2 14837.5 1115.71   1
 -17  17   2 16438.6 1522.35   4
 -17  17   5 490.346 708.518   4
  17   0   5-68.2909 372.228   3
 -17  17   5 287.613 913.727   1
   0 -17   5-40.0797 817.589   3
  18 -18  -9 727.136 1389.44   3
   0  18  -9 2126.85 1589.23   1
 -18   0  -9 1218.35 1377.45   4
 -18   0  -9 1191.13 1705.73   2
  18 -18  -6 40971.3 2724.86   3
  18 -18  -6 30031.1 1470.35   1
 -18   0  -6 34313.2 2520.55   4
 -18   0  -6 35054.3 2968.12   2
   0  18  -6 38273.3 2821.20   1
  18 -18  -3 676.599 952.965   3
   0  18  -3 345.210 808.537   1
  18 -18  -3 468.288 538.692   1
 -18   0  -3 168.418 856.885   4
 -18   0  -3-474.984 1096.32   2
  18 -18   0 19210.5 1364.82   3
   0  18   0 20388.1 1081.73   1
 -18   0   0 19679.4 1701.18   4
 -18   0   0 21850.4 1759.80   2
 -18   0   3-4.32475 519.487   2
 -18   0   3-849.841 778.841   4
  18 -18   3 332.750 500.909   3
 -18   0   6 27164.4 1768.40   4
  18 -17  -7 12448.7 1119.68   1
  18 -17  -7 13565.9 1934.24   3
  17 -18  -7 15938.1 2023.01   3
  17 -18  -7 10767.0 972.739   1
  -1  18  -7 16143.4 2133.55   1
 -18   1  -7 14010.2 2093.12   2
 -18   1  -7 10829.5 1737.45   4
 -17  -1  -7 13290.3 2185.58   2
   1  17  -7 15079.3 2144.48   1
 -17  -1  -7 13884.6 1810.84   4
  18 -17  -4 4266.02 1192.85   3
  17 -18  -4 5449.16 1244.48   3
 -18   1  -4 3827.18 1147.25   4
  -1  18  -4 2847.36 1131.77   1
  18 -17  -4 2713.34 632.127   1
   1  17  -4 3221.09 1111.65   1
 -17  -1  -4 4536.65 1436.26   2
 -17  -1  -4 4265.79 1161.68   4
 -18   1  -4 3012.18 1301.85   2
  17 -18  -4 4460.34 681.062   1
  18 -17  -1 20704.6 1531.95   3
  17 -18  -1 20670.7 1511.12   3
  -1  18  -1 21794.1 1316.37   1
   1  17  -1 18376.4 1206.76   1
 -17  -1  -1 21811.5 1768.03   4
 -18   1  -1 21196.9 1817.44   4
 -18   1  -1 18646.0 1845.17   2
 -17  -1  -1 19832.4 1873.86   2
 -17  -1   2 5977.06 1091.79   4
  18 -17   2 5169.20 661.236   3
  17 -18   2 4979.64 724.234   3
   1  17   2 3151.13 466.842   1
 -18   1   2 3306.30 965.676   4
  -1  18   2 2555.92 293.889   1
 -17  -1   2 5835.62 911.163   2
 -18   1   2 5241.49 883.409   2
  17 -18   5 13514.9 1000.86   3
  18 -17   5 12905.2 834.354   3
 -18   1   5 12335.2 1323.05   4
 -17  -1   5 14927.3 1451.90   4
  18 -16  -8 4140.06 1544.70   3
  16 -18  -8 2435.46 1446.92   3
  -2  18  -8 1330.70 1522.07   1
   2  16  -8 5059.82 1652.81   1
  18 -16  -8 1751.31 785.608   1
  -2  18  -8 1412.56 618.021   2
  16 -18  -8 2298.79 695.419   1
 -18   2  -8 1810.30 1293.70   4
 -16  -2  -8 4246.91 1744.64   2
 -18   2  -8 1253.64 1350.07   2
 -16  -2  -8 2594.98 1233.92   4
 -16  -2  -5 5416.19 1543.55   2
  18 -16  -5 4473.83 1322.01   3
  16 -18  -5 3776.59 1210.20   3
  -2  18  -5 4975.64 1315.63   1
  18 -16  -5 3938.95 748.414   1
   2  16  -5 6993.85 1352.57   1
 -16  -2  -5 3826.61 604.309   3
  16 -18  -5 4800.21 657.822   1
 -16  -2  -5 3957.53 1175.23   4
 -18   2  -5 6889.63 1336.16   4
 -18   2  -5 6160.32 1556.17   2
  18 -16  -2 12387.5 1419.98   3
  16 -18  -2 8834.72 1179.53   3
   2  16  -2 10401.4 1086.23   1
  18 -16  -2 11361.7 1033.14   1
 -18   2  -2 13241.0 1516.84   4
 -16  -2  -2 9550.11 909.770   3
 -16  -2  -2 9066.96 1309.98   4
 -16  -2  -2 8769.77 1506.64   2
 -18   2  -2 10941.4 1535.29   2
  -2  18  -2 13183.4 1296.36   1
 -18   2   1 2360.68 781.617   2
 -18   2   1-890.552 803.228   4
 -16  -2   1-64.6266 696.015   4
  18 -16   1 401.583 502.982   3
  -2  18   1 658.163 334.598   1
  16 -18   1 718.000 529.956   3
   2  16   1 680.750 438.639   1
 -16  -2   1 1650.17 872.439   2
 -16  -2   4 2229.00 422.669   2
 -18   2   4 1496.26 515.824   2
  18 -16   4 989.137 449.920   3
  16 -18   4 1058.70 556.743   3
 -16  -2   4 2560.62 882.417   4
 -18   2   4 2645.67 873.316   4
 -18   2   7 9.08531 697.095   4
 -16  -2   7 906.549 743.981   4
  18 -15  -9-105.423 1424.69   3
  -3  18  -9 225.121 1557.12   1
  15 -18  -9 695.611 1279.40   3
   3  15  -9-1563.11 1453.10   1
  18 -15  -9-148.475 808.229   1
 -15  -3  -9 1744.92 1249.29   4
 -15  -3  -9 1766.24 1495.57   2
 -18   3  -9 3081.94 1444.85   4
 -18   3  -9 854.936 1372.04   2
  18 -15  -6 10876.4 1057.52   1
   3  15  -6 10621.4 1651.85   1
  18 -15  -6 10916.4 1698.62   3
  15 -18  -6 12014.0 1613.42   3
  15 -18  -6 8688.13 746.312   1
 -15  -3  -6 10162.7 794.704   3
  -3  18  -6 9793.21 975.563   2
 -15  -3  -6 9467.12 1386.25   4
 -15  -3  -6 9036.80 1764.30   2
 -18   3  -6 10601.7 1567.19   4
 -18   3  -6 10054.5 1822.81   2
  -3  18  -6 12277.2 1893.83   1
  18 -15  -3 6206.29 1195.37   3
 -15  -3  -3 4925.42 1140.49   4
  15 -18  -3 5305.67 1101.55   3
   3  15  -3 5354.29 1051.14   1
  -3  18  -3 4893.24 1100.86   1
 -15  -3  -3 4667.44 718.530   3
  18 -15  -3 4613.96 756.325   1
 -18   3  -3 3447.02 1069.14   4
 -15  -3  -3 5879.55 1487.56   2
 -18   3  -3 5983.51 1351.49   2
  18 -15   0 26729.4 1544.36   3
  -3  18   0 25785.4 1143.54   1
  15 -18   0 22796.9 1376.69   3
 -15  -3   0 30989.0 1899.33   4
 -18   3   0 27978.6 1903.94   4
 -15  -3   0 27495.2 1972.28   2
 -18   3   0 30775.5 1889.65   2
   3  15   0 27116.0 1253.61   1
 -15  -3   3 974.428 550.232   2
 -18   3   3 733.510 516.649   2
  18 -15   3 1007.04 476.512   3
  15 -18   3-34.1762 510.668   3
 -15  -3   3 1180.29 756.821   4
 -18   3   3 559.202 763.069   4
  15 -18   6 15539.4 1166.46   3
 -15  -3   6 18560.2 1481.01   4
 -18   3   6 16851.9 1362.37   4
  14 -18  -7 5358.51 667.746   1
  18 -14  -7 5770.88 981.555   1
  -4  18  -7 8951.29 1858.63   1
  14 -18  -7 6857.45 1525.41   3
  18 -14  -7 6227.24 1587.88   3
 -14  -4  -7 5311.59 720.862   3
  -4  18  -7 5540.08 826.316   2
   4  14  -7 6068.73 1529.28   1
 -14  -4  -7 7168.79 1320.70   4
 -18   4  -7 8698.05 1507.81   4
 -14  -4  -7 3702.74 1526.04   2
 -18   4  -7 5451.67 1616.15   2
  18 -14  -4 16469.9 1773.41   3
  14 -18  -4 16786.7 1602.05   3
   4  14  -4 18936.8 1725.34   1
  14 -18  -4 12884.6 734.420   1
  18 -14  -4 17150.1 1192.03   1
 -14  -4  -4 15908.3 1020.62   3
  -4  18  -4 15631.0 1168.35   2
 -14  -4  -4 15852.6 1552.51   4
 -18   4  -4 18548.9 1858.87   4
 -14  -4  -4 18931.2 2057.18   2
  -4  18  -4 14914.5 1759.54   1
 -18   4  -4 16880.9 1861.39   2
  18 -14  -1 10194.9 1246.61   3
  14 -18  -1 8053.90 1070.22   3
  18 -14  -1 7015.32 879.531   1
   4  14  -1 7358.10 860.019   1
 -14  -4  -1 9286.33 1419.36   2
 -14  -4  -1 5957.68 814.484   3
 -14  -4  -1 7668.63 1133.35   4
 -18   4  -1 6897.10 1197.41   4
 -18   4  -1 8044.29 1222.09   2
  -4  18  -1 7010.49 931.588   1
  18 -14   2 18061.2 928.328   3
  14 -18   2 18466.2 1141.38   3
 -14  -4   2 19367.9 1413.71   2
   4  14   2 16003.3 942.333   1
 -14  -4   2 19721.9 1532.85   4
 -18   4   2 20036.0 1604.51   4
 -18   4   2 16376.5 1185.64   2
 -18   4   5 5161.40 536.129   2
  14 -18   5 5089.67 840.305   3
 -14  -4   5 5808.87 1052.35   4
 -18   4   5 5780.92 991.108   4
 -14  -4   8 2818.79 827.485   4
  18 -13  -8 12558.1 2004.52   3
   5  13  -8 11273.0 2051.26   1
  13 -18  -8 10685.2 1704.09   3
 -13  -5  -8 10457.7 933.133   3
  -5  18  -8 10242.8 1058.63   2
 -13  -5  -8 10826.7 1535.64   4
 -13  -5  -8 12304.4 2124.89   2
  18 -13  -8 10687.2 1277.40   1
  -5  18  -8 16769.7 2464.40   1
 -18   5  -8 11174.0 1723.29   4
 -18   5  -8 10482.3 1918.94   2
  13 -18  -8 7538.43 773.798   1
  -5  18  -5 3349.05 1322.99   1
  13 -18  -5 3548.63 1092.27   3
 -13  -5  -5 3116.54 637.764   3
   5  13  -5 3360.44 1049.23   1
  -5  18  -5 3423.64 713.742   2
  18 -13  -5 4538.04 1258.04   3
 -13  -5  -5 6244.44 1547.43   2
 -13  -5  -5 2772.25 965.092   4
 -18   5  -5 5056.55 1285.39   4
  13 -18  -5 2820.36 411.674   1
  18 -13  -5 3354.03 743.653   1
 -18   5  -5 5194.79 1413.52   2
  18 -13  -2 36655.4 2123.91   3
  13 -18  -2 29957.0 1738.64   3
 -13  -5  -2 31483.1 1918.15   4
   5  13  -2 34815.8 1765.75   1
 -13  -5  -2 31825.9 1471.81   3
  -5  18  -2 31934.9 1601.20   2
 -13  -5  -2 33933.0 2404.52   2
 -18   5  -2 33310.0 2179.54   4
  -5  18  -2 35780.5 1991.09   1
  18 -13  -2 34188.7 1589.76   1
 -18   5  -2 31494.2 2101.20   2
 -18   5   1 11788.2 1131.47   2
   5  13   1 10269.7 828.608   1
  18 -13   1 10598.6 898.266   3
  13 -18   1 10371.1 926.060   3
  -5  18   1 8723.88 497.859   1
 -13  -5   1 10049.7 1091.24   3
 -13  -5   1 10330.1 1205.37   4
 -18   5   1 13385.9 1392.25   4
 -13  -5   1 11350.6 1348.58   2
 -18   5   4 15186.7 934.994   2
  13 -18   4 15650.2 1153.37   3
 -13  -5   4 18455.4 1485.14   4
 -18   5   4 17949.9 1432.63   4
 -13  -5   4 10796.7 621.259   2
 -13  -5   7 5288.71 931.630   4
 -18   5   7 5315.94 881.425   4
 -18   6  -9 4664.15 1737.06   2
  -6  18  -9 2600.76 1731.54   1
  18 -12  -9 822.206 1586.79   3
  12 -18  -9 4121.67 1397.05   3
  18 -12  -9 3197.49 997.189   1
   6  12  -9 5902.07 1665.63   1
  -6  18  -9 3245.69 820.432   2
 -12  -6  -9 1994.20 1122.86   4
 -12  -6  -9 7383.69 1945.57   2
 -18   6  -9 2498.61 1260.56   4
  18 -12  -6 12616.6 1800.87   3
  12 -18  -6 12330.1 1518.09   3
   6  12  -6 11816.3 1633.86   1
  18 -12  -6 9277.08 1084.15   1
 -18   6  -6 7740.29 1393.68   4
  -6  18  -6 8656.42 955.339   2
 -12  -6  -6 9173.27 868.999   3
  12 -18  -6 6298.04 472.925   1
  18 -12  -6 9273.19 1142.14   4
 -12  -6  -6 13010.7 1483.22   4
 -12  -6  -6 9824.72 1753.35   2
  -6  18  -6 11014.5 1849.29   1
 -18   6  -6 9240.80 1692.29   2
  18 -12  -3 9839.79 1382.84   3
  12 -18  -3 8133.67 1171.51   3
   6  12  -3 8168.44 1092.01   1
 -12  -6  -3 11257.8 1610.18   2
  18 -12  -3 7108.52 846.257   1
 -12  -6  -3 7800.78 816.255   3
  -6  18  -3 7746.83 943.723   2
 -12  -6  -3 6446.72 1064.86   4
  -6  18  -3 8172.81 1353.52   1
 -18   6  -3 7488.43 1311.48   4
 -18   6  -3 9285.27 1412.00   2
  18 -12   0 15114.9 1248.18   3
  12 -18   0 10944.1 993.356   3
 -12  -6   0 12229.5 1116.04   3
  18 -12   0 12532.9 1083.99   1
 -12  -6   0 13358.8 1295.38   4
 -12  -6   0 13103.4 1453.41   2
 -18   6   0 14469.8 1493.38   4
   6  12   0 11613.3 923.689   1
  -6  18   0 13179.5 934.136   1
 -18   6   0 11475.7 1229.94   2
 -18   6   3 4717.94 695.545   2
  18 -12   3 4240.66 408.241   3
  12 -18   3 6529.88 806.299   3
   6  12   3 5916.16 730.835   1
 -12  -6   3 7551.67 1082.44   4
 -12  -6   3 5743.18 828.078   2
 -18   6   3 5121.95 936.595   4
  12 -18   6 1917.39 749.123   3
 -12  -6   6 2830.37 875.641   4
 -18   6   6 568.627 724.919   4
  11 -18  -7 4514.94 449.971   1
  18 -11  -7 7586.97 1129.85   1
  11 -18  -7 7285.90 1424.98   3
   7  11  -7 8368.32 1622.81   1
  -7  18  -7 7268.37 930.921   2
 -11  -7  -7 7194.44 857.115   3
 -11  -7  -7 6729.82 1597.02   2
 -11  -7  -7 8578.23 1318.42   4
 -18   7  -7 8096.72 1510.93   4
 -18   7  -7 12830.4 1871.83   2
  -7  18  -7 6079.66 1890.60   1
  -7  18  -7 9785.35 1312.16   4
  18 -11  -4 22661.6 1374.78   1
  11 -18  -4 23060.5 1703.63   3
 -18   7  -4 26362.5 2005.94   4
   7  11  -4 23847.0 1790.84   1
  -7  18  -4 26184.0 2198.67   1
  -7  18  -4 22618.3 1367.11   2
 -11  -7  -4 20493.8 1178.11   3
 -11  -7  -4 23002.4 1694.98   4
 -11  -7  -4 22666.8 2182.06   2
 -18   7  -4 22058.9 2006.45   2
  -7  18  -4 26937.0 1864.19   4
  -7  18  -1 16662.4 1468.85   4
  18 -11  -1 17910.4 1445.38   3
  11 -18  -1 17399.7 1273.27   3
 -11  -7  -1 16209.4 1407.20   4
 -11  -7  -1 17607.8 1173.14   3
  -7  18  -1 18501.7 1301.79   2
  18 -11  -1 19032.4 1259.12   1
 -18   7  -1 18124.6 1603.47   4
   7  11  -1 17649.7 1185.07   1
 -11  -7  -1 20673.6 1811.27   2
  -7  18  -1 21441.1 1502.93   1
 -18   7  -1 17840.0 1543.16   2
 -18   7   2 22989.2 1307.35   2
  18 -11   2 25533.3 987.406   3
  11 -18   2 24065.5 1312.53   3
 -11  -7   2 23077.8 1543.63   3
 -11  -7   2 29556.5 1708.36   2
   7  11   2 24081.7 1225.19   1
 -18   7   2 27454.7 1760.04   4
 -18   7   5 8159.60 759.857   2
  11 -18   5 9532.82 1049.63   3
 -18   7   5 8759.54 1103.27   4
 -11  -7   8 6259.23 996.043   4
  10 -18  -8 18070.1 1885.21   3
   8  10  -8 19991.1 2337.09   1
  -8  18  -8 16422.3 1352.83   2
 -10  -8  -8 15682.9 1269.86   3
  -8  18  -8 21153.9 2760.84   1
  18 -10  -8 20164.8 1708.93   1
  -8  18  -8 19382.3 1728.73   4
 -10  -8  -8 21518.0 2435.31   2
 -10  -8  -8 16073.8 1668.67   4
 -18   8  -8 18957.1 2062.36   4
 -18   8  -8 17765.7 2148.55   2
  10 -18  -5 12817.7 1469.07   3
 -10  -8  -5 13899.8 1841.47   2
   8  10  -5 14612.7 1594.23   1
  -8  18  -5 12632.2 1115.42   2
 -10  -8  -5 14324.3 1066.04   3
 -10  -8  -5 12855.1 1363.02   4
  18 -10  -5 13061.3 1236.23   4
 -18   8  -5 14825.2 1668.37   4
  -8  18  -5 13281.8 1895.00   1
  18 -10  -5 11077.4 1100.45   1
 -18   8  -5 11496.4 1570.87   2
  18 -10  -5 10271.7 1156.01   2
  -8  18  -5 15712.5 1559.00   4
  10 -18  -2 30473.2 1714.98   3
  -8  18  -2 30069.7 1566.62   2
 -10  -8  -2 31077.1 1458.15   3
  18 -10  -2 30465.0 1505.91   1
   8  10  -2 29211.2 1597.89   1
 -10  -8  -2 35760.2 2302.91   2
 -10  -8  -2 29079.2 1785.40   4
  -8  18  -2 33959.0 2036.72   1
 -18   8  -2 30104.4 2029.18   4
 -18   8  -2 29794.6 1967.79   2
  -8  18  -2 33680.0 2015.14   4
 -18   8   1 30138.1 1593.34   2
  18 -10   1 35189.3 1539.01   3
   8  10   1 30414.8 1369.44   1
  10 -18   1 28267.5 1431.70   3
 -10  -8   1 30050.5 1637.00   3
 -10  -8   1 30601.8 1843.97   2
  -8  18   1 25547.5 1008.96   1
 -18   8   1 28347.2 1834.01   4
  -8  18   1 26113.7 746.716   1
  18 -10   1 27977.5 1556.54   1
 -10  -8   4 23950.9 774.308   2
 -18   8   4 27119.8 1288.73   2
  10 -18   4 27665.3 1550.50   3
 -10  -8   4 24270.2 1134.90   2
 -18   8   4 27197.3 1670.25   4
 -18   8   7 14857.5 1019.23   4
  -9  18  -9 2754.64 1045.18   4
 -18   9  -9 4728.65 1544.03   2
  18  -9  -9 1881.00 1060.29   1
   9 -18  -9 4129.29 1247.47   3
  -9  -9  -9 2662.26 877.545   3
  -9  18  -9 2475.99 892.466   2
  -9  -9  -9 1927.03 1062.18   4
   9   9  -9 1919.22 1350.21   1
  -9  -9  -9 2539.38 1510.59   2
 -18   9  -9 2284.09 1254.62   4
  -9  18  -9 4514.13 1954.64   1
 -18   9  -6 5376.68 1320.71   2
  18  -9  -6 2859.41 829.550   2
  -9  -9  -6 5089.48 1035.41   4
   9 -18  -6 3868.52 1050.94   3
  -9  -9  -6 4392.69 795.797   3
  18  -9  -6 3214.55 836.024   1
  -9  18  -6 4159.84 837.031   2
   9   9  -6 4290.96 1221.14   1
  18  -9  -6 3112.20 817.847   4
  -9  -9  -6 3715.75 1331.71   2
  -9  18  -6 5889.61 1687.24   1
 -18   9  -6 4361.53 1167.51   4
  -9  18  -6 5682.73 1157.58   4
  -9  -9  -3 9076.34 874.698   1
  18  -9  -3 11341.3 1056.08   1
   9 -18  -3 8636.71 1145.25   3
  -9  18  -3 9904.06 1032.18   2
  -9  -9  -3 11666.9 993.353   3
   9   9  -3 10040.8 1125.16   1
  -9  -9  -3 7905.31 1342.54   2
  -9  -9  -3 11826.1 1251.55   4
 -18   9  -3 10446.5 1382.32   2
 -18   9  -3 9686.99 1396.83   4
  -9  18  -3 12012.9 1570.61   1
  18  -9  -3 9560.61 1216.86   2
  -9  18  -3 11789.9 1363.63   4
  -9  18   0-62.4775 749.237   4
 -18   9   0-252.399 632.986   2
   9 -18   0 1500.32 678.065   3
  -9  -9   0 1396.93 633.761   3
  -9  18   0 1652.25 641.495   2
   9   9   0 891.908 552.830   1
  -9  18   0 1500.59 697.216   1
 -18   9   0 664.142 837.533   4
  18  -9   0 445.250 523.717   1
 -18   9   3 13746.6 1017.92   2
   9 -18   3 12984.2 1104.93   3
  -9  -9   3 11414.8 702.765   2
   9   9   3 10886.0 1021.74   1
  -9  -9   3 12913.7 1263.13   3
 -18   9   3 12213.3 1258.32   4
   9 -18   6 5114.48 978.988   3
 -18   9   6 4898.13 830.923   4
   8 -18  -7 16210.9 1680.43   3
 -10  18  -7 13228.5 1307.66   2
  10   8  -7 16122.4 1855.98   1
  -8 -10  -7 16110.8 1307.43   3
  -8 -10  -7 14754.7 2046.74   2
  18  -8  -7 16601.3 1511.60   1
  -8 -10  -7 17432.3 1599.81   4
 -10  18  -7 20980.5 2544.54   1
 -18  10  -7 18619.5 1922.95   4
 -18  10  -7 18025.9 2037.33   2
 -10  18  -7 15830.5 1648.45   4
   8 -18  -4 23280.3 1636.05   3
 -10  18  -4 21998.1 1430.02   2
  -8 -10  -4 24039.5 1338.47   3
  10   8  -4 22325.0 1662.54   1
  -8 -10  -4 22495.9 2037.88   2
  -8 -10  -4 17826.6 1086.18   1
  -8 -10  -4 25484.1 1711.75   4
 -18  10  -4 23270.4 1964.24   4
  18  -8  -4 21592.2 1525.25   2
 -18  10  -4 22254.6 1891.03   2
  18  -8  -4 22336.9 1437.67   1
 -10  18  -4 23349.2 1818.88   4
 -18  10  -1 26913.4 1708.45   2
   8 -18  -1 27949.9 1514.46   3
  -8 -10  -1 24857.4 1524.92   1
 -10  18  -1 27802.1 1507.16   2
  -8 -10  -1 30729.1 1501.10   3
  10   8  -1 27568.6 1413.12   1
  18  -8  -1 29874.6 1502.16   1
 -18  10  -1 29188.3 1980.66   4
 -10  18  -1 29028.2 1930.07   4
  18  -8   2 35692.7 1275.35   3
  10   8   2 31509.7 1506.81   1
 -18  10   2 32914.6 1547.57   2
   8 -18   2 30605.5 1537.80   3
  18  -8   2 33384.5 990.880   3
  -8 -10   2 31663.3 1773.80   3
 -18  10   2 32081.4 1927.75   4
  18  -8   2 32427.3 1712.91   1
 -10  18   2 32531.7 1886.98   4
   8 -18   5 13592.1 1261.97   3
 -18  10   5 11905.5 1012.67   2
  -8 -10   5 9935.36 680.341   2
 -18  10   5 13497.0 1195.77   4
  -8 -10   5 8770.58 574.199   2
  18  -7  -8 6060.69 1199.61   1
 -18  11  -8 7213.47 1551.84   2
  -7 -11  -8 7549.15 1165.90   4
 -11  18  -8 5906.22 1085.25   2
   7 -18  -8 6106.16 1210.47   3
  -7 -11  -8 5194.06 965.654   3
  11   7  -8 8756.20 1600.19   1
  -7 -11  -8 8398.76 1716.63   2
 -18  11  -8 7799.09 1544.82   4
 -11  18  -8 7122.60 2087.60   1
 -11  18  -8 8214.10 1390.43   4
   7 -18  -5 6527.40 1119.13   3
 -11  18  -5 4914.66 920.729   2
  -7 -11  -5 7067.48 919.270   3
  18  -7  -5 6324.35 1004.58   1
  11   7  -5 6256.99 1140.31   1
  18  -7  -5 4699.17 892.254   2
  -7 -11  -5 3863.33 646.725   1
  -7 -11  -5 8243.56 1563.72   2
  18  -7  -5 5885.83 976.942   4
  -7 -11  -5 5934.82 1055.40   4
 -18  11  -5 7367.31 1395.57   4
 -11  18  -5 7977.05 1271.65   4
 -18  11  -5 7142.48 1335.78   2
   7 -18  -2 21394.6 1431.41   3
  18  -7  -2 25037.0 1430.00   1
 -11  18  -2 23988.7 1427.31   2
  -7 -11  -2 24935.0 1399.01   1
  -7 -11  -2 25157.1 1388.39   3
  11   7  -2 25199.3 1487.63   1
  18  -7  -2 22736.6 1740.66   2
 -18  11  -2 26169.2 1990.85   4
 -11  18  -2 24886.1 1820.45   4
 -18  11  -2 26752.2 1818.11   2
 -18  11   1 17380.6 1265.09   2
 -11  18   1 17096.5 757.604   1
   7 -18   1 16782.9 1207.69   3
  18  -7   1 19153.4 1333.46   1
  11   7   1 18547.7 1197.75   1
  -7 -11   1 18510.6 1310.68   3
 -11  18   1 16987.2 1280.81   2
  18  -7   1 18742.1 953.527   3
 -18  11   1 20906.8 1655.38   4
 -11  18   1 20006.1 1598.22   4
  11   7   4 21468.0 1479.09   3
  -7 -11   4 26182.5 1070.17   2
 -18  11   4 24914.3 1388.66   2
   7 -18   4 25315.4 1552.79   3
  -7 -11   4 25453.3 1733.24   3
 -18  11   4 26246.2 1623.59   4
   7 -18   7 7639.93 1262.07   3
 -18  11   7 5669.07 717.233   4
 -12  18  -9 6809.74 1406.52   4
  18  -6  -9 4909.78 1328.28   1
 -18  12  -9 8459.84 1671.38   2
 -12  18  -9 6511.00 1183.33   2
  -6 -12  -9 6566.20 1104.53   3
   6 -18  -9 5715.58 1314.09   3
  -6 -12  -9 6168.22 1798.73   2
  -6 -12  -9 5685.83 1200.97   4
  12   6  -9 6379.57 1618.14   1
 -18  12  -9 6795.95 1643.85   4
 -12  18  -9 9282.26 2380.60   1
 -18  12  -6 3286.59 1154.48   2
  18  -6  -6 2826.70 846.847   1
   6 -18  -6 2544.92 920.128   3
 -12  18  -6 3204.77 881.160   2
  -6 -12  -6 2847.20 805.641   3
  -6 -12  -6 1725.95 586.179   1
  -6 -12  -6 2746.16 930.987   4
  -6 -12  -6 3202.12 1368.48   2
  12   6  -6 2923.94 1077.13   1
  18  -6  -6 1896.28 680.289   2
 -18  12  -6 5217.50 1298.09   4
 -12  18  -6 4410.52 1086.92   4
  18  -6  -3 4642.12 878.170   1
   6 -18  -3 4119.46 888.722   3
 -12  18  -3 4508.87 848.075   2
  -6 -12  -3 4520.19 739.986   3
  12   6  -3 5331.26 968.771   1
  18  -6  -3 4854.86 1061.30   2
 -18  12  -3 6654.87 1251.11   4
  -6 -12  -3 4034.48 694.185   1
 -12  18  -3 4052.03 1054.14   4
 -18  12  -3 5941.73 1109.24   2
  12   6   0 12046.7 1018.45   1
 -18  12   0 12087.8 1151.68   2
  18  -6   0 11635.9 1026.60   1
   6 -18   0 11263.8 1037.32   3
 -12  18   0 10869.9 1052.67   2
  -6 -12   0 13178.9 1118.23   3
  18  -6   0 15277.2 1026.34   3
 -18  12   0 12386.8 1418.94   4
 -12  18   0 12673.5 796.109   1
  -6 -12   0 12298.2 1301.16   1
 -12  18   0 17032.8 1552.64   4
 -12  18   3 5789.01 541.275   1
  12   6   3 8924.16 1003.25   3
  18  -6   3 6902.27 369.570   3
 -18  12   3 10023.7 962.012   2
  -6 -12   3 7843.38 708.148   2
   6 -18   3 8379.07 996.886   3
  -6 -12   3 10653.0 1165.79   3
  12   6   3 10247.9 1098.01   1
 -18  12   3 7853.45 1137.23   4
 -12  18   3 9823.07 1147.84   4
   6 -18   6 8671.83 1197.12   3
 -18  12   6 8354.00 939.034   4
  18  -5  -7 5007.82 1162.63   1
 -18  13  -7 5122.24 1361.79   2
   5 -18  -7 5543.73 1118.77   3
 -13  18  -7 4298.32 969.414   2
  -5 -13  -7 3251.22 865.605   3
  -5 -13  -7 2508.33 902.425   4
  -5 -13  -7 3892.43 1411.39   2
  13   5  -7 3710.96 1189.74   1
 -18  13  -7 5397.53 1298.25   4
 -13  18  -7 4439.64 1249.61   4
 -13  18  -4 12141.3 1227.98   2
   5 -18  -4 15972.3 1400.78   3
  18  -5  -4 11724.5 1145.52   2
  -5 -13  -4 12971.2 1117.83   3
  -5 -13  -4 11085.0 871.704   1
  13   5  -4 14168.9 1350.45   1
 -18  13  -4 13379.4 1587.54   4
  18  -5  -4 12204.5 1164.48   1
 -13  18  -4 16205.3 1642.68   4
 -18  13  -4 14236.1 1529.06   2
 -18  13  -1 9944.79 1076.57   2
   5 -18  -1 9500.32 1013.58   3
 -13  18  -1 8631.07 1001.87   2
  -5 -13  -1 9376.10 950.197   3
  18  -5  -1 9160.85 982.612   1
 -13  18  -1 8536.18 818.578   1
 -18  13  -1 12087.0 1452.79   4
 -13  18  -1 10786.7 1313.45   4
  13   5  -1 8956.31 958.976   1
  -5 -13  -1 10544.5 1122.03   1
  13   5   2 33315.1 1535.88   3
 -18  13   2 31748.9 1578.60   2
   5 -18   2 32742.2 1681.17   3
  18  -5   2 35640.2 1083.94   3
  -5 -13   2 29827.9 1309.09   2
  -5 -13   2 31024.9 1697.26   3
 -13  18   2 29505.5 1608.57   2
 -13  18   2 32526.0 1168.00   1
  18  -5   2 32363.2 1705.49   1
 -18  13   2 35120.9 2019.73   4
  13   5   2 32515.3 1625.78   1
 -13  18   2 36799.1 2029.95   4
  13   5   5 2887.73 822.669   3
  -5 -13   5 3059.24 716.427   2
  -5 -13   5 5360.37 1111.15   3
   5 -18   5 5176.67 1009.18   3
 -13  18   5 2436.05 673.968   1
 -18  13   5 4976.36 883.408   4
 -14  18  -8 6415.31 1246.21   2
 -18  14  -8 7943.34 1460.43   2
  -4 -14  -8 7219.97 1130.02   3
   4 -18  -8 3840.73 1075.66   3
  14   4  -8 4190.02 1199.18   1
  18  -4  -8 6667.18 1327.77   1
  -4 -14  -8 6460.47 1175.81   4
  -4 -14  -8 5634.16 1700.26   2
 -18  14  -8 8866.06 1614.32   4
 -14  18  -8 6839.38 1512.43   4
  -4 -14  -5 2988.60 569.441   1
 -14  18  -5 6439.45 1023.60   2
 -18  14  -5 5350.13 1150.34   2
   4 -18  -5 5467.58 1076.85   3
 -14  18  -5 3227.97 875.079   3
  -4 -14  -5 4287.95 857.211   3
  14   4  -5 7804.00 1206.83   1
  18  -4  -5 4536.48 742.943   2
  18  -4  -5 5343.50 989.970   1
 -18  14  -5 6772.42 1331.09   4
 -14  18  -5 7585.78 1330.36   4
  -4 -14  -2 18054.3 1225.87   1
 -18  14  -2 17273.1 1463.83   2
  18  -4  -2 16431.0 1237.51   1
 -14  18  -2 18039.3 1356.42   2
   4 -18  -2 15246.4 1251.73   3
  -4 -14  -2 18950.7 1259.84   3
  18  -4  -2 17302.5 1536.51   2
  14   4  -2 19084.7 1316.60   1
 -18  14  -2 18087.4 1746.04   4
 -14  18  -2 19441.2 1706.73   4
  18  -4   1 5262.24 864.528   1
 -14  18   1 6609.49 646.164   1
 -18  14   1 8550.10 983.935   2
   4 -18   1 6663.71 934.661   3
 -14  18   1 6617.13 908.915   2
  -4 -14   1 6246.88 937.004   3
  18  -4   1 6579.16 682.764   3
  14   4   1 5345.18 814.937   1
 -18  14   1 6875.16 1142.94   4
 -14  18   1 7853.03 1157.73   4
  -4 -14   4 11927.4 992.368   2
  14   4   4 11103.8 1066.62   3
 -18  14   4 15335.5 1224.40   2
   4 -18   4 16471.9 1394.63   3
  -4 -14   4 15204.8 1421.03   3
 -14  18   4 9534.23 883.586   1
 -18  14   4 15954.2 1353.92   4
 -14  18   4 16967.5 1428.40   4
   4 -18   7 8019.12 1380.66   3
 -18  14   7 6848.39 837.404   4
 -18  15  -9 3325.79 1366.02   2
   3 -18  -9 1440.33 1035.04   3
 -15  18  -9 2645.42 1018.62   2
  -3 -15  -9 1103.69 948.434   3
   3 -18  -9 2222.83 826.441   4
  -3 -15  -9 1045.77 819.576   4
  -3 -15  -9 2495.63 1628.44   2
 -15  18  -9 1361.51 2054.20   1
  15   3  -9 686.049 1062.78   1
 -18  15  -9 944.579 1258.45   4
  18  -3  -9 2122.47 1167.40   1
 -15  18  -9 921.848 1157.26   4
 -18  15  -6 14023.3 1633.37   2
 -15  18  -6 14782.5 1458.47   2
  18  -3  -6 12020.9 1292.83   1
   3 -18  -6 14087.3 1430.66   3
  -3 -15  -6 14873.6 1335.05   3
  15   3  -6 13177.9 1493.26   1
 -18  15  -6 13551.3 1702.20   4
 -15  18  -6 15225.8 1740.58   4
 -15  18  -3 2151.17 914.590   3
  18  -3  -3 1402.92 821.954   2
 -18  15  -3 229.113 699.111   2
  15   3  -3 654.394 675.540   1
   3 -18  -3 1322.87 740.622   3
  -3 -15  -3 374.153 538.194   1
 -15  18  -3 205.342 680.199   2
  -3 -15  -3 589.878 575.540   3
  18  -3  -3 439.472 618.407   1
 -18  15  -3-614.572 867.217   4
 -15  18  -3 992.411 945.333   4
 -18  15   0 25092.4 1534.33   2
  15   3   0 24043.2 1433.35   1
   3 -18   0 21689.0 1392.84   3
 -15  18   0 22196.0 1452.52   2
  -3 -15   0 21566.0 1392.55   3
  18  -3   0 24740.2 1273.90   3
 -15  18   0 21373.4 1111.09   1
  18  -3   0 21767.1 1389.56   1
  -3 -15   0 22234.1 1667.18   1
 -18  15   0 25022.2 1845.76   4
 -15  18   0 26988.9 1915.74   4
  18  -3   3 5509.81 970.382   1
  15   3   3 4498.60 776.577   3
  18  -3   3 4307.70 516.811   3
  -3 -15   3 3437.03 705.320   2
 -15  18   3 3099.11 700.997   1
 -18  15   3 4600.25 806.397   2
  15   3   3 3835.32 864.462   1
  -3 -15   3 5588.52 991.354   3
   3 -18   3 4011.39 884.376   3
 -15  18   3 3945.50 843.377   2
 -18  15   3 4647.78 1009.03   4
 -15  18   3 6994.38 1106.40   4
  -3 -15   6 7642.47 1078.64   2
 -18  15   6 11710.6 1114.15   4
   3 -18   6 11033.9 1463.64   3
  -3 -15   6 12755.4 1486.88   3
 -15  18   6 7695.85 1193.45   1
  18  -2  -7-687.261 901.052   1
 -18  16  -7-645.000 930.204   2
 -16  18  -7 1232.23 983.203   2
   2 -18  -7 1385.21 912.614   3
  -2 -16  -7 1938.50 872.571   3
  16   2  -7 2084.27 1042.19   1
  -2 -16  -7 1268.79 585.553   1
 -18  16  -7 1023.35 1032.59   4
 -16  18  -7 2417.13 1083.62   4
 -16  18  -4 2477.95 876.025   3
  16   2  -4 2406.98 868.125   1
 -18  16  -4 2082.05 873.613   2
 -16  18  -4 1751.42 882.986   2
   2 -18  -4 1735.78 789.131   3
  -2 -16  -4 1597.41 458.023   1
  -2 -16  -4 2040.08 772.926   3
  18  -2  -4 2427.84 788.126   1
 -18  16  -4 1080.51 1022.02   4
 -16  18  -4 3202.06 1104.01   4
 -18  16  -1 876.215 638.165   2
  18  -2  -1 609.588 592.131   1
   2 -18  -1 1173.39 675.785   3
  -2 -16  -1 685.471 586.904   3
 -16  18  -1 492.162 670.462   2
 -18  16  -1 1059.29 887.127   4
 -16  18  -1 1392.11 836.871   4
  16   2  -1 797.746 609.542   1
  -2 -16  -1 974.369 771.275   1
  16   2   2 9108.57 1077.71   1
  16   2   2 9237.72 913.228   3
  18  -2   2 9029.40 745.960   3
 -18  16   2 8637.64 998.403   2
  18  -2   2 7860.76 1014.30   1
   2 -18   2 8844.27 1038.36   3
 -16  18   2 8769.57 1019.45   2
  -2 -16   2 8825.69 1083.09   3
 -16  18   2 6041.26 805.607   1
 -18  16   2 11654.9 1346.10   4
 -16  18   2 9924.79 1279.71   4
 -16  18   5 1593.80 853.567   1
  16   2   5 2358.83 629.545   3
  -2 -16   5 3454.47 942.843   2
   2 -18   5 5452.00 1156.23   3
  -2 -16   5 3384.04 1018.45   3
 -18  16   5 4588.36 944.541   4
 -16  18   5 4515.98 954.728   4
 -18  17  -8 15174.8 1789.07   2
 -17  18  -8 10177.9 1439.97   2
   1 -18  -8 13399.9 1526.39   3
  -1 -17  -8 10058.1 1373.74   3
  17   1  -8 13202.8 1696.13   1
  18  -1  -8 12825.3 1676.56   1
  -1 -17  -8 17891.5 1645.39   4
 -18  17  -8 15090.1 1975.56   4
 -17  18  -8 16791.3 1947.82   4
 -18  17  -5 10385.0 891.124   3
 -17  18  -5 13679.2 1232.90   3
 -18  17  -5 12356.2 1459.45   2
 -17  18  -5 14376.3 1453.61   2
   1 -18  -5 12530.0 1335.70   3
  -1 -17  -5 13316.3 1348.11   3
  17   1  -5 12935.2 1391.20   1
  18  -1  -5 13353.3 1394.59   1
 -18  17  -5 13475.6 1660.97   4
 -17  18  -5 16362.6 1828.45   4
 -17  18  -2 4890.51 1047.57   3
  18  -1  -2 3094.23 793.321   1
 -18  17  -2 3801.44 924.145   2
 -17  18  -2 3345.07 871.588   2
   1 -18  -2 3665.49 822.534   3
  -1 -17  -2 3852.40 826.217   3
  18  -1  -2 3061.26 978.608   2
  17   1  -2 3321.04 815.180   1
 -18  17  -2 5395.34 1234.01   4
  -1 -17  -2 2905.11 707.637   1
 -17  18  -2 4160.50 1137.64   4
 -18  17   1 21893.6 1441.14   2
 -17  18   1 20735.8 1425.53   2
  17   1   1 19014.8 1153.77   3
   1 -18   1 21029.7 1438.64   3
  18  -1   1 19897.0 1112.89   3
  -1 -17   1 19477.7 1428.90   3
  17   1   1 17989.6 1334.38   1
  -1 -17   1 19292.7 1785.67   1
  18  -1   1 21321.6 1435.42   1
 -18  17   1 20151.0 1700.41   4
 -17  18   1 22924.7 1808.58   4
 -17  18   1 18721.9 1129.65   1
 -17  18   4 1923.79 789.978   4
  18  -1   4 3195.70 502.389   3
  17   1   4 2427.83 642.566   3
 -17  18   4 3191.40 952.703   1
   1 -18   4 4646.60 1054.41   3
  -1 -17   4 2305.79 842.306   3
 -18  17   4 4288.21 907.087   2
 -18  17   4 3513.83 917.443   4
 -18  18  -9 585.330 1022.18   2
   0 -18  -9 365.398 946.487   3
   0 -18  -9 451.649 815.987   4
 -18  18  -9 446.097 1215.53   4
  18   0  -9-550.386 1178.52   1
 -18  18  -6 23868.1 1911.69   2
   0 -18  -6 23184.0 1723.64   3
  18   0  -6 23817.2 1882.19   1
 -18  18  -6 29246.9 2334.14   4
 -18  18  -3 332.756 797.069   3
 -18  18  -3-744.298 787.414   2
   0 -18  -3 1107.34 720.587   3
  18   0  -3 258.268 634.626   1
 -18  18  -3 1499.63 1008.47   4
 -18  18   0 18064.3 1391.11   2
   0 -18   0 17645.9 1337.24   3
  18   0   0 17921.1 1335.71   1
   0 -18   0 15278.7 1392.75   1
 -18  18   0 21350.2 1852.36   4
  18   0   3 238.552 549.799   3
   0 -18   3-138.518 779.287   3
 -18  18   3-427.710 622.573   2
  18   0   3-982.601 780.222   1
 -18  18   3-21.9303 771.387   1
 -18  18   3 1005.97 823.259   4
   0 -18   6 40634.8 2426.11   3
 -18  18   6 41162.5 1998.81   4
  19 -19  -7 1880.48 1299.66   3
   0  19  -7-1535.36 1373.60   1
  19 -19  -7 198.094 579.340   1
 -19   0  -7 892.803 1232.01   4
 -19   0  -7 3061.42 1565.55   2
  19 -19  -4 2127.26 679.820   1
  19 -19  -4 3118.83 1210.43   3
   0  19  -4 1621.63 1061.72   1
 -19   0  -4 1738.84 1017.72   4
 -19   0  -4 2529.31 1308.35   2
  19 -19  -1-192.177 813.751   3
   0  19  -1 170.572 627.687   1
 -19   0  -1 706.845 918.891   4
 -19   0  -1 1637.09 1050.37   2
  19 -19   2 25292.0 1296.45   3
 -19   0   2 27055.3 1992.81   4
 -19   0   2 28248.4 1633.67   2
  19 -19   5 697.780 587.058   3
 -19   0   5 777.289 820.713   4
  18 -19  -8 432.986 621.302   1
  19 -18  -8 2411.98 1405.55   3
  18 -19  -8 942.330 1428.55   3
  -1  19  -8 2855.31 1620.86   1
   1  18  -8-87.7406 1450.52   1
 -18  -1  -8 2783.95 1353.03   4
 -19   1  -8 1289.31 1279.60   4
 -18  -1  -8 1600.10 1580.60   2
  19 -18  -8 53.4701 672.555   1
 -19   1  -8 2797.05 1663.90   2
  19 -18  -5 457.817 589.061   1
 -19   1  -5 1144.59 1019.33   4
  19 -18  -5 522.255 1033.03   3
  18 -19  -5 1710.99 1110.75   3
  -1  19  -5 2174.02 1187.13   1
   1  18  -5 365.765 1070.00   1
  18 -19  -5 535.418 583.415   1
 -18  -1  -5 338.083 973.408   4
 -18  -1  -5 1340.33 1232.70   2
 -19   1  -5 1247.46 1285.40   2
  18 -19  -2 5443.99 1094.04   3
  19 -18  -2 6139.34 1137.93   3
 -19   1  -2 6793.85 1473.08   2
  19 -18  -2 3177.81 780.536   1
  -1  19  -2 1917.07 818.852   1
   1  18  -2 4193.80 867.469   1
 -18  -1  -2 4805.32 1164.03   4
 -19   1  -2 4104.16 1117.12   4
 -18  -1  -2 5048.51 1432.68   2
  19 -18   1 4979.53 761.949   3
  18 -19   1 3984.86 735.135   3
  -1  19   1 3775.33 519.514   1
 -18  -1   1 6434.22 1205.26   4
 -19   1   1 5128.37 1171.01   4
 -18  -1   1 6159.36 1106.12   2
 -19   1   1 6996.54 1055.61   2
   1  18   1 3418.46 583.864   1
 -18  -1   4 4060.81 560.781   2
 -19   1   4 4307.40 642.587   2
 -19   1   4 5022.71 1096.79   4
  19 -18   4 5107.54 694.733   3
  18 -19   4 5268.35 769.663   3
 -18  -1   4 5677.68 1125.02   4
 -18  -1   7 1935.70 912.284   4
 -19   1   7 1691.96 853.497   4
  19 -17  -9 8447.39 1940.84   3
  17 -19  -9 5863.69 1657.21   3
  -2  19  -9 6786.72 1961.48   1
 -17  -2  -9 6201.94 1617.66   4
   2  17  -9 5551.45 1796.65   1
 -19   2  -9 3492.73 1565.35   4
 -17  -2  -9 5816.38 1955.50   2
  19 -17  -9 5209.65 1022.49   1
 -19   2  -9 9995.72 2266.13   2
   2  17  -6 8961.92 1627.17   1
  19 -17  -6 7298.08 1606.08   3
  17 -19  -6 7500.83 1450.24   3
  -2  19  -6 7770.36 1646.94   1
  19 -17  -6 5620.65 864.476   1
  17 -19  -6 7277.90 778.745   1
 -17  -2  -6 4439.31 562.239   3
 -17  -2  -6 7407.88 1432.60   4
 -19   2  -6 8952.58 1541.84   4
 -17  -2  -6 7194.05 1719.32   2
 -19   2  -6 8368.18 1781.05   2
 -19   2  -3 7958.42 1472.57   2
  19 -17  -3 7195.34 896.295   1
  19 -17  -3 7525.92 1251.92   3
  17 -19  -3 5779.05 1151.76   3
   2  17  -3 5023.60 1073.73   1
 -17  -2  -3 7058.43 809.113   3
 -19   2  -3 7214.62 1314.38   4
 -17  -2  -3 7284.54 1490.95   2
  -2  19  -3 8652.78 1305.43   1
 -17  -2  -3 7036.40 1264.19   4
 -19   2   0 6308.69 1134.72   2
  19 -17   0 6676.11 953.184   3
  17 -19   0 6688.66 942.273   3
  -2  19   0 5593.43 658.710   1
   2  17   0 6148.09 746.612   1
 -17  -2   0 7425.65 1203.53   4
 -19   2   0 8150.15 1291.39   4
 -17  -2   0 5941.90 1194.52   2
 -19   2   3 9734.11 903.940   2
  19 -17   3 8142.12 766.746   3
  17 -19   3 7794.13 855.068   3
 -17  -2   3 8712.09 1214.94   4
 -19   2   3 7939.00 1201.81   4
 -17  -2   3 8531.94 886.659   2
  17 -19   6 5182.45 839.935   3
 -19   2   6 6004.43 1095.25   4
  19 -16  -7 4279.81 1421.48   3
  -3  19  -7 4505.91 1597.98   1
  16 -19  -7 2371.62 1254.69   3
  16 -19  -7 2117.92 623.383   1
   3  16  -7 5185.80 1651.55   1
  -3  19  -7 3942.44 794.400   2
 -16  -3  -7 2071.26 537.843   3
 -16  -3  -7 3422.92 1206.31   4
 -19   3  -7 4481.63 1384.04   4
  19 -16  -7 3844.91 845.462   1
 -16  -3  -7 2431.71 1442.93   2
 -19   3  -7 5540.85 1653.10   2
  19 -16  -4 15320.7 1726.80   3
  16 -19  -4 16376.7 1666.26   3
   3  16  -4 15414.5 1612.75   1
  16 -19  -4 11149.9 806.575   1
 -16  -3  -4 13107.1 953.293   3
  19 -16  -4 14671.2 1146.93   1
 -16  -3  -4 14594.3 1600.25   4
 -19   3  -4 15616.2 1770.59   4
 -19   3  -4 14068.9 1816.84   2
 -16  -3  -4 13932.7 1938.30   2
  -3  19  -4 15138.2 1747.20   1
  -3  19  -1 6818.03 921.506   1
  19 -16  -1 7244.46 1134.89   3
  16 -19  -1 5693.56 938.977   3
   3  16  -1 6698.33 885.243   1
 -16  -3  -1 6965.66 1155.17   4
 -19   3  -1 6282.42 1256.17   4
 -16  -3  -1 6930.53 1391.12   2
  19 -16  -1 4857.50 869.703   1
 -19   3  -1 5268.97 1145.78   2
  19 -16   2 15078.3 945.099   3
  16 -19   2 14975.3 1058.52   3
   3  16   2 12686.6 841.140   1
 -16  -3   2 16912.2 1501.94   4
 -19   3   2 16675.6 1546.25   4
 -16  -3   2 20959.8 1489.30   2
 -19   3   2 17929.9 1284.05   2
 -19   3   5 1324.72 399.135   2
  16 -19   5 1729.92 688.824   3
  19 -16   5 1171.38 276.894   3
 -16  -3   5 2698.33 931.924   4
 -19   3   5 2913.82 959.118   4
 -16  -3   8 12610.1 1250.43   4
  19 -15  -8 896.200 1335.03   3
  -4  19  -8 3733.40 1768.82   1
  15 -19  -8-639.978 1190.31   3
   4  15  -8-201.081 1289.91   1
  19 -15  -8 671.219 728.576   1
  -4  19  -8-119.985 594.294   2
 -15  -4  -8-115.332 1010.86   4
 -19   4  -8 216.288 1227.52   4
 -15  -4  -8-3439.22 1621.37   2
 -19   4  -8 1318.17 1428.23   2
  19 -15  -5 16161.3 1897.93   3
   4  15  -5 12242.4 1653.22   1
  15 -19  -5 11579.7 1539.86   3
  19 -15  -5 9043.65 1000.36   1
 -19   4  -5 9650.84 1764.07   2
 -15  -4  -5 9968.86 884.757   3
  -4  19  -5 9546.51 982.961   2
 -15  -4  -5 8850.34 1373.12   4
 -19   4  -5 11287.3 1598.58   4
  -4  19  -5 12122.0 1729.13   1
 -15  -4  -5 10047.1 1820.72   2
  15 -19  -5 7291.62 629.167   1
  19 -15  -2 12097.4 1422.04   3
  19 -15  -2 8393.49 949.612   1
  15 -19  -2 10293.0 1194.30   3
   4  15  -2 7388.17 1004.66   1
 -15  -4  -2 9539.54 1557.57   2
 -15  -4  -2 8325.87 901.178   3
 -15  -4  -2 10602.5 1286.79   4
 -19   4  -2 8170.17 1328.48   4
 -19   4  -2 11090.7 1494.78   2
  -4  19  -2 11258.4 1298.82   1
   4  15   1 4495.38 625.045   1
 -19   4   1 4241.65 873.462   2
  19 -15   1 4876.53 746.219   3
  15 -19   1 4239.51 708.565   3
  -4  19   1 4020.80 404.649   1
 -15  -4   1 5591.73 1011.60   4
 -19   4   1 4860.89 1091.31   4
 -15  -4   1 6295.82 1138.85   2
 -15  -4   4 323.555 335.560   2
 -19   4   4 360.876 485.093   2
  15 -19   4-269.562 567.325   3
  19 -15   4 381.121 312.275   3
 -15  -4   4 636.282 772.062   4
 -19   4   4 1557.66 857.576   4
 -15  -4   7 5949.75 1056.44   4
 -19   4   7 5004.67 930.080   4
  -5  19  -9 4527.68 1969.99   1
  19 -14  -9 5381.76 1909.50   3
  14 -19  -9 6263.06 1687.92   3
  19 -14  -9 2901.75 953.992   1
   5  14  -9 4217.73 1733.31   1
  -5  19  -9 3428.20 817.215   2
 -14  -5  -9 4580.53 1392.05   4
 -19   5  -9 4817.15 1504.52   4
 -14  -5  -9 2081.83 1642.60   2
 -19   5  -9 2903.29 1526.09   2
  -5  19  -6 1082.65 1312.47   1
  19 -14  -6 425.522 1206.21   3
  14 -19  -6 1365.10 398.135   1
  19 -14  -6 1562.84 713.836   1
  14 -19  -6 340.030 1008.49   3
   5  14  -6 2632.93 1343.40   1
 -14  -5  -6 1807.91 627.039   3
  -5  19  -6 2434.60 721.894   2
 -14  -5  -6 1253.89 1043.53   4
 -19   5  -6 2267.60 1168.89   4
 -14  -5  -6 1185.81 1299.08   2
 -19   5  -6 3014.00 1402.02   2
  19 -14  -3 20845.0 1810.72   3
  14 -19  -3 21066.3 1660.52   3
   5  14  -3 22440.2 1659.82   1
 -14  -5  -3 22570.5 1267.49   3
  -5  19  -3 21442.2 1373.40   2
  19 -14  -3 21184.6 1349.12   1
 -14  -5  -3 22615.2 1761.47   4
 -14  -5  -3 20794.7 2158.48   2
 -19   5  -3 28234.8 2202.83   4
  -5  19  -3 21798.3 1890.10   1
 -19   5  -3 23007.8 2012.07   2
  19 -14   0 4402.82 874.568   1
 -19   5   0 3622.78 913.795   2
  19 -14   0 3660.05 865.453   3
  14 -19   0 3577.69 722.699   3
   5  14   0 2525.38 597.409   1
 -14  -5   0 3959.48 789.926   3
 -14  -5   0 3225.98 909.252   4
 -19   5   0 3898.50 1047.13   4
 -14  -5   0 2312.39 1062.07   2
  -5  19   0 3126.86 621.614   1
 -19   5   3 18850.5 1164.97   2
  19 -14   3 17487.5 815.571   3
  14 -19   3 18116.8 1222.40   3
   5  14   3 16805.1 1043.34   1
 -14  -5   3 17371.9 1512.61   4
 -19   5   3 16856.2 1541.64   4
 -14  -5   3 20801.6 1277.44   2
  14 -19   6 522.136 718.490   3
 -14  -5   6 886.512 797.997   4
 -19   5   6 152.164 705.741   4
  19 -13  -7 11882.5 1909.94   3
   6  13  -7 10053.0 1763.23   1
  13 -19  -7 11981.5 1757.81   3
  13 -19  -7 4596.96 491.840   1
 -13  -6  -7 9406.56 959.025   3
  -6  19  -7 6982.48 946.919   2
 -13  -6  -7 7322.84 1337.80   4
 -13  -6  -7 9781.72 1877.72   2
  -6  19  -7 11230.1 2120.01   1
 -19   6  -7 10510.6 1631.69   4
  19 -13  -7 8360.00 1081.93   1
 -19   6  -7 8939.61 1717.08   2
  19 -13  -4 11894.2 1532.87   3
  13 -19  -4 8789.88 1246.99   3
   6  13  -4 9895.21 1349.61   1
  19 -13  -4 7934.16 963.374   1
 -13  -6  -4 10280.9 952.566   3
  -6  19  -4 9432.85 1012.61   2
 -13  -6  -4 10433.0 1343.82   4
 -13  -6  -4 11371.5 1757.02   2
  -6  19  -4 13649.2 1783.02   1
 -19   6  -4 11258.0 1510.84   4
 -19   6  -4 12519.6 1648.22   2
 -19   6  -1 10063.3 1375.62   4
  19 -13  -1 8252.49 1135.46   3
  13 -19  -1 8229.46 1002.72   3
  19 -13  -1 8358.50 948.612   1
 -13  -6  -1 7933.92 962.747   3
   6  13  -1 8830.61 934.593   1
 -13  -6  -1 9462.44 1210.72   4
 -13  -6  -1 8223.87 1418.84   2
  -6  19  -1 8311.88 1073.12   1
 -19   6  -1 8718.93 1278.90   2
 -19   6   2 34594.6 1609.09   2
  19 -13   2 31866.7 1162.07   3
  13 -19   2 33667.4 1568.49   3
   6  13   2 30752.0 1366.98   1
 -13  -6   2 34874.8 2007.81   4
 -19   6   2 29420.5 1909.60   4
 -13  -6   2 37823.0 1985.22   2
  13 -19   5 3131.55 780.111   3
 -19   6   5 2467.04 541.977   2
 -13  -6   5 4228.83 972.561   4
 -19   6   5 2872.35 843.842   4
 -13  -6   8 11299.8 1231.14   4
 -19   7  -8 3411.62 1424.25   2
  19 -12  -8 959.694 1579.92   3
  12 -19  -8 2643.47 1201.64   3
  19 -12  -8 3073.80 963.973   1
 -12  -7  -8 2584.54 786.736   3
  -7  19  -8 3734.13 870.608   2
   7  12  -8 4198.64 1564.15   1
 -12  -7  -8 3470.02 1182.61   4
 -12  -7  -8 3564.00 1644.51   2
 -19   7  -8 2598.07 1337.80   4
  -7  19  -8 7451.59 1933.67   1
  19 -12  -5 14351.1 1246.64   1
  -7  19  -5 16475.5 1600.84   4
  19 -12  -5 20848.4 2035.57   3
  12 -19  -5 14904.5 1582.63   3
   7  12  -5 17055.7 1736.53   1
  -7  19  -5 14000.3 1166.57   2
 -12  -7  -5 15822.9 1120.75   3
 -12  -7  -5 16094.5 1539.34   4
 -12  -7  -5 14909.0 1943.84   2
  -7  19  -5 18127.8 2139.25   1
 -19   7  -5 15303.8 1720.51   4
 -19   7  -5 16858.4 1904.48   2
 -19   7  -2 3316.23 946.795   2
  19 -12  -2 4599.95 1074.23   3
  12 -19  -2 4527.53 941.933   3
  19 -12  -2 2998.55 734.432   1
 -12  -7  -2 3797.49 725.528   3
  -7  19  -2 4662.56 796.716   2
 -12  -7  -2 3648.70 916.671   4
 -12  -7  -2 5045.87 1339.81   2
 -19   7  -2 5201.13 1138.74   4
   7  12  -2 3469.17 757.279   1
  -7  19  -2 4702.06 1035.04   1
  19 -12   1 14480.3 1096.70   3
   7  12   1 13083.0 987.645   1
  12 -19   1 11517.7 1024.64   3
 -19   7   1 10752.4 1090.38   2
  -7  19   1 8451.37 455.301   1
 -12  -7   1 11404.9 1175.45   3
 -12  -7   1 13047.0 1348.93   4
 -12  -7   1 14682.0 1471.28   2
 -19   7   1 12630.0 1378.15   4
  -7  19   1 9518.02 562.732   1
 -19   7   4 5466.28 723.288   2
 -12  -7   4 4548.30 378.310   2
  12 -19   4 5495.69 898.528   3
 -12  -7   4 7574.72 1125.73   4
 -12  -7   4 4703.50 600.856   2
 -19   7   4 6202.27 1020.46   4
  12 -19   7 2363.88 917.006   3
 -12  -7   7 2912.57 903.104   4
 -19   7   7 2649.87 747.289   4
 -19   8  -9 4964.14 1610.42   2
  19 -11  -9 6062.53 1940.99   3
  11 -19  -9 5834.87 1478.66   3
  19 -11  -9 5896.32 1217.43   1
  -8  19  -9 6841.48 1087.67   2
 -11  -8  -9 5739.92 975.927   3
   8  11  -9 8771.18 1867.29   1
 -11  -8  -9 7135.81 1360.70   4
 -11  -8  -9 7808.03 2078.55   2
 -19   8  -9 8247.93 1694.06   4
  -8  19  -9 6089.45 2126.95   1
 -11  -8  -6 529.433 1233.89   2
  -8  19  -6 1919.81 939.687   4
 -19   8  -6 125.333 1030.13   2
 -11  -8  -6 1554.14 874.349   4
  11 -19  -6 1937.55 981.627   3
 -11  -8  -6 1952.75 627.491   3
  -8  19  -6 2737.87 753.041   2
  19 -11  -6 2564.19 808.193   1
   8  11  -6 2954.77 1168.93   1
 -19   8  -6 2394.83 1123.71   4
  -8  19  -6 1376.24 1277.95   1
  11 -19  -3 9468.62 1198.19   3
  19 -11  -3 8065.03 935.390   1
  -8  19  -3 6678.19 903.181   2
 -11  -8  -3 8856.64 889.812   3
   8  11  -3 7372.53 1010.25   1
 -11  -8  -3 7921.53 1119.48   4
 -11  -8  -3 10606.1 1587.93   2
  -8  19  -3 10581.3 1472.35   1
 -19   8  -3 9603.28 1417.25   4
 -19   8  -3 10980.3 1465.23   2
  -8  19  -3 10229.5 1325.84   4
  19 -11   0 3221.63 847.750   3
 -19   8   0 2228.07 774.654   2
  11 -19   0 1737.05 658.009   3
  19 -11   0 1741.73 672.200   1
 -11  -8   0 2688.36 730.440   3
   8  11   0 2402.47 616.336   1
  -8  19   0 3408.51 800.169   2
 -11  -8   0 2315.65 971.810   2
 -19   8   0 1912.08 868.633   4
  -8  19   0 1828.24 685.853   1
 -19   8   3 12304.8 1005.02   2
  19 -11   3 8051.54 426.843   3
  11 -19   3 9009.37 956.350   3
   8  11   3 12242.4 1058.28   1
 -11  -8   3 11399.2 1250.92   3
 -11  -8   3 12117.8 1154.61   2
 -19   8   3 10526.4 1254.86   4
  11 -19   6 1341.82 890.070   3
 -19   8   6-6.29484 700.727   4
  10 -19  -7 8358.89 1423.51   3
   9  10  -7 9483.05 1609.92   1
  -9  19  -7 7039.55 1047.04   2
 -10  -9  -7 6972.86 971.399   3
 -10  -9  -7 5287.39 1098.22   4
  19 -10  -7 8461.99 1176.47   1
 -10  -9  -7 7096.06 1718.25   2
 -19   9  -7 5901.93 1427.38   4
  -9  19  -7 6807.71 2044.25   1
 -19   9  -7 9636.55 1682.42   2
  -9  19  -7 9879.17 1465.17   4
  19 -10  -4 8983.22 1040.68   1
  10 -19  -4 8844.66 1262.79   3
  -9  19  -4 7972.82 981.430   2
 -10  -9  -4 9099.58 951.041   3
   9  10  -4 10206.5 1292.61   1
 -10  -9  -4 9311.90 1261.50   4
 -10  -9  -4 8925.16 1551.85   2
  -9  19  -4 11769.6 1679.72   1
  -9  19  -4 9346.18 1331.82   4
 -19   9  -4 9667.66 1412.23   4
 -19   9  -4 6732.63 1344.57   2
  -9  19  -1 8449.08 1217.88   4
  10 -19  -1 8864.18 1019.01   3
 -10  -9  -1 10267.1 998.479   3
  -9  19  -1 10140.1 1056.09   2
 -10  -9  -1 12244.7 1533.98   2
  -9  19  -1 11119.8 1212.07   1
   9  10  -1 6956.47 886.203   1
 -19   9  -1 11171.2 1398.36   4
  19 -10  -1 11808.2 1079.76   1
 -19   9  -1 9355.22 1210.84   2
  19 -10   2 24199.2 1046.99   3
 -19   9   2 23189.3 1355.38   2
  10 -19   2 22804.3 1364.12   3
 -10  -9   2 21177.7 1516.82   3
 -10  -9   2 24569.3 1667.73   2
   9  10   2 20743.6 1304.60   1
 -19   9   2 22930.2 1705.08   4
 -19   9   5 4589.65 747.635   2
  10 -19   5 7027.56 1065.25   3
 -19   9   5 5802.15 979.973   4
 -10  -9   8 2341.33 990.712   4
 -10  19  -8 4658.16 1212.73   4
 -19  10  -8 1795.01 1375.32   2
   9 -19  -8 1270.90 985.165   3
  19  -9  -8 2527.11 976.745   1
  -9 -10  -8 1639.33 852.860   3
 -10  19  -8 2878.41 882.123   2
  10   9  -8 1006.31 1205.70   1
  -9 -10  -8 2530.89 982.609   4
  -9 -10  -8 2278.42 1533.92   2
 -19  10  -8 6024.76 1535.94   4
 -10  19  -8 2619.38 1678.22   1
 -19  10  -5 4990.23 1262.66   2
   9 -19  -5 5526.90 1134.57   3
 -10  19  -5 4825.20 892.600   2
  -9 -10  -5 3026.00 749.500   3
  19  -9  -5 3765.36 990.781   2
  -9 -10  -5 7758.19 1176.84   4
  -9 -10  -5 5406.40 1370.13   2
  10   9  -5 3979.03 1108.05   1
 -10  19  -5 6603.79 1643.01   1
 -19  10  -5 5482.77 1290.83   4
  19  -9  -5 5006.52 941.762   1
 -10  19  -5 5771.38 1211.87   4
   9 -19  -2 23938.9 1553.42   3
 -10  19  -2 21415.6 1392.66   2
  -9 -10  -2 24326.3 1389.60   3
  19  -9  -2 20757.3 1370.19   1
  10   9  -2 21775.2 1421.83   1
 -19  10  -2 25297.3 1950.02   4
 -10  19  -2 23092.8 1826.84   4
 -19  10  -2 22731.1 1766.58   2
  19  -9   1 12859.2 1101.11   3
 -19  10   1 9064.64 999.910   2
   9 -19   1 11230.8 1036.53   3
  10   9   1 10565.2 990.189   1
 -10  19   1 10098.7 561.333   1
  -9 -10   1 10640.6 1121.78   3
 -10  19   1 11484.3 1133.16   2
  19  -9   1 9764.57 1038.24   1
 -10  19   1 9662.05 845.495   1
 -19  10   1 8649.44 1263.43   4
 -10  19   1 12741.7 1399.35   4
  -9 -10   4 9261.08 646.470   2
 -19  10   4 8160.57 907.409   2
   9 -19   4 9699.26 1073.02   3
  -9 -10   4 9038.18 1249.06   3
  -9 -10   4 10414.0 991.000   2
 -19  10   4 9911.40 1181.67   4
   9 -19   7 11929.4 1399.59   3
 -19  10   7 8835.09 895.425   4
 -11  19  -9 8166.48 1436.68   4
 -19  11  -9 7584.04 1807.73   2
  19  -8  -9 5981.05 1231.96   1
   8 -19  -9 7389.51 1528.94   3
  11   8  -9 8365.63 1769.69   1
  -8 -11  -9 5503.88 1089.50   3
 -11  19  -9 4511.80 1064.12   2
  -8 -11  -9 6023.00 1274.47   4
  -8 -11  -9 8064.46 2003.85   2
 -11  19  -9 6432.58 2141.80   1
 -19  11  -9 4813.04 1584.46   4
 -11  19  -6 514.051 933.597   4
 -19  11  -6-450.996 1021.24   2
   8 -19  -6-92.8742 882.632   3
  -8 -11  -6 859.837 651.958   3
  19  -8  -6 1413.55 787.947   1
 -11  19  -6 1525.56 775.791   2
  -8 -11  -6 759.316 826.135   4
  -8 -11  -6 2683.54 1250.40   2
 -11  19  -6 3300.35 1553.00   1
 -19  11  -6 1078.26 1053.27   4
  11   8  -6 1202.63 1028.08   1
  19  -8  -3 9454.67 1032.22   1
   8 -19  -3 12724.4 1293.03   3
 -11  19  -3 9652.44 1022.88   2
  -8 -11  -3 9743.42 975.078   3
  -8 -11  -3 8099.19 923.561   1
  11   8  -3 9801.06 1144.96   1
  19  -8  -3 9187.38 1269.71   2
 -19  11  -3 10497.3 1465.70   4
 -11  19  -3 11519.0 1363.14   4
 -19  11  -3 10911.4 1421.06   2
 -11  19   0 2261.08 922.401   4
  19  -8   0 1650.02 656.202   1
 -11  19   0 2656.63 497.572   1
 -19  11   0 3523.43 802.153   2
   8 -19   0 2818.73 740.363   3
  -8 -11   0 2800.95 717.121   3
 -11  19   0 2308.64 697.008   2
 -19  11   0 2644.72 917.998   4
  11   8   0 1630.92 571.713   1
 -19  11   3 8936.62 914.134   2
  19  -8   3 5594.45 294.540   3
   8 -19   3 7565.94 1002.21   3
  -8 -11   3 7461.28 672.480   2
  11   8   3 8203.11 982.178   1
  -8 -11   3 8666.11 1111.90   3
 -19  11   3 10387.1 1246.30   4
   8 -19   6 564.585 771.998   3
 -19  11   6 946.746 696.057   4
 -12  19  -7 3619.51 1163.11   4
 -19  12  -7 3650.83 1260.44   2
  19  -7  -7 2728.19 912.477   1
   7 -19  -7 1229.69 963.576   3
  -7 -12  -7 2007.45 810.787   3
 -12  19  -7 3420.59 933.723   2
  -7 -12  -7 3664.26 1479.73   2
  -7 -12  -7 2896.35 958.217   4
  12   7  -7 2639.59 1152.84   1
 -12  19  -7 1717.34 1559.32   1
 -19  12  -7 2547.56 1157.29   4
 -12  19  -4 5711.41 1147.79   4
 -19  12  -4 5425.24 1176.61   2
 -12  19  -4 6208.12 958.415   2
   7 -19  -4 4664.17 1009.72   3
  -7 -12  -4 3634.37 746.899   3
  12   7  -4 5323.85 1048.51   1
  -7 -12  -4 4695.17 760.948   1
 -19  12  -4 6564.12 1374.92   4
  19  -7  -4 3823.48 1036.06   2
  19  -7  -4 5120.38 896.238   1
 -19  12  -1 9612.30 1130.41   2
  -7 -12  -1 7703.05 1093.76   1
   7 -19  -1 9965.35 1065.96   3
 -12  19  -1 9455.02 1020.05   2
  -7 -12  -1 9941.86 999.022   3
  19  -7  -1 9734.74 1010.44   1
 -19  12  -1 10501.5 1374.46   4
  12   7  -1 9813.15 984.814   1
 -12  19  -1 8390.89 814.503   1
 -12  19  -1 10919.8 1327.15   4
 -12  19   2 4739.01 1020.32   4
 -19  12   2 4678.50 807.926   2
  19  -7   2 4855.51 507.627   3
   7 -19   2 4214.53 818.174   3
 -12  19   2 4570.72 893.491   2
  19  -7   2 4210.39 898.028   1
  12   7   2 2482.72 718.483   1
 -12  19   2 3267.80 469.951   1
  -7 -12   2 3415.34 848.847   3
  -7 -12   2 3564.57 619.558   2
 -19  12   2 3429.31 949.981   4
  -7 -12   5 13052.0 899.373   2
   7 -19   5 17900.6 1480.42   3
 -19  12   5 15945.9 1247.63   2
 -19  12   5 16065.1 1341.22   4
 -13  19  -8 14299.8 1564.36   2
   6 -19  -8 15818.5 1658.54   3
  -6 -13  -8 12883.5 1369.78   3
  13   6  -8 12800.5 1752.32   1
  19  -6  -8 13720.0 1614.52   1
  -6 -13  -8 15026.3 2192.12   2
  -6 -13  -8 11110.7 1382.03   4
 -19  13  -8 13941.1 1932.17   4
 -19  13  -8 16474.5 1975.25   2
 -19  13  -5 3624.43 1134.25   2
  -6 -13  -5 1629.13 581.683   1
   6 -19  -5 1894.57 892.206   3
  -6 -13  -5 3163.83 795.052   3
 -13  19  -5 1134.17 714.984   2
  19  -6  -5 1899.99 797.710   1
  19  -6  -5 2645.25 830.264   2
 -19  13  -5 2269.38 1089.29   4
  13   6  -5 1715.51 910.909   1
 -13  19  -5 3669.20 1106.53   4
 -19  13  -2 29337.9 1866.34   2
  -6 -13  -2 25746.1 1516.59   1
   6 -19  -2 28814.1 1671.67   3
  19  -6  -2 26412.1 1545.06   1
 -13  19  -2 30586.3 1674.45   2
  -6 -13  -2 27960.8 1515.69   3
  19  -6  -2 27216.5 1924.36   2
  13   6  -2 27561.3 1581.11   1
 -19  13  -2 29105.5 2171.39   4
 -13  19  -2 30020.1 2040.77   4
 -13  19   1 7134.96 627.039   1
 -19  13   1 7167.65 944.718   2
  19  -6   1 6623.58 912.184   1
   6 -19   1 5864.36 905.432   3
 -13  19   1 8415.63 988.572   2
  -6 -13   1 7950.23 1013.53   3
  13   6   1 7898.29 934.378   1
  19  -6   1 8230.99 743.414   3
 -19  13   1 7630.36 1165.60   4
 -13  19   1 6437.52 1165.81   4
  13   6   4 6157.44 1045.93   3
  -6 -13   4 8488.46 835.293   2
 -19  13   4 10786.9 1070.51   2
   6 -19   4 11638.3 1229.84   3
  -6 -13   4 7944.01 1159.86   3
 -13  19   4 4169.76 531.946   1
 -19  13   4 8669.01 1127.68   4
   6 -19   7 9501.51 1409.22   3
 -19  13   7 9063.22 937.135   4
 -14  19  -9 4933.24 1387.28   4
  19  -5  -9 4802.11 1294.89   1
 -19  14  -9 7830.73 1625.63   2
   5 -19  -9 4754.32 1258.58   3
 -14  19  -9 5152.19 1191.16   2
  -5 -14  -9 5050.48 1037.43   3
  -5 -14  -9 4142.79 1105.84   4
  -5 -14  -9 3169.16 1571.52   2
  14   5  -9 6247.78 1583.91   1
 -14  19  -9 4971.18 2179.22   1
 -19  14  -9 5447.03 1608.67   4
 -19  14  -6 1674.08 1016.64   2
   5 -19  -6 306.606 852.786   3
  19  -5  -6 933.218 792.633   1
 -14  19  -6 1665.86 842.783   2
  -5 -14  -6-249.290 749.815   3
 -19  14  -6-93.6307 961.830   4
  -5 -14  -6 1403.88 901.303   4
  14   5  -6 234.453 901.888   1
 -14  19  -6 1167.37 906.314   4
  19  -5  -3 14964.8 1248.54   1
 -19  14  -3 13294.5 1436.07   2
  -5 -14  -3 12573.3 1053.98   1
   5 -19  -3 14451.4 1310.44   3
 -14  19  -3 14181.7 1281.14   2
  -5 -14  -3 14865.2 1204.61   3
  19  -5  -3 16468.6 1499.67   2
  14   5  -3 14363.6 1300.89   1
 -19  14  -3 15946.4 1717.91   4
 -14  19  -3 19217.4 1798.15   4
  -5 -14   0 1675.40 991.554   1
 -14  19   0 2756.50 573.842   1
  14   5   0 2350.18 663.526   1
 -19  14   0 3299.83 785.626   2
  19  -5   0 3059.18 756.145   1
   5 -19   0 1151.97 698.428   3
  -5 -14   0 3915.91 782.359   3
 -14  19   0 2312.28 658.695   2
  19  -5   0 3292.36 678.432   3
 -19  14   0 2991.49 952.075   4
 -14  19   0 3702.45 1017.90   4
 -14  19   3 19287.0 1028.12   1
  14   5   3 18385.9 1301.47   3
  19  -5   3 21309.7 764.981   3
  -5 -14   3 16257.2 1020.34   2
 -19  14   3 21194.0 1364.00   2
   5 -19   3 21060.9 1504.68   3
  -5 -14   3 21047.8 1623.12   3
  14   5   3 20526.7 1509.09   1
 -19  14   3 21267.2 1638.89   4
 -14  19   3 23036.4 1667.28   4
   5 -19   6 3244.91 1315.93   3
 -19  14   6 1640.16 736.527   4
 -15  19  -7 5903.84 1216.26   2
 -19  15  -7 4619.45 1268.02   2
  19  -4  -7 4915.41 1116.50   1
   4 -19  -7 3786.93 1057.45   3
  -4 -15  -7 3709.21 947.751   3
  15   4  -7 6648.28 1303.03   1
  -4 -15  -7 4966.48 1075.02   4
 -19  15  -7 6688.24 1431.23   4
 -15  19  -7 8767.62 1506.57   4
  15   4  -4 1124.02 846.086   1
 -19  15  -4 304.836 778.289   2
   4 -19  -4 798.442 804.362   3
  19  -4  -4 42.6609 777.130   2
 -15  19  -4 695.874 765.663   2
  -4 -15  -4 685.001 668.801   3
  19  -4  -4 682.207 658.401   1
  -4 -15  -4 534.792 544.117   1
 -19  15  -4 419.351 1000.29   4
 -15  19  -4 3159.21 1103.78   4
  15   4  -1 5000.30 826.537   1
 -19  15  -1 4846.25 916.539   2
  -4 -15  -1 4469.01 964.342   1
   4 -19  -1 4390.10 864.085   3
  -4 -15  -1 5221.13 830.978   3
  19  -4  -1 3909.14 791.788   1
 -15  19  -1 4168.04 769.321   2
 -19  15  -1 6310.77 1201.67   4
 -15  19  -1 6172.24 1180.56   4
  15   4   2 6339.31 843.586   3
 -19  15   2 8837.54 992.752   2
  19  -4   2 8959.38 689.073   3
   4 -19   2 7938.64 1043.25   3
  -4 -15   2 10285.3 1147.29   3
 -15  19   2 8007.73 1009.63   2
  19  -4   2 7498.07 1044.68   1
 -15  19   2 7580.06 780.825   1
 -19  15   2 8022.18 1197.05   4
 -15  19   2 8866.32 1235.87   4
  15   4   2 8303.13 1038.03   1
  -4 -15   5 10044.7 1105.69   2
  15   4   5 6422.58 939.232   3
   4 -19   5 9716.69 1286.80   3
  -4 -15   5 10747.1 1397.01   3
 -19  15   5 9299.64 1108.42   4
 -19  16  -8 14544.8 1836.11   2
 -16  19  -8 16114.7 1730.99   2
   3 -19  -8 11806.3 1520.53   3
  -3 -16  -8 13462.7 1467.30   3
  16   3  -8 16242.0 1820.50   1
  19  -3  -8 11641.7 1578.97   1
  -3 -16  -8 15242.9 1574.42   4
 -19  16  -8 20351.9 2180.71   4
 -16  19  -8 19225.1 2058.82   4
 -19  16  -5 2374.88 1053.45   4
  16   3  -5 2360.61 963.826   1
 -19  16  -5 2463.99 1009.78   2
   3 -19  -5 1444.43 837.258   3
 -16  19  -5 2663.18 904.229   2
  -3 -16  -5 1301.58 762.004   3
  19  -3  -5 2526.59 916.808   1
  -3 -16  -5 1096.78 481.528   1
 -16  19  -5 2022.96 1054.91   4
 -19  16  -2 14701.1 1406.42   2
  19  -3  -2 14011.4 1241.30   1
 -16  19  -2 18293.1 1414.47   2
   3 -19  -2 14573.2 1268.05   3
  -3 -16  -2 15084.9 1239.37   3
  19  -3  -2 15632.9 1554.59   2
  -3 -16  -2 12396.2 1132.01   1
 -19  16  -2 14424.5 1695.03   4
 -16  19  -2 17672.4 1702.97   4
  16   3  -2 15850.5 1291.38   1
 -19  16   1 6541.62 947.708   2
 -16  19   1 5205.30 900.433   2
  19  -3   1 5274.07 698.412   3
  -3 -16   1 4965.16 926.183   3
   3 -19   1 3963.49 852.783   3
  16   3   1 4956.98 887.994   1
 -16  19   1 6858.45 1176.69   4
 -19  16   1 5098.39 1100.80   4
  19  -3   1 5394.70 959.441   1
 -16  19   1 5468.67 689.488   1
  -3 -16   4 9022.90 1027.44   2
  16   3   4 12905.6 1102.58   3
   3 -19   4 12503.7 1333.67   3
 -19  16   4 13606.7 1269.27   2
  -3 -16   4 15744.1 1512.15   3
 -19  16   4 13672.3 1389.40   4
 -16  19   4 14716.7 1447.12   4
 -16  19   4 8477.65 1011.63   1
 -19  16   7 3165.35 793.786   4
   3 -19   7 2853.35 1180.80   3
 -19  17  -9 5828.79 1441.14   2
 -17  19  -9 5704.29 1291.73   2
   2 -19  -9 5888.02 1327.69   3
  -2 -17  -9 6548.85 1194.02   3
  19  -2  -9 8379.77 1541.92   1
   2 -19  -9 3920.66 956.155   4
  -2 -17  -9 5884.81 1169.21   4
  -2 -17  -9 5909.43 1831.73   2
  17   2  -9 5866.01 1461.99   1
 -19  17  -9 8952.22 1739.86   4
 -17  19  -9 7481.82 1738.22   4
 -19  17  -6 7437.00 1329.88   2
  17   2  -6 5213.61 1133.12   1
   2 -19  -6 6138.01 1113.40   3
 -17  19  -6 5093.41 1135.03   2
  -2 -17  -6 5926.55 1063.59   3
  19  -2  -6 5934.26 1152.06   1
  -2 -17  -6 2062.16 439.197   1
 -19  17  -6 7295.76 1470.73   4
 -17  19  -6 5389.35 1335.70   4
 -17  19  -3 6236.33 1143.84   3
 -19  17  -3 8266.13 1152.96   2
 -17  19  -3 8427.46 1110.92   2
   2 -19  -3 6358.10 995.388   3
  -2 -17  -3 7735.52 1016.60   3
  19  -2  -3 7881.40 1105.62   2
  -2 -17  -3 5889.41 747.308   1
  17   2  -3 8636.80 1089.92   1
 -19  17  -3 8992.02 1417.13   4
 -17  19  -3 8880.48 1435.11   4
  19  -2  -3 7442.47 1034.01   1
  19  -2   0 4410.50 834.881   1
 -19  17   0 6715.51 981.844   2
 -17  19   0 6305.39 968.831   2
   2 -19   0 7491.74 999.237   3
  17   2   0 6189.72 879.051   1
  -2 -17   0 4407.08 830.785   3
  -2 -17   0 6993.21 1233.63   1
 -19  17   0 6823.62 1258.07   4
 -17  19   0 8386.36 1319.76   4
  19  -2   3 6404.56 1111.63   1
  19  -2   3 6538.07 727.488   3
  17   2   3 5078.68 817.374   3
 -17  19   3 5595.46 938.527   1
 -19  17   3 6269.37 936.488   2
   2 -19   3 7319.86 1127.09   3
  -2 -17   3 6263.15 1086.54   3
 -17  19   3 8242.64 1078.33   2
  17   2   3 4669.59 1009.32   1
 -19  17   3 8232.59 1200.46   4
 -17  19   3 7039.00 1149.60   4
   2 -19   6 7533.72 1363.90   3
  -2 -17   6 6010.13 1296.61   3
 -19  17   6 7796.00 1096.85   4
  18   1  -7 631.892 960.464   1
  19  -1  -7 1696.84 1035.27   1
 -19  18  -7 640.957 975.989   2
 -18  19  -7 2757.68 1010.53   2
   1 -19  -7 522.805 889.033   3
  -1 -18  -7 1349.70 906.750   3
 -19  18  -7 2423.87 1250.63   4
 -18  19  -7 16.7068 1046.60   4
 -19  18  -4 3025.18 777.201   3
 -18  19  -4 3087.30 946.306   3
 -19  18  -4 5959.56 1069.33   2
 -18  19  -4 4083.98 1001.85   2
   1 -19  -4 3310.63 954.495   3
  18   1  -4 6207.87 1041.08   1
  -1 -18  -4 2045.17 849.923   3
  19  -1  -4 4482.34 957.320   1
 -19  18  -4 4039.99 1224.73   4
 -18  19  -4 6062.13 1330.24   4
 -19  18  -1 5834.32 1004.80   2
  18   1  -1 5079.78 895.859   1
  19  -1  -1 2551.83 766.798   1
   1 -19  -1 3341.92 859.685   3
 -18  19  -1 4120.76 887.590   2
  -1 -18  -1 3597.64 827.771   3
  -1 -18  -1 3293.87 893.825   1
 -19  18  -1 7754.45 1353.56   4
 -18  19  -1 8602.32 1377.08   4
  18   1   2 5609.31 992.469   1
 -18  19   2 2722.73 724.157   1
  19  -1   2 4101.09 975.708   1
  19  -1   2 4237.26 680.200   3
  18   1   2 3755.50 744.359   3
 -18  19   2 4680.65 891.936   2
   1 -19   2 5034.44 975.906   3
  -1 -18   2 5210.77 1048.04   3
 -19  18   2 3006.42 796.426   2
 -19  18   2 6317.27 1151.07   4
 -18  19   2 5251.78 1152.34   4
 -19  18   5 1892.22 814.652   4
 -18  19   5 1073.44 803.415   4
  19  -1   5 269.444 278.270   3
   1 -19   5 1732.99 953.274   3
  -1 -18   5-258.667 851.424   3
 -19  19  -8 11638.6 1685.38   2
   0 -19  -8 13211.1 1563.16   3
  19   0  -8 15241.7 1799.33   1
 -19  19  -8 16888.0 2098.93   4
 -19  19  -5 688.369 866.610   2
  19   0  -5 481.777 834.323   1
   0 -19  -5-166.457 760.979   3
 -19  19  -5-714.481 978.755   4
  19   0  -2 24695.2 1639.12   1
 -19  19  -2 19883.8 1582.87   2
   0 -19  -2 21812.0 1537.92   3
 -19  19  -2 24530.2 2108.93   4
   0 -19   1 1139.01 735.397   3
  19   0   1 620.281 706.269   1
 -19  19   1 158.840 623.852   2
 -19  19   1 1511.90 1005.14   4
  19   0   4 1398.37 612.496   3
 -19  19   4 2593.60 881.666   2
 -19  19   4 3577.10 941.222   4
   0 -19   7 283.441 1038.83   3
 -20   0  -8 1260.14 1291.16   4
  20 -20  -8-90.1570 1340.71   3
   0  20  -8-838.879 1639.36   1
 -20   0  -8 13.9834 1511.20   2
  20 -20  -5 871.634 1169.71   3
   0  20  -5-912.138 1201.40   1
 -20   0  -5 810.425 1125.15   4
  20 -20  -5 761.773 650.521   1
 -20   0  -5-75.0108 1292.18   2
  20 -20  -2 6647.15 1249.66   3
   0  20  -2 5479.48 974.376   1
 -20   0  -2 6353.16 1320.15   4
 -20   0  -2 5146.84 1463.22   2
 -20   0   1 926.573 868.995   2
  20 -20   1 229.126 584.479   3
   0  20   1 341.524 476.526   1
 -20   0   1 897.817 927.973   4
 -20   0   4 2081.47 1055.97   4
 -20   0   4 1338.06 537.142   2
  20 -20   4 900.063 603.333   3
 -20   0   7 758.462 944.750   4
  20 -19  -6 3281.77 1349.51   3
  19 -20  -6 6028.14 1561.98   3
  19 -20  -6 2221.72 634.211   1
  -1  20  -6 5672.25 1501.44   1
   1  19  -6 5355.20 1503.16   1
 -19  -1  -6 4172.50 1389.37   4
 -20   1  -6 4293.41 1428.75   4
 -19  -1  -6 3791.68 1700.55   2
  20 -19  -6 2463.67 779.818   1
 -20   1  -6 4503.91 1632.86   2
  -1  20  -3 10946.6 1405.37   1
  20 -19  -3 9109.12 1434.87   3
  19 -20  -3 8102.60 1407.19   3
   1  19  -3 9209.84 1340.19   1
  20 -19  -3 6580.61 932.811   1
 -19  -1  -3 8706.55 1459.00   4
 -20   1  -3 9364.07 1487.29   4
 -19  -1  -3 10202.3 1748.27   2
 -20   1  -3 8852.58 1616.01   2
  20 -19   0 9337.10 1103.64   3
  19 -20   0 7877.02 1055.40   3
  -1  20   0 7556.84 776.830   1
   1  19   0 6527.18 761.608   1
 -19  -1   0 8609.48 1392.51   4
 -20   1   0 10416.9 1482.25   4
 -19  -1   0 9875.48 1480.08   2
 -20   1   0 11093.9 1487.61   2
  20 -19   3 7462.32 820.269   3
  19 -20   3 9349.64 921.464   3
 -19  -1   3 8062.04 1323.06   4
 -20   1   3 9427.10 1367.18   4
 -19  -1   3 8677.67 956.018   2
 -20   1   3 8759.79 936.907   2
  19 -20   6 3490.51 765.780   3
 -19  -1   6 1787.31 996.462   4
 -20   1   6 3694.74 1113.89   4
  20 -18  -7 7148.46 1782.28   3
  18 -20  -7 5466.79 1474.28   3
  20 -18  -7 3073.60 770.857   1
  -2  20  -7 5950.74 1735.63   1
   2  18  -7 3617.66 1564.62   1
  18 -20  -7 1721.44 599.677   1
 -18  -2  -7 4169.58 1359.94   4
 -20   2  -7 4914.14 1448.96   4
 -18  -2  -7 3601.86 1663.25   2
 -20   2  -7 3756.20 1645.07   2
  18 -20  -4-17.8486 523.872   1
  20 -18  -4-1041.35 1047.28   3
  18 -20  -4 1496.57 1035.45   3
  -2  20  -4 1682.90 1116.58   1
   2  18  -4 2479.02 1125.07   1
  20 -18  -4-451.604 657.194   1
 -18  -2  -4 332.370 898.925   4
 -20   2  -4-172.332 991.373   4
 -18  -2  -4 4022.69 1521.30   2
 -20   2  -4-225.890 1102.89   2
  20 -18  -1 19733.1 1631.24   3
  18 -20  -1 20054.6 1545.03   3
  -2  20  -1 17682.3 1243.05   1
   2  18  -1 17800.2 1217.70   1
 -18  -2  -1 21066.5 1842.51   4
 -20   2  -1 19172.0 1837.69   4
 -20   2  -1 18494.3 1858.66   2
 -18  -2  -1 24041.2 2171.86   2
   2  18   2 1889.25 524.934   1
 -20   2   2 3186.99 816.636   2
  20 -18   2 2238.12 582.090   3
  18 -20   2 2956.09 737.757   3
 -18  -2   2 4436.31 1098.54   4
 -20   2   2 4303.88 1142.78   4
 -18  -2   2 1952.22 813.418   2
 -20   2   5 7658.69 573.144   2
  18 -20   5 12138.9 1089.80   3
  20 -18   5 9414.25 693.609   3
 -18  -2   5 14035.2 1536.73   4
 -20   2   5 15621.0 1544.12   4
  20 -17  -8 5515.25 1689.09   3
  17 -20  -8 5646.67 1584.95   3
  -3  20  -8 5614.46 1779.50   1
   3  17  -8 2717.68 1534.12   1
  -3  20  -8 2424.36 679.362   2
 -17  -3  -8 4028.34 1350.21   4
 -20   3  -8 5294.88 1512.78   4
  20 -17  -8 3013.89 879.724   1
 -17  -3  -8 4840.17 1776.59   2
 -20   3  -8 1048.98 1482.95   2
  17 -20  -5 1848.41 559.038   1
  20 -17  -5 660.392 1049.66   3
  17 -20  -5 3236.36 1276.21   3
  -3  20  -5 3513.89 1297.74   1
 -20   3  -5 2643.32 1221.58   4
   3  17  -5 2849.10 1198.08   1
 -17  -3  -5 1831.15 602.760   3
 -17  -3  -5 3418.12 1158.78   4
  20 -17  -5 1953.51 727.047   1
 -17  -3  -5 1699.58 1258.78   2
 -20   3  -5 2309.76 1366.95   2
  20 -17  -2 4335.03 1123.07   3
  17 -20  -2 3931.65 1007.75   3
  -3  20  -2 4213.64 964.683   1
 -17  -3  -2 3837.67 781.292   3
 -17  -3  -2 4325.47 1117.84   4
   3  17  -2 3011.94 808.197   1
 -20   3  -2 3752.07 1216.59   4
  20 -17  -2 4742.45 845.651   1
 -17  -3  -2 3740.08 1353.26   2
 -20   3  -2 6044.18 1312.22   2
 -20   3   1 2423.41 856.375   2
  20 -17   1 2295.74 678.259   3
  17 -20   1 823.451 594.852   3
  -3  20   1 1973.73 396.227   1
 -20   3   1 2915.01 1044.63   4
   3  17   1 1639.96 547.868   1
 -17  -3   1 3590.79 1016.46   4
 -17  -3   1 2606.91 1004.50   2
 -20   3   4 6771.97 784.290   2
  20 -17   4 6462.17 656.204   3
  17 -20   4 8427.50 957.543   3
 -17  -3   4 6235.30 1137.41   4
 -20   3   4 8304.55 1301.03   4
 -17  -3   4 7800.48 666.347   2
 -17  -3   7 1948.65 896.233   4
 -20   3   7 2031.04 907.950   4
  20 -16  -6 17728.1 2129.87   3
   4  16  -6 13931.7 1826.81   1
  16 -20  -6 13589.8 1726.35   3
  20 -16  -6 9875.99 1107.44   1
 -16  -4  -6 9792.23 889.053   3
  -4  20  -6 9306.78 1038.52   2
 -16  -4  -6 13171.7 1705.44   4
 -20   4  -6 12871.5 1787.49   4
  16 -20  -6 8359.06 724.739   1
 -20   4  -6 15109.5 2114.80   2
  -4  20  -6 10702.2 1908.91   1
 -16  -4  -6 10333.1 1932.57   2
  20 -16  -3 4211.35 1173.01   3
  -4  20  -3 4610.02 1193.30   1
  16 -20  -3 4071.18 1076.14   3
 -20   4  -3 3823.74 1164.09   4
  20 -16  -3 3153.55 731.230   1
 -16  -4  -3 3202.59 695.093   3
   4  16  -3 3867.52 946.820   1
 -16  -4  -3 4671.01 1119.34   4
 -16  -4  -3 2192.06 1285.53   2
 -20   4  -3 3578.83 1229.96   2
  20 -16   0 11276.3 1147.55   3
  -4  20   0 10047.1 813.454   1
  16 -20   0 10738.6 1106.68   3
 -16  -4   0 12283.2 1568.70   2
 -16  -4   0 14051.8 1443.42   4
 -20   4   0 13291.0 1559.13   4
   4  16   0 11053.0 915.174   1
 -20   4   0 10553.1 1320.74   2
 -20   4   3 9835.37 944.457   2
  20 -16   3 9461.24 738.888   3
  16 -20   3 10708.8 998.435   3
 -16  -4   3 12141.5 1372.57   4
   4  16   3 7955.92 737.504   1
 -20   4   3 10298.1 1370.97   4
 -16  -4   3 10915.3 1027.36   2
  16 -20   6 2036.12 775.669   3
 -16  -4   6 3066.60 983.359   4
 -20   4   6 618.567 821.562   4
  20 -15  -7 14703.3 2036.71   3
   5  15  -7 12717.8 1923.97   1
  15 -20  -7 13266.2 1853.43   3
 -15  -5  -7 9170.30 1932.14   2
 -15  -5  -7 9467.67 942.721   3
  -5  20  -7 10225.3 1044.91   2
 -15  -5  -7 7877.24 1422.28   4
 -20   5  -7 12973.4 1839.56   4
  -5  20  -7 13191.4 2241.53   1
 -20   5  -7 11347.1 2046.32   2
  20 -15  -7 9692.07 1184.09   1
  20 -15  -4 9231.56 1489.69   3
  15 -20  -4 8535.59 1347.17   3
   5  15  -4 8162.22 1305.47   1
  20 -15  -4 9647.06 1040.39   1
 -15  -5  -4 7676.37 866.136   3
  -5  20  -4 7322.11 993.770   2
 -15  -5  -4 9759.89 1366.95   4
 -20   5  -4 8517.55 1511.03   4
  -5  20  -4 9213.89 1557.01   1
 -15  -5  -4 7041.82 1647.67   2
 -20   5  -4 9778.24 1644.17   2
  20 -15  -1 27314.2 1878.17   3
  15 -20  -1 24225.6 1626.24   3
 -15  -5  -1 23201.0 1469.86   3
  20 -15  -1 21315.2 1473.63   1
   5  15  -1 19630.6 1294.45   1
 -15  -5  -1 22666.5 1739.16   4
 -15  -5  -1 24635.0 2150.92   2
 -20   5  -1 20361.7 1862.40   4
 -20   5  -1 21740.3 1793.16   2
  -5  20  -1 21849.7 1417.52   1
 -20   5   2 4435.45 822.209   2
   5  15   2 3182.32 645.783   1
  20 -15   2 2597.50 547.914   3
  15 -20   2 2534.72 690.347   3
 -15  -5   2 3661.36 966.555   4
 -20   5   2 4337.88 1029.77   4
 -20   5   5 18251.4 1003.07   2
  15 -20   5 19161.3 1379.61   3
 -15  -5   5 20257.7 1637.54   4
 -20   5   5 18591.1 1544.91   4
 -15  -5   8 3428.63 981.999   4
 -20   6  -8 5986.73 1752.21   2
  -6  20  -8 2346.53 1787.98   1
  20 -14  -8 4107.10 1766.59   3
  14 -20  -8 1646.45 1195.71   3
 -14  -6  -8 2588.20 1140.59   4
 -14  -6  -8 4575.01 1692.22   2
   6  14  -8 3242.27 1568.92   1
  20 -14  -8 2157.03 958.627   1
  -6  20  -8 1486.39 732.387   2
 -20   6  -8 1841.66 1216.82   4
 -20   6  -5 2327.45 1269.05   2
  -6  20  -5 5872.01 1486.03   1
  20 -14  -5 4780.27 1424.94   3
  14 -20  -5 6928.80 1292.63   3
  20 -14  -5 4687.19 870.727   1
 -14  -6  -5 6443.60 857.250   3
  -6  20  -5 5229.01 903.128   2
   6  14  -5 6278.17 1296.84   1
 -14  -6  -5 6299.46 1259.26   4
 -20   6  -5 6772.74 1434.79   4
 -14  -6  -5 6410.55 1599.21   2
  20 -14  -2 22993.6 1808.02   3
  14 -20  -2 21868.0 1630.07   3
   6  14  -2 23086.0 1486.34   1
 -14  -6  -2 21246.2 1355.48   3
  -6  20  -2 19955.7 1400.22   2
 -14  -6  -2 23474.6 1780.39   4
 -14  -6  -2 23235.1 2156.53   2
 -20   6  -2 24658.4 2073.89   4
  -6  20  -2 24704.3 1817.40   1
 -20   6  -2 22126.1 1886.99   2
  20 -14  -2 21098.9 1450.85   1
 -20   6   1 9323.71 1318.37   4
   6  14   1 9153.24 867.565   1
  20 -14   1 11351.4 1023.60   3
  14 -20   1 10488.6 1004.14   3
  -6  20   1 8462.73 496.528   1
 -14  -6   1 12656.4 1256.54   3
 -14  -6   1 10197.3 1266.94   4
 -14  -6   1 12725.1 1500.67   2
 -20   6   1 10866.5 1204.79   2
 -20   6   4 5058.50 740.670   2
  14 -20   4 4554.86 861.411   3
 -14  -6   4 2967.61 345.356   2
 -14  -6   4 5405.20 1082.64   4
 -20   6   4 4536.82 975.001   4
 -14  -6   4 3428.86 522.310   2
  14 -20   7 6085.50 1085.08   3
 -14  -6   7 5830.99 1097.63   4
 -20   6   7 4709.09 930.102   4
 -20   7  -9 3739.34 1587.08   2
  -7  20  -9 8834.24 2243.93   1
  20 -13  -9 6761.25 2075.72   3
  13 -20  -9 3553.32 1391.16   3
  20 -13  -9 2809.02 1033.73   1
  -7  20  -9 4648.65 948.486   2
   7  13  -9 7849.48 1912.79   1
 -13  -7  -9 5591.77 1410.20   4
 -13  -7  -9 7142.28 1991.80   2
 -20   7  -9 5059.33 1594.75   4
  20 -13  -6 18276.5 2181.41   3
  13 -20  -6 11161.8 1541.82   3
   7  13  -6 12763.9 1782.38   1
 -13  -7  -6 14024.0 1108.72   3
  -7  20  -6 10942.5 1138.40   2
 -13  -7  -6 14214.5 1566.21   4
 -13  -7  -6 13396.3 2094.41   2
  -7  20  -6 16789.0 2183.21   1
 -20   7  -6 15451.6 1844.70   4
 -20   7  -6 13903.0 1897.67   2
  20 -13  -6 13139.3 1258.49   1
 -20   7  -3 2290.03 1116.81   2
  20 -13  -3 3016.84 1092.52   3
  13 -20  -3 4107.88 996.582   3
 -13  -7  -3 2176.80 707.165   3
  -7  20  -3 1825.85 659.401   2
 -13  -7  -3 3030.08 945.567   4
 -13  -7  -3 778.843 1093.47   2
   7  13  -3 27.6639 782.766   1
 -20   7  -3 1446.88 994.641   4
  20 -13  -3 2002.70 691.939   1
  -7  20  -3 3508.61 1193.72   1
  20 -13   0 16591.0 1412.55   3
  13 -20   0 10395.3 1053.12   3
 -13  -7   0 11877.1 1185.01   3
 -13  -7   0 11028.4 1301.49   4
 -13  -7   0 12593.6 1563.99   2
  20 -13   0 14649.5 1258.44   1
   7  13   0 11647.2 981.278   1
 -20   7   0 14656.1 1592.90   4
  -7  20   0 13307.8 976.517   1
 -20   7   0 11501.0 1301.83   2
 -20   7   3 4309.41 739.739   2
  20 -13   3 4192.88 440.925   3
  13 -20   3 4639.10 820.036   3
   7  13   3 2689.56 717.481   1
 -13  -7   3 6664.21 1194.11   4
 -13  -7   3 5435.93 947.382   2
 -20   7   3 2660.33 935.141   4
  13 -20   6 3780.52 976.719   3
 -13  -7   6 2125.34 923.575   4
  20 -12  -7 14841.8 2058.21   3
  12 -20  -7 9472.61 1509.51   3
   8  12  -7 12533.4 1872.82   1
  -8  20  -7 11658.7 1217.64   2
 -12  -8  -7 10403.0 1090.89   3
  20 -12  -7 8693.62 1165.44   1
 -12  -8  -7 13349.5 1610.02   4
 -12  -8  -7 11817.5 2074.81   2
 -20   8  -7 13613.7 1809.53   4
 -20   8  -7 11208.2 1909.77   2
  -8  20  -7 11252.4 2057.62   1
  -8  20  -4 4037.08 1042.54   4
 -20   8  -4 3006.33 1181.70   2
  20 -12  -4 2974.66 1179.81   3
  20 -12  -4 4374.69 838.797   1
  12 -20  -4 4387.51 1042.90   3
  -8  20  -4 4178.22 859.083   2
 -12  -8  -4 3735.84 739.307   3
 -12  -8  -4 2850.49 954.138   4
 -12  -8  -4 3472.96 1442.86   2
   8  12  -4 3393.61 967.338   1
 -20   8  -4 6825.85 1351.69   4
  -8  20  -4 5859.71 1485.28   1
  20 -12  -1 23447.8 1461.80   1
  20 -12  -1 26581.5 1823.21   3
  12 -20  -1 19622.4 1409.53   3
 -12  -8  -1 20683.8 1373.23   3
  -8  20  -1 19857.3 1428.67   2
 -12  -8  -1 21143.7 1687.78   4
 -12  -8  -1 25987.5 2081.45   2
   8  12  -1 19496.7 1280.72   1
  -8  20  -1 22877.0 1570.87   1
 -20   8  -1 22425.1 1889.33   4
 -20   8  -1 22951.1 1747.12   2
 -20   8   2 9537.20 1004.47   2
  20 -12   2 8479.84 705.014   3
  12 -20   2 7306.13 927.050   3
 -12  -8   2 7394.84 1084.97   3
 -12  -8   2 10076.9 1296.46   4
 -12  -8   2 7917.68 1199.05   2
   8  12   2 6969.79 872.147   1
 -20   8   2 5528.73 1093.81   4
 -20   8   5 7905.92 844.930   2
  12 -20   5 8121.53 1097.53   3
 -12  -8   5 9918.27 1305.97   4
 -20   8   5 9538.25 1212.15   4
 -12  -8   8 3050.06 949.077   4
  -9  20  -8 6275.21 1332.06   4
 -20   9  -8 8522.33 1732.32   2
  11 -20  -8 9771.72 1642.02   3
   9  11  -8 9689.76 1828.94   1
  -9  20  -8 7199.12 1077.06   2
  20 -11  -8 10386.0 1339.23   1
 -11  -9  -8 5820.01 954.689   3
 -11  -9  -8 8126.19 1436.84   4
 -11  -9  -8 9097.32 1880.97   2
 -20   9  -8 9435.71 1678.27   4
  -9  20  -8 7254.15 2088.59   1
  20 -11  -5 6400.27 993.084   1
  11 -20  -5 7236.08 1251.39   3
  -9  20  -5 10038.4 1794.51   1
  -9  20  -5 7506.74 967.356   2
 -11  -9  -5 7412.36 917.220   3
 -20   9  -5 9694.33 1529.58   4
 -11  -9  -5 8191.82 1210.03   4
 -11  -9  -5 10346.6 1793.02   2
   9  11  -5 6229.99 1208.07   1
 -20   9  -5 7464.05 1535.73   2
  -9  20  -5 8090.51 1358.33   4
  11 -20  -2 9646.18 1233.00   3
 -11  -9  -2 8360.63 946.430   3
  -9  20  -2 9183.65 1036.74   2
  20 -11  -2 10379.1 1084.60   1
   9  11  -2 8858.47 1037.03   1
 -11  -9  -2 10007.9 1262.86   4
 -11  -9  -2 7731.83 1481.73   2
  -9  20  -2 8560.22 1311.72   1
 -20   9  -2 9289.23 1441.38   4
 -20   9  -2 9365.78 1329.39   2
  -9  20  -2 8672.03 1288.41   4
 -20   9   1 15810.5 1266.21   2
   9  11   1 15211.4 1111.54   1
  11 -20   1 17365.1 1267.63   3
 -11  -9   1 15902.1 1367.51   3
  -9  20   1 13614.2 591.896   1
 -11  -9   1 17554.4 1614.66   2
  -9  20   1 14443.3 833.126   1
 -20   9   1 15484.7 1579.30   4
  20 -11   1 15542.0 1339.19   1
 -11  -9   4 5453.22 504.667   2
 -20   9   4 6667.10 824.312   2
  11 -20   4 8260.23 1045.78   3
 -11  -9   4 7300.52 867.362   2
 -20   9   4 8558.12 1186.86   4
  11 -20   7 4993.12 1134.89   3
 -11  -9   7 8629.04 1265.07   4
 -20   9   7 7588.38 936.239   4
 -10  20  -9 1336.81 1118.75   4
 -20  10  -9 2225.51 1442.67   2
  10 -20  -9 663.044 1058.01   3
  20 -10  -9-393.185 923.575   1
 -10 -10  -9 792.939 889.917   3
 -10  20  -9 756.584 756.314   2
  10  10  -9 957.299 1542.59   1
 -10 -10  -9 529.553 959.762   4
 -10 -10  -9 303.089 1491.99   2
 -20  10  -9-959.800 1271.14   4
 -10  20  -9-1043.12 1832.15   1
  10 -20  -6 6076.63 1228.04   3
 -10 -10  -6 6073.50 926.254   3
 -10  20  -6 4017.64 890.062   2
 -10 -10  -6 4962.60 1075.53   4
  10  10  -6 7192.02 1307.51   1
 -10 -10  -6 5940.06 1543.84   2
 -20  10  -6 5319.75 1329.77   4
 -10  20  -6 7175.26 1753.75   1
  20 -10  -6 5147.15 1033.01   1
 -20  10  -6 8252.35 1587.96   2
 -10  20  -6 9400.00 1441.19   4
 -10  20  -3 470.821 843.126   4
 -20  10  -3 662.376 964.860   2
  10  10  -3 715.117 717.184   1
  10 -20  -3 1057.65 804.571   3
  20 -10  -3 617.005 607.735   1
 -10 -10  -3 631.712 600.450   3
 -10  20  -3 271.856 613.727   2
 -10 -10  -3 338.340 757.010   4
 -10 -10  -3 989.215 1166.81   2
 -10  20  -3 884.274 1094.47   1
 -20  10  -3-1090.38 969.021   4
 -10 -10   0 6046.65 1233.97   2
  20 -10   0 6241.46 990.282   3
  20 -10   0 5692.33 885.777   1
 -20  10   0 4485.33 879.070   2
  10 -20   0 5447.12 899.776   3
 -10 -10   0 6340.24 967.694   3
 -10  20   0 4903.07 870.536   1
 -10  20   0 3685.23 782.003   2
 -10  20   0 4247.40 560.413   1
 -20  10   0 4119.53 1041.38   4
 -10  20   0 5959.86 1130.18   4
  10  10   0 5449.76 830.425   1
 -20  10   3 486.842 577.113   2
  10 -20   3-399.292 653.343   3
  10  10   3 577.806 675.192   1
  20 -10   3 93.7517 154.089   3
 -10 -10   3 775.500 435.146   2
 -10 -10   3 37.3172 788.259   3
 -10 -10   3 991.173 786.433   2
 -20  10   3 414.449 818.537   4
  10 -20   6 7543.73 1194.72   3
 -20  10   6 8721.02 1074.36   4
   9 -20  -7 8321.41 1393.31   3
 -11  20  -7 7195.92 1057.61   2
  -9 -11  -7 7157.54 1047.90   3
  11   9  -7 7288.48 1482.01   1
  -9 -11  -7 6249.68 1609.07   2
  20  -9  -7 7341.17 1154.25   1
 -20  11  -7 8430.30 1583.70   4
 -11  20  -7 7052.45 2036.78   1
 -20  11  -7 8501.84 1685.70   2
  -9 -11  -7 6491.10 1200.40   4
 -11  20  -7 8375.64 1472.29   4
  20  -9  -4 7617.48 1028.59   1
   9 -20  -4 5622.04 1079.34   3
 -11  20  -4 5625.57 919.349   2
  -9 -11  -4 7321.65 937.340   3
  11   9  -4 5803.62 1047.16   1
  -9 -11  -4 7712.89 1203.87   4
  -9 -11  -4 6113.51 1456.07   2
 -11  20  -4 6135.92 1495.27   1
 -20  11  -4 8568.86 1457.21   4
 -20  11  -4 6851.14 1300.75   2
  20  -9  -4 4972.74 1112.42   2
 -11  20  -4 8550.40 1337.27   4
 -20  11  -1 17434.5 1501.65   2
   9 -20  -1 17936.7 1338.99   3
 -11  20  -1 16667.2 1319.42   2
  -9 -11  -1 17169.0 1290.65   3
  20  -9  -1 18785.3 1355.37   1
 -20  11  -1 17125.2 1694.13   4
  11   9  -1 15793.6 1196.14   1
 -11  20  -1 20945.6 1776.54   4
 -11  20   2 12090.9 1369.55   4
  20  -9   2 11933.5 908.053   3
 -20  11   2 10861.1 1049.13   2
   9 -20   2 11687.2 1095.37   3
  20  -9   2 10034.8 665.286   3
  -9 -11   2 10948.8 1170.48   3
 -11  20   2 6169.80 505.063   1
  11   9   2 9240.18 1016.78   1
 -20  11   2 10366.7 1314.26   4
   9 -20   5 8730.28 1180.90   3
 -20  11   5 8527.68 965.836   2
  -9 -11   5 6120.10 675.565   2
 -20  11   5 7398.84 1073.87   4
 -12  20  -8 4182.06 1310.90   4
 -20  12  -8 2371.76 1329.15   2
   8 -20  -8 2429.83 1117.31   3
  20  -8  -8 2448.60 981.954   1
  -8 -12  -8 1500.18 798.265   3
 -12  20  -8 2147.31 868.822   2
  -8 -12  -8 318.608 891.114   4
  12   8  -8 3307.37 1368.78   1
  -8 -12  -8 2061.96 1544.63   2
 -12  20  -8 2025.99 1715.78   1
 -20  12  -8 1770.85 1351.38   4
   8 -20  -5 7540.59 1247.86   3
 -12  20  -5 7733.89 1106.39   2
  -8 -12  -5 8175.43 984.122   3
  12   8  -5 7512.37 1251.53   1
 -12  20  -5 10161.0 1885.36   1
  -8 -12  -5 8291.73 1633.90   2
  -8 -12  -5 9126.13 1264.29   4
  20  -8  -5 7091.44 1171.82   2
 -20  12  -5 10195.8 1581.32   4
  20  -8  -5 8030.90 1098.78   1
 -12  20  -5 8503.11 1398.33   4
 -20  12  -5 9464.32 1521.93   2
 -20  12  -2 6419.07 1175.21   2
   8 -20  -2 5841.88 1001.02   3
 -12  20  -2 7441.33 976.165   2
  20  -8  -2 7819.35 946.302   1
  -8 -12  -2 5726.71 867.417   3
  -8 -12  -2 4637.27 908.161   1
  12   8  -2 7516.16 996.113   1
 -20  12  -2 7296.99 1349.46   4
 -12  20  -2 7980.02 1304.87   4
 -20  12   1 20269.1 1416.97   2
 -12  20   1 21935.7 889.483   1
   8 -20   1 21287.0 1401.10   3
  12   8   1 22520.4 1390.04   1
  20  -8   1 21065.2 1497.71   1
  -8 -12   1 24079.6 1577.45   3
 -12  20   1 20693.5 1445.48   2
  20  -8   1 22233.0 1116.90   3
 -20  12   1 22683.8 1847.59   4
 -12  20   1 27181.1 1915.25   4
  -8 -12   4 4099.31 608.784   2
   8 -20   4 3291.07 882.411   3
 -20  12   4 2608.77 751.738   2
  -8 -12   4 4161.08 1018.12   3
 -20  12   4 4959.51 1043.75   4
   8 -20   7 13205.5 1600.66   3
 -20  12   7 8347.81 951.007   4
 -13  20  -9 2951.34 1244.65   4
 -20  13  -9 3200.37 1539.40   2
  20  -7  -9 5326.34 1281.51   1
   7 -20  -9 5638.30 1370.16   3
  -7 -13  -9 2709.55 1688.38   2
  -7 -13  -9 2021.17 1003.28   3
 -13  20  -9 2694.61 1033.35   2
  -7 -13  -9 3157.16 1125.76   4
  13   7  -9 4566.38 1509.75   1
 -13  20  -9 3812.53 2198.05   1
 -20  13  -9 4964.69 1607.81   4
 -13  20  -6 4028.40 1196.47   4
 -20  13  -6 3263.12 1221.74   2
   7 -20  -6 4293.01 1097.29   3
  -7 -13  -6 2360.62 782.815   3
 -13  20  -6 2669.05 872.265   2
  20  -7  -6 1378.15 793.357   1
  -7 -13  -6 1734.60 844.852   4
  -7 -13  -6 3643.83 1426.22   2
 -13  20  -6 1919.79 1502.51   1
  13   7  -6 4515.75 1200.16   1
 -20  13  -6 2314.10 1238.88   4
 -13  20  -3 3467.63 1007.78   4
  20  -7  -3 2500.71 752.537   1
 -20  13  -3 4767.57 1083.61   2
 -13  20  -3 4755.98 889.352   2
   7 -20  -3 3482.04 934.585   3
  -7 -13  -3 2317.22 712.856   3
  13   7  -3 4684.72 935.864   1
  -7 -13  -3 3462.97 807.623   1
  20  -7  -3 3583.13 1169.85   2
 -20  13  -3 1315.30 1010.87   4
 -20  13   0 13060.2 1247.90   2
  13   7   0 11308.3 1082.25   1
   7 -20   0 14257.6 1238.78   3
 -13  20   0 13570.6 1197.06   2
  -7 -13   0 13156.3 1205.02   3
  20  -7   0 12678.2 1020.60   3
 -20  13   0 17045.7 1681.75   4
 -13  20   0 14217.4 896.117   1
  20  -7   0 13673.9 1176.69   1
 -13  20   0 15845.2 1602.11   4
 -13  20   3 1516.61 857.825   4
  20  -7   3 1683.85 310.128   3
  13   7   3 2424.07 792.271   1
 -13  20   3 715.896 308.873   1
  20  -7   3 1266.91 261.082   3
   7 -20   3 1743.56 793.589   3
 -20  13   3 2264.97 713.401   2
  -7 -13   3 1619.23 535.196   2
  -7 -13   3 2571.32 853.998   3
 -20  13   3 2330.01 925.719   4
   7 -20   6 16139.1 1596.49   3
 -20  13   6 14387.6 1250.64   4
 -14  20  -7 7066.56 1171.91   2
  -6 -14  -7 5943.13 1046.15   3
   6 -20  -7 5435.17 1237.82   3
  20  -6  -7 4881.03 1110.64   1
  -6 -14  -7 5134.40 1112.69   4
  -6 -14  -7 4326.04 1558.19   2
 -14  20  -7 7330.79 2142.55   1
  14   6  -7 5451.88 1323.19   1
 -20  14  -7 6411.85 1504.80   4
 -14  20  -7 6917.19 1401.03   4
 -20  14  -7 8669.81 1593.61   2
  14   6  -4 3499.65 912.024   1
 -20  14  -4 3952.44 1083.97   2
   6 -20  -4 2622.67 873.323   3
  -6 -14  -4 2817.90 721.715   3
 -14  20  -4 3005.05 874.797   2
  -6 -14  -4 2720.54 673.718   1
  20  -6  -4 4294.82 1089.01   2
 -20  14  -4 2670.54 1132.75   4
  20  -6  -4 4803.74 920.636   1
 -14  20  -4 5313.87 1198.69   4
 -20  14  -1 8443.37 1099.92   2
   6 -20  -1 10004.0 1107.34   3
 -14  20  -1 9105.97 879.410   1
 -14  20  -1 9990.35 1055.65   2
  -6 -14  -1 9084.43 1037.47   3
  20  -6  -1 9496.32 1037.64   1
 -20  14  -1 13424.4 1619.20   4
 -14  20  -1 12337.2 1452.40   4
  -6 -14  -1 8179.43 1203.85   1
  14   6  -1 11593.2 1105.23   1
 -20  14   2 22558.1 1456.26   2
   6 -20   2 21360.2 1485.07   3
  20  -6   2 21078.2 950.274   3
  -6 -14   2 20087.1 1540.18   3
 -14  20   2 18948.6 1440.99   2
 -14  20   2 17981.1 971.167   1
  20  -6   2 21603.6 1558.28   1
 -20  14   2 20967.3 1749.86   4
  14   6   2 19317.5 1464.92   1
 -14  20   2 22344.6 1794.37   4
  -6 -14   5 5208.28 863.288   2
   6 -20   5 6322.14 1131.41   3
 -20  14   5 6491.55 967.270   2
  -6 -14   5 5954.01 1209.99   3
 -14  20   5 3195.36 595.595   1
 -20  14   5 5158.21 1006.77   4
 -20  15  -8 1624.38 1165.92   2
  -5 -15  -8 1385.02 974.273   4
  20  -5  -8-69.0125 1004.63   1
   5 -20  -8 3872.47 1179.53   3
 -15  20  -8 1533.11 971.908   2
  -5 -15  -8 1014.47 898.455   3
 -15  20  -8 2483.72 2048.46   1
  -5 -15  -8 2315.19 1519.54   2
  15   5  -8 2462.71 1285.31   1
 -20  15  -8 2774.24 1312.15   4
 -15  20  -8 2209.51 1167.10   4
 -20  15  -5 17578.5 1787.43   2
 -15  20  -5 16868.8 1525.42   2
   5 -20  -5 16045.1 1558.83   3
  -5 -15  -5 17085.2 1419.18   3
  15   5  -5 15389.3 1592.86   1
 -20  15  -5 19163.3 1946.14   4
  20  -5  -5 16087.4 1424.39   1
 -15  20  -5 17495.2 1820.05   4
 -20  15  -2 2798.64 868.253   2
  20  -5  -2 3802.00 836.004   1
  -5 -15  -2 3373.64 894.794   1
   5 -20  -2 2135.12 832.281   3
  -5 -15  -2 2455.27 726.651   3
 -15  20  -2 2399.96 783.128   2
  15   5  -2 3323.15 788.318   1
 -20  15  -2 5246.04 1211.49   4
 -15  20  -2 3862.70 1097.95   4
 -15  20   1 21562.6 1077.14   1
  20  -5   1 19845.8 1457.86   1
 -20  15   1 24781.2 1572.05   2
   5 -20   1 21600.2 1468.10   3
 -15  20   1 20258.9 1455.43   2
  -5 -15   1 20975.5 1477.25   3
  20  -5   1 22164.8 1133.07   3
  15   5   1 22527.2 1460.23   1
 -20  15   1 21437.6 1837.50   4
 -15  20   1 22534.5 1828.60   4
  15   5   4 6011.98 1036.32   3
  -5 -15   4 6081.83 826.261   2
 -20  15   4 9096.14 1031.66   2
   5 -20   4 8281.78 1194.40   3
  -5 -15   4 9435.33 1297.94   3
 -15  20   4 4817.12 706.279   1
 -20  15   4 8000.90 1156.46   4
 -15  20   4 10780.9 1253.16   4
   5 -20   7 13029.4 1707.29   3
 -20  15   7 9417.56 1056.09   4
  16   4  -6 2990.19 1063.46   1
 -20  16  -6 904.037 933.144   2
   4 -20  -6 4111.68 1069.11   3
  20  -4  -6 3073.84 1024.27   1
 -16  20  -6 1045.23 803.051   2
  -4 -16  -6 1611.48 842.695   3
 -20  16  -6 2761.59 1158.71   4
 -16  20  -6 3233.41 1280.82   4
  20  -4  -3 9744.18 1105.10   1
 -20  16  -3 8465.30 1222.12   2
 -16  20  -3 7691.07 1101.20   2
   4 -20  -3 8558.22 1145.54   3
  20  -4  -3 9228.89 1297.63   2
  -4 -16  -3 7311.81 1031.63   3
  16   4  -3 8721.74 1131.88   1
 -20  16  -3 10362.8 1558.20   4
 -16  20  -3 11566.7 1529.47   4
  -4 -16  -3 7405.39 930.579   1
 -20  16   0 9098.79 1112.19   2
  16   4   0 9899.47 1071.84   1
   4 -20   0 14015.7 1267.02   3
 -16  20   0 10499.4 1117.12   2
  -4 -16   0 9037.48 1083.68   3
 -16  20   0 10266.6 883.164   1
  20  -4   0 9938.66 1114.72   1
  -4 -16   0 9645.09 1394.96   1
 -20  16   0 11312.4 1502.90   4
 -16  20   0 13430.5 1531.02   4
 -16  20   3 2605.99 958.760   4
  20  -4   3 1276.15 754.043   1
  16   4   3 3093.99 871.172   1
  16   4   3 2002.62 777.830   3
  20  -4   3 2911.49 506.513   3
   4 -20   3 2744.89 859.800   3
 -20  16   3 1810.55 722.691   2
  -4 -16   3 3094.89 947.278   3
 -16  20   3 3532.59 850.545   2
 -16  20   3 1923.59 704.097   1
 -20  16   3 4373.54 1039.89   4
   4 -20   6 13276.4 1545.32   3
  -4 -16   6 11435.4 1534.23   3
 -20  16   6 11419.1 1182.55   4
  17   3  -7 3056.00 1154.96   1
 -20  17  -7 2309.44 1155.65   2
  20  -3  -7 2679.72 1016.66   1
   3 -20  -7 3838.60 1075.76   3
 -17  20  -7 3039.60 1053.34   2
  -3 -17  -7 2963.79 984.676   3
 -20  17  -7 1969.88 1178.51   4
 -17  20  -7 5447.11 1455.92   4
 -20  17  -4 7498.99 1208.54   2
 -17  20  -4 6898.85 1121.09   2
   3 -20  -4 5623.18 1033.92   3
  -3 -17  -4 3550.77 641.702   1
  -3 -17  -4 7502.33 1049.63   3
  20  -3  -4 4683.70 937.800   2
  17   3  -4 5448.54 1075.48   1
 -20  17  -4 7328.30 1404.23   4
 -17  20  -4 7693.34 1390.27   4
  20  -3  -4 5968.17 1013.19   1
  -3 -17  -1 1050.08 884.708   1
  17   3  -1 2085.29 722.983   1
  20  -3  -1 2263.30 753.793   1
 -20  17  -1 1950.91 801.403   2
   3 -20  -1 1856.29 763.523   3
  -3 -17  -1 1277.67 736.212   3
 -17  20  -1 1412.73 693.719   2
 -20  17  -1 1556.37 1028.19   4
 -17  20  -1 2013.94 1014.44   4
 -17  20   2 2367.72 681.718   1
  20  -3   2 2221.03 574.901   3
   3 -20   2 2270.59 829.215   3
 -20  17   2 1329.80 664.163   2
  -3 -17   2 2682.47 857.392   3
 -17  20   2 1961.23 738.301   2
  20  -3   2 3401.95 895.894   1
  17   3   2 1589.69 798.597   1
 -20  17   2 2125.02 932.159   4
 -17  20   2 2689.84 894.287   4
 -17  20   5 4093.84 1012.91   4
   3 -20   5 2508.59 996.648   3
  -3 -17   5 1911.67 976.554   3
 -20  17   5 2954.81 868.265   4
  18   2  -8 914.211 1097.95   1
  20  -2  -8 1691.26 1144.28   1
 -20  18  -8 2222.92 1213.03   2
 -18  20  -8 1372.66 930.277   2
   2 -20  -8 2236.48 1058.28   3
  -2 -18  -8 907.190 883.666   3
  -2 -18  -8 1367.84 942.530   4
 -20  18  -8 2875.10 1462.17   4
 -18  20  -8 644.843 1226.19   4
 -20  18  -5 10492.2 1418.41   2
 -18  20  -5 13027.5 1480.55   2
   2 -20  -5 10612.4 1333.25   3
  -2 -18  -5 12351.1 1299.85   3
  18   2  -5 10208.4 1391.37   1
  20  -2  -5 12257.2 1424.87   1
 -20  18  -5 15453.0 1876.48   4
 -18  20  -5 13392.8 1838.46   4
  20  -2  -2 1149.85 665.181   1
 -20  18  -2 1922.11 805.666   2
   2 -20  -2 2176.78 822.621   3
 -18  20  -2 3237.34 901.912   2
  -2 -18  -2 3946.98 828.026   3
  18   2  -2 3205.38 821.251   1
 -20  18  -2 4435.16 1219.90   4
  -2 -18  -2 2494.43 875.693   1
 -18  20  -2 3630.47 1211.11   4
 -20  18   1 19341.6 1494.25   2
 -18  20   1 19529.3 1443.05   2
   2 -20   1 17451.4 1391.50   3
  20  -2   1 17337.5 1124.83   3
  -2 -18   1 15480.1 1339.29   3
  18   2   1 18146.0 1449.18   1
 -20  18   1 16902.0 1692.93   4
 -18  20   1 22762.5 1918.71   4
  20  -2   1 17857.1 1465.45   1
 -18  20   4-827.882 770.039   4
  20  -2   4 318.632 354.396   3
  18   2   4 213.915 685.799   3
 -18  20   4-937.045 899.325   1
   2 -20   4-387.906 791.590   3
  -2 -18   4 1088.78 940.206   3
 -20  18   4-401.521 700.854   2
 -20  18   4 640.929 809.670   4
 -20  18   7 3700.92 901.013   4
   2 -20   7 4973.83 1364.66   3
  19   1  -6 3328.29 1110.24   1
 -20  19  -6 2061.79 1082.01   2
  20  -1  -6 3369.36 1081.85   1
 -19  20  -6 3178.57 1098.24   2
   1 -20  -6 3579.81 1006.13   3
  -1 -19  -6 3556.87 1014.04   3
 -20  19  -6 4081.05 1370.84   4
 -19  20  -6 5730.68 1423.57   4
 -20  19  -3 8384.41 1240.66   2
 -19  20  -3 10603.8 1298.70   2
   1 -20  -3 7355.89 1061.56   3
  -1 -19  -3 9189.12 1109.66   3
 -20  19  -3 11226.1 1603.64   4
 -19  20  -3 10510.2 1597.84   4
  19   1  -3 9272.47 1188.69   1
  20  -1  -3 11945.5 1292.88   1
 -20  19   0 9787.53 1175.07   2
 -19  20   0 9163.45 1164.15   2
   1 -20   0 9975.55 1171.41   3
  -1 -19   0 6629.18 993.626   3
  19   1   0 7018.12 1035.24   1
  20  -1   0 8348.56 1116.92   1
  -1 -19   0 7281.24 1342.18   1
 -20  19   0 11468.0 1485.35   4
 -19  20   0 7490.54 1356.84   4
  19   1   3 6546.86 900.282   3
  20  -1   3 8429.66 879.635   3
 -20  19   3 8842.65 1119.52   2
   1 -20   3 8766.16 1228.90   3
  -1 -19   3 11687.3 1356.29   3
 -19  20   3 8315.66 1120.39   2
  19   1   3 7719.28 1233.95   1
  20  -1   3 9240.78 1271.47   1
 -20  19   3 10084.4 1364.34   4
 -19  20   3 10593.2 1364.13   4
 -20  19   6 3330.24 941.248   4
 -19  20   6 3299.43 984.297   4
   1 -20   6 3465.42 1096.16   3
  -1 -19   6 3838.98 1278.48   3
  20   0  -7-322.006 937.801   1
 -20  20  -7-1441.74 983.889   2
   0 -20  -7 14.1270 865.585   3
 -20  20  -7 456.786 1178.87   4
 -20  20  -4 662.801 769.339   2
   0 -20  -4 382.872 734.828   3
  20   0  -4 539.666 790.801   1
 -20  20  -4 2793.60 1163.85   4
 -20  20  -1 246.987 746.684   2
   0 -20  -1-323.772 653.526   3
  20   0  -1 213.365 685.628   1
 -20  20  -1 403.006 978.294   4
  20   0   2 3444.62 994.622   1
 -20  20   2 6308.31 1033.10   2
  20   0   2 4196.40 786.947   3
   0 -20   2 5800.95 1054.30   3
 -20  20   2 6952.66 1258.98   4
 -20  20   5-1210.91 891.582   4
   0 -20   5-869.337 912.147   3
  21 -21  -6 7242.24 1649.73   3
   0  21  -6 6758.72 1639.16   1
  21 -21  -6 2262.22 722.605   1
 -21   0  -6 3703.32 1367.58   4
 -21   0  -6 6667.74 1996.58   2
  21 -21  -3 1007.48 1079.58   3
   0  21  -3-284.114 911.774   1
 -21   0  -3 1747.91 1165.22   4
 -21   0  -3-45.8945 1250.09   2
  21 -21   0 35199.4 1912.94   3
   0  21   0 30772.5 1362.44   1
 -21   0   0 35621.2 2439.80   4
 -21   0   0 39211.4 2519.78   2
 -21   0   3-284.166 658.791   2
  21 -21   3 532.713 604.932   3
 -21   0   3 799.594 1046.02   4
 -21   0   6 17041.6 1744.12   4
  21 -20  -7 4559.60 1391.75   3
  20 -21  -7 2975.44 1462.47   3
  -1  21  -7 1671.40 1396.22   1
   1  20  -7 1150.79 1472.12   1
 -20  -1  -7 2065.97 1468.52   4
 -21   1  -7 3880.32 1548.38   4
  21 -20  -7 944.177 720.890   1
 -20  -1  -7 5012.94 1917.57   2
 -21   1  -7-140.161 1463.65   2
  21 -20  -4 2839.34 1178.09   3
  20 -21  -4 2417.30 1145.86   3
  21 -20  -4 738.090 648.473   1
  -1  21  -4 1451.11 1128.33   1
   1  20  -4-429.661 979.333   1
  20 -21  -4 1135.64 644.727   1
 -20  -1  -4 2726.98 1175.54   4
 -21   1  -4 1394.37 1149.45   4
 -20  -1  -4 4766.48 1661.95   2
 -21   1  -4 2517.99 1408.54   2
  21 -20  -1 1981.94 894.476   3
  20 -21  -1 2721.34 961.764   3
 -20  -1  -1 1823.36 1079.68   4
  -1  21  -1 2482.16 695.911   1
 -21   1  -1 1885.77 1036.59   4
   1  20  -1 1947.16 676.640   1
 -20  -1  -1 3508.85 1214.41   2
 -21   1  -1 2535.16 1176.22   2
 -21   1   2 4518.64 942.285   2
   1  20   2 2006.47 468.991   1
  21 -20   2 2294.43 601.673   3
  20 -21   2 3300.36 731.038   3
 -20  -1   2 3838.14 1140.95   4
 -21   1   2 4724.50 1184.11   4
 -20  -1   2 5119.68 1015.42   2
  -1  21   2 1654.11 274.506   1
  20 -21   5 3895.83 791.708   3
  21 -20   5 2195.71 647.989   3
 -20  -1   5 4024.30 1156.64   4
 -21   1   5 4527.24 1194.01   4
  21 -19  -8 4907.96 1770.52   3
  19 -21  -8 3341.60 1566.40   3
  21 -19  -8 1857.28 786.588   1
  -2  21  -8 3239.25 1712.02   1
   2  19  -8 4580.04 1674.78   1
 -19  -2  -8 3454.21 1408.55   4
 -21   2  -8 5949.04 1594.57   4
 -19  -2  -8 3290.02 1806.44   2
 -21   2  -8 5270.46 1850.64   2
  21 -19  -5 396.926 1169.04   3
  19 -21  -5 4614.70 1335.30   3
  19 -21  -5 1311.42 620.999   1
  -2  21  -5 3785.07 1332.35   1
  21 -19  -5 1755.55 720.090   1
   2  19  -5 1913.31 1174.47   1
 -19  -2  -5 2462.58 1195.46   4
 -21   2  -5 3080.80 1319.66   4
 -19  -2  -5 1426.96 1419.09   2
 -21   2  -5 1868.86 1474.50   2
  -2  21  -2 5081.76 1050.59   1
  21 -19  -2 7133.07 1350.01   3
  19 -21  -2 7806.93 1268.45   3
   2  19  -2 5780.53 984.081   1
  21 -19  -2 4302.40 872.976   1
 -21   2  -2 5965.95 1410.32   4
 -19  -2  -2 8502.76 1697.95   2
 -19  -2  -2 4482.64 1260.48   4
 -21   2  -2 7513.20 1520.01   2
  19 -21   1 4703.32 831.676   3
  21 -19   1 2414.76 671.428   3
 -19  -2   1 6383.71 1228.20   4
 -21   2   1 3540.57 1051.16   4
 -19  -2   1 6138.57 1241.35   2
  -2  21   1 3157.34 469.832   1
   2  19   1 3114.26 620.432   1
 -21   2   1 7254.64 1172.26   2
 -19  -2   4 139.763 449.827   2
 -21   2   4 766.842 551.780   2
  21 -19   4 170.513 525.252   3
  19 -21   4 789.784 677.744   3
 -19  -2   4 888.366 924.833   4
 -21   2   4 1463.22 991.229   4
 -21   2   7 3690.64 1081.25   4
 -19  -2   7 3857.24 1083.84   4
  21 -18  -6 23430.4 2336.50   3
   3  18  -6 20319.3 2142.34   1
  18 -21  -6 19528.3 2051.53   3
  21 -18  -6 15382.7 1272.23   1
 -18  -3  -6 11539.4 845.417   3
 -18  -3  -6 17264.6 1914.37   4
 -18  -3  -6 19854.5 2462.98   2
 -21   3  -6 20099.0 2439.36   2
  -3  21  -6 15549.9 2146.56   1
 -21   3  -6 16988.0 2103.67   4
  18 -21  -6 13290.2 935.522   1
  21 -18  -3 1204.91 713.690   1
  21 -18  -3 1577.32 1175.01   3
  18 -21  -3 1822.81 1004.78   3
  -3  21  -3 1665.02 996.281   1
 -18  -3  -3 2120.38 684.351   3
   3  18  -3 1949.55 897.678   1
 -18  -3  -3 2157.54 1060.31   4
 -21   3  -3 1934.30 1131.79   4
 -18  -3  -3 2108.39 1207.14   2
 -21   3  -3 3362.83 1310.72   2
  21 -18   0 42892.3 2011.65   3
  18 -21   0 39153.6 1945.78   3
  -3  21   0 38996.3 1412.20   1
 -18  -3   0 38903.4 2373.77   4
 -21   3   0 36273.1 2394.65   4
   3  18   0 37166.2 1544.94   1
 -18  -3   0 43975.6 2668.67   2
 -21   3   0 38856.4 2304.18   2
 -18  -3   3 1643.77 686.332   2
 -18  -3   3 1384.75 942.479   4
 -21   3   3 889.604 609.083   2
  21 -18   3-216.861 487.450   3
  18 -21   3 641.907 622.245   3
 -21   3   3 1653.21 975.296   4
  18 -21   6 14920.6 1258.65   3
 -18  -3   6 19372.6 1700.29   4
 -21   3   6 17942.2 1622.16   4
  21 -17  -7 2312.41 790.454   1
  21 -17  -7 1230.87 1307.72   3
  -4  21  -7 1174.89 1401.37   1
  17 -21  -7 1532.93 1197.10   3
   4  17  -7 1375.38 1414.46   1
  -4  21  -7 1220.33 643.741   2
 -17  -4  -7 1889.22 1195.04   4
 -21   4  -7 1382.24 1210.58   4
 -17  -4  -7 3559.60 1742.70   2
 -21   4  -7 3662.67 1527.57   2
 -17  -4  -4 1995.59 1271.50   2
  21 -17  -4 190.141 1011.83   3
  -4  21  -4 4297.36 1246.47   1
  17 -21  -4 2116.82 1022.39   3
  21 -17  -4 1708.93 742.149   1
 -17  -4  -4 1916.11 676.779   3
   4  17  -4 3788.10 1045.76   1
 -17  -4  -4 3288.95 1064.57   4
 -21   4  -4 3053.28 1168.39   4
 -21   4  -4 2756.56 1303.47   2
  -4  21  -1 5060.94 880.151   1
  21 -17  -1 6862.01 1225.34   3
  17 -21  -1 6024.97 1075.70   3
   4  17  -1 6884.45 901.976   1
 -17  -4  -1 6672.99 1219.30   4
  21 -17  -1 5533.87 949.735   1
 -21   4  -1 5853.82 1259.58   4
 -17  -4  -1 6958.34 1485.17   2
 -21   4  -1 8537.21 1410.93   2
   4  17   2 1700.69 572.814   1
 -21   4   2 2908.58 799.045   2
  21 -17   2 2855.78 600.162   3
  17 -21   2 3539.25 747.194   3
 -17  -4   2 3640.67 1078.01   4
 -21   4   2 5290.76 1158.85   4
 -17  -4   2 3798.60 951.762   2
 -21   4   5 6245.92 668.032   2
  17 -21   5 5142.57 961.781   3
 -17  -4   5 8512.54 1310.54   4
 -21   4   5 7543.43 1212.03   4
  21 -16  -8 7170.98 1891.19   3
  -5  21  -8 5474.90 1777.65   1
  16 -21  -8 5934.33 1480.78   3
   5  16  -8 7777.27 1862.02   1
  -5  21  -8 4485.70 910.005   2
 -16  -5  -8 5853.19 1438.61   4
  21 -16  -8 4285.08 997.852   1
 -21   5  -8 5960.21 1605.40   4
 -16  -5  -8 4163.85 1791.95   2
 -21   5  -8 3940.09 1761.92   2
  21 -16  -5 637.361 1158.20   3
  -5  21  -5 205.294 1226.40   1
  16 -21  -5 520.153 1058.31   3
 -16  -5  -5-342.401 574.219   3
  21 -16  -5 1578.05 811.199   1
   5  16  -5 1863.14 1090.16   1
  -5  21  -5-307.898 673.850   2
 -16  -5  -5-451.497 868.323   4
 -21   5  -5 1083.33 1167.60   4
 -16  -5  -5 3916.16 1707.67   2
 -21   5  -5 224.985 1082.47   2
  21 -16  -2 9005.01 1388.44   3
  16 -21  -2 6110.80 1136.85   3
  21 -16  -2 9263.19 1090.53   1
   5  16  -2 6432.99 993.199   1
 -16  -5  -2 7163.93 966.084   3
 -16  -5  -2 7969.06 1585.53   2
 -16  -5  -2 7435.07 1230.19   4
 -21   5  -2 9186.92 1509.03   4
 -21   5  -2 7199.17 1340.53   2
  -5  21  -2 6657.74 1140.21   1
   5  16   1 226.191 511.619   1
  -5  21   1 419.223 280.985   1
 -21   5   1 648.314 741.274   2
  21 -16   1 1036.15 612.449   3
  16 -21   1 1211.86 638.933   3
 -16  -5   1-695.371 806.826   4
 -21   5   1 1331.62 980.709   4
 -16  -5   1 259.041 920.167   2
 -21   5   4 7314.08 858.046   2
  16 -21   4 6099.85 922.896   3
  21 -16   4 6304.31 482.057   3
 -21   5   4 8476.50 1321.10   4
 -16  -5   4 6463.38 646.571   2
 -16  -5   7 570.798 854.929   4
 -21   5   7 522.574 852.475   4
  21 -15  -6 38129.5 2842.64   3
  21 -15  -6 32327.3 1818.77   1
  15 -21  -6 37285.9 2544.20   3
   6  15  -6 36376.9 2695.65   1
 -15  -6  -6 29633.8 1551.54   3
  -6  21  -6 29071.7 1701.03   2
 -15  -6  -6 33180.3 2365.60   4
 -15  -6  -6 35192.7 3053.99   2
 -21   6  -6 34894.9 2716.74   4
  -6  21  -6 31880.0 2863.66   1
 -21   6  -6 30491.2 2752.15   2
 -21   6  -3 6084.89 1352.78   2
  21 -15  -3 8261.09 1413.11   3
  15 -21  -3 8756.20 1260.98   3
   6  15  -3 6822.35 1101.12   1
 -15  -6  -3 7370.37 916.242   3
  -6  21  -3 6375.06 977.451   2
 -15  -6  -3 7174.43 1266.02   4
 -15  -6  -3 8834.52 1740.19   2
  21 -15  -3 8465.11 1082.14   1
 -21   6  -3 6983.67 1433.25   4
  -6  21  -3 6929.61 1325.24   1
  -6  21   0 5856.25 745.557   1
  21 -15   0 5516.70 1024.75   3
  21 -15   0 5550.33 1003.60   1
  15 -21   0 4556.57 858.687   3
 -15  -6   0 6072.72 1013.56   3
 -15  -6   0 5595.76 1115.95   4
 -21   6   0 5515.28 1266.57   4
 -15  -6   0 6021.71 1353.42   2
   6  15   0 5454.90 765.184   1
 -21   6   0 6686.66 1131.13   2
  21 -15   3 2851.70 483.301   3
 -21   6   3 2048.96 673.722   2
  15 -21   3 3050.03 745.423   3
   6  15   3 2031.55 639.751   1
 -15  -6   3 4461.97 1093.45   4
 -21   6   3 3344.98 1038.86   4
 -15  -6   3 2901.86 819.161   2
  15 -21   6 592.683 856.650   3
 -15  -6   6 3016.09 1011.81   4
 -21   6   6 942.976 862.320   4
 -21   7  -7 4177.95 1589.79   2
  -7  21  -7 7652.02 1923.85   1
  21 -14  -7 5565.14 1761.04   3
  14 -21  -7 5491.35 1404.91   3
  -7  21  -7 5638.27 996.314   2
 -14  -7  -7 3702.89 823.431   3
   7  14  -7 5344.11 1526.05   1
 -14  -7  -7 6178.74 1342.77   4
  21 -14  -7 2590.56 857.460   1
 -14  -7  -7 5805.26 1703.08   2
 -21   7  -7 5598.93 1438.87   4
  -7  21  -4 4384.40 1352.06   1
 -21   7  -4 2090.36 1192.29   2
  21 -14  -4 1587.59 1241.17   3
 -14  -7  -4 1952.47 952.117   4
  14 -21  -4 1368.30 896.705   3
 -14  -7  -4 2680.70 736.330   3
  -7  21  -4 3284.42 827.565   2
  21 -14  -4 2071.30 798.665   1
   7  14  -4 3638.02 1058.67   1
 -14  -7  -4 4491.52 1488.29   2
 -21   7  -4 3050.77 1135.87   4
  21 -14  -1 8270.09 1236.27   3
 -21   7  -1 4896.89 1142.84   2
  14 -21  -1 4770.98 1007.68   3
   7  14  -1 2918.30 716.531   1
  21 -14  -1 5148.17 972.965   1
 -14  -7  -1 5004.89 914.257   3
 -14  -7  -1 4265.82 1049.64   4
 -21   7  -1 9011.80 1409.14   4
 -14  -7  -1 5678.02 1385.01   2
  -7  21  -1 6042.43 1002.08   1
 -21   7   2 7079.39 923.115   2
  21 -14   2 6583.68 692.530   3
  14 -21   2 5849.97 856.489   3
   7  14   2 6576.80 858.450   1
 -14  -7   2 8044.95 1288.93   4
 -14  -7   2 6175.87 1161.84   2
 -21   7   2 4299.93 1072.07   4
 -21   7   5 3135.96 702.552   2
  14 -21   5 2386.48 801.548   3
 -14  -7   5 6580.29 1211.73   4
 -21   7   5 5066.65 1063.39   4
 -14  -7   8 7840.37 1222.20   4
 -21   8  -8 9296.99 1722.58   4
 -21   8  -8 7200.59 1770.04   2
  21 -13  -8 11069.0 2204.58   3
  13 -21  -8 8427.94 1577.53   3
   8  13  -8 10486.2 1825.47   1
  -8  21  -8 7712.76 1124.53   2
 -13  -8  -8 5834.38 987.277   3
  -8  21  -8 12833.0 2309.35   1
 -13  -8  -8 6092.69 1344.66   4
 -13  -8  -8 7097.71 1966.97   2
  21 -13  -8 7097.87 1192.72   1
 -21   8  -5-298.418 1186.77   2
  21 -13  -5 1142.78 773.452   1
  21 -13  -5 1149.15 1174.02   3
  13 -21  -5 1589.78 960.684   3
 -13  -8  -5-123.339 607.979   3
  -8  21  -5-202.564 616.650   2
   8  13  -5 2157.19 1039.52   1
 -13  -8  -5 1439.37 993.818   4
 -13  -8  -5-201.994 1191.35   2
 -21   8  -5 2973.88 1236.68   4
  -8  21  -5 1721.01 1390.56   1
  21 -13  -2 36037.8 2240.35   3
  13 -21  -2 27944.2 1810.48   3
 -13  -8  -2 27197.5 1537.24   3
  -8  21  -2 28156.7 1697.61   2
   8  13  -2 28605.1 1663.56   1
 -13  -8  -2 26314.1 1899.62   4
 -13  -8  -2 33190.6 2578.19   2
  -8  21  -2 30747.2 2063.56   1
 -21   8  -2 32660.4 2334.93   4
  21 -13  -2 32910.8 1779.11   1
 -21   8  -2 29455.0 2090.81   2
  -8  21   1 4984.95 454.797   1
 -21   8   1 7295.18 1033.62   2
  21 -13   1 5883.74 924.880   3
   8  13   1 6277.58 849.742   1
  13 -21   1 5116.56 829.939   3
 -13  -8   1 7157.84 1332.74   2
 -13  -8   1 4210.64 985.878   3
 -13  -8   1 6815.86 1179.00   4
 -21   8   1 4874.84 1124.51   4
  -8  21   1 3289.15 333.424   1
 -21   8   4 10016.5 979.260   2
 -13  -8   4 7866.73 545.607   2
  13 -21   4 9577.12 1113.01   3
 -13  -8   4 10554.6 1357.69   4
 -13  -8   4 9817.95 889.717   2
 -21   8   4 12104.2 1383.82   4
  13 -21   7 768.579 1025.87   3
 -13  -8   7 671.219 923.389   4
 -21   8   7 974.192 777.670   4
 -21   9  -9 4069.45 1606.88   2
  12 -21  -9 3330.10 1391.68   3
  21 -12  -9 2400.59 1097.93   1
  -9  21  -9 1619.70 850.695   2
 -12  -9  -9 2965.92 1274.70   4
 -12  -9  -9 3546.97 1839.20   2
 -21   9  -9 3075.76 1535.81   4
  12 -21  -6 5708.22 1227.61   3
  -9  21  -6 6136.20 968.777   2
 -12  -9  -6 6386.12 966.323   3
   9  12  -6 3712.16 1227.69   1
  -9  21  -6 11753.7 2030.43   1
 -12  -9  -6 5057.63 1114.23   4
  21 -12  -6 5770.09 984.906   1
 -12  -9  -6 7543.42 1808.51   2
 -21   9  -6 9258.30 1601.17   4
 -21   9  -6 8290.83 1594.51   2
  -9  21  -6 7909.69 1340.43   4
  21 -12  -3 11963.6 1534.98   3
  12 -21  -3 8479.61 1244.15   3
 -12  -9  -3 10336.8 1054.70   3
  -9  21  -3 7951.20 1036.26   2
  21 -12  -3 9388.48 1075.57   1
   9  12  -3 8894.66 1141.93   1
 -12  -9  -3 9358.95 1275.82   4
 -12  -9  -3 9847.37 1652.49   2
  -9  21  -3 11528.3 1641.25   1
 -21   9  -3 10384.7 1551.29   4
 -21   9  -3 8349.72 1435.71   2
  -9  21  -3 11222.3 1433.45   4
 -21   9   0 9648.16 1225.79   2
  21 -12   0 13932.6 1335.75   3
  12 -21   0 11796.2 1128.92   3
  21 -12   0 10691.4 1136.54   1
 -12  -9   0 11185.3 1214.13   3
 -12  -9   0 12794.0 1399.78   4
 -12  -9   0 13001.3 1673.52   2
  -9  21   0 13860.8 1097.96   1
 -21   9   0 10963.9 1476.39   4
   9  12   0 9480.07 984.722   1
 -21   9   3 8155.83 963.530   2
  21 -12   3 4754.84 399.881   3
   9  12   3 8947.75 1071.94   1
  12 -21   3 7276.07 1045.49   3
  21 -12   3 5709.09 406.130   3
 -12  -9   3 6803.99 1193.84   3
 -12  -9   3 9514.64 1202.58   2
 -21   9   3 8391.59 1235.74   4
  12 -21   6 3643.03 1032.40   3
 -21   9   6 4364.12 1008.84   4
 -10  21  -7 4304.06 1206.53   4
 -21  10  -7 7305.12 1634.78   2
  11 -21  -7 5616.76 1347.43   3
 -11 -10  -7 4760.81 932.827   3
 -10  21  -7 4853.26 946.083   2
  21 -11  -7 4090.16 1003.65   1
  10  11  -7 4397.75 1383.49   1
 -11 -10  -7 4277.29 1204.25   4
 -11 -10  -7 3726.28 1504.96   2
 -21  10  -7 6414.79 1586.03   4
 -10  21  -7 5247.14 1854.20   1
  11 -21  -4 12508.6 1430.71   3
  21 -11  -4 10661.6 1132.09   1
 -10  21  -4 11644.7 1185.19   2
 -11 -10  -4 9504.40 1033.61   3
  10  11  -4 11993.8 1362.01   1
 -11 -10  -4 10313.2 1375.38   4
 -11 -10  -4 14018.8 1941.81   2
 -10  21  -4 15447.1 1939.23   1
 -21  10  -4 11029.0 1566.35   4
 -21  10  -4 11631.8 1620.06   2
 -10  21  -4 13508.7 1575.09   4
  21 -11  -1 10191.4 1283.39   3
  11 -21  -1 5783.71 964.490   3
 -11 -10  -1 6614.24 936.563   3
 -10  21  -1 6492.86 923.017   2
 -11 -10  -1 7156.53 1442.43   2
 -10  21  -1 7436.96 1141.26   1
 -21  10  -1 7478.15 1345.33   4
  10  11  -1 6996.82 955.519   1
  21 -11  -1 6285.52 939.105   1
 -10  21  -1 6874.60 1235.06   4
 -21  10  -1 7088.45 1205.11   2
  21 -11   2 29457.1 1240.74   3
 -21  10   2 23697.2 1484.78   2
  11 -21   2 24027.9 1451.19   3
 -11 -10   2 23965.5 1740.04   3
 -11 -10   2 29690.2 1971.10   2
  10  11   2 22279.3 1423.13   1
 -21  10   2 24909.6 1905.21   4
 -11 -10   5 587.001 248.200   2
  11 -21   5 666.545 819.565   3
 -21  10   5 2601.54 722.491   2
 -11 -10   5 2718.19 400.331   2
 -21  10   5 2236.92 927.428   4
 -11 -10   8 13081.9 1491.24   4
  10 -21  -8 15450.6 1794.21   3
 -11  21  -8 14592.8 1446.01   2
  11  10  -8 12604.1 1891.54   1
 -10 -11  -8 11938.2 1247.28   3
 -10 -11  -8 18967.7 2492.34   2
 -10 -11  -8 12539.7 1615.89   4
 -11  21  -8 18726.1 2821.97   1
  21 -10  -8 15441.4 1564.04   1
 -21  11  -8 17926.0 2167.80   4
 -21  11  -8 13144.1 2032.68   2
 -11  21  -8 16116.6 1835.63   4
 -11  21  -5 3695.80 1146.26   4
 -21  11  -5 1731.21 1144.55   2
  10 -21  -5 1402.69 984.509   3
 -10 -11  -5 2406.53 750.974   3
 -11  21  -5 2439.58 822.160   2
 -10 -11  -5 749.435 806.470   4
 -10 -11  -5 3128.91 1368.80   2
  21 -10  -5 2067.82 834.158   1
 -11  21  -5 2927.78 1386.84   1
  11  10  -5 1277.42 893.683   1
 -21  11  -5 2965.03 1186.55   4
  10 -21  -2 20242.8 1535.83   3
 -11  21  -2 21279.4 1517.12   2
 -10 -11  -2 21590.8 1407.11   3
  21 -10  -2 22702.0 1507.70   1
 -10 -11  -2 27727.2 2302.63   2
 -11  21  -2 25781.9 1967.21   1
  11  10  -2 22550.4 1511.96   1
 -21  11  -2 23748.1 2050.36   4
 -11  21  -2 26284.8 2022.39   4
 -21  11  -2 25754.9 1940.46   2
  21 -10   1 8298.81 1066.45   3
 -21  11   1 5719.85 904.979   2
  10 -21   1 5425.32 912.836   3
 -11  21   1 5283.58 476.197   1
  11  10   1 4963.90 822.836   1
 -10 -11   1 7106.12 1036.23   3
 -11  21   1 6637.60 785.545   1
  21 -10   1 6157.24 966.833   1
 -21  11   1 6453.70 1228.96   4
 -10 -11   4 9134.98 702.883   2
 -21  11   4 11190.7 1082.08   2
  10 -21   4 10572.0 1216.86   3
 -10 -11   4 11251.7 1380.21   3
 -10 -11   4 13146.4 1217.18   2
 -21  11   4 14066.6 1442.63   4
  10 -21   7 5792.60 1203.98   3
 -21  11   7 4474.29 877.059   4
 -12  21  -9 6411.39 1455.19   4
 -21  12  -9 2574.87 1582.52   2
  12   9  -9 4703.37 1602.90   1
   9 -21  -9 4647.48 1410.30   3
  21  -9  -9 2622.36 1107.04   1
  -9 -12  -9 4226.75 1085.20   3
 -12  21  -9 3492.21 1034.69   2
  -9 -12  -9 3078.64 1171.15   4
  -9 -12  -9 5831.46 2114.43   2
 -21  12  -9 2871.64 1496.11   4
 -12  21  -9 3755.07 2072.97   1
 -12  21  -6 3391.86 1139.23   4
 -21  12  -6 4967.85 1383.66   2
   9 -21  -6 6029.74 1284.40   3
  -9 -12  -6 4359.54 861.427   3
 -12  21  -6 3615.63 861.295   2
  21  -9  -6 3064.91 942.466   1
  -9 -12  -6 3021.42 1032.35   4
  -9 -12  -6 4788.07 1557.03   2
 -12  21  -6 3050.30 1623.45   1
  12   9  -6 5592.41 1253.13   1
 -21  12  -6 5319.14 1413.73   4
   9 -21  -3 8427.68 1255.53   3
  21  -9  -3 7413.22 995.002   1
 -12  21  -3 7353.88 1048.87   2
  -9 -12  -3 8815.62 1039.46   3
  12   9  -3 8086.00 1095.09   1
 -21  12  -3 9298.89 1553.40   4
 -12  21  -3 8872.58 1373.07   4
 -21  12  -3 9128.32 1384.20   2
 -12  21   0 9348.51 753.846   1
  21  -9   0 6589.45 933.515   1
 -21  12   0 10202.6 1185.56   2
  12   9   0 8508.47 979.059   1
   9 -21   0 9157.02 1035.74   3
  -9 -12   0 9719.93 1108.91   3
 -12  21   0 9055.21 1057.18   2
 -21  12   0 8759.68 1388.21   4
 -12  21   0 11644.4 1507.02   4
 -21  12   3 8909.26 998.857   2
  21  -9   3 5310.26 355.381   3
  12   9   3 7885.67 1124.36   1
   9 -21   3 9365.87 1104.48   3
  -9 -12   3 7336.46 744.841   2
  -9 -12   3 9750.35 1268.04   3
 -21  12   3 9117.47 1281.89   4
   9 -21   6 7410.57 1310.37   3
 -21  12   6 5443.32 973.025   4
 -13  21  -7-96.1726 998.310   4
 -21  13  -7 1529.38 1205.91   2
   8 -21  -7-601.946 915.361   3
 -13  21  -7 2820.08 1826.50   1
  -8 -13  -7 1657.26 796.808   3
 -13  21  -7 602.784 815.901   2
  21  -8  -7 1806.41 960.848   1
  -8 -13  -7 1533.00 893.924   4
  -8 -13  -7 403.295 1282.69   2
  13   8  -7 648.954 1033.44   1
 -21  13  -7 275.902 1098.91   4
  21  -8  -4 7488.49 1044.13   1
   8 -21  -4 7272.83 1200.41   3
 -13  21  -4 8400.37 1137.84   2
  -8 -13  -4 6015.32 933.005   3
  13   8  -4 8837.76 1255.16   1
 -21  13  -4 9421.40 1542.06   4
  21  -8  -4 5985.99 1260.05   2
 -13  21  -4 8799.84 1391.37   4
 -21  13  -4 10171.2 1485.34   2
 -21  13  -1 5009.93 1070.11   2
   8 -21  -1 5765.92 1047.72   3
 -13  21  -1 5710.72 945.449   2
  -8 -13  -1 4450.51 861.506   3
 -13  21  -1 4977.39 729.509   1
  21  -8  -1 4992.16 927.627   1
 -21  13  -1 4940.89 1241.61   4
  13   8  -1 6230.95 901.977   1
 -13  21  -1 7816.52 1306.58   4
  21  -8   2 41526.3 1674.80   3
  21  -8   2 24765.6 1718.72   1
 -21  13   2 34372.4 1780.53   2
  13   8   2 27750.6 1671.12   1
   8 -21   2 31259.3 1754.44   3
  21  -8   2 31694.7 1100.82   3
  -8 -13   2 33705.2 1975.48   3
 -13  21   2 26297.2 970.762   1
 -21  13   2 32561.8 2134.13   4
 -13  21   2 35770.1 2205.26   4
   8 -21   5 185.660 824.111   3
 -21  13   5 611.690 690.303   2
 -21  13   5 1093.69 825.115   4
 -14  21  -8 6634.48 1229.31   2
   7 -21  -8 6976.47 1411.80   3
  -7 -14  -8 7552.29 1201.74   3
  -7 -14  -8 11340.5 2162.25   2
  -7 -14  -8 6202.54 1309.32   4
  21  -7  -8 6697.33 1342.60   1
 -14  21  -8 11539.6 2521.82   1
  14   7  -8 6296.25 1553.60   1
 -21  14  -8 11885.2 1882.53   4
 -14  21  -8 12184.0 1804.41   4
 -21  14  -8 8723.37 1791.18   2
 -21  14  -5 6921.85 1340.00   2
   7 -21  -5 4583.32 1128.17   3
  -7 -14  -5 5780.65 955.896   3
 -14  21  -5 4007.59 929.574   2
  14   7  -5 7029.51 1231.47   1
  -7 -14  -5 4413.98 1137.97   4
 -21  14  -5 3711.22 1313.94   4
  21  -7  -5 4940.38 1042.83   1
 -14  21  -5 6450.37 1366.60   4
 -21  14  -2 7081.86 1139.95   2
   7 -21  -2 6903.99 1050.96   3
 -14  21  -2 5968.52 960.548   2
  21  -7  -2 5429.28 922.179   1
  -7 -14  -2 6937.89 929.955   3
  -7 -14  -2 5213.75 1050.73   1
  14   7  -2 5692.11 943.051   1
 -21  14  -2 5141.19 1246.69   4
 -14  21  -2 9496.37 1395.60   4
 -14  21   1 4238.34 561.862   1
 -21  14   1 5869.90 977.863   2
  21  -7   1 5957.61 1017.65   1
   7 -21   1 5838.85 959.267   3
  -7 -14   1 6456.73 1034.17   3
  21  -7   1 4578.08 686.466   3
 -14  21   1 4945.31 904.272   2
  14   7   1 5222.85 877.052   1
 -21  14   1 4806.47 1202.56   4
 -14  21   1 8322.37 1333.25   4
  -7 -14   4 2182.07 636.085   2
   7 -21   4 2035.74 882.422   3
 -21  14   4 2127.53 763.974   2
  -7 -14   4 1849.17 926.274   3
 -14  21   4 933.060 318.457   1
   7 -21   7 5752.38 1330.25   3
 -21  14   7 5886.64 941.758   4
 -21  15  -6 1025.66 985.198   2
   6 -21  -6 908.226 841.404   3
  -6 -15  -6-561.445 753.117   3
 -15  21  -6 447.231 800.215   2
  21  -6  -6 66.9368 816.452   1
  -6 -15  -6-296.087 853.442   4
 -21  15  -6-1472.25 1128.43   4
  15   6  -6-362.660 954.801   1
 -15  21  -6 964.996 1052.99   4
  21  -6  -3 2167.39 801.355   1
 -21  15  -3 1994.53 948.894   2
   6 -21  -3 2911.98 858.455   3
  15   6  -3 2603.67 885.845   1
  -6 -15  -3 2355.30 760.933   3
 -15  21  -3 1738.09 839.101   2
  -6 -15  -3 1752.15 822.116   1
 -21  15  -3 4409.11 1247.64   4
 -15  21  -3 4263.34 1209.38   4
 -15  21   0 5307.01 1158.82   4
 -15  21   0 2711.98 603.589   1
  15   6   0 4846.17 880.965   1
   6 -21   0 6067.84 971.036   3
 -21  15   0 4334.37 925.686   2
  -6 -15   0 4576.57 873.172   3
  21  -6   0 3425.92 844.408   1
 -15  21   0 4170.64 872.891   2
 -21  15   0 3437.15 1119.02   4
 -15  21   3 4970.09 679.326   1
  21  -6   3 5779.04 501.845   3
 -21  15   3 5135.97 919.566   2
   6 -21   3 6144.26 1040.59   3
  -6 -15   3 6238.89 1099.90   3
  15   6   3 5295.71 1052.81   1
 -21  15   3 8072.75 1218.15   4
 -15  21   3 8448.62 1283.22   4
   6 -21   6 35492.9 2314.00   3
 -21  15   6 33688.6 1867.88   4
 -21  16  -7 47.2914 1084.54   2
   5 -21  -7 1598.86 997.906   3
  21  -5  -7-508.962 936.970   1
 -16  21  -7 532.862 853.307   2
  -5 -16  -7 573.154 781.135   3
  -5 -16  -7 472.949 919.240   4
 -21  16  -7 1705.39 1273.88   4
  16   5  -7-661.696 1062.11   1
 -16  21  -7 377.319 1077.97   4
 -21  16  -4 6623.80 1255.91   2
 -16  21  -4 7732.47 1146.32   2
   5 -21  -4 5821.60 1075.54   3
  -5 -16  -4 7367.73 1045.86   3
  -5 -16  -4 4238.91 823.862   1
  16   5  -4 9016.26 1235.77   1
  21  -5  -4 5549.35 1167.73   2
  21  -5  -4 5664.99 964.201   1
 -21  16  -4 11710.7 1660.41   4
 -16  21  -4 8452.39 1509.32   4
  -5 -16  -1 112.915 893.548   1
 -21  16  -1 446.270 751.350   2
   5 -21  -1 987.118 706.018   3
  -5 -16  -1 777.827 698.811   3
 -16  21  -1 409.918 708.202   2
  21  -5  -1-955.947 680.606   1
 -21  16  -1 2640.09 1093.45   4
  16   5  -1 897.799 661.255   1
 -16  21  -1 420.142 895.038   4
 -21  16   2 6965.21 975.471   2
  21  -5   2 7186.92 689.296   3
  -5 -16   2 7951.66 1169.15   3
 -16  21   2 5965.31 1014.33   2
   5 -21   2 5895.75 975.861   3
 -16  21   2 5460.76 728.357   1
  21  -5   2 6749.19 1081.49   1
 -21  16   2 8241.82 1332.54   4
 -16  21   2 6919.64 1215.28   4
  16   5   2 6606.63 1048.36   1
   5 -21   5-475.965 887.144   3
 -21  16   5 339.766 767.844   2
  -5 -16   5-1097.11 1013.41   3
 -21  16   5-41.7616 798.002   4
 -21  17  -8 1510.78 1144.09   2
  21  -4  -8 89.6584 953.922   1
   4 -21  -8 1563.41 1156.27   3
 -17  21  -8 1559.10 978.461   2
  -4 -17  -8 321.190 922.890   3
  -4 -17  -8 1324.02 950.898   4
  -4 -17  -8 2405.57 1566.94   2
 -21  17  -8 3460.15 1418.81   4
  17   4  -8 1692.21 1135.45   1
 -17  21  -8 4705.85 1524.11   4
 -21  17  -5 8389.97 1511.81   2
 -17  21  -5 6464.20 1184.22   2
  17   4  -5 6580.89 1186.24   1
   4 -21  -5 6972.38 1185.83   3
  -4 -17  -5 6545.40 1153.02   3
 -21  17  -5 9588.92 1695.94   4
  21  -4  -5 5525.50 1096.48   1
 -17  21  -5 6031.65 1421.25   4
  -4 -17  -2 4156.15 981.768   1
 -17  21  -2 3593.00 991.214   2
 -21  17  -2 4491.26 989.001   2
  21  -4  -2 3092.25 875.659   1
   4 -21  -2 4055.27 948.034   3
  -4 -17  -2 1885.14 802.088   3
  17   4  -2 3781.45 851.465   1
 -21  17  -2 1643.36 1067.20   4
 -17  21  -2 4521.13 1204.67   4
  17   4   1 3995.16 914.296   1
 -21  17   1 6386.53 1028.56   2
   4 -21   1 4654.03 975.142   3
  21  -4   1 4782.05 744.658   3
  -4 -17   1 6558.30 1019.77   3
 -17  21   1 3848.48 876.392   2
 -17  21   1 3760.69 690.516   1
 -21  17   1 6243.28 1228.43   4
  21  -4   1 4114.69 845.368   1
 -17  21   1 5700.03 1195.33   4
 -17  21   4 3973.07 1044.75   4
 -17  21   4 2537.05 803.539   1
   4 -21   4 2590.57 959.473   3
 -21  17   4 3638.33 906.929   2
  -4 -17   4 3567.63 1019.03   3
 -21  17   4 1931.23 927.173   4
 -21  17   7 2125.24 849.114   4
   4 -21   7 1286.60 1087.85   3
 -21  18  -6 13226.7 1658.26   2
 -18  21  -6 16285.2 1628.72   2
   3 -21  -6 16124.9 1622.44   3
  -3 -18  -6 12920.5 1386.33   3
  18   3  -6 13399.6 1630.28   1
  21  -3  -6 14276.2 1579.18   1
 -21  18  -6 16860.1 2012.14   4
 -18  21  -6 17821.9 2131.60   4
  -3 -18  -3 62.5801 679.597   1
 -21  18  -3 832.481 890.891   2
   3 -21  -3 301.160 711.446   3
 -18  21  -3 1866.17 842.831   2
  -3 -18  -3 544.772 660.922   3
  18   3  -3 1252.98 715.307   1
 -21  18  -3 2234.71 1199.54   4
  21  -3  -3 664.611 686.525   1
 -18  21  -3 1617.65 1094.31   4
 -21  18   0 39655.5 2109.77   2
   3 -21   0 35148.9 1900.89   3
 -18  21   0 38978.3 2044.05   2
  -3 -18   0 37967.2 1987.52   3
  18   3   0 35861.8 1921.62   1
  21  -3   0 37880.9 1962.90   1
  -3 -18   0 28391.8 2046.50   1
 -21  18   0 44567.1 2647.71   4
 -18  21   0 44549.4 2607.01   4
 -18  21   3 508.096 834.265   4
  18   3   3 1107.81 910.629   1
  21  -3   3 991.702 579.943   3
   3 -21   3 890.963 806.663   3
 -21  18   3 562.591 733.594   2
  -3 -18   3 1003.65 819.317   3
 -18  21   3 332.116 744.954   2
 -18  21   3-382.388 779.425   1
  21  -3   3 1338.85 880.826   1
 -21  18   3 1200.46 878.607   4
   3 -21   6 18608.2 1859.96   3
  -3 -18   6 18897.0 1925.85   3
 -21  18   6 16238.3 1437.28   4
  19   2  -7 2549.63 1220.51   1
 -21  19  -7 4335.77 1276.20   2
  21  -2  -7 2299.60 1068.15   1
 -19  21  -7 5092.28 1223.78   2
   2 -21  -7 4300.61 1148.60   3
  -2 -19  -7 4187.63 1135.67   3
 -21  19  -7 1985.46 1261.54   4
 -19  21  -7 6268.08 1520.60   4
 -21  19  -4-535.423 820.404   2
   2 -21  -4-12.9098 808.554   3
 -19  21  -4 396.755 789.205   2
  -2 -19  -4-268.738 775.713   3
  19   2  -4 748.049 780.872   1
  21  -2  -4 594.852 747.134   1
 -21  19  -4 1931.52 1013.29   4
 -19  21  -4 523.322 993.004   4
 -21  19  -1 7108.02 1129.67   2
 -19  21  -1 6403.70 1084.26   2
  19   2  -1 3991.29 881.431   1
   2 -21  -1 4316.42 903.904   3
  -2 -19  -1 3261.65 883.900   3
  21  -2  -1 4005.39 917.406   1
  -2 -19  -1 4773.45 1126.32   1
 -21  19  -1 7359.59 1391.67   4
 -19  21  -1 7612.97 1373.26   4
  19   2   2 4348.21 975.178   1
  21  -2   2 6407.30 815.923   3
   2 -21   2 7916.43 1178.67   3
 -21  19   2 4612.28 944.043   2
  21  -2   2 3755.21 952.536   1
  -2 -19   2 6345.68 1090.47   3
 -19  21   2 4279.21 936.198   2
 -21  19   2 7482.90 1353.01   4
 -19  21   2 8213.89 1326.91   4
 -19  21   5 2167.67 982.305   4
   2 -21   5 1290.51 1033.90   3
  -2 -19   5 3566.82 1067.51   3
 -21  19   5 2188.45 935.154   4
  20   1  -8 951.936 1093.11   1
  21  -1  -8 4963.13 1361.87   1
 -21  20  -8 2660.53 1329.40   2
 -20  21  -8 386.265 1028.31   2
   1 -21  -8 3487.80 1145.40   3
  -1 -20  -8 1606.38 1007.13   3
  -1 -20  -8 1541.40 1063.30   4
 -21  20  -8 2311.82 1451.61   4
 -20  21  -8 2919.91 1397.21   4
 -21  20  -5 2791.53 1086.47   2
 -20  21  -5 4565.24 1126.30   2
   1 -21  -5 4638.41 1123.91   3
  -1 -20  -5 4329.17 1063.98   3
  20   1  -5 5086.88 1137.57   1
  21  -1  -5 3369.25 1058.50   1
 -21  20  -5 4742.52 1412.19   4
 -20  21  -5 7092.40 1500.45   4
  20   1  -2 2131.80 831.714   1
  21  -1  -2 1626.41 770.634   1
 -21  20  -2 2016.43 902.065   2
   1 -21  -2 3248.57 909.264   3
 -20  21  -2 4383.88 958.658   2
  -1 -20  -2 3372.82 873.303   3
 -21  20  -2 3348.45 1214.47   4
   1 -21   1 2485.23 903.706   3
  -1 -20   1 1210.24 807.221   3
 -21  20   1 1247.60 680.060   2
  20   1   1 3121.61 885.765   1
 -20  21   1 1817.60 759.519   2
  21  -1   1 2545.43 971.596   1
 -21  20   1 2808.62 1139.13   4
 -20  21   1 3591.27 1163.94   4
 -20  21   4 1003.52 943.497   4
   1 -21   4 2235.78 982.916   3
  -1 -20   4 354.081 916.297   3
 -21  20   4 3200.81 957.614   2
 -20  21   4 1497.91 839.027   2
 -21  20   4 888.179 953.852   4
   1 -21   7 4512.14 1354.61   3
  -1 -20   7 3404.71 1371.43   3
 -21  21  -6 12456.2 1621.60   2
   0 -21  -6 14213.0 1640.25   3
  21   0  -6 9930.85 1459.66   1
 -21  21  -6 17060.8 2085.88   4
 -21  21  -3 244.895 780.712   2
   0 -21  -3-25.3985 760.160   3
  21   0  -3 2075.95 905.448   1
 -21  21  -3 851.063 1100.50   4
 -21  21   0 28792.7 1873.21   2
   0 -21   0 31550.7 1895.39   3
  21   0   0 31324.2 1897.36   1
 -21  21   0 34708.5 2462.72   4
   0 -21   3 901.685 918.523   3
 -21  21   3 56.4920 789.741   2
  21   0   3 343.949 877.446   1
 -21  21   3 969.141 974.965   4
   0 -21   6 6685.48 1450.88   3
 -21  21   6 7275.80 1195.66   4
  22 -22  -7-474.944 1311.22   3
   0  22  -7-482.358 1437.58   1
 -22   0  -7-38.5484 1270.99   4
 -22   0  -7 1309.84 1483.07   2
  22 -22  -4 1146.50 704.579   1
  22 -22  -4 981.611 1093.15   3
   0  22  -4-152.692 1020.05   1
 -22   0  -4-797.396 1120.13   4
 -22   0  -4 1114.38 1347.77   2
  22 -22  -1 953.926 862.263   3
 -22   0  -1 212.545 1022.46   4
   0  22  -1 1003.29 660.336   1
 -22   0  -1 1626.82 1239.08   2
 -22   0   2 2823.67 920.025   2
  22 -22   2 2716.65 762.399   3
   0  22   2 883.306 337.571   1
 -22   0   2 4022.82 1310.59   4
  22 -22   5 685.245 676.130   3
 -22   0   5 361.045 1002.38   4
  22 -21  -5 2430.26 799.867   1
  22 -21  -5 2585.83 1377.11   3
  21 -22  -5 5107.25 1555.58   3
  -1  22  -5 7044.58 1570.23   1
   1  21  -5 3634.06 1354.92   1
  21 -22  -5 2149.72 734.500   1
 -21  -1  -5 3677.89 1368.70   4
 -22   1  -5 1380.99 1246.14   4
 -21  -1  -5 5824.22 1845.01   2
 -22   1  -5 3778.86 1694.97   2
  22 -21  -2 2129.31 975.710   3
  21 -22  -2 1898.95 1006.00   3
  -1  22  -2 1589.13 847.311   1
 -21  -1  -2 1988.23 1121.29   4
   1  21  -2 719.834 743.005   1
 -22   1  -2 5542.33 1355.91   4
 -21  -1  -2 2418.21 1368.40   2
 -22   1  -2 3063.79 1294.11   2
   1  21   1 4360.00 650.602   1
 -22   1   1 4570.89 1109.51   2
  22 -21   1 6781.04 958.762   3
  21 -22   1 4970.00 872.668   3
 -22   1   1 8631.88 1474.03   4
 -21  -1   1 5657.37 1295.99   4
  -1  22   1 2502.65 532.510   1
 -21  -1   1 3562.49 1121.77   2
 -21  -1   4 2659.68 622.588   2
 -22   1   4 1907.89 629.189   2
  22 -21   4 1034.45 648.289   3
  21 -22   4 1631.40 718.685   3
 -21  -1   4 4000.62 1205.94   4
 -22   1   4 5378.60 1281.96   4
 -21  -1   7 3038.51 1142.64   4
 -22   1   7 4465.06 1186.71   4
  20 -22  -6 1583.16 637.591   1
  22 -20  -6 6505.32 1622.12   3
  20 -22  -6 3568.92 1404.52   3
  22 -20  -6 774.397 743.514   1
  -2  22  -6 4391.52 1520.72   1
   2  20  -6 3461.47 1316.30   1
 -20  -2  -6 2234.69 1335.36   4
 -22   2  -6 4610.73 1522.13   4
 -20  -2  -6 2785.51 1749.76   2
 -22   2  -6 1678.88 1562.75   2
  -2  22  -3 16849.2 1647.10   1
  22 -20  -3 12314.6 1683.84   3
  20 -22  -3 11087.4 1538.84   3
   2  20  -3 13135.5 1440.88   1
 -20  -2  -3 12879.8 1695.69   4
  22 -20  -3 12130.3 1259.54   1
 -22   2  -3 14900.9 1909.43   4
 -20  -2  -3 14062.1 2095.38   2
 -22   2  -3 14875.5 1979.16   2
 -22   2   0 4383.11 1165.86   2
  20 -22   0 5665.33 1004.02   3
  22 -20   0 5158.21 1006.64   3
 -20  -2   0 6789.08 1371.94   4
   2  20   0 3927.93 742.940   1
 -22   2   0 5376.06 1347.23   4
 -20  -2   0 3896.47 1260.55   2
  -2  22   0 3165.35 599.169   1
 -22   2   3 13279.4 1130.67   2
  22 -20   3 10211.7 898.970   3
  20 -22   3 9786.03 1016.24   3
 -20  -2   3 15936.6 1705.71   4
 -22   2   3 15681.4 1756.48   4
 -20  -2   3 13738.6 1200.40   2
  20 -22   6 5531.63 926.342   3
 -20  -2   6 8351.22 1416.22   4
 -22   2   6 9194.15 1408.40   4
  22 -19  -7-96.0742 1340.30   3
  19 -22  -7 981.783 1417.86   3
  -3  22  -7 2837.88 1589.66   1
   3  19  -7 2018.33 1400.31   1
  22 -19  -7 1434.95 733.074   1
 -19  -3  -7 498.899 1192.83   4
 -22   3  -7 2064.75 1436.41   4
 -19  -3  -7-1708.68 1779.70   2
 -22   3  -7 3326.38 1696.48   2
  22 -19  -4 4140.89 1347.37   3
  19 -22  -4 1770.74 1119.59   3
  -3  22  -4 2355.91 1107.00   1
   3  19  -4 1195.38 1081.61   1
 -19  -3  -4 2397.02 1167.35   4
 -22   3  -4 1609.48 1229.19   4
  22 -19  -4 2319.38 846.634   1
 -19  -3  -4 2097.65 1422.77   2
 -22   3  -4 2794.19 1424.62   2
 -22   3  -1 2065.93 1127.66   2
   3  19  -1 2540.46 753.937   1
  22 -19  -1 2057.29 929.846   3
  19 -22  -1 3339.82 977.284   3
  -3  22  -1 2761.20 712.707   1
 -19  -3  -1 3112.63 1160.51   4
 -22   3  -1 3729.01 1231.68   4
 -19  -3  -1 4838.19 1396.69   2
 -22   3   2 4107.78 927.011   2
   3  19   2 1449.00 528.420   1
  22 -19   2 3847.04 726.422   3
  19 -22   2 3843.48 803.837   3
 -19  -3   2 6004.56 1277.72   4
 -22   3   2 3634.59 1145.00   4
 -19  -3   2 4496.66 1032.90   2
 -22   3   5 1759.28 530.107   2
  19 -22   5 896.254 718.238   3
 -19  -3   5 1027.94 1035.70   4
 -22   3   5 2989.31 1136.36   4
  22 -18  -8 1877.22 853.300   1
  22 -18  -8 1798.84 1649.94   3
  18 -22  -8 439.268 1349.38   3
  -4  22  -8 3625.11 1826.34   1
   4  18  -8 3834.56 1576.92   1
 -18  -4  -8 5296.31 1495.78   4
 -22   4  -8 3490.06 1516.03   4
 -18  -4  -8 318.782 1539.98   2
 -22   4  -8 4399.85 1767.07   2
  22 -18  -5 5263.32 1448.46   3
  18 -22  -5 5781.06 1345.86   3
 -18  -4  -5 5473.11 790.868   3
   4  18  -5 5651.56 1282.30   1
  22 -18  -5 5501.49 1032.29   1
 -18  -4  -5 5970.73 1402.40   4
 -22   4  -5 6915.07 1533.60   4
 -18  -4  -5 6972.14 1838.41   2
  -4  22  -5 7150.54 1622.17   1
 -22   4  -5 7923.51 1679.67   2
 -22   4  -2 3603.65 1225.54   2
  22 -18  -2 4944.77 1235.40   3
  18 -22  -2 3127.20 1017.23   3
  22 -18  -2 1681.62 796.275   1
  -4  22  -2 2808.62 963.163   1
 -18  -4  -2 1910.74 723.939   3
 -18  -4  -2 3354.78 1121.59   4
 -22   4  -2 3018.18 1157.83   4
 -18  -4  -2 2308.46 1336.41   2
   4  18  -2 2879.98 840.490   1
   4  18   1 4462.72 741.020   1
  22 -18   1 7176.46 902.272   3
  18 -22   1 6095.80 905.830   3
 -18  -4   1 4664.40 1135.31   4
 -22   4   1 7033.84 1403.47   4
  -4  22   1 5176.38 464.214   1
 -18  -4   1 7167.89 1347.71   2
 -22   4   1 6221.60 1083.62   2
 -18  -4   4 1283.02 479.040   2
 -22   4   4 406.692 574.380   2
  22 -18   4 762.710 439.962   3
  18 -22   4 768.786 682.584   3
 -18  -4   4 1456.07 920.949   4
 -22   4   4 560.004 939.113   4
 -18  -4   7 535.481 993.780   4
 -22   4   7 2679.04 1024.52   4
  22 -17  -6 3159.17 1500.31   3
  -5  22  -6 4501.46 1516.37   1
  17 -22  -6 4183.75 1324.97   3
  22 -17  -6 1699.63 840.435   1
   5  17  -6 2952.85 1307.79   1
 -17  -5  -6 1681.84 682.451   3
  -5  22  -6 2526.63 780.954   2
 -17  -5  -6 4686.82 1300.97   4
 -22   5  -6 1985.52 1282.92   4
 -17  -5  -6 4598.83 1708.19   2
 -22   5  -6 650.089 1370.05   2
  22 -17  -3 13532.6 1657.07   3
  17 -22  -3 13225.1 1601.42   3
   5  17  -3 9986.85 1381.23   1
 -17  -5  -3 10981.2 1067.04   3
 -17  -5  -3 15067.8 2098.69   2
 -17  -5  -3 11171.1 1492.78   4
 -22   5  -3 14229.5 1858.04   4
 -22   5  -3 12751.2 1796.38   2
  -5  22  -3 12569.7 1575.30   1
  22 -17  -3 11578.1 1254.94   1
 -22   5   0 256.164 848.910   2
  22 -17   0-1619.12 877.008   3
  17 -22   0 136.492 672.516   3
   5  17   0 27.8043 538.424   1
  -5  22   0 398.007 504.117   1
 -17  -5   0 807.069 875.291   4
 -22   5   0 1015.87 988.472   4
 -17  -5   0 2016.55 1087.12   2
 -22   5   3 7169.31 941.168   2
  22 -17   3 6330.69 679.833   3
  17 -22   3 7847.77 932.314   3
   5  17   3 5609.21 763.594   1
 -17  -5   3 7359.19 1244.17   4
 -22   5   3 6948.64 1273.96   4
 -17  -5   3 8566.42 1034.83   2
  17 -22   6 944.941 849.263   3
 -17  -5   6 2477.06 1084.35   4
 -22   5   6 3513.50 1032.72   4
 -22   6  -7 2762.22 1548.64   2
  22 -16  -7 3344.53 960.611   1
  -6  22  -7 2044.06 1574.26   1
  22 -16  -7 3937.08 1663.45   3
  16 -22  -7 121.171 1091.90   3
   6  16  -7 3095.91 1559.68   1
  -6  22  -7 940.094 724.118   2
 -16  -6  -7 1938.07 1201.10   4
 -22   6  -7 3810.84 1507.33   4
 -16  -6  -7 3536.04 1553.26   2
  22 -16  -4 5521.14 1318.60   3
  22 -16  -4 5833.44 954.839   1
  16 -22  -4 4057.66 1237.82   3
 -16  -6  -4 4487.15 863.942   3
  -6  22  -4 3231.34 822.446   2
   6  16  -4 3427.76 1056.79   1
 -16  -6  -4 5022.82 1172.09   4
 -22   6  -4 1623.65 1211.66   4
  -6  22  -4 6290.15 1469.73   1
 -16  -6  -4 4634.38 1516.32   2
 -22   6  -4 6635.84 1588.91   2
 -16  -6  -1 19550.9 2052.96   2
  22 -16  -1 19721.1 1766.30   3
  16 -22  -1 16087.6 1426.73   3
 -16  -6  -1 14946.0 1351.62   3
 -16  -6  -1 18055.4 1712.35   4
   6  16  -1 14327.9 1174.16   1
  22 -16  -1 13964.8 1337.16   1
 -22   6  -1 18587.3 1934.33   4
 -22   6  -1 15938.7 1684.99   2
  -6  22  -1 15578.9 1281.21   1
 -22   6   2 4882.21 854.810   2
  22 -16   2 5728.08 672.048   3
  16 -22   2 4579.00 823.094   3
   6  16   2 4011.01 785.534   1
 -16  -6   2 8032.52 1293.62   4
 -22   6   2 8917.27 1420.34   4
 -16  -6   2 4483.09 1105.24   2
 -22   6   5 1602.66 631.036   2
  16 -22   5 2430.80 875.334   3
 -16  -6   5 5969.41 1251.05   4
 -22   6   5 4660.78 1107.59   4
 -22   7  -8 1812.77 1540.21   2
  -7  22  -8 1380.31 1816.33   1
  22 -15  -8 3875.92 1920.69   3
  15 -22  -8 2051.34 1299.85   3
  -7  22  -8 223.802 725.419   2
   7  15  -8 375.005 1388.47   1
  22 -15  -8 1891.47 918.707   1
 -15  -7  -8 2199.09 1217.02   4
 -15  -7  -8 3841.81 1711.56   2
 -22   7  -8 2267.72 1354.23   4
 -22   7  -5 2531.02 1285.31   2
  -7  22  -5 2846.63 1386.62   1
  22 -15  -5 2603.69 1232.68   3
  15 -22  -5 1753.14 1013.27   3
  22 -15  -5 2978.36 841.804   1
 -15  -7  -5 3679.86 780.057   3
  -7  22  -5 3346.97 868.969   2
   7  15  -5 3073.89 1213.97   1
 -15  -7  -5 3028.94 1117.53   4
 -15  -7  -5 4311.50 1681.77   2
 -22   7  -5 2520.16 1229.90   4
  22 -15  -2 9069.17 1137.66   1
  22 -15  -2 9319.67 1420.19   3
  15 -22  -2 7811.41 1192.93   3
 -15  -7  -2 9168.57 1056.17   3
   7  15  -2 8859.40 1091.58   1
 -15  -7  -2 9953.09 1420.14   4
 -15  -7  -2 11032.4 1794.54   2
 -22   7  -2 10427.5 1550.04   4
  -7  22  -2 7958.71 1226.05   1
 -22   7  -2 8295.90 1459.87   2
 -22   7   1 10728.9 1228.89   2
  22 -15   1 10006.0 1057.00   3
   7  15   1 9121.72 966.910   1
  15 -22   1 9928.82 1081.17   3
  -7  22   1 7197.64 468.906   1
 -15  -7   1 9421.29 1242.55   3
 -15  -7   1 11250.6 1461.47   4
 -15  -7   1 8333.09 1442.76   2
 -22   7   1 9927.99 1400.15   4
 -22   7   4 2361.45 684.111   2
  15 -22   4 1401.53 714.422   3
 -15  -7   4 736.666 345.350   2
 -15  -7   4 2628.77 1039.97   4
 -22   7   4 2339.00 1013.32   4
 -15  -7   4 536.990 480.052   2
  15 -22   7 4084.29 1092.43   3
 -15  -7   7 5661.55 1180.84   4
 -22   7   7 4777.10 1059.94   4
  -8  22  -6 619.885 1412.92   1
  22 -14  -6 1264.38 808.211   1
 -22   8  -6 160.408 1223.64   2
  22 -14  -6 1798.34 1464.36   3
  14 -22  -6 958.109 1037.68   3
 -14  -8  -6 1184.88 696.501   3
  -8  22  -6-163.693 708.997   2
   8  14  -6 2514.17 1202.11   1
 -14  -8  -6 100.271 934.779   4
 -14  -8  -6 655.620 1438.57   2
 -22   8  -6 2048.14 1289.43   4
  22 -14  -3 15804.2 1749.43   3
  14 -22  -3 11526.3 1436.32   3
 -14  -8  -3 12022.4 1163.72   3
   8  14  -3 11604.8 1295.86   1
  -8  22  -3 13699.3 1302.28   2
  22 -14  -3 11219.6 1217.50   1
 -14  -8  -3 12114.2 1436.68   4
 -14  -8  -3 15142.6 2027.04   2
  -8  22  -3 11124.4 1593.01   1
 -22   8  -3 12263.2 1686.63   4
 -22   8  -3 12843.9 1710.09   2
  22 -14   0-50.5449 810.326   3
 -22   8   0 455.258 788.624   2
  -8  22   0 999.559 596.315   1
  14 -22   0 617.510 686.610   3
 -14  -8   0 109.365 716.524   3
 -14  -8   0 1163.61 899.217   4
   8  14   0 1040.92 621.615   1
 -14  -8   0 1397.15 1224.82   2
 -22   8   0 1291.83 973.544   4
  22 -14   0 1590.72 841.123   1
 -22   8   3 9798.80 1013.79   2
  22 -14   3 8671.78 574.879   3
  14 -22   3 10327.7 1119.07   3
   8  14   3 11706.2 1127.87   1
 -14  -8   3 11144.9 1494.88   4
 -14  -8   3 11635.1 1254.87   2
 -22   8   3 11327.1 1453.84   4
  14 -22   6 641.519 919.022   3
 -22   8   6 816.833 879.664   4
 -22   9  -7 6383.32 1662.55   2
  22 -13  -7 5294.73 1706.11   3
  13 -22  -7 4702.32 1400.70   3
 -13  -9  -7 4587.98 917.128   3
  -9  22  -7 4534.03 939.174   2
   9  13  -7 2655.70 1301.41   1
 -13  -9  -7 922.227 983.273   4
  22 -13  -7 4817.45 1061.13   1
 -13  -9  -7 1128.75 1434.20   2
 -22   9  -7 4846.18 1443.56   4
  -9  22  -7 4347.69 1884.79   1
  -9  22  -4 8348.79 1354.98   4
  22 -13  -4 9490.21 1671.03   3
 -22   9  -4 6053.87 1404.10   2
  13 -22  -4 9168.88 1382.91   3
  22 -13  -4 6140.94 986.441   1
   9  13  -4 7102.38 1166.43   1
  -9  22  -4 7196.96 1077.18   2
 -13  -9  -4 4999.11 916.472   3
 -13  -9  -4 7418.75 1246.16   4
 -13  -9  -4 6113.19 1581.59   2
 -22   9  -4 7081.50 1514.65   4
  -9  22  -4 5371.35 1422.67   1
  22 -13  -1 4930.96 932.845   1
  22 -13  -1 4671.24 1141.78   3
 -22   9  -1 4551.57 1063.62   2
  13 -22  -1 5004.22 940.817   3
   9  13  -1 2830.48 760.339   1
 -13  -9  -1 2452.26 758.505   3
  -9  22  -1 3206.65 873.447   2
 -13  -9  -1 6230.69 1193.13   4
 -13  -9  -1 5811.51 1432.00   2
 -22   9  -1 5619.68 1306.63   4
  -9  22  -1 3682.47 980.494   1
  22 -13   2 108.416 462.463   3
   9  13   2 361.250 674.925   1
 -22   9   2 1659.38 691.192   2
  13 -22   2 300.807 647.560   3
 -13  -9   2 2414.52 1015.33   4
 -13  -9   2 796.031 804.881   3
 -13  -9   2-759.732 958.350   2
 -22   9   2-576.500 867.808   4
 -22   9   5 5011.73 845.135   2
  13 -22   5 3685.98 1008.60   3
 -13  -9   5 4906.88 1185.23   4
 -22   9   5 6567.29 1187.74   4
 -13  -9   8 5435.45 1203.02   4
 -22  10  -8 293.279 1264.43   2
  22 -12  -8 2899.38 1853.54   3
  12 -22  -8 1012.57 1095.10   3
 -12 -10  -8 1062.29 798.000   3
 -10  22  -8 1832.52 852.085   2
  10  12  -8 2279.57 1364.66   1
 -12 -10  -8 1316.47 1070.76   4
 -12 -10  -8 2506.49 1782.69   2
 -22  10  -8 3505.53 1408.06   4
  22 -12  -8 4345.63 1184.14   1
 -10  22  -8 4045.86 1959.32   1
  22 -12  -5 5083.19 972.180   1
  12 -22  -5 4877.96 1215.12   3
 -12 -10  -5 4278.73 884.180   3
 -10  22  -5 4301.62 886.172   2
 -12 -10  -5 8187.12 1338.93   4
 -12 -10  -5 8609.31 1788.43   2
  10  12  -5 4330.29 1173.96   1
 -22  10  -5 5214.32 1409.24   4
 -10  22  -5 7167.30 1691.39   1
 -22  10  -5 7396.93 1509.42   2
 -10  22  -5 7119.64 1334.10   4
  22 -12  -2 10975.8 1495.50   3
  12 -22  -2 10832.6 1246.27   3
 -12 -10  -2 7823.94 1022.59   3
 -10  22  -2 8589.68 1127.78   2
 -12 -10  -2 9888.60 1319.28   4
  10  12  -2 8834.05 1082.91   1
 -10  22  -2 8887.70 1339.11   1
  22 -12  -2 8636.89 1153.80   1
 -12 -10  -2 8323.03 1535.09   2
 -22  10  -2 9261.15 1561.54   4
 -22  10  -2 11648.3 1480.43   2
 -10  22  -2 10745.8 1500.94   4
  22 -12   1 7232.70 1040.85   3
 -22  10   1 7283.59 1025.67   2
  12 -22   1 6459.80 953.503   3
  10  12   1 6372.25 908.580   1
 -10  22   1 4056.75 408.151   1
 -12 -10   1 7333.37 1109.27   3
 -12 -10   1 9230.28 1417.50   2
  22 -12   1 6240.09 1003.60   1
 -10  22   1 5800.71 619.469   1
 -22  10   1 6282.32 1240.74   4
 -22  10   4 7774.51 945.682   2
 -12 -10   4 4862.56 553.268   2
  12 -22   4 6230.46 1020.62   3
 -12 -10   4 6605.79 953.236   2
 -22  10   4 7328.02 1243.23   4
  12 -22   7 9666.26 1459.76   3
 -12 -10   7 11285.7 1541.90   4
 -22  10   7 7859.75 1105.99   4
 -11  22  -6 3142.44 1207.82   4
 -22  11  -6 294.986 1182.97   2
  11 -22  -6 829.253 983.776   3
 -11 -11  -6 19.1002 719.566   3
 -11  22  -6 286.568 714.698   2
 -11 -11  -6 1861.70 990.276   4
 -11 -11  -6 1399.67 1303.07   2
  22 -11  -6 424.285 727.975   1
  11  11  -6-389.616 987.820   1
 -22  11  -6 1567.08 1219.29   4
 -11  22  -6 580.012 1457.29   1
  11 -22  -3 15207.4 1496.88   3
 -11  22  -3 14430.9 1317.27   2
 -11 -11  -3 12915.8 1184.41   3
  22 -11  -3 12833.8 1273.41   1
  11  11  -3 14354.9 1381.12   1
 -11 -11  -3 11884.1 1446.37   4
 -11 -11  -3 17325.2 2039.38   2
 -11  22  -3 15068.0 1794.33   1
 -22  11  -3 13190.5 1777.41   4
 -22  11  -3 16583.6 1802.36   2
 -11  22  -3 16669.2 1740.42   4
  22 -11   0 7916.35 1175.47   3
  11  11   0 5097.65 864.387   1
 -22  11   0 5982.93 1035.40   2
 -11  22   0 5124.84 641.597   1
  22 -11   0 6516.16 1069.12   1
  11 -22   0 4790.68 874.481   3
 -11 -11   0 5575.81 968.322   3
 -11  22   0 4115.74 856.973   2
 -11  22   0 6277.69 999.088   1
 -11 -11   0 5383.33 1339.96   2
 -22  11   0 6964.68 1327.03   4
 -11  22   0 7209.40 1275.08   4
  22 -11   3 10978.8 489.934   3
 -22  11   3 15271.4 1267.99   2
  11  11   3 14601.1 1330.80   1
  11 -22   3 16251.3 1358.24   3
  22 -11   3 10695.3 476.485   3
 -11 -11   3 12391.4 881.828   2
 -11 -11   3 15010.1 1537.27   3
 -11 -11   3 19059.3 1613.66   2
 -22  11   3 17586.3 1682.67   4
  11 -22   6 1873.84 1092.12   3
 -22  11   6 418.847 778.704   4
 -22  12  -7 8029.70 1625.11   2
  10 -22  -7 8323.93 1449.16   3
 -12  22  -7 6618.77 1107.98   2
 -10 -12  -7 7360.04 1070.78   3
  12  10  -7 10264.8 1597.52   1
 -10 -12  -7 8588.73 1402.48   4
 -12  22  -7 12513.7 2335.48   1
 -10 -12  -7 9217.90 1954.15   2
  22 -10  -7 8565.55 1279.56   1
 -22  12  -7 6887.07 1545.88   4
 -12  22  -7 8204.74 1521.14   4
  22 -10  -4 5612.33 1028.22   1
  10 -22  -4 5346.85 1137.86   3
 -12  22  -4 5922.92 1003.95   2
 -10 -12  -4 5991.12 917.585   3
  12  10  -4 6862.25 1147.04   1
 -10 -12  -4 6334.11 1206.60   4
 -10 -12  -4 4416.16 1393.12   2
 -22  12  -4 7284.46 1465.76   4
 -12  22  -4 6734.44 1565.09   1
 -22  12  -4 6693.23 1411.93   2
 -12  22  -4 6304.75 1333.72   4
 -12  22  -1 4767.33 1144.84   4
 -22  12  -1 6152.04 1117.72   2
  10 -22  -1 5272.33 1004.81   3
 -10 -12  -1 5427.53 942.796   3
 -12  22  -1 5015.43 942.851   2
  12  10  -1 4427.56 858.234   1
 -12  22  -1 5649.32 1157.04   1
  22 -10  -1 7083.78 1051.56   1
 -22  12  -1 4551.63 1300.68   4
  22 -10   2 15418.0 1055.83   3
 -22  12   2 11924.9 1203.99   2
  10 -22   2 10073.6 1152.21   3
  22 -10   2 11486.8 768.921   3
 -10 -12   2 10650.4 1312.19   3
  12  10   2 8898.14 1102.36   1
 -22  12   2 14649.7 1623.62   4
 -22  12   5 6672.93 1024.03   2
  10 -22   5 4817.45 1041.26   3
 -10 -12   5 3226.47 699.880   2
 -22  12   5 6985.76 1209.79   4
 -13  22  -8 5261.75 1391.70   4
 -22  13  -8 5290.20 1610.35   2
   9 -22  -8 5431.90 1365.51   3
  -9 -13  -8 4042.50 962.002   3
  22  -9  -8 5111.01 1280.07   1
 -13  22  -8 3059.59 1028.88   2
  -9 -13  -8 2629.52 1114.61   4
  -9 -13  -8 951.305 1566.44   2
  13   9  -8 4380.88 1455.05   1
 -13  22  -8 4624.83 2141.80   1
 -22  13  -8 3378.82 1472.94   4
 -22  13  -5 4815.47 1315.21   2
   9 -22  -5 3926.02 1138.09   3
  -9 -13  -5 4911.87 936.959   3
 -13  22  -5 4624.23 962.281   2
  -9 -13  -5 4766.19 1157.44   4
  -9 -13  -5 6580.36 1581.93   2
 -13  22  -5 8649.45 1839.12   1
 -22  13  -5 7183.88 1532.79   4
  22  -9  -5 4468.92 1005.48   1
  13   9  -5 5246.60 1150.20   1
 -13  22  -5 6712.19 1383.99   4
 -13  22  -2 304.328 936.311   4
 -22  13  -2-118.959 789.224   2
   9 -22  -2 427.669 790.868   3
  13   9  -2-51.3201 643.035   1
  -9 -13  -2 163.236 674.024   3
 -13  22  -2 137.987 629.459   2
 -22  13  -2 6.70385 1013.76   4
  22  -9  -2 504.101 662.438   1
  13   9   1 3055.53 823.365   1
  22  -9   1 3396.28 947.534   1
 -13  22   1 6212.66 1201.08   4
 -13  22   1 3181.70 511.892   1
 -22  13   1 4481.75 899.401   2
   9 -22   1 3843.07 842.408   3
  22  -9   1 5110.15 747.548   3
  -9 -13   1 4401.25 944.532   3
 -13  22   1 2738.55 879.124   2
 -22  13   1 3530.67 1130.88   4
  -9 -13   4 4978.45 701.096   2
 -22  13   4 5263.75 879.891   2
   9 -22   4 6513.87 1130.91   3
  -9 -13   4 5709.11 1135.61   3
 -22  13   4 7790.68 1222.27   4
   9 -22   7 3191.37 1304.01   3
 -22  13   7 4485.74 932.469   4
 -14  22  -6 6676.59 1412.59   4
 -22  14  -6 3609.82 1300.93   2
   8 -22  -6 2564.51 1019.40   3
  -8 -14  -6 2554.21 893.368   3
 -14  22  -6 2214.08 984.016   2
  22  -8  -6 1556.30 837.162   1
  -8 -14  -6 1253.34 1400.45   2
 -14  22  -6 4373.28 1811.73   1
  -8 -14  -6 763.634 925.961   4
 -22  14  -6 2733.59 1278.19   4
  14   8  -6 2190.39 1099.88   1
 -22  14  -3 9451.02 1394.49   2
   8 -22  -3 6852.84 1117.20   3
  22  -8  -3 8841.61 1122.01   1
 -14  22  -3 7777.85 1077.29   2
  -8 -14  -3 9513.66 1122.96   3
  14   8  -3 7656.00 1165.14   1
 -22  14  -3 9122.50 1604.13   4
 -14  22  -3 12920.6 1664.21   4
 -14  22   0 382.854 879.648   4
  14   8   0-98.4622 627.212   1
 -14  22   0 585.265 483.626   1
 -22  14   0 275.668 699.115   2
   8 -22   0 105.184 666.255   3
  -8 -14   0 582.728 741.829   3
 -14  22   0 905.219 649.579   2
  22  -8   0-198.972 651.485   1
 -22  14   0-208.255 963.271   4
 -14  22   3 9347.54 1377.15   4
  22  -8   3 6489.66 484.412   3
 -22  14   3 8910.90 1084.57   2
  22  -8   3 8259.86 488.278   3
  -8 -14   3 5981.28 766.886   2
  14   8   3 11609.5 1338.21   1
   8 -22   3 8679.92 1187.48   3
  -8 -14   3 8672.00 1320.19   3
 -22  14   3 12061.1 1482.50   4
   8 -22   6 1035.81 1005.86   3
 -22  14   6 1408.35 822.445   4
 -15  22  -7 7236.36 1449.22   4
 -22  15  -7 4737.81 1504.83   2
 -15  22  -7 7760.44 1267.71   2
   7 -22  -7 4510.46 1217.84   3
  -7 -15  -7 4314.09 1031.04   3
  22  -7  -7 3954.00 1087.06   1
  -7 -15  -7 7349.55 1337.02   4
  -7 -15  -7 2891.94 1545.37   2
 -15  22  -7 2018.84 1957.67   1
 -22  15  -7 6594.65 1602.55   4
  15   7  -7 6642.41 1420.55   1
 -15  22  -4 907.518 1047.45   4
 -22  15  -4 1197.42 970.112   2
  15   7  -4 1516.76 925.307   1
   7 -22  -4 1756.57 843.923   3
  -7 -15  -4 2998.86 876.927   3
 -15  22  -4 2368.12 866.731   2
 -22  15  -4 1795.39 1132.44   4
  22  -7  -4 1054.97 724.127   1
  15   7  -1 7001.82 1037.47   1
 -22  15  -1 8496.73 1159.46   2
   7 -22  -1 7626.54 1062.96   3
 -15  22  -1 8975.66 1160.17   2
  -7 -15  -1 7249.77 1033.67   3
  22  -7  -1 8619.05 1130.04   1
 -22  15  -1 12317.7 1635.22   4
 -15  22  -1 9492.24 1493.09   4
 -22  15   2 7258.71 1016.51   2
   7 -22   2 7946.20 1080.41   3
  22  -7   2 9736.68 747.264   3
  -7 -15   2 8827.50 1226.09   3
 -15  22   2 9852.95 1226.19   2
 -15  22   2 7727.72 759.957   1
 -22  15   2 12208.1 1565.16   4
  22  -7   2 8165.06 1207.92   1
  15   7   2 6449.18 1032.79   1
 -15  22   2 11073.7 1437.51   4
   7 -22   5 2299.00 1014.64   3
 -22  15   5 4211.98 1024.51   2
  -7 -15   5 5603.58 1236.53   3
 -22  15   5 2977.76 974.087   4
 -16  22  -8 147.582 1203.88   4
 -22  16  -8 1123.03 1280.32   2
   6 -22  -8 1080.73 1078.80   3
  22  -6  -8-1814.25 1001.05   1
  -6 -16  -8 809.898 898.323   3
 -16  22  -8-97.8195 940.076   2
  -6 -16  -8 1539.79 1049.44   4
  -6 -16  -8 2811.68 1535.90   2
 -16  22  -8 1720.18 2046.34   1
 -22  16  -8 55.1812 1177.63   4
  16   6  -8 1159.55 1153.94   1
  16   6  -5 2256.42 974.794   1
 -22  16  -5 4000.89 1253.18   2
   6 -22  -5 2707.05 1069.57   3
  -6 -16  -5 3011.57 893.993   3
 -16  22  -5 2395.43 939.037   2
  22  -6  -5 3214.56 966.264   1
 -22  16  -5 4785.19 1349.41   4
 -16  22  -5 3697.29 1214.78   4
 -22  16  -2 7055.98 1161.13   2
  -6 -16  -2 4823.47 1062.57   1
 -16  22  -2 5888.73 1025.74   2
  22  -6  -2 6988.43 1073.61   1
   6 -22  -2 4891.05 995.570   3
  -6 -16  -2 5108.56 897.518   3
 -22  16  -2 6216.93 1412.90   4
  16   6  -2 5483.62 963.130   1
 -16  22  -2 5009.71 1226.79   4
 -22  16   1 11382.0 1202.68   2
  22  -6   1 11465.9 1249.60   1
   6 -22   1 13373.9 1277.71   3
  22  -6   1 12598.6 986.050   3
 -16  22   1 13720.8 1395.12   2
  -6 -16   1 14123.4 1350.53   3
  16   6   1 11687.1 1228.71   1
 -22  16   1 17895.7 1770.44   4
 -16  22   1 15912.6 1654.57   4
 -16  22   1 12536.6 899.761   1
 -16  22   4 3983.25 1060.75   4
   6 -22   4 2899.42 1033.95   3
 -22  16   4 4377.51 939.404   2
  -6 -16   4 3988.37 1087.58   3
 -22  16   4 5347.40 1144.15   4
 -22  16   7 449.404 768.778   4
   6 -22   7 2151.57 1240.49   3
  17   5  -6 3418.56 1160.31   1
 -22  17  -6 2753.02 1176.27   2
   5 -22  -6 1902.77 988.933   3
  -5 -17  -6 2951.71 902.468   3
 -17  22  -6 2119.99 973.053   2
  22  -5  -6 2859.68 1033.53   1
 -22  17  -6 4684.07 1427.77   4
 -17  22  -6 2822.87 1234.66   4
 -22  17  -3 7916.48 1273.34   2
  22  -5  -3 5708.97 1044.50   1
   5 -22  -3 6748.47 1165.30   3
 -17  22  -3 6487.97 1075.34   2
  -5 -17  -3 4337.81 965.750   1
  -5 -17  -3 5819.91 992.870   3
  17   5  -3 5729.98 1049.83   1
 -22  17  -3 6177.24 1452.06   4
 -17  22  -3 8446.44 1489.72   4
 -17  22   0 553.461 906.544   4
 -22  17   0 738.577 759.892   2
   5 -22   0-65.9346 686.428   3
  22  -5   0 358.315 695.471   1
  17   5   0-128.118 677.240   1
  -5 -17   0 1135.59 823.288   3
 -17  22   0 1552.21 744.301   2
 -22  17   0 978.066 1106.21   4
 -17  22   3 8777.14 956.118   1
  22  -5   3 9790.12 724.703   3
 -22  17   3 12446.0 1285.98   2
   5 -22   3 12742.1 1360.04   3
  -5 -17   3 11396.6 1414.00   3
  17   5   3 11308.1 1424.06   1
 -17  22   3 10722.8 1279.78   2
 -22  17   3 12467.2 1526.01   4
 -17  22   3 12851.3 1514.84   4
   5 -22   6 3841.55 1221.45   3
  -5 -17   6 3748.51 1263.07   3
 -22  17   6 3199.84 962.478   4
  18   4  -7 617.671 1036.12   1
 -22  18  -7 3072.42 1231.95   2
   4 -22  -7 2448.28 1072.38   3
 -18  22  -7 1330.11 1065.56   2
  -4 -18  -7 1788.99 953.548   3
  22  -4  -7 2721.70 1057.02   1
  -4 -18  -7 3852.66 1224.14   4
 -22  18  -7 2930.65 1348.69   4
 -18  22  -7 2964.39 1382.65   4
 -22  18  -4 1653.54 967.950   2
   4 -22  -4 1134.49 800.527   3
 -18  22  -4-157.114 784.654   2
  -4 -18  -4 1471.51 835.787   3
  18   4  -4-127.062 772.607   1
  22  -4  -4 1858.94 879.832   1
 -22  18  -4 1585.30 1071.13   4
 -18  22  -4 587.024 1078.98   4
  -4 -18  -1 4576.11 1223.89   1
 -22  18  -1 6766.80 1166.03   2
  18   4  -1 6567.65 985.118   1
   4 -22  -1 5929.00 1020.58   3
 -18  22  -1 7341.41 1078.45   2
  -4 -18  -1 7085.61 1075.65   3
  22  -4  -1 5647.76 1009.67   1
 -22  18  -1 5319.95 1263.54   4
 -18  22  -1 8983.87 1471.03   4
 -18  22   2 2113.54 999.961   4
  22  -4   2 3294.46 972.923   1
 -18  22   2 1223.83 704.898   1
  22  -4   2 1576.37 595.958   3
   4 -22   2 3331.79 932.101   3
 -22  18   2 1107.21 777.381   2
  -4 -18   2 3250.62 990.830   3
 -18  22   2 889.592 846.868   2
  18   4   2 2571.27 932.058   1
 -22  18   2 1394.66 930.767   4
   4 -22   5 5104.50 1247.54   3
  -4 -18   5 7259.89 1346.56   3
 -22  18   5 8537.17 1316.70   4
 -18  22   5 5710.44 1177.37   4
 -22  19  -5 1397.64 1076.59   2
  19   3  -5 2591.13 1045.81   1
   3 -22  -5 1494.85 917.674   3
 -19  22  -5 1782.41 883.753   2
  -3 -19  -5 1122.00 875.414   3
  22  -3  -5 1691.61 870.404   1
 -22  19  -5 1051.57 1050.52   4
 -19  22  -5 4124.02 1344.68   4
 -22  19  -2 3393.00 1010.97   2
  22  -3  -2 3538.24 945.178   1
   3 -22  -2 3940.10 899.868   3
  -3 -19  -2 4311.38 943.546   3
 -19  22  -2 3228.72 919.626   2
 -19  22  -2 6379.97 1381.98   4
  19   3  -2 2441.10 920.689   1
 -22  19  -2 1587.63 1093.32   4
  -3 -19  -2 2736.56 1010.59   1
  19   3   1 2299.17 917.259   1
   3 -22   1 1343.81 820.524   3
 -22  19   1 2589.61 830.231   2
  -3 -19   1 2495.76 917.686   3
 -19  22   1 1270.01 749.642   2
  22  -3   1 2367.66 888.362   1
 -22  19   1 2115.17 1053.11   4
 -19  22   1 2823.03 1079.44   4
 -19  22   4 4513.18 1166.19   4
   3 -22   4 887.071 900.205   3
 -22  19   4 3002.60 928.451   2
  -3 -19   4 3475.04 1081.74   3
 -22  19   4 3147.04 1139.39   4
 -22  19   7 1285.60 880.198   4
   3 -22   7 2660.06 1344.98   3
 -20  22  -6 7765.08 1411.07   2
   2 -22  -6 7285.66 1339.12   3
 -22  20  -6 7393.88 1367.21   2
  -2 -20  -6 4929.73 1125.59   3
  22  -2  -6 6968.67 1246.20   1
  20   2  -6 9171.76 1471.38   1
 -22  20  -6 9788.01 1805.89   4
 -20  22  -6 6846.14 1592.48   4
  22  -2  -3 12456.5 1347.13   1
 -22  20  -3 13299.8 1503.68   2
 -20  22  -3 14008.8 1484.62   2
   2 -22  -3 11059.4 1329.29   3
  -2 -20  -3 14675.9 1380.02   3
 -22  20  -3 13817.4 1804.13   4
 -20  22  -3 16469.3 1941.56   4
  20   2  -3 12199.8 1415.21   1
  22  -2   0 4165.16 983.587   1
 -22  20   0 4762.39 1035.34   2
   2 -22   0 4737.27 998.165   3
  -2 -20   0 3448.19 916.678   3
 -20  22   0 5226.40 1022.47   2
  20   2   0 3366.20 949.358   1
 -22  20   0 4232.90 1263.02   4
 -20  22   0 5669.17 1329.12   4
  22  -2   3 9923.65 1386.89   1
 -22  20   3 14348.7 1404.29   2
   2 -22   3 11996.5 1462.12   3
  -2 -20   3 13043.4 1453.48   3
 -20  22   3 11267.7 1323.46   2
  20   2   3 12845.7 1503.07   1
 -22  20   3 13770.0 1656.54   4
 -20  22   3 14072.6 1568.80   4
 -22  20   6 3959.93 1054.48   4
 -20  22   6 4174.59 1106.71   4
   2 -22   6 3195.87 1364.11   3
  -2 -20   6 4588.86 1363.89   3
 -22  21  -7 6043.04 1334.61   2
  21   1  -7 3593.10 1189.35   1
 -21  22  -7 4015.87 1263.07   2
   1 -22  -7 4728.37 1219.85   3
  -1 -21  -7 5269.43 1214.05   3
  22  -1  -7 2624.13 1066.76   1
 -22  21  -7 5859.44 1686.06   4
 -21  22  -7 4761.56 1678.77   4
 -22  21  -4 3137.25 1111.22   2
 -21  22  -4 2688.97 1011.55   2
   1 -22  -4 2120.21 970.493   3
  -1 -21  -4 1636.37 908.207   3
  21   1  -4 2850.37 990.066   1
  22  -1  -4 2945.45 950.241   1
 -22  21  -4 4657.25 1441.14   4
 -21  22  -4 2918.03 1295.21   4
 -22  21  -1 4640.13 1129.07   2
 -21  22  -1 6700.00 1144.33   2
  -1 -21  -1 5486.16 1059.44   3
   1 -22  -1 4575.84 995.696   3
  21   1  -1 3926.22 946.541   1
  22  -1  -1 3970.72 927.101   1
 -22  21  -1 5444.58 1352.23   4
 -21  22  -1 6592.32 1378.43   4
  21   1   2 490.007 934.828   1
  22  -1   2 912.316 877.618   1
   1 -22   2 1743.49 905.905   3
  -1 -21   2 696.506 841.850   3
 -22  21   2 928.367 739.518   2
 -21  22   2 1682.72 824.188   2
 -22  21   2 3040.57 1213.94   4
 -21  22   2 4166.66 1317.77   4
 -22  21   5 4461.97 1175.90   4
 -21  22   5 4866.94 1135.37   4
   1 -22   5 2416.64 1177.46   3
  -1 -21   5 3205.90 1224.36   3
 -22  22  -5-37.2130 912.760   2
   0 -22  -5 418.885 956.110   3
  22   0  -5 1420.02 955.765   1
 -22  22  -5 818.323 1208.06   4
  22   0  -2 3778.18 985.044   1
 -22  22  -2 3718.56 1080.75   2
   0 -22  -2 4085.06 1008.32   3
 -22  22  -2 6043.69 1483.61   4
   0 -22   1 885.130 833.859   3
 -22  22   1-26.6798 713.532   2
  22   0   1 1783.64 951.142   1
 -22  22   1 418.713 993.676   4
 -22  22   4 715.147 1002.98   4
   0 -22   4 472.111 960.083   3
 -22  22   4-19.6899 816.025   2
   0 -22   7 218.003 1296.09   3
  23 -23  -5-1876.31 1284.84   3
  23 -23  -5-180.758 697.864   1
   0  23  -5 226.012 1140.77   1
 -23   0  -5 1059.89 1197.37   4
 -23   0  -5 1525.11 1553.05   2
  23 -23  -2 7431.01 1359.02   3
   0  23  -2 5327.00 1007.30   1
 -23   0  -2 6596.75 1545.06   4
 -23   0  -2 8017.68 1767.56   2
   0  23   1-476.113 465.902   1
 -23   0   1 41.7510 949.742   2
  23 -23   1 1094.89 724.673   3
 -23   0   1 1813.63 1268.70   4
 -23   0   4 1933.55 645.736   2
  23 -23   4 737.068 718.047   3
  23 -22  -6 4066.75 1496.72   3
  22 -23  -6 5502.86 1685.80   3
  -1  23  -6 5345.54 1786.36   1
   1  22  -6 6545.15 1712.73   1
 -22  -1  -6 4560.10 1511.69   4
 -23   1  -6 6169.93 1696.61   4
  23 -22  -6 3722.27 890.552   1
 -22  -1  -6 7291.71 2041.51   2
 -23   1  -6 4478.14 1855.88   2
  23 -22  -3 12915.1 1737.71   3
  22 -23  -3 13324.6 1737.10   3
  -1  23  -3 10895.0 1458.42   1
   1  22  -3 10003.3 1361.91   1
 -22  -1  -3 11978.9 1700.82   4
 -23   1  -3 14260.2 1966.28   4
 -22  -1  -3 10592.8 1986.31   2
 -23   1  -3 11250.5 1992.15   2
  22 -23   0 6812.40 1112.34   3
  23 -22   0 5461.77 1052.37   3
  -1  23   0 6162.53 766.987   1
   1  22   0 4600.40 742.953   1
 -22  -1   0 4661.18 1260.06   4
 -23   1   0 6437.58 1407.55   4
 -22  -1   0 8072.53 1531.77   2
 -23   1   0 7973.96 1531.41   2
 -23   1   3 10739.4 1100.99   2
  23 -22   3 10203.3 993.445   3
  22 -23   3 9851.96 1019.32   3
 -22  -1   3 13182.0 1703.85   4
 -23   1   3 12169.1 1669.81   4
 -22  -1   3 10335.3 1133.28   2
 -22  -1   6 4077.58 1355.27   4
 -23   1   6 4370.48 1326.47   4
  23 -21  -7 833.604 1475.32   3
  23 -21  -7 2380.91 841.018   1
  21 -23  -7 2887.11 1459.90   3
  -2  23  -7 1070.67 1477.03   1
   2  21  -7 139.785 1361.36   1
 -21  -2  -7 3756.28 1503.52   4
 -23   2  -7 3431.73 1528.96   4
 -21  -2  -7 2312.51 1717.74   2
 -23   2  -7-1410.64 1753.01   2
  23 -21  -4-135.002 1192.37   3
  21 -23  -4 2094.17 1155.29   3
  -2  23  -4 1215.72 1134.20   1
   2  21  -4-554.142 936.380   1
  23 -21  -4 707.900 773.901   1
 -21  -2  -4 2073.69 1202.96   4
 -23   2  -4-1359.78 1193.73   4
 -21  -2  -4-52.9943 1394.35   2
 -23   2  -4 1330.31 1281.28   2
 -23   2  -1 347.444 1095.21   2
   2  21  -1 609.599 648.182   1
  23 -21  -1 1893.34 948.313   3
  21 -23  -1 1278.89 878.581   3
 -21  -2  -1 901.619 1055.17   4
  -2  23  -1 1493.93 665.890   1
 -23   2  -1 1007.97 1108.88   4
 -21  -2  -1 539.128 1190.32   2
 -21  -2   2 2840.40 988.838   2
 -23   2   2 3090.37 927.486   2
  23 -21   2 3117.48 679.269   3
  21 -23   2 1201.93 661.433   3
   2  21   2 1566.89 558.104   1
 -21  -2   2 2718.08 1141.00   4
 -23   2   2 3740.62 1261.36   4
  21 -23   5 3354.95 902.810   3
 -21  -2   5 3498.55 1180.53   4
 -23   2   5 4737.56 1306.73   4
  23 -20  -5 1319.81 1296.62   3
  20 -23  -5 151.710 1099.17   3
  -3  23  -5 1969.88 1235.46   1
   3  20  -5 1471.30 1112.01   1
  23 -20  -5 2219.14 870.834   1
 -20  -3  -5 1448.69 1122.27   4
 -23   3  -5 2041.09 1320.97   4
 -20  -3  -5 3782.45 1716.23   2
 -23   3  -5 1836.29 1395.50   2
  23 -20  -2 9670.13 1517.82   3
  -3  23  -2 7973.13 1192.85   1
  20 -23  -2 7390.48 1271.09   3
   3  20  -2 8461.45 1077.67   1
 -20  -3  -2 9174.81 1554.64   4
 -23   3  -2 8364.01 1572.88   4
 -20  -3  -2 10443.8 1852.92   2
 -23   3  -2 10367.6 1684.22   2
   3  20   1 3128.86 691.739   1
 -23   3   1 2470.46 958.476   2
  23 -20   1 3755.15 828.298   3
  20 -23   1 1368.57 768.716   3
 -20  -3   1 2628.62 1107.86   4
 -23   3   1 2858.78 1150.97   4
  -3  23   1 2183.14 426.400   1
 -20  -3   1 3338.68 1169.99   2
 -20  -3   4 2290.24 601.768   2
 -23   3   4 2326.12 659.797   2
  23 -20   4 1879.41 611.783   3
  20 -23   4 3114.95 861.330   3
 -20  -3   4 2525.48 1125.55   4
 -23   3   4 3013.71 1147.83   4
 -20  -3   7 2916.18 1163.63   4
 -23   3   7 1063.50 972.484   4
  23 -19  -6 10169.1 1910.14   3
  19 -23  -6 9275.48 1771.76   3
   4  19  -6 12493.1 1913.49   1
  23 -19  -6 7107.22 1062.66   1
 -19  -4  -6 13443.0 1896.02   4
 -19  -4  -6 12255.1 2314.51   2
 -23   4  -6 9304.91 1798.28   4
  -4  23  -6 12309.2 2003.80   1
 -23   4  -6 6422.39 1808.84   2
  23 -19  -3 16752.1 1866.83   3
  19 -23  -3 15808.3 1710.63   3
  23 -19  -3 11514.4 1297.56   1
   4  19  -3 13482.9 1456.82   1
 -19  -4  -3 13538.4 1704.06   4
 -23   4  -3 10497.7 1767.20   4
 -19  -4  -3 13702.2 2171.39   2
 -23   4  -3 13886.8 1947.17   2
  -4  23  -3 15057.3 1642.20   1
  23 -19   0 11979.9 1295.86   3
  19 -23   0 9619.20 1165.00   3
  -4  23   0 9806.53 811.429   1
 -19  -4   0 9463.53 1449.07   4
 -19  -4   0 10837.0 1684.25   2
 -23   4   0 13316.8 1772.91   4
   4  19   0 9237.05 924.044   1
 -23   4   0 10312.1 1467.09   2
 -23   4   3 12723.0 1126.48   2
  23 -19   3 11318.6 905.298   3
  19 -23   3 11906.0 1098.17   3
 -19  -4   3 13513.7 1604.64   4
 -23   4   3 15918.7 1747.09   4
 -19  -4   3 12731.6 1220.25   2
  19 -23   6 2863.26 976.824   3
 -19  -4   6 2477.54 1111.39   4
 -23   4   6 1964.19 1063.47   4
 -23   5  -7 2646.39 1652.82   2
  23 -18  -7 2833.81 1517.09   3
  -5  23  -7 1165.98 1525.20   1
  18 -23  -7 3819.16 1464.61   3
  23 -18  -7 2158.77 879.607   1
   5  18  -7 4420.88 1570.61   1
 -18  -5  -7 4635.81 1444.58   4
 -23   5  -7 6369.15 1645.33   4
 -18  -5  -7 4700.71 1835.23   2
 -23   5  -4 2589.55 1281.13   2
  23 -18  -4 2781.99 1373.90   3
  -5  23  -4 3905.94 1271.56   1
  18 -23  -4 4671.43 1280.43   3
  23 -18  -4 3600.42 971.146   1
 -18  -5  -4 3456.20 806.356   3
   5  18  -4 3168.19 1064.31   1
 -18  -5  -4 5025.12 1299.91   4
 -23   5  -4 4377.83 1363.53   4
 -18  -5  -4 4200.94 1595.83   2
  -5  23  -1 12422.3 1167.57   1
  23 -18  -1 12092.3 1494.38   3
  18 -23  -1 10065.4 1303.56   3
  23 -18  -1 11433.7 1293.09   1
   5  18  -1 8926.92 1012.09   1
 -18  -5  -1 10723.6 1460.12   4
 -18  -5  -1 10770.8 1761.30   2
 -23   5  -1 14536.3 1846.80   4
 -23   5  -1 9636.88 1509.18   2
 -23   5   2 496.212 682.622   2
   5  18   2 1481.24 663.161   1
  23 -18   2 864.595 542.294   3
  18 -23   2 760.569 671.629   3
 -18  -5   2 2856.91 1050.44   4
 -23   5   2 2642.22 1102.42   4
 -18  -5   2 2061.62 948.333   2
 -23   5   5 5981.54 786.171   2
  18 -23   5 5995.34 1103.27   3
 -18  -5   5 7367.57 1340.78   4
 -23   5   5 8135.50 1347.76   4
 -23   6  -5 6744.04 1642.84   2
  23 -17  -5 5507.30 1544.37   3
  -6  23  -5 5629.77 1552.91   1
  17 -23  -5 2924.20 1133.10   3
 -17  -6  -5 3354.75 814.298   3
  -6  23  -5 5119.48 950.435   2
   6  17  -5 5131.29 1290.85   1
 -17  -6  -5 4774.18 1265.13   4
 -23   6  -5 3347.37 1323.70   4
 -17  -6  -5 5540.73 1715.85   2
  23 -17  -5 3191.39 885.506   1
  23 -17  -2 13016.3 1635.63   3
  17 -23  -2 7490.06 1216.97   3
  23 -17  -2 10166.9 1258.65   1
   6  17  -2 9486.82 1112.64   1
 -17  -6  -2 6544.14 992.260   3
 -17  -6  -2 7676.79 1349.44   4
 -23   6  -2 11263.5 1730.13   4
 -17  -6  -2 8954.96 1749.09   2
 -23   6  -2 7786.28 1462.11   2
  -6  23  -2 7785.74 1215.92   1
  23 -17   1 6197.82 922.259   3
 -23   6   1 4474.19 993.826   2
   6  17   1 2912.75 729.682   1
  17 -23   1 3929.09 877.060   3
  -6  23   1 2361.18 329.224   1
 -17  -6   1 3755.29 1088.28   4
 -23   6   1 3287.06 1203.59   4
 -17  -6   1 5514.21 1331.14   2
 -17  -6   4 3054.02 610.608   2
 -23   6   4 2413.66 746.284   2
  17 -23   4 3752.62 900.738   3
  23 -17   4 1768.04 329.300   3
 -17  -6   4 3819.24 1171.00   4
 -23   6   4 2848.58 1116.94   4
  17 -23   7 6672.14 1277.26   3
 -17  -6   7 8788.86 1401.31   4
 -23   6   7 5599.22 1230.76   4
  23 -16  -6 10465.0 1887.53   3
  16 -23  -6 7243.26 1433.63   3
   7  16  -6 8903.64 1649.81   1
  23 -16  -6 7880.57 1193.02   1
 -16  -7  -6 8349.81 1025.18   3
  -7  23  -6 10945.2 1234.14   2
 -16  -7  -6 10368.7 1627.13   4
 -23   7  -6 9515.52 1758.16   4
  -7  23  -6 13124.2 2222.17   1
 -16  -7  -6 8105.52 2005.76   2
 -23   7  -6 11799.7 2004.56   2
  23 -16  -3 14956.3 1784.75   3
  16 -23  -3 16028.1 1636.46   3
   7  16  -3 11897.4 1321.70   1
 -16  -7  -3 14616.8 1272.06   3
 -16  -7  -3 12946.4 1566.32   4
 -16  -7  -3 13892.4 1994.08   2
 -23   7  -3 12919.4 1870.96   4
  -7  23  -3 14231.2 1720.57   1
  23 -16  -3 15121.2 1397.27   1
 -23   7  -3 14369.1 1854.69   2
  -7  23   0 4727.33 718.185   1
  23 -16   0 6503.87 1167.32   3
 -23   7   0 4927.75 1126.04   2
  16 -23   0 4091.25 865.611   3
 -16  -7   0 4510.22 978.611   3
   7  16   0 3614.95 744.770   1
 -16  -7   0 4354.06 1140.49   4
 -23   7   0 4544.33 1292.93   4
 -16  -7   0 5369.03 1444.34   2
 -23   7   3 1049.26 663.172   2
  23 -16   3 1080.63 436.182   3
  16 -23   3 1797.32 706.875   3
   7  16   3 1267.78 658.863   1
 -16  -7   3 2899.65 1050.55   4
 -23   7   3 1737.40 1027.82   4
 -16  -7   3 1682.94 866.175   2
  16 -23   6 6642.36 1205.83   3
 -16  -7   6 7463.69 1364.01   4
 -23   7   6 5882.00 1200.36   4
  23 -15  -7 13838.8 2344.88   3
  23 -15  -7 7834.21 1232.52   1
  15 -23  -7 8722.75 1596.11   3
   8  15  -7 8834.42 1724.67   1
 -15  -8  -7 8245.08 1063.54   3
  -8  23  -7 8073.20 1127.45   2
 -15  -8  -7 8121.75 1516.13   4
  -8  23  -7 10874.9 2129.45   1
 -23   8  -7 10752.3 1848.19   4
 -15  -8  -7 8537.33 2083.61   2
 -23   8  -7 12941.9 2091.98   2
  -8  23  -4 2287.97 1320.19   1
 -23   8  -4 2275.52 1182.12   2
  23 -15  -4 3599.78 1347.91   3
  15 -23  -4 1734.08 1054.85   3
 -15  -8  -4 3141.28 873.549   3
  -8  23  -4 2076.71 805.776   2
 -15  -8  -4 1165.18 934.359   4
 -15  -8  -4 1035.11 1407.93   2
 -23   8  -4 1840.17 1216.40   4
   8  15  -4 1842.71 939.092   1
  23 -15  -4 1613.40 816.794   1
  23 -15  -1 11690.6 1485.91   3
  15 -23  -1 6737.35 1100.86   3
  23 -15  -1 7318.35 1142.51   1
 -15  -8  -1 7049.62 1085.71   3
 -15  -8  -1 6754.10 1264.44   4
   8  15  -1 6511.87 940.927   1
 -15  -8  -1 7276.56 1617.60   2
 -23   8  -1 6793.27 1379.86   4
  -8  23  -1 6043.05 1037.75   1
 -23   8  -1 7840.37 1344.38   2
  23 -15   2 1361.90 523.081   3
   8  15   2-288.029 638.916   1
 -23   8   2 1738.77 693.463   2
  15 -23   2 1047.16 642.776   3
 -15  -8   2 267.247 907.053   4
 -23   8   2 2219.97 994.589   4
 -15  -8   2 1642.13 1027.36   2
 -23   8   5 10889.4 1068.42   2
  15 -23   5 8909.69 1242.37   3
 -15  -8   5 12080.4 1563.08   4
 -23   8   5 9776.25 1439.89   4
 -15  -8   8 4862.98 1221.40   4
  -9  23  -8 5300.81 2129.58   1
 -23   9  -8 1958.45 1424.25   2
  23 -14  -8 764.570 1650.94   3
  14 -23  -8 1426.91 1135.74   3
  -9  23  -8 1367.97 905.725   2
   9  14  -8 1465.92 1394.34   1
 -14  -9  -8 3810.67 1371.17   4
  23 -14  -8 2710.13 977.428   1
 -14  -9  -8 6005.86 1970.90   2
 -23   9  -8 2772.26 1501.67   4
  23 -14  -5 17362.3 2207.56   3
  14 -23  -5 11237.8 1604.05   3
  23 -14  -5 12244.4 1328.19   1
   9  14  -5 12988.8 1539.37   1
 -14  -9  -5 13980.1 1271.60   3
  -9  23  -5 12518.7 1279.33   2
 -14  -9  -5 12921.9 1598.32   4
 -14  -9  -5 16449.9 2303.82   2
  -9  23  -5 15736.7 2089.16   1
 -23   9  -5 15401.2 2024.32   4
 -23   9  -5 16563.5 2123.75   2
  -9  23  -2 447.852 891.704   1
  23 -14  -2 122.621 999.059   3
 -23   9  -2 200.385 945.148   2
   9  14  -2 269.347 730.480   1
  14 -23  -2 1518.51 825.995   3
 -14  -9  -2 301.866 835.517   3
  -9  23  -2 1039.68 812.833   2
 -14  -9  -2 1065.79 879.524   4
  23 -14  -2 1370.48 817.705   1
 -14  -9  -2 1354.39 1191.49   2
 -23   9  -2 1928.59 1146.25   4
 -23   9   1 10068.3 1185.98   2
  -9  23   1 8342.26 542.272   1
  23 -14   1 14235.0 1264.07   3
   9  14   1 10123.9 1061.22   1
  14 -23   1 9355.96 1107.48   3
 -14  -9   1 12714.3 1417.78   3
 -14  -9   1 12040.9 1497.41   4
 -14  -9   1 16282.2 1844.57   2
 -23   9   1 14450.4 1657.84   4
 -23   9   4 1315.88 700.244   2
  14 -23   4 1640.98 843.493   3
 -14  -9   4 2705.98 1094.25   4
 -23   9   4 948.753 981.315   4
 -14  -9   4 1737.23 707.806   2
 -14  -9   7 6743.73 1323.02   4
  14 -23   7 4989.59 1217.71   3
 -23   9   7 6254.44 1122.59   4
 -10  23  -6 10343.8 1630.55   4
  23 -13  -6 16917.2 2273.91   3
  23 -13  -6 12077.8 1377.88   1
  13 -23  -6 11225.7 1565.56   3
  10  13  -6 11177.0 1687.98   1
 -10  23  -6 10785.0 1244.47   2
 -13 -10  -6 10851.9 1202.28   3
 -13 -10  -6 11010.2 1592.12   4
 -13 -10  -6 12776.7 2132.62   2
 -10  23  -6 15035.5 2441.62   1
 -23  10  -6 11025.7 1833.73   4
 -23  10  -6 12251.2 1854.19   2
 -10  23  -3 73.5097 909.579   4
  10  13  -3-577.093 829.858   1
  23 -13  -3 111.264 1022.31   3
  23 -13  -3-129.415 701.869   1
 -23  10  -3 648.775 1013.46   2
  13 -23  -3 450.394 857.745   3
 -13 -10  -3-196.604 693.288   3
 -10  23  -3-671.773 710.273   2
 -13 -10  -3 1431.20 889.565   4
 -13 -10  -3 2456.50 1327.62   2
 -23  10  -3 953.397 1154.32   4
 -10  23  -3 2628.84 1212.74   1
  10  13   0 16849.6 1287.25   1
 -23  10   0 15928.3 1529.66   2
  23 -13   0 23867.5 1771.63   3
  13 -23   0 16400.1 1404.72   3
 -13 -10   0 20132.3 1593.59   3
  23 -13   0 17012.8 1447.26   1
 -10  23   0 14078.4 884.277   1
 -13 -10   0 20427.5 1834.64   4
 -13 -10   0 19631.2 2078.07   2
 -10  23   0 18034.3 1286.34   1
 -23  10   0 19632.1 1929.79   4
 -23  10   3 4290.13 868.317   2
  23 -13   3 2590.15 340.120   3
  10  13   3 4018.38 930.309   1
  13 -23   3 2953.25 864.540   3
  23 -13   3 2615.50 356.390   3
 -13 -10   3 3469.04 1061.88   3
 -13 -10   3 6187.48 1328.83   4
 -13 -10   3 3337.21 1056.27   2
 -23  10   3 4337.68 1127.42   4
  13 -23   6 7434.18 1339.98   3
 -13 -10   6 7328.81 1416.06   4
 -23  10   6 6656.25 1173.16   4
 -23  11  -7 7027.73 1697.56   2
  12 -23  -7 6759.68 1449.81   3
 -12 -11  -7 5686.45 1040.38   3
 -11  23  -7 4946.67 1010.21   2
 -12 -11  -7 6949.71 1326.38   4
  23 -12  -7 5332.82 1135.03   1
  11  12  -7 6666.05 1495.52   1
 -12 -11  -7 6011.66 1841.52   2
 -23  11  -7 5209.66 1538.44   4
 -11  23  -7 7950.02 2106.17   1
 -11  23  -7 7240.41 1458.00   4
 -11  23  -4-623.398 945.535   4
 -23  11  -4 935.779 1011.03   2
  12 -23  -4-1320.13 988.609   3
  23 -12  -4-241.136 717.563   1
 -12 -11  -4 188.908 674.072   3
 -11  23  -4 804.839 753.514   2
 -12 -11  -4 1548.28 938.301   4
 -12 -11  -4 1399.91 1329.68   2
 -23  11  -4-189.889 1152.68   4
 -11  23  -4 2162.65 1392.70   1
  11  12  -4-1008.55 838.947   1
 -23  11  -1 18733.7 1723.86   2
 -11  23  -1 19648.3 1876.72   4
  23 -12  -1 22720.8 1851.55   3
  23 -12  -1 18651.5 1520.13   1
  12 -23  -1 19248.8 1495.36   3
 -12 -11  -1 17294.8 1415.03   3
 -11  23  -1 19303.3 1538.87   2
 -12 -11  -1 21005.4 1863.20   4
 -12 -11  -1 20657.7 2113.14   2
 -11  23  -1 18802.9 1645.11   1
 -23  11  -1 19003.8 1955.16   4
  11  12  -1 14906.4 1251.28   1
  23 -12   2 4682.29 702.917   3
 -23  11   2 2888.39 821.014   2
  11  12   2 2748.52 810.133   1
  12 -23   2 3491.17 824.674   3
  23 -12   2 3831.81 605.454   3
 -12 -11   2 4658.07 1087.85   3
 -12 -11   2 5650.94 1307.97   2
 -23  11   2 4046.24 1180.02   4
 -23  11   5 15211.2 1322.18   2
  12 -23   5 18322.2 1590.84   3
 -23  11   5 14218.4 1539.23   4
 -12 -11   8 4284.33 1304.25   4
 -12  23  -8 2495.49 1204.22   4
 -23  12  -8 4482.35 1570.87   2
  11 -23  -8 3870.54 1368.88   3
 -11 -12  -8 1087.06 891.560   3
 -12  23  -8 2477.68 963.225   2
  23 -11  -8 491.569 939.518   1
 -11 -12  -8 876.272 1071.19   4
  12  11  -8 4624.10 1580.79   1
 -11 -12  -8 2974.66 1757.56   2
 -23  12  -8 4711.15 1541.91   4
 -12  23  -8 5499.08 2181.61   1
  23 -11  -5 13997.5 1434.98   1
  11 -23  -5 15148.0 1636.32   3
 -12  23  -5 17154.6 1513.69   2
 -11 -12  -5 13319.3 1270.64   3
  12  11  -5 15764.3 1671.84   1
 -11 -12  -5 16826.4 1752.36   4
 -11 -12  -5 18782.4 2313.58   2
 -12  23  -5 17783.4 2345.90   1
 -23  12  -5 17300.4 2109.31   4
 -23  12  -5 15687.1 1961.25   2
 -12  23  -5 17291.0 1884.31   4
 -12  23  -2 4469.02 1201.53   4
 -23  12  -2 5442.09 1183.43   2
  23 -11  -2 2099.75 841.588   1
  11 -23  -2 4522.78 1009.08   3
  12  11  -2 3559.45 890.994   1
 -11 -12  -2 4616.37 923.955   3
 -12  23  -2 2968.29 853.798   2
 -11 -12  -2 3255.01 996.349   4
 -11 -12  -2 6052.04 1458.72   2
 -12  23  -2 4163.16 1220.78   1
 -23  12  -2 5503.24 1388.59   4
  23 -11   1 25501.3 1671.44   3
 -23  12   1 21163.7 1538.45   2
 -12  23   1 15697.4 739.022   1
  11 -23   1 15707.7 1321.63   3
  12  11   1 18705.9 1394.12   1
 -11 -12   1 19201.2 1579.27   3
 -11 -12   1 23402.5 2169.49   2
 -12  23   1 15344.2 1070.39   1
 -23  12   1 25318.1 2108.21   4
  23 -11   1 17789.3 1560.75   1
  11 -23   4 51.1155 792.557   3
 -23  12   4 27.0692 665.868   2
 -11 -12   4-541.963 906.511   3
 -11 -12   4 1761.76 905.996   2
 -23  12   4 650.635 891.374   4
  11 -23   7 6950.19 1441.44   3
 -23  12   7 5203.04 1016.51   4
  10 -23  -6 7219.66 1377.29   3
 -10 -13  -6 4097.12 983.242   3
 -13  23  -6 3383.39 900.950   2
 -10 -13  -6 9930.01 1911.01   2
 -10 -13  -6 7072.84 1345.04   4
  23 -10  -6 3440.12 1005.53   1
 -13  23  -6 6080.67 2022.60   1
 -23  13  -6 7658.44 1619.22   4
  13  10  -6 4494.06 1276.20   1
 -23  13  -6 7980.33 1674.57   2
 -13  23  -6 10327.2 1694.62   4
 -13  23  -3 4378.91 1229.31   4
 -23  13  -3 3199.10 1121.01   2
  13  10  -3 3123.89 882.861   1
  10 -23  -3 3745.90 1054.98   3
 -10 -13  -3 2468.01 827.787   3
 -13  23  -3 3343.20 863.482   2
  23 -10  -3 3171.86 878.303   1
 -10 -13  -3 4094.60 1158.04   4
 -10 -13  -3 4824.25 1497.88   2
 -13  23  -3 3301.63 1285.39   1
 -23  13  -3 4235.01 1330.41   4
 -23  13   0 18214.1 1576.14   2
  13  10   0 18430.4 1382.94   1
  23 -10   0 17260.3 1478.62   1
  10 -23   0 16747.6 1397.43   3
 -10 -13   0 18985.7 1540.65   3
 -13  23   0 15610.9 1396.89   2
 -13  23   0 17363.2 1442.66   1
 -23  13   0 18929.0 1888.16   4
 -13  23   0 16771.1 988.064   1
  23 -10   3 585.923 240.364   3
  13  10   3-666.782 901.278   1
 -23  13   3 635.821 653.009   2
  10 -23   3 711.981 766.766   3
 -10 -13   3 1537.49 1058.26   3
 -23  13   3-1128.26 1035.82   4
  10 -23   6 12602.3 1621.99   3
 -23  13   6 12061.8 1353.61   4
 -14  23  -7 7640.78 1554.19   4
 -23  14  -7 4332.73 1472.73   2
   9 -23  -7 2806.40 1104.54   3
  -9 -14  -7 4794.35 1071.33   3
 -14  23  -7 5392.75 1070.10   2
  23  -9  -7 4477.17 1167.68   1
  -9 -14  -7 6388.20 1378.11   4
  -9 -14  -7 5169.66 1727.63   2
 -14  23  -7 8508.60 2260.43   1
 -23  14  -7 5113.33 1544.61   4
  14   9  -7 6357.60 1398.05   1
 -14  23  -4 1123.21 1006.92   4
  14   9  -4 1259.87 896.662   1
  23  -9  -4 867.589 790.935   1
 -23  14  -4 2104.50 1045.80   2
   9 -23  -4 1693.84 967.733   3
  -9 -14  -4 1225.77 737.718   3
 -14  23  -4 1682.67 822.495   2
  -9 -14  -4 617.158 970.416   4
  -9 -14  -4 1353.19 1226.42   2
 -23  14  -4-240.198 1057.31   4
 -23  14  -1 9489.74 1260.58   2
   9 -23  -1 10564.7 1241.09   3
 -14  23  -1 9559.97 1187.59   2
  -9 -14  -1 10096.0 1176.97   3
  23  -9  -1 9169.10 1149.66   1
 -23  14  -1 13475.2 1718.19   4
 -14  23  -1 14126.0 1725.63   4
  14   9  -1 9702.51 1146.55   1
 -14  23   2 352.955 940.964   4
  23  -9   2 1774.86 767.251   3
  23  -9   2 424.490 763.855   1
 -23  14   2 646.583 757.210   2
   9 -23   2-616.758 759.739   3
  23  -9   2 624.588 501.586   3
  14   9   2 978.710 775.580   1
  -9 -14   2 637.182 799.174   3
 -23  14   2 881.334 1011.33   4
 -14  23   2 144.080 353.789   1
   9 -23   5 13047.1 1478.26   3
 -23  14   5 12855.1 1331.38   2
 -23  14   5 11592.4 1428.61   4
 -15  23  -8 3030.39 1394.89   4
 -23  15  -8 2691.24 1288.00   2
   8 -23  -8 2039.28 1104.61   3
  -8 -15  -8 2062.81 1001.07   3
 -15  23  -8 2978.49 1105.39   2
  23  -8  -8 2088.47 1039.77   1
  -8 -15  -8 4391.13 1245.32   4
  -8 -15  -8 3624.36 1846.35   2
 -15  23  -8 3423.87 2155.62   1
  15   8  -8 347.476 1165.47   1
 -23  15  -8 2662.05 1422.03   4
 -23  15  -5 10143.4 1559.46   2
  23  -8  -5 9131.71 1269.49   1
   8 -23  -5 9948.33 1462.98   3
 -15  23  -5 8021.57 1193.07   2
  -8 -15  -5 8054.38 1118.47   3
  15   8  -5 10563.4 1513.43   1
  -8 -15  -5 14228.1 2170.06   2
  -8 -15  -5 9250.84 1428.53   4
 -23  15  -5 13450.6 1892.79   4
 -15  23  -5 10553.0 1659.80   4
 -15  23  -2 2019.70 1073.60   4
 -23  15  -2 979.331 909.963   2
   8 -23  -2 1563.28 839.457   3
  -8 -15  -2 290.102 708.300   3
 -15  23  -2 1151.32 774.423   2
  15   8  -2 38.1997 686.329   1
  23  -8  -2-85.7064 749.197   1
 -23  15  -2 2028.03 1132.62   4
 -23  15   1 7030.53 1038.59   2
   8 -23   1 6287.07 1018.73   3
  23  -8   1 5938.29 1077.37   1
  23  -8   1 6189.14 803.928   3
  15   8   1 6604.71 1066.17   1
  -8 -15   1 3923.92 953.685   3
 -15  23   1 4661.82 954.812   2
 -15  23   1 3891.25 588.390   1
 -23  15   1 5396.28 1259.19   4
 -15  23   1 8221.76 1403.91   4
   8 -23   4 1377.11 906.453   3
 -23  15   4 3091.71 865.474   2
  -8 -15   4 1427.99 943.018   3
 -23  15   4 1902.86 908.740   4
   8 -23   7 6265.92 1491.75   3
 -23  15   7 8804.12 1192.62   4
 -16  23  -6 5239.29 1391.32   4
  16   7  -6 5944.99 1338.38   1
 -23  16  -6 5957.63 1373.99   2
   7 -23  -6 2648.83 1105.78   3
  -7 -16  -6 3271.14 976.513   3
 -16  23  -6 5048.28 1132.40   2
  23  -7  -6 6510.04 1192.36   1
  -7 -16  -6 6403.00 1307.86   4
  -7 -16  -6 4390.60 1634.30   2
 -23  16  -6 6341.12 1556.76   4
 -16  23  -3 3668.28 1200.14   4
 -23  16  -3 1740.02 961.054   2
  23  -7  -3 1667.79 827.677   1
   7 -23  -3 705.693 772.822   3
  16   7  -3 1245.02 830.285   1
  -7 -16  -3 1355.74 750.325   3
 -16  23  -3 1623.44 822.633   2
 -23  16  -3 339.043 1020.43   4
 -23  16   0 3484.68 880.766   2
  16   7   0 3668.94 884.559   1
   7 -23   0 3961.55 958.263   3
  -7 -16   0 4252.48 987.865   3
 -16  23   0 1747.65 786.105   2
  23  -7   0 2652.01 874.780   1
 -16  23   0 2774.11 617.880   1
 -23  16   0 5221.63 1278.05   4
  23  -7   3 11323.1 773.084   3
  23  -7   3 11064.7 665.111   3
 -23  16   3 10503.4 1177.51   2
   7 -23   3 14056.8 1408.95   3
  16   7   3 11805.6 1392.09   1
  -7 -16   3 11568.8 1454.63   3
 -23  16   3 14241.6 1616.45   4
 -16  23   3 15243.4 1666.36   4
   7 -23   6 13235.0 1713.83   3
 -23  16   6 10663.9 1314.10   4
  17   6  -7 7282.63 1474.66   1
 -23  17  -7 4078.76 1320.57   2
 -17  23  -7 7472.39 1384.53   2
   6 -23  -7 3245.33 1203.74   3
  -6 -17  -7 4898.29 1108.31   3
  23  -6  -7 4063.40 1113.32   1
  -6 -17  -7 5504.93 1293.49   4
  -6 -17  -7 7759.00 1843.10   2
 -23  17  -7 6114.40 1652.42   4
 -17  23  -7 8076.30 1689.84   4
 -23  17  -4 1431.21 954.948   2
   6 -23  -4 3022.03 1025.55   3
  17   6  -4 4422.77 1047.89   1
  -6 -17  -4 3220.05 941.338   3
 -17  23  -4 2030.95 873.022   2
 -23  17  -4 1748.73 1209.24   4
  23  -6  -4 2978.37 977.181   1
 -17  23  -4 5115.48 1411.03   4
 -17  23  -1 6412.74 1338.48   4
  17   6  -1 4020.22 917.449   1
 -23  17  -1 5797.25 1111.25   2
  23  -6  -1 3846.84 954.713   1
 -17  23  -1 5065.41 997.538   2
   6 -23  -1 4452.79 946.861   3
  -6 -17  -1 3946.18 898.425   3
 -23  17  -1 4511.27 1237.85   4
 -23  17   2 9570.40 1204.70   2
  23  -6   2 8157.07 798.735   3
   6 -23   2 7624.18 1154.02   3
  -6 -17   2 10811.4 1358.28   3
 -17  23   2 11117.0 1317.45   2
 -17  23   2 6428.61 879.479   1
  23  -6   2 7399.23 1221.58   1
 -23  17   2 10572.2 1465.85   4
 -17  23   2 11004.3 1513.90   4
  17   6   2 10344.5 1317.82   1
   6 -23   5 6079.48 1245.77   3
 -23  17   5 7038.15 1124.60   2
  -6 -17   5 5004.29 1239.51   3
 -23  17   5 4280.83 1126.77   4
 -18  23  -5 7755.28 1323.40   2
   5 -23  -5 7938.09 1299.73   3
 -23  18  -5 5955.78 1307.94   2
  18   5  -5 5726.31 1224.62   1
  -5 -18  -5 6734.10 1146.66   3
  23  -5  -5 4772.69 1097.69   1
 -23  18  -5 6338.14 1448.16   4
 -18  23  -5 8988.69 1650.87   4
 -23  18  -2 1478.63 896.710   2
   5 -23  -2 1281.63 832.764   3
  -5 -18  -2 1720.41 774.603   3
 -18  23  -2 148.759 710.459   2
  23  -5  -2 1864.46 815.805   1
  18   5  -2 1375.54 783.591   1
 -23  18  -2 2419.48 1222.20   4
 -18  23  -2 2582.19 1152.99   4
  23  -5   1 9455.12 1255.19   1
 -23  18   1 10211.9 1191.90   2
   5 -23   1 9812.31 1172.15   3
 -18  23   1 9249.82 1135.90   2
  -5 -18   1 10149.6 1254.12   3
  18   5   1 8795.03 1237.73   1
 -23  18   1 12053.2 1658.73   4
 -18  23   1 9822.13 1501.02   4
 -18  23   4 3631.89 1133.20   4
   5 -23   4 2206.77 1050.25   3
 -23  18   4 2322.95 905.452   2
  -5 -18   4 3349.23 1120.54   3
 -23  18   4 6460.04 1292.12   4
 -23  18   7 3607.54 1023.50   4
   5 -23   7 3192.65 1368.40   3
 -23  19  -6 1783.11 1065.79   2
  19   4  -6 2384.02 1135.46   1
   4 -23  -6 3179.80 1156.97   3
 -19  23  -6 1929.85 1040.07   2
  -4 -19  -6 1581.62 951.713   3
  23  -4  -6 1416.43 958.248   1
 -23  19  -6 1079.43 1125.38   4
 -19  23  -6 2796.74 1321.69   4
 -23  19  -3 17747.5 1750.24   2
  23  -4  -3 11065.6 1336.64   1
 -19  23  -3 14438.3 1529.46   2
   4 -23  -3 13296.4 1473.09   3
  -4 -19  -3 12744.7 1315.08   3
 -23  19  -3 15409.6 1878.04   4
 -19  23  -3 16164.0 1894.79   4
  19   4  -3 12632.2 1376.86   1
 -23  19   0 11600.8 1384.44   2
   4 -23   0 9664.81 1202.10   3
 -19  23   0 10168.7 1233.96   2
  -4 -19   0 11803.5 1337.01   3
  19   4   0 10894.3 1273.94   1
  23  -4   0 10168.2 1277.78   1
 -23  19   0 12910.1 1730.35   4
 -19  23   0 10789.5 1631.18   4
 -23  19   3 13819.1 1392.51   2
   4 -23   3 14873.3 1550.14   3
  -4 -19   3 14284.5 1575.37   3
 -19  23   3 12868.7 1418.23   2
  19   4   3 10055.5 1471.38   1
 -23  19   3 11845.2 1598.24   4
 -19  23   3 15014.3 1666.83   4
  23  -4   3 11832.7 1484.19   1
   4 -23   6 9876.61 1632.15   3
  -4 -19   6 10073.4 1651.58   3
 -23  19   6 9188.72 1295.92   4
  20   3  -7 1988.80 1200.86   1
 -23  20  -7 1591.58 1055.87   2
   3 -23  -7 1521.58 965.858   3
 -20  23  -7 2734.35 1121.84   2
  -3 -20  -7 2186.13 1069.79   3
  23  -3  -7 1887.60 1068.37   1
 -23  20  -7 1783.35 1314.17   4
 -20  23  -7 5054.31 1483.89   4
 -23  20  -4 3487.57 1145.27   2
   3 -23  -4 1104.22 952.971   3
 -20  23  -4 5026.43 1132.69   2
  -3 -20  -4 2108.75 961.727   3
  20   3  -4 4647.94 1043.47   1
  23  -3  -4 3683.01 1028.76   1
 -23  20  -4 3108.77 1217.15   4
 -20  23  -4 4244.93 1322.30   4
  20   3  -1 3084.05 907.039   1
 -23  20  -1 2221.71 926.115   2
   3 -23  -1 3561.81 951.631   3
  -3 -20  -1 1597.89 805.742   3
 -20  23  -1 4625.68 1023.01   2
 -23  20  -1 5432.86 1410.61   4
  23  -3  -1 2891.82 948.289   1
 -20  23  -1 4277.92 1365.86   4
  20   3   2 4664.42 1206.10   1
 -23  20   2 8698.47 1192.65   2
   3 -23   2 7959.79 1216.33   3
 -20  23   2 7961.11 1222.79   2
  -3 -20   2 5697.27 1179.55   3
  23  -3   2 6209.05 1244.20   1
 -23  20   2 5677.01 1364.51   4
 -20  23   2 8622.13 1460.30   4
 -20  23   5 1229.89 1007.93   4
   3 -23   5 1094.91 1071.26   3
  -3 -20   5 2560.74 1206.99   3
 -23  20   5 2701.25 1076.31   4
   2 -23  -5 4741.44 1282.96   3
 -23  21  -5 4810.95 1246.63   2
 -21  23  -5 5402.63 1183.16   2
  -2 -21  -5 3087.50 1116.63   3
  21   2  -5 3600.51 1073.44   1
  23  -2  -5 3092.25 1093.46   1
 -23  21  -5 5406.32 1538.87   4
 -21  23  -5 5458.93 1551.72   4
  21   2  -2 4196.89 997.101   1
 -23  21  -2 2724.38 968.045   2
  23  -2  -2 930.623 826.897   1
   2 -23  -2 2372.21 929.611   3
  -2 -21  -2 2423.57 933.324   3
 -21  23  -2 2557.47 980.660   2
 -23  21  -2 4232.67 1404.75   4
 -21  23  -2 2030.93 1188.39   4
   2 -23   1 1472.11 835.177   3
 -23  21   1 1414.67 829.026   2
  -2 -21   1 532.069 870.459   3
  21   2   1 1106.86 838.924   1
 -21  23   1 1756.69 854.375   2
  23  -2   1 1602.97 882.099   1
 -23  21   1-376.284 1067.19   4
 -21  23   1 1512.95 1029.12   4
 -21  23   4 1287.03 938.512   4
   2 -23   4-393.544 1038.51   3
  -2 -21   4 1087.92 1071.43   3
 -23  21   4 52.6096 841.351   2
 -23  21   4 19.9084 933.914   4
 -23  21   7 1450.04 966.667   4
   2 -23   7 648.348 1337.68   3
 -23  22  -6 439.909 1032.23   2
 -22  23  -6 1588.30 981.530   2
   1 -23  -6 2536.15 1086.34   3
  -1 -22  -6 1826.87 968.027   3
  22   1  -6 3830.78 1192.08   1
  23  -1  -6 2218.64 1121.61   1
 -23  22  -6 4065.16 1487.69   4
 -22  23  -6 2836.27 1364.15   4
  22   1  -3 9450.22 1319.96   1
  23  -1  -3 13160.7 1494.97   1
 -23  22  -3 11626.3 1503.02   2
 -22  23  -3 13120.5 1555.09   2
   1 -23  -3 11235.1 1397.48   3
  -1 -22  -3 8691.49 1211.83   3
 -23  22  -3 14291.5 1932.46   4
 -22  23  -3 15424.4 2018.31   4
  22   1   0 6019.00 1099.25   1
  23  -1   0 4813.32 1070.28   1
  -1 -22   0 5027.65 1137.10   3
   1 -23   0 5762.97 1084.72   3
 -23  22   0 5747.15 1084.17   2
 -22  23   0 5693.70 1108.27   2
 -23  22   0 9187.69 1599.27   4
 -22  23   0 6902.65 1442.84   4
   1 -23   3 10315.2 1435.92   3
  -1 -22   3 9287.33 1479.71   3
 -22  23   3 6813.99 1208.00   2
 -23  22   3 6367.10 1119.59   2
  22   1   3 8942.35 1449.91   1
  23  -1   3 9063.11 1488.59   1
 -23  22   3 11224.6 1610.40   4
 -22  23   3 11458.3 1594.19   4
 -23  22   6 5502.55 1212.36   4
   1 -23   6 3756.28 1308.59   3
  -1 -22   6 2066.22 1188.75   3
 -22  23   6 6726.38 1284.40   4
 -23  23  -4 2727.63 1129.37   2
   0 -23  -4 3733.38 1009.34   3
  23   0  -4 2283.97 1016.17   1
 -23  23  -4 4340.66 1424.00   4
   0 -23  -1 415.705 774.464   3
 -23  23  -1-879.174 862.363   2
  23   0  -1-344.702 862.885   1
 -23  23  -1 1543.12 1223.97   4
  23   0   2 4835.73 1218.61   1
   0 -23   2 4924.35 1272.92   3
 -23  23   2 4747.86 1126.72   2
 -23  23   2 7635.90 1512.59   4
 -23  23   5 903.135 994.490   4
   0 -23   5-374.677 1096.39   3
  24 -24  -3 1011.84 1106.65   3
   0  24  -3 835.817 930.015   1
 -24   0  -3 218.332 1124.01   4
 -24   0  -3 1860.46 1372.45   2
  24 -24   0 15936.6 1543.77   3
 -24   0   0 15554.3 1980.81   4
   0  24   0 12724.5 998.694   1
 -24   0   0 17173.0 2025.90   2
 -24   0   3-371.615 722.452   2
  24 -24   3-467.279 644.096   3
 -24   0   3 1635.55 1250.88   4
  24 -23  -4-172.147 1121.16   3
  23 -24  -4 1150.58 1228.24   3
  -1  24  -4 1675.28 1162.32   1
   1  23  -4-4.29485 1004.32   1
 -23  -1  -4 1972.92 1256.79   4
 -24   1  -4 473.265 1213.51   4
 -23  -1  -4 326.966 1559.13   2
 -24   1  -4-859.537 1578.27   2
 -24   1  -1 1546.37 1224.66   2
   1  23  -1 2047.61 732.791   1
  24 -23  -1 4026.78 1091.83   3
  23 -24  -1 2543.07 1064.62   3
 -23  -1  -1 3159.38 1299.29   4
 -24   1  -1 3971.82 1398.08   4
  -1  24  -1 3209.85 768.064   1
 -23  -1  -1 4294.70 1401.47   2
 -23  -1   2 485.826 849.997   2
 -24   1   2 170.256 794.315   2
  24 -23   2 371.349 683.351   3
  23 -24   2 1043.07 744.005   3
 -23  -1   2 651.604 1097.09   4
 -24   1   2 1236.58 1179.36   4
 -23  -1   5 335.450 1143.73   4
 -24   1   5 1212.20 1223.46   4
  24 -22  -5 3831.16 1503.52   3
  22 -24  -5 2483.68 1333.01   3
  24 -22  -5 1389.64 812.832   1
  -2  24  -5 859.972 1194.60   1
   2  22  -5 1156.73 1315.02   1
 -22  -2  -5 2329.87 1228.98   4
 -24   2  -5 1665.03 1318.73   4
 -22  -2  -5 1378.61 1625.53   2
 -24   2  -5 2138.04 1771.28   2
  24 -22  -2 1844.08 1142.47   3
  -2  24  -2 2346.64 875.267   1
 -22  -2  -2 1916.28 1239.86   4
 -24   2  -2 2348.31 1317.14   4
   2  22  -2 1137.59 789.046   1
 -22  -2  -2 1333.70 1438.15   2
 -24   2  -2 3518.03 1424.63   2
 -24   2   1 3305.49 1128.06   2
   2  22   1 2647.19 678.059   1
  24 -22   1 3508.29 831.145   3
  22 -24   1 3355.22 894.746   3
 -22  -2   1 1257.18 1203.75   4
 -24   2   1 2556.00 1265.42   4
  -2  24   1 1567.09 446.814   1
 -22  -2   1 4508.05 1294.11   2
 -24   2   4 2368.89 713.695   2
  24 -22   4 1441.06 736.026   3
  22 -24   4 1455.88 793.860   3
 -24   2   4 531.851 1101.42   4
  24 -21  -6 14235.8 2110.94   3
  21 -24  -6 13652.7 1890.30   3
   3  21  -6 16168.4 2179.85   1
 -21  -3  -6 15018.4 2016.47   4
 -24   3  -6 15851.8 2222.40   4
 -21  -3  -6 22791.1 2910.68   2
  24 -21  -6 13256.0 1338.00   1
 -24   3  -6 17873.0 2537.22   2
  -3  24  -6 15130.5 2268.05   1
  24 -21  -3 1808.18 913.287   1
  24 -21  -3 1777.21 1256.83   3
  21 -24  -3 1629.98 1091.68   3
  -3  24  -3-559.767 1023.82   1
 -21  -3  -3 2483.39 1217.89   4
   3  21  -3 763.061 888.991   1
 -24   3  -3 1288.68 1313.33   4
 -21  -3  -3 1647.24 1483.41   2
 -24   3  -3 3503.40 1417.39   2
  24 -21   0 12842.6 1381.53   3
  21 -24   0 10626.8 1286.08   3
  -3  24   0 11285.6 889.842   1
 -21  -3   0 12536.2 1751.81   4
 -24   3   0 14346.1 1914.71   4
 -21  -3   0 13364.4 1814.17   2
   3  21   0 11716.6 1022.09   1
 -24   3   0 12686.3 1635.54   2
 -21  -3   3 3126.95 887.316   2
 -24   3   3 889.321 650.801   2
  24 -21   3 1120.02 600.318   3
  21 -24   3 1344.25 716.478   3
 -21  -3   3 2088.82 1139.09   4
 -24   3   3 3180.90 1226.83   4
 -24   3   6 7844.94 1465.29   4
 -21  -3   6 7791.15 1465.95   4
  24 -20  -7 1277.76 1556.24   3
  20 -24  -7 5491.25 1665.08   3
  -4  24  -7 1078.45 1448.33   1
   4  20  -7 1802.06 1423.60   1
 -20  -4  -7 2224.71 1416.64   4
 -24   4  -7 2270.93 1403.35   4
 -20  -4  -7 778.818 1609.10   2
  24 -20  -7 385.626 766.155   1
 -24   4  -7 1081.24 1497.52   2
 -24   4  -4 1686.59 1343.33   2
  24 -20  -4 1459.20 833.871   1
  24 -20  -4 1979.05 1321.07   3
  20 -24  -4 1730.80 1201.11   3
  -4  24  -4 3247.14 1304.43   1
   4  20  -4 1229.20 1048.99   1
 -20  -4  -4 2201.36 1227.53   4
 -24   4  -4 735.521 1227.35   4
 -20  -4  -4 1055.82 1545.96   2
 -24   4  -1 4126.00 1302.51   2
   4  20  -1 2358.87 742.461   1
  24 -20  -1 4286.73 1148.60   3
  20 -24  -1 2494.46 921.349   3
  -4  24  -1 2522.02 739.032   1
 -20  -4  -1 6706.53 1436.68   4
 -24   4  -1 2434.09 1223.84   4
 -20  -4  -1 4317.88 1531.35   2
 -24   4   2 789.488 772.086   2
   4  20   2 220.270 577.365   1
  24 -20   2 1144.10 594.904   3
  20 -24   2 177.930 674.869   3
 -20  -4   2 1715.29 1105.41   4
 -24   4   2 562.750 1067.08   4
 -20  -4   2 1857.45 1024.60   2
  20 -24   5 1280.04 882.716   3
 -20  -4   5 788.005 1093.26   4
 -24   4   5 1410.10 1004.48   4
 -24   5  -5 1621.11 1348.15   2
  24 -19  -5 2048.58 1381.09   3
  19 -24  -5 2372.59 1167.93   3
  -5  24  -5 3350.60 1357.75   1
  24 -19  -5 1079.80 848.918   1
 -19  -5  -5 1948.42 734.354   3
   5  19  -5 167.605 1042.87   1
 -19  -5  -5 1803.94 1192.53   4
 -24   5  -5 3521.48 1490.16   4
 -19  -5  -5 532.107 1389.78   2
   5  19  -2 1344.33 822.327   1
 -24   5  -2 1381.92 1240.28   2
  24 -19  -2 1501.69 1159.06   3
  19 -24  -2 2440.24 986.430   3
  -5  24  -2 2435.29 979.829   1
 -19  -5  -2 3179.39 1185.05   4
  24 -19  -2 1517.62 946.727   1
 -24   5  -2 1751.79 1243.57   4
 -19  -5  -2 2302.09 1498.31   2
   5  19   1 4824.33 791.661   1
  19 -24   1 5457.09 962.722   3
  24 -19   1 5286.20 878.484   3
 -19  -5   1 6385.12 1326.00   4
 -24   5   1 5691.82 1410.87   4
  -5  24   1 2829.49 360.002   1
 -24   5   1 5509.84 1121.56   2
 -19  -5   4 2618.84 631.448   2
 -24   5   4 3210.49 779.931   2
  19 -24   4 2610.63 839.827   3
 -19  -5   4 5362.16 1324.77   4
 -24   5   4 6184.81 1300.71   4
 -19  -5   7 3640.84 1300.31   4
 -24   6  -6 8623.95 1995.53   2
  24 -18  -6 10870.2 2068.13   3
  18 -24  -6 7062.71 1599.36   3
  -6  24  -6 6414.22 1727.76   1
  24 -18  -6 6753.74 1141.10   1
   6  18  -6 4153.21 1366.89   1
 -18  -6  -6 8540.62 1623.20   4
 -24   6  -6 7024.75 1664.23   4
 -18  -6  -6 3683.21 1720.53   2
 -24   6  -3 5948.97 1484.26   2
  24 -18  -3 1565.14 897.417   1
  24 -18  -3 4976.54 1335.07   3
  -6  24  -3 2997.51 1192.86   1
  18 -24  -3 2450.29 1121.90   3
 -18  -6  -3 3744.33 941.843   3
 -18  -6  -3 4140.81 1157.94   4
 -24   6  -3 2703.50 1283.89   4
 -18  -6  -3 2484.44 1420.89   2
   6  18  -3 3105.81 915.732   1
  24 -18   0 18311.3 1547.29   3
  18 -24   0 12635.5 1274.02   3
  -6  24   0 14758.7 949.927   1
 -18  -6   0 13768.0 1701.95   4
 -18  -6   0 15769.1 1965.50   2
 -24   6   0 15140.0 1847.16   4
   6  18   0 12501.9 1108.69   1
 -24   6   0 17228.3 1733.05   2
 -24   6   3 2031.68 753.061   2
  24 -18   3 1416.98 517.408   3
  18 -24   3 1220.62 721.684   3
 -18  -6   3 819.147 1020.67   4
 -24   6   3 1951.11 1063.85   4
   6  18   3 1063.53 677.966   1
 -18  -6   3 903.820 812.242   2
  18 -24   6 7682.96 1322.21   3
 -18  -6   6 9285.88 1524.91   4
 -24   6   6 8782.37 1434.64   4
 -24   7  -7-859.091 1357.08   2
  24 -17  -7 2298.43 1611.46   3
  -7  24  -7 396.107 1513.89   1
  17 -24  -7 299.648 1297.31   3
  24 -17  -7 503.507 867.256   1
  -7  24  -7 1425.80 793.842   2
   7  17  -7 544.019 1208.50   1
 -17  -7  -7 2328.00 1258.70   4
 -24   7  -7 3393.77 1545.59   4
 -17  -7  -7 408.645 1496.13   2
 -24   7  -4 4870.43 1383.98   2
  24 -17  -4 4406.63 1341.48   3
  -7  24  -4 3402.53 1315.99   1
  17 -24  -4 2134.79 1164.81   3
  24 -17  -4 3592.49 944.599   1
   7  17  -4 4972.60 1205.35   1
 -17  -7  -4 3284.81 893.305   3
 -17  -7  -4 3854.33 1233.32   4
 -24   7  -4 3972.52 1384.94   4
 -17  -7  -4 6051.40 1779.96   2
 -24   7  -1 251.903 943.271   2
  24 -17  -1 2874.90 1155.67   3
  17 -24  -1 1285.57 844.255   3
  -7  24  -1 1062.59 800.196   1
   7  17  -1-240.723 643.711   1
 -17  -7  -1 366.903 789.981   3
 -17  -7  -1 1004.09 913.296   4
 -24   7  -1 579.590 1039.78   4
 -17  -7  -1-273.301 1215.26   2
  24 -17  -1-175.287 871.340   1
 -24   7   2 1136.64 734.214   2
   7  17   2 1044.52 697.743   1
  24 -17   2 125.419 506.310   3
  17 -24   2 1400.49 769.436   3
 -17  -7   2 1781.25 1015.27   4
 -24   7   2-606.032 1049.31   4
 -17  -7   2 1256.93 1039.24   2
 -24   7   5 3079.37 755.208   2
  17 -24   5 1901.04 942.028   3
 -17  -7   5 2790.84 1173.26   4
 -24   7   5 2699.96 1144.54   4
  24 -16  -5 7309.08 1777.08   3
 -24   8  -5 5713.46 1627.02   2
  -8  24  -5 4663.64 1585.56   1
  16 -24  -5 5634.00 1321.05   3
 -16  -8  -5 2755.57 853.531   3
  -8  24  -5 2773.56 893.025   2
 -16  -8  -5 4157.50 1224.05   4
  24 -16  -5 1975.35 906.171   1
   8  16  -5 1597.10 1149.23   1
 -16  -8  -5 2876.18 1611.87   2
 -24   8  -5 4147.49 1499.39   4
  24 -16  -2 10651.6 1518.54   3
  24 -16  -2 10018.8 1280.76   1
  16 -24  -2 8132.47 1265.79   3
 -16  -8  -2 7975.31 1162.78   3
   8  16  -2 7514.14 1048.65   1
 -16  -8  -2 8572.00 1370.85   4
 -16  -8  -2 13051.0 1980.88   2
 -24   8  -2 10614.9 1659.57   4
  -8  24  -2 11075.3 1417.15   1
 -24   8  -2 9263.16 1547.33   2
  24 -16   1 6369.88 995.394   3
 -24   8   1 5455.34 1013.94   2
  16 -24   1 5134.82 931.636   3
   8  16   1 2725.32 783.105   1
  -8  24   1 3702.22 346.213   1
 -16  -8   1 4510.84 1057.32   3
 -16  -8   1 4472.23 1204.26   4
 -24   8   1 6032.23 1362.09   4
 -16  -8   1 6351.69 1450.12   2
 -24   8   4 7539.01 1007.22   2
  16 -24   4 6960.40 1082.68   3
 -16  -8   4 9147.48 1570.35   4
 -24   8   4 7871.21 1405.52   4
 -16  -8   4 7245.61 856.180   2
  16 -24   7 1361.12 1129.86   3
 -16  -8   7 1735.45 1163.02   4
  24 -15  -6 10918.1 2020.36   3
  15 -24  -6 9507.38 1567.27   3
  24 -15  -6 10162.9 1304.75   1
   9  15  -6 11182.3 1749.94   1
 -15  -9  -6 10690.8 1178.59   3
  -9  24  -6 9527.32 1307.56   2
 -15  -9  -6 9006.42 1588.85   4
  -9  24  -6 12531.6 2196.43   1
 -24   9  -6 10074.3 1842.79   4
 -15  -9  -6 7094.85 1956.35   2
 -24   9  -6 13502.2 2104.85   2
 -24   9  -3 6234.11 1482.01   2
  24 -15  -3 5557.67 1368.59   3
  15 -24  -3 6191.34 1235.51   3
 -15  -9  -3 7114.43 1058.50   3
  -9  24  -3 5613.59 1061.52   2
   9  15  -3 6942.97 1129.04   1
 -15  -9  -3 7485.27 1356.93   4
  -9  24  -3 9057.88 1537.40   1
 -24   9  -3 10374.7 1706.30   4
  24 -15  -3 5895.75 1080.41   1
 -15  -9  -3 6947.24 1776.62   2
 -24   9   0 6023.75 1168.93   2
  24 -15   0 8855.82 1232.27   3
  15 -24   0 7971.56 1133.41   3
 -15  -9   0 9696.83 1218.96   3
 -15  -9   0 7865.95 1393.62   4
 -15  -9   0 10559.7 1763.14   2
 -24   9   0 9480.77 1589.32   4
  -9  24   0 8351.42 912.577   1
  24 -15   0 6581.27 1205.70   1
   9  15   0 7200.06 951.374   1
 -15  -9   3-5.45082 981.312   4
  24 -15   3 483.664 326.393   3
 -24   9   3 526.270 674.976   2
  15 -24   3 749.763 724.489   3
   9  15   3 1553.39 810.154   1
 -24   9   3 1342.47 1026.66   4
 -15  -9   3 2898.37 1042.82   2
  15 -24   6 549.814 1052.68   3
 -24   9   6 1345.64 1010.94   4
 -24  10  -7 871.376 1412.97   2
  24 -14  -7 662.064 1689.38   3
  14 -24  -7 1659.05 1177.64   3
 -14 -10  -7 1077.17 851.762   3
 -10  24  -7 1619.16 864.109   2
 -14 -10  -7 1274.80 1137.81   4
  10  14  -7 266.303 1207.98   1
 -14 -10  -7-823.237 1581.51   2
 -24  10  -7 1703.91 1295.31   4
  24 -14  -7-1217.79 943.706   1
 -10  24  -7 217.319 1586.97   1
  24 -14  -4 4507.15 1428.40   3
 -24  10  -4 3994.05 1319.20   2
  14 -24  -4 1840.89 997.942   3
 -14 -10  -4 3421.30 884.641   3
 -10  24  -4 2007.35 868.479   2
 -14 -10  -4 3585.46 1119.23   4
 -14 -10  -4 3245.90 1545.14   2
 -24  10  -4 4108.30 1330.28   4
  24 -14  -4 2920.25 944.547   1
  10  14  -4 1749.53 919.497   1
 -10  24  -4 1864.60 1332.25   1
 -10  24  -1 207.932 848.646   1
  24 -14  -1 2262.73 1069.02   3
 -24  10  -1 3296.49 1088.77   2
  24 -14  -1 595.052 779.976   1
  14 -24  -1-168.969 766.707   3
  10  14  -1 1497.46 716.885   1
 -14 -10  -1 1552.76 875.353   3
 -14 -10  -1 2190.60 1052.97   4
 -14 -10  -1 3887.40 1523.89   2
 -24  10  -1 1059.50 1068.57   4
  24 -14   2 5234.02 698.058   3
 -24  10   2 4584.36 898.654   2
  14 -24   2 5598.52 941.772   3
  10  14   2 4362.32 936.305   1
 -14 -10   2 3992.62 1071.21   3
 -14 -10   2 6938.01 1331.50   4
 -24  10   2 7326.02 1405.75   4
 -14 -10   2 7476.75 1385.88   2
  14 -24   5 2485.33 1026.69   3
 -24  10   5 1409.50 770.280   2
 -14 -10   5-716.666 1033.00   4
 -24  10   5 1896.65 1058.97   4
 -11  24  -5 4871.09 1353.50   4
  24 -13  -5 5131.83 1566.18   3
 -24  11  -5 3598.22 1355.90   2
  13 -24  -5 4206.51 1266.30   3
  24 -13  -5 6203.49 1103.63   1
 -13 -11  -5 2973.46 845.495   3
 -11  24  -5 2429.26 930.409   2
 -13 -11  -5 3323.94 1192.36   4
 -13 -11  -5 3944.00 1663.73   2
 -24  11  -5 2951.85 1331.94   4
  11  13  -5 2763.88 1156.79   1
 -11  24  -5 4865.44 1694.39   1
 -11  24  -2 8419.92 1432.83   4
  24 -13  -2 9405.24 1518.37   3
  13 -24  -2 7396.69 1196.74   3
 -13 -11  -2 8084.30 1165.71   3
 -11  24  -2 8335.56 1169.73   2
 -13 -11  -2 10319.4 1487.68   4
 -13 -11  -2 9980.49 1805.77   2
 -11  24  -2 8889.36 1444.88   1
  11  13  -2 8240.72 1116.52   1
  24 -13  -2 8388.91 1186.39   1
 -24  11  -2 7992.87 1483.94   4
 -24  11  -2 9284.60 1466.26   2
  24 -13   1 6200.07 1059.95   3
 -11  24   1 2655.16 471.309   1
 -11  24   1 1769.40 337.237   1
 -24  11   1 4709.97 958.530   2
  13 -24   1 3352.11 891.812   3
  11  13   1 3054.17 807.526   1
 -13 -11   1 2914.21 956.160   3
  24 -13   1 3577.16 1046.71   1
 -13 -11   1 2878.99 1111.40   4
 -13 -11   1 2771.08 1230.21   2
 -24  11   1 4797.67 1248.30   4
 -24  11   4 7524.32 1020.42   2
  13 -24   4 4652.47 1036.57   3
 -13 -11   4 5501.28 1056.38   2
 -24  11   4 7134.96 1323.74   4
  13 -24   7-450.654 1156.89   3
 -13 -11   7 240.914 1129.84   4
 -24  11   7 706.440 904.919   4
 -12  24  -6 4375.90 1370.51   4
 -24  12  -6 2712.35 1356.71   2
  12 -24  -6 1729.42 1156.58   3
 -12 -12  -6 3400.57 961.282   3
 -12  24  -6 3211.87 905.673   2
 -12 -12  -6 2984.59 1157.79   4
 -12 -12  -6 4311.83 1735.23   2
 -24  12  -6 3616.51 1529.76   4
  12  12  -6 2821.83 1168.68   1
 -12  24  -6 6838.41 1925.19   1
  24 -12  -6 2354.19 918.078   1
 -12  24  -3 4284.33 1255.67   4
 -24  12  -3 5477.22 1319.43   2
  12  12  -3 3591.34 1050.77   1
  12 -24  -3 3651.61 1051.81   3
 -12 -12  -3 4143.54 905.206   3
 -12  24  -3 3720.74 975.816   2
 -12 -12  -3 4699.30 1221.30   4
 -12 -12  -3 4764.66 1577.53   2
 -24  12  -3 3819.00 1360.04   4
 -12  24  -3 3560.02 1344.01   1
  24 -12  -3 3169.99 945.612   1
  12  12   0 3325.55 831.698   1
  24 -12   0 5227.74 1189.54   3
 -24  12   0 2904.14 895.424   2
  12 -24   0 2662.00 842.311   3
 -12  24   0 4661.40 1018.47   2
 -12 -12   0 3673.60 992.142   3
  24 -12   0 1798.55 911.677   1
 -12 -12   0 1739.57 1234.00   2
 -12  24   0 2207.84 540.829   1
 -24  12   0 4744.03 1348.71   4
 -12  24   0 3430.60 934.596   1
  24 -12   3 2095.10 305.744   3
  12  12   3 2665.63 971.770   1
 -24  12   3 4174.46 880.378   2
  12 -24   3 3595.19 910.076   3
 -12 -12   3 3950.24 1150.00   3
 -12 -12   3 5233.78 1270.13   2
 -24  12   3 3106.00 1152.83   4
  12 -24   6 4839.68 1288.68   3
 -24  12   6 2776.73 1001.00   4
 -13  24  -7-770.515 1107.21   4
 -24  13  -7-799.819 1305.28   2
  11 -24  -7 1021.99 1177.05   3
 -11 -13  -7 1634.23 856.521   3
 -13  24  -7-757.065 853.645   2
 -11 -13  -7 1547.30 1068.55   4
 -11 -13  -7-329.263 1537.48   2
  24 -11  -7 921.191 883.227   1
  13  11  -7 581.734 1144.75   1
 -24  13  -7 2113.10 1367.55   4
 -13  24  -7-477.997 1701.00   1
 -24  13  -4 6169.06 1450.97   2
  11 -24  -4 4596.40 1174.51   3
 -11 -13  -4 5889.83 1024.72   3
  24 -11  -4 4530.98 1011.99   1
 -13  24  -4 4901.62 1042.45   2
  13  11  -4 8870.93 1370.86   1
 -11 -13  -4 6679.25 1271.43   4
 -11 -13  -4 7079.93 1684.61   2
 -13  24  -4 6977.38 1673.81   1
 -24  13  -4 6996.32 1597.49   4
 -13  24  -4 7935.80 1446.31   4
 -13  24  -1 4267.18 1242.52   4
 -24  13  -1 5446.34 1097.55   2
  11 -24  -1 3385.80 985.828   3
 -11 -13  -1 3563.28 937.915   3
 -13  24  -1 5203.64 1010.05   2
 -13  24  -1 6657.06 1258.63   1
 -11 -13  -1 6568.49 1659.32   2
  13  11  -1 2588.85 833.504   1
 -24  13  -1 5165.23 1382.99   4
  24 -11  -1 4810.23 1038.17   1
  24 -11   2 12607.0 1057.78   3
 -24  13   2 9121.12 1161.88   2
  11 -24   2 9085.48 1197.70   3
  24 -11   2 10273.2 817.139   3
 -11 -13   2 8940.58 1342.77   3
 -11 -13   2 9194.69 1579.08   2
 -24  13   2 8040.37 1438.22   4
  13  11   2 8256.77 1186.89   1
  11 -24   5 4042.34 1104.05   3
 -24  13   5 3475.75 964.728   2
 -11 -13   5 3441.61 809.034   2
 -24  13   5 2129.72 1047.98   4
 -14  24  -5 3782.80 1376.62   4
  24 -10  -5 284.755 823.502   1
  14  10  -5 246.167 1045.42   1
 -24  14  -5 1103.90 1070.52   2
  10 -24  -5 679.006 980.642   3
 -10 -14  -5 809.136 793.483   3
 -14  24  -5 1551.59 884.627   2
 -10 -14  -5 1456.92 1047.20   4
 -10 -14  -5 1533.18 1485.44   2
 -14  24  -5 3470.94 1586.73   1
 -24  14  -5 1220.71 1217.07   4
 -24  14  -2 4775.03 1184.57   2
  10 -24  -2 5984.68 1100.65   3
 -10 -14  -2 5490.95 1002.83   3
 -14  24  -2 4189.55 976.486   2
  24 -10  -2 6318.26 1108.94   1
 -14  24  -2 4683.93 1305.41   1
  14  10  -2 5030.67 1023.49   1
 -24  14  -2 6388.19 1502.43   4
 -14  24  -2 6457.79 1424.45   4
 -14  24   1 501.389 944.001   4
  24 -10   1 1196.06 892.329   3
 -24  14   1 1359.94 769.543   2
  10 -24   1 1748.75 784.479   3
  24 -10   1 1158.87 845.814   1
 -10 -14   1 979.695 888.007   3
  24 -10   1 1901.94 652.052   3
 -14  24   1 1762.43 839.742   2
 -14  24   1 1785.04 768.186   1
  14  10   1 849.555 721.992   1
 -24  14   1 2097.67 1121.34   4
 -14  24   1 590.665 428.748   1
  10 -24   4 2015.95 940.227   3
 -24  14   4 4464.25 944.066   2
 -10 -14   4 4796.79 1167.00   3
 -10 -14   4 3822.89 1144.16   2
 -24  14   4 4986.07 1222.93   4
  10 -24   7 1523.83 1274.23   3
 -24  14   7 815.158 831.480   4
 -15  24  -6 4210.61 1391.69   4
   9 -24  -6 3813.83 1215.82   3
  -9 -15  -6 5778.88 1127.10   3
 -15  24  -6 1739.65 885.570   2
  15   9  -6 6357.22 1470.96   1
  -9 -15  -6 3611.57 1188.37   4
  -9 -15  -6 3871.62 1634.85   2
 -15  24  -6 2596.57 1841.28   1
  24  -9  -6 2235.57 977.158   1
 -24  15  -6 4972.35 1432.96   4
 -24  15  -6 6752.58 1587.38   2
 -15  24  -3 1108.16 1116.20   4
 -24  15  -3 925.535 972.650   2
   9 -24  -3 1246.28 804.819   3
  15   9  -3 1622.62 858.149   1
  -9 -15  -3 382.120 721.184   3
 -15  24  -3 1315.34 829.648   2
  24  -9  -3 1040.15 783.275   1
 -24  15  -3-243.768 1128.17   4
  24  -9   0 7085.50 1114.41   1
 -24  15   0 9381.65 1237.01   2
  15   9   0 7622.98 1072.90   1
   9 -24   0 5970.52 1013.68   3
  -9 -15   0 6614.58 1065.97   3
 -15  24   0 7288.68 1093.80   2
 -15  24   0 5378.96 725.487   1
 -24  15   0 7428.09 1499.23   4
 -15  24   0 11043.2 1671.24   4
  24  -9   3 3640.80 406.811   3
 -24  15   3 6781.30 1039.25   2
   9 -24   3 5799.64 1111.50   3
  -9 -15   3 6878.13 1259.49   3
  15   9   3 4733.02 1225.85   1
 -24  15   3 7648.09 1396.24   4
   9 -24   6 12002.9 1633.51   3
 -24  15   6 9935.02 1351.03   4
  16   8  -7 3584.45 1293.67   1
 -16  24  -7 3237.51 1382.70   4
 -24  16  -7 6075.33 1585.74   2
   8 -24  -7-493.988 1092.68   3
  -8 -16  -7 2260.00 948.235   3
 -16  24  -7 3275.17 1086.99   2
  24  -8  -7 3224.91 1059.16   1
  -8 -16  -7 2752.96 1144.43   4
  -8 -16  -7 1176.98 1741.24   2
 -16  24  -7 2406.46 1971.12   1
 -24  16  -7 3042.92 1353.44   4
  24  -8  -4 5624.71 1130.97   1
 -24  16  -4 4779.73 1294.14   2
   8 -24  -4 9570.21 1430.78   3
 -16  24  -4 6292.53 1137.33   2
  -8 -16  -4 8334.51 1131.95   3
  16   8  -4 7842.36 1251.46   1
 -24  16  -4 9237.96 1688.12   4
 -16  24  -4 8170.58 1597.28   4
 -16  24  -1 5521.68 1370.82   4
  16   8  -1 5094.48 1056.35   1
 -24  16  -1 6452.70 1178.68   2
   8 -24  -1 4059.96 914.849   3
 -16  24  -1 5794.26 1042.15   2
  24  -8  -1 4891.12 996.029   1
  -8 -16  -1 3671.29 864.616   3
 -24  16  -1 7497.73 1504.65   4
  24  -8   2 7598.12 1265.88   1
 -24  16   2 11084.8 1267.27   2
   8 -24   2 10015.3 1252.55   3
  -8 -16   2 11131.5 1460.05   3
 -16  24   2 10017.2 1329.32   2
 -24  16   2 10333.1 1526.30   4
  16   8   2 12490.2 1423.03   1
 -16  24   2 11948.1 1580.50   4
   8 -24   5 2771.97 992.291   3
 -24  16   5 2967.71 993.782   2
  -8 -16   5 2308.05 1195.72   3
 -24  16   5 1064.18 973.730   4
 -17  24  -5 3175.79 1300.07   4
 -24  17  -5 1542.78 1113.03   2
  17   7  -5 2577.38 1029.48   1
   7 -24  -5 3460.39 1109.74   3
  -7 -17  -5 3698.49 970.976   3
 -17  24  -5 3540.84 1032.21   2
 -24  17  -5 1627.19 1331.91   4
  24  -7  -5 2856.15 961.565   1
 -17  24  -2 145.832 1023.88   4
 -24  17  -2 1872.96 961.482   2
   7 -24  -2 888.635 807.503   3
  -7 -17  -2 433.837 741.560   3
 -17  24  -2 200.229 731.104   2
  17   7  -2-873.186 808.874   1
  24  -7  -2-1170.62 856.401   1
 -24  17  -2-1135.16 1155.95   4
 -17  24   1 2027.45 1071.22   4
  17   7   1-501.537 750.497   1
 -24  17   1 918.223 812.675   2
  24  -7   1 1367.90 903.926   1
   7 -24   1 1200.80 837.470   3
  -7 -17   1 1060.45 822.892   3
 -17  24   1 1354.20 848.013   2
 -17  24   1 123.960 554.210   1
 -24  17   1 1186.07 1026.00   4
   7 -24   4 5038.30 1150.12   3
 -24  17   4 3400.73 986.680   2
  -7 -17   4 2774.95 1114.01   3
 -24  17   4 5240.27 1238.41   4
   7 -24   7 2440.63 1414.67   3
 -24  17   7 2094.78 949.992   4
 -24  18  -6 8167.06 1553.01   2
  18   6  -6 7583.60 1438.78   1
   6 -24  -6 8047.06 1430.77   3
 -18  24  -6 8609.92 1313.66   2
  -6 -18  -6 8467.22 1272.51   3
  -6 -18  -6 13067.1 1729.26   4
  24  -6  -6 7285.29 1292.84   1
 -24  18  -6 10516.2 1836.47   4
 -18  24  -6 11030.5 1800.45   4
 -24  18  -3 2559.81 1102.72   2
   6 -24  -3 754.366 868.011   3
  24  -6  -3 506.307 800.448   1
  -6 -18  -3 1786.78 820.309   3
 -18  24  -3 1368.76 800.406   2
  18   6  -3 1723.80 934.779   1
 -24  18  -3 3101.00 1306.71   4
 -18  24  -3 3125.06 1222.05   4
 -24  18   0 12334.2 1380.67   2
   6 -24   0 13293.4 1396.02   3
  18   6   0 10399.7 1265.66   1
 -18  24   0 14407.4 1449.09   2
  -6 -18   0 11019.7 1310.75   3
 -24  18   0 15687.9 1869.39   4
  24  -6   0 12539.8 1434.52   1
 -18  24   0 15406.1 1830.12   4
   6 -24   3 3950.08 1117.83   3
 -24  18   3 1916.21 847.232   2
  -6 -18   3 2945.31 1101.52   3
  18   6   3 3346.32 1180.45   1
 -24  18   3 5874.37 1276.36   4
 -18  24   3 5900.49 1314.68   4
   6 -24   6 8571.80 1578.61   3
  -6 -18   6 7239.46 1609.88   3
 -24  18   6 7722.43 1262.61   4
  19   5  -7 4977.82 1366.14   1
 -24  19  -7 984.474 1081.14   2
   5 -24  -7 2416.60 1181.43   3
  -5 -19  -7 2168.23 985.963   3
 -19  24  -7 1835.60 1099.00   2
  24  -5  -7 3236.09 1147.25   1
  -5 -19  -7 1895.57 1185.54   4
 -24  19  -7 4387.47 1548.82   4
 -19  24  -7 1329.58 1207.75   4
  24  -5  -4 2796.07 992.197   1
 -24  19  -4 4346.40 1207.34   2
   5 -24  -4 5096.86 1214.30   3
  -5 -19  -4 4187.23 993.355   3
 -19  24  -4 3212.70 1026.80   2
  19   5  -4 5315.67 1169.70   1
 -24  19  -4 6649.73 1644.84   4
 -19  24  -4 2947.10 1279.63   4
  24  -5  -1 4602.52 1024.42   1
 -24  19  -1 6407.44 1177.87   2
  19   5  -1 3650.08 980.849   1
   5 -24  -1 4561.65 1014.00   3
  -5 -19  -1 5565.09 1025.44   3
 -19  24  -1 5179.33 1024.50   2
 -24  19  -1 5510.29 1371.26   4
 -19  24  -1 6344.44 1365.98   4
 -19  24   2 2272.93 1017.62   4
  24  -5   2 2099.91 1029.69   1
   5 -24   2 2999.98 1002.94   3
 -24  19   2 1316.10 848.337   2
  -5 -19   2 518.461 908.402   3
 -19  24   2 1029.72 768.442   2
 -24  19   2 3291.35 1215.13   4
  19   5   2 2362.55 1012.84   1
   5 -24   5 3115.46 1186.75   3
  -5 -19   5 2558.17 1187.91   3
 -24  19   5 1508.62 980.946   2
 -24  19   5 3125.86 1096.19   4
 -24  20  -5-804.629 1051.29   2
   4 -24  -5 1763.75 985.020   3
  -4 -20  -5 2001.66 950.408   3
 -20  24  -5 3024.25 1094.05   2
  20   4  -5 1416.71 986.942   1
  24  -4  -5 886.644 887.375   1
 -24  20  -5 2069.30 1326.35   4
 -20  24  -5 1415.36 1208.56   4
  20   4  -2 154.705 777.275   1
 -24  20  -2 2544.72 1048.29   2
   4 -24  -2 1562.48 882.191   3
  -4 -20  -2 2276.15 921.596   3
 -20  24  -2 135.923 806.635   2
  24  -4  -2 892.037 840.870   1
 -24  20  -2 4079.70 1315.23   4
 -20  24  -2 1836.54 1266.52   4
 -20  24   1 6170.35 1349.81   4
  24  -4   1 1567.00 945.428   1
  20   4   1 2209.77 955.933   1
   4 -24   1 3077.25 940.638   3
 -24  20   1 2040.10 901.973   2
  -4 -20   1 1796.91 925.240   3
 -20  24   1 4579.04 1058.72   2
 -24  20   1 4250.15 1252.06   4
 -20  24   4 1640.75 1013.77   4
   4 -24   4 1381.54 989.045   3
 -24  20   4 2602.11 959.227   2
  -4 -20   4 887.108 1045.87   3
 -24  20   4 1431.71 1065.03   4
   4 -24   7 4338.56 1444.73   3
 -24  21  -6 7686.35 1511.59   2
 -21  24  -6 8590.76 1510.79   2
   3 -24  -6 6510.83 1353.67   3
  21   3  -6 5850.02 1387.60   1
  -3 -21  -6 4656.46 1210.17   3
  24  -3  -6 6092.33 1274.78   1
 -24  21  -6 9892.47 1935.15   4
 -21  24  -6 7097.54 1725.24   4
  24  -3  -3 2078.59 1008.78   1
 -24  21  -3 927.927 963.188   2
   3 -24  -3 2661.04 1049.38   3
  -3 -21  -3 1354.68 911.455   3
 -21  24  -3 2490.27 1031.25   2
  21   3  -3 1517.05 971.943   1
 -24  21  -3 1667.78 1213.05   4
 -21  24  -3 4332.09 1379.84   4
 -24  21   0 12615.8 1445.30   2
   3 -24   0 13817.0 1469.90   3
 -21  24   0 11612.8 1430.43   2
  -3 -21   0 11795.8 1405.38   3
  21   3   0 8774.37 1276.83   1
  24  -3   0 10966.5 1390.76   1
 -24  21   0 16576.9 1961.43   4
 -21  24   0 14688.0 1870.51   4
 -21  24   3 727.837 1077.58   4
  21   3   3 2010.01 1065.09   1
   3 -24   3 1425.11 1003.70   3
 -24  21   3-705.581 898.981   2
  -3 -21   3 2595.56 1081.75   3
 -21  24   3 365.203 857.346   2
  24  -3   3 756.838 925.516   1
 -24  21   3 1579.05 1104.85   4
   3 -24   6 16134.2 2023.36   3
  -3 -21   6 18641.8 2116.12   3
 -24  21   6 17984.6 1723.74   4
 -24  22  -4 636.675 998.006   2
   2 -24  -4 1837.15 998.466   3
 -22  24  -4 2663.20 1113.11   2
  -2 -22  -4 841.491 867.467   3
  22   2  -4 521.664 920.706   1
 -24  22  -4 2641.16 1374.30   4
  24  -2  -4 1697.19 977.756   1
 -22  24  -4 2437.10 1281.02   4
 -24  22  -1 3040.48 1009.52   2
   2 -24  -1 2409.76 978.973   3
  -2 -22  -1 2204.38 925.527   3
 -22  24  -1 4739.17 1097.85   2
  22   2  -1 2895.71 951.413   1
 -24  22  -1 5197.03 1481.20   4
  24  -2  -1 1026.93 906.116   1
 -22  24  -1 5664.00 1410.63   4
  22   2   2 2309.87 1052.24   1
   2 -24   2 2141.72 1031.40   3
 -24  22   2 2423.80 974.506   2
  -2 -22   2 2030.48 1043.70   3
 -22  24   2 2337.24 974.313   2
  24  -2   2 1612.43 1051.25   1
 -24  22   2 274.499 1049.43   4
 -22  24   2 4910.69 1325.88   4
 -24  22   5 796.155 1000.67   4
 -22  24   5 1818.06 1022.10   4
   2 -24   5 1486.71 1167.03   3
  -2 -22   5 1879.31 1169.86   3
 -24  23  -5 3330.68 1176.48   2
 -23  24  -5 1016.80 1055.30   2
   1 -24  -5 81.9205 951.775   3
  -1 -23  -5 918.380 919.236   3
  23   1  -5 1756.20 1012.09   1
  24  -1  -5-1425.24 1029.26   1
 -24  23  -5-182.285 1295.37   4
 -23  24  -5 1407.19 1229.29   4
  23   1  -2 1108.67 854.066   1
 -24  23  -2 1699.34 1001.27   2
   1 -24  -2 175.670 843.372   3
  -1 -23  -2 303.202 828.751   3
 -23  24  -2-319.694 870.494   2
  24  -1  -2 601.955 847.505   1
 -24  23  -2 570.583 1168.48   4
 -23  24  -2-993.646 1238.80   4
   1 -24   1 1583.99 1012.10   3
  -1 -23   1 1911.83 950.117   3
 -24  23   1 1285.26 906.989   2
 -23  24   1 3371.89 1027.68   2
  23   1   1 1061.28 977.385   1
  24  -1   1 1856.78 1033.59   1
 -24  23   1 1160.17 1109.16   4
 -23  24   1 925.269 1129.51   4
 -23  24   4 2476.00 1183.31   4
   1 -24   4-153.194 1028.98   3
  -1 -23   4 1796.15 1153.57   3
 -24  23   4 117.957 947.322   2
 -23  24   4 741.070 983.033   2
 -24  23   4 249.064 1013.24   4
  24   0  -3-958.931 922.826   1
 -24  24  -3-255.241 891.985   2
   0 -24  -3 1110.49 993.949   3
 -24  24   0 14429.8 1617.00   2
   0 -24   0 14728.9 1578.42   3
  24   0   0 14279.1 1573.42   1
 -24  24   0 16088.3 2002.81   4
  24   0   3 1697.05 1109.49   1
   0 -24   3-77.4359 976.421   3
 -24  24   3 885.655 990.427   2
 -24  24   3 65.0498 1059.64   4
  25 -25  -4 4136.37 1481.84   3
   0  25  -4 3215.64 1249.88   1
 -25   0  -4 891.128 1269.27   4
 -25   0  -4 4883.66 1859.53   2
   0  25  -1-547.246 682.227   1
  25 -25  -1 1495.49 1059.46   3
 -25   0  -1-687.374 1205.99   4
 -25   0  -1 1228.25 1364.86   2
 -25   0   2 4049.51 1127.65   2
  25 -25   2 4636.99 948.003   3
 -25   0   2 6109.17 1560.04   4
  25 -24  -5 1274.94 872.431   1
  25 -24  -5 2356.08 1497.07   3
  24 -25  -5 4167.59 1569.82   3
  -1  25  -5 4417.15 1522.68   1
   1  24  -5 2347.79 1372.72   1
 -24  -1  -5 3515.75 1494.44   4
 -25   1  -5 5585.46 1702.01   4
 -24  -1  -5 2330.15 1655.54   2
 -25   1  -5 6166.05 1938.28   2
  25 -24  -2 5309.14 1346.83   3
  24 -25  -2 2922.66 1164.49   3
 -24  -1  -2 5409.12 1605.02   4
 -25   1  -2 2990.60 1438.82   4
  -1  25  -2 4725.42 1018.11   1
   1  24  -2 3981.93 951.642   1
 -24  -1  -2 6295.34 1742.59   2
 -25   1  -2 5766.41 1691.33   2
 -24  -1   1 4038.63 1272.24   2
 -25   1   1 1567.08 1098.25   2
   1  24   1 743.398 578.001   1
  25 -24   1 3899.79 920.409   3
  24 -25   1 3386.53 946.905   3
 -24  -1   1 4405.23 1431.36   4
 -25   1   1 4117.37 1386.25   4
  24 -25   4 486.656 772.617   3
 -24  -1   4 361.798 1224.40   4
 -25   1   4 811.628 1240.65   4
  25 -23  -3 10808.1 1817.07   3
  23 -25  -3 11181.8 1764.76   3
  -2  25  -3 11148.1 1502.84   1
   2  23  -3 10248.0 1377.17   1
 -23  -2  -3 10159.6 1767.12   4
 -25   2  -3 13393.9 2026.69   4
 -23  -2  -3 11374.1 2156.04   2
 -25   2  -3 13410.9 2147.86   2
 -25   2   0 4705.28 1340.69   2
  -2  25   0 2797.99 648.170   1
  25 -23   0 6093.72 1122.65   3
  23 -25   0 5984.71 1076.28   3
 -23  -2   0 7689.03 1581.57   4
 -25   2   0 7636.59 1591.70   4
   2  23   0 4996.56 779.635   1
 -23  -2   0 6405.09 1620.51   2
 -25   2   3 8482.99 1103.83   2
  25 -23   3 5680.95 906.612   3
  23 -25   3 6908.08 948.138   3
 -23  -2   3 11849.2 1831.14   4
 -25   2   3 14114.2 1898.64   4
 -23  -2   3 7826.03 1098.18   2
  25 -22  -4 2158.04 1396.78   3
  22 -25  -4 1929.20 1283.32   3
  25 -22  -4 752.992 876.223   1
  -3  25  -4 2473.64 1244.98   1
   3  22  -4 471.465 1068.34   1
 -22  -3  -4 3193.16 1326.09   4
 -25   3  -4 2800.71 1470.04   4
 -22  -3  -4 3511.70 1792.28   2
 -25   3  -4 1409.95 1487.97   2
 -25   3  -1-527.356 1120.24   2
  25 -22  -1-289.205 999.905   3
   3  22  -1 283.275 645.543   1
  22 -25  -1-1177.43 921.193   3
 -22  -3  -1-120.312 1122.72   4
 -25   3  -1 778.305 1145.22   4
  -3  25  -1 308.598 601.839   1
 -22  -3  -1 730.239 1328.32   2
 -22  -3   2 1645.97 1033.53   2
 -25   3   2 1741.63 915.045   2
  25 -22   2 1130.85 673.461   3
  22 -25   2 1356.68 733.486   3
   3  22   2 169.006 528.843   1
 -22  -3   2 9.30569 1109.54   4
 -25   3   2 3212.17 1332.92   4
  22 -25   5 2224.00 955.164   3
 -22  -3   5 3844.70 1359.14   4
 -25   3   5 637.701 1202.12   4
 -25   4  -5 3890.90 1652.45   2
  25 -21  -5 4031.28 1494.69   3
  21 -25  -5 1449.67 1226.54   3
  -4  25  -5 2911.68 1283.50   1
   4  21  -5 2672.97 1215.73   1
 -21  -4  -5 1925.04 1150.85   4
 -25   4  -5 4895.22 1605.75   4
 -21  -4  -5 3533.52 1778.63   2
  25 -21  -5 1666.94 893.918   1
   4  21  -2 4244.58 949.100   1
 -25   4  -2 4936.37 1513.66   2
  25 -21  -2 5223.57 1406.48   3
  21 -25  -2 4565.96 1193.95   3
  -4  25  -2 5171.84 1053.34   1
 -21  -4  -2 2439.05 1235.21   4
 -25   4  -2 6077.56 1553.76   4
 -21  -4  -2 3121.28 1634.00   2
 -25   4   1 3805.89 1131.12   2
  25 -21   1 6785.67 1044.21   3
   4  21   1 1944.04 690.596   1
  21 -25   1 3281.63 902.811   3
 -21  -4   1 4625.22 1300.74   4
 -25   4   1 3674.65 1394.13   4
 -21  -4   1 3436.99 1249.29   2
 -25   4   4 3572.34 830.094   2
  21 -25   4 3258.21 960.160   3
 -21  -4   4 4942.13 1398.36   4
 -25   4   4 5801.39 1492.67   4
 -25   5  -6 1169.98 1598.54   2
  25 -20  -6 1901.99 1487.82   3
  20 -25  -6 1650.75 1248.00   3
  -5  25  -6 861.643 1400.90   1
  25 -20  -6 2496.48 941.303   1
   5  20  -6 2412.16 1460.68   1
 -20  -5  -6 2442.12 1325.39   4
 -25   5  -6-651.621 1425.05   4
 -20  -5  -6 1953.08 1646.26   2
  -5  25  -3 13875.5 1701.83   1
  25 -20  -3 16496.2 2041.58   3
  20 -25  -3 13606.9 1681.26   3
   5  20  -3 12926.2 1431.85   1
  25 -20  -3 13021.8 1425.75   1
 -20  -5  -3 12027.4 1755.52   4
 -20  -5  -3 15444.5 2348.99   2
 -25   5  -3 14688.5 2115.21   4
 -25   5  -3 13118.0 1980.04   2
 -25   5   0 5210.45 1217.13   2
  25 -20   0 6571.85 1133.13   3
  20 -25   0 5353.50 1033.05   3
  -5  25   0 5128.76 659.464   1
 -20  -5   0 4289.03 1299.76   4
 -25   5   0 8306.65 1673.90   4
 -20  -5   0 7130.61 1661.40   2
   5  20   0 4628.54 867.047   1
 -25   5   3 13148.9 1202.58   2
  25 -20   3 11247.6 921.184   3
  20 -25   3 12023.1 1193.08   3
 -20  -5   3 12112.9 1717.11   4
 -25   5   3 15854.7 1908.81   4
 -20  -5   3 10677.3 1201.12   2
  20 -25   6 3430.88 1160.08   3
 -20  -5   6 7084.66 1466.17   4
 -25   5   6 6625.91 1385.53   4
 -25   6  -4 1443.42 1359.12   2
  25 -19  -4 2670.79 1329.00   3
  -6  25  -4 2275.83 1302.44   1
  19 -25  -4 2680.85 1254.59   3
 -19  -6  -4 2333.62 898.876   3
 -19  -6  -4 1509.88 1077.60   4
 -25   6  -4 397.849 1203.94   4
   6  19  -4 1900.04 975.776   1
  25 -19  -4 2660.90 980.471   1
 -19  -6  -4 1511.05 1527.85   2
 -25   6  -1 1095.17 1006.34   2
  25 -19  -1 1312.54 1123.65   3
  19 -25  -1 2148.97 972.815   3
   6  19  -1 1447.51 733.991   1
  -6  25  -1 2356.60 761.790   1
 -19  -6  -1-494.666 1035.89   4
 -25   6  -1 3859.70 1359.30   4
 -19  -6  -1 1532.73 1415.65   2
 -25   6   2 430.251 701.345   2
  25 -19   2 289.287 590.852   3
   6  19   2-968.096 713.143   1
  19 -25   2 236.876 675.749   3
 -19  -6   2 655.590 1053.89   4
 -25   6   2 1618.63 1041.45   4
 -19  -6   2 926.569 1035.35   2
  19 -25   5 1828.91 964.595   3
 -19  -6   5 4282.95 1366.95   4
 -25   6   5 3183.03 1203.80   4
 -25   7  -5 4494.76 1600.63   2
  25 -18  -5 3623.86 1593.32   3
  -7  25  -5 3625.68 1456.63   1
  25 -18  -5 2981.77 974.786   1
  18 -25  -5 3801.17 1340.96   3
 -18  -7  -5 4322.67 996.060   3
 -18  -7  -5 1362.47 1162.72   4
   7  18  -5 4299.81 1241.52   1
 -25   7  -5 6120.47 1653.95   4
 -18  -7  -5 5342.59 1921.91   2
  25 -18  -2 8002.44 1575.79   3
 -25   7  -2 4815.97 1428.94   2
  -7  25  -2 4662.92 1133.09   1
  18 -25  -2 5712.50 1226.87   3
 -18  -7  -2 5649.97 1089.94   3
   7  18  -2 4962.29 1009.91   1
 -18  -7  -2 8283.90 1963.80   2
 -18  -7  -2 5089.11 1293.25   4
 -25   7  -2 7301.44 1604.52   4
  25 -18  -2 4417.26 1158.61   1
 -25   7   1 6798.26 1122.56   2
  25 -18   1 7144.98 1001.30   3
   7  18   1 6320.56 921.637   1
  18 -25   1 7047.04 1055.26   3
 -18  -7   1 10408.9 1606.33   4
 -18  -7   1 11636.5 1707.40   2
 -25   7   1 12766.5 1743.87   4
 -25   7   4 5186.67 916.707   2
  18 -25   4 4176.08 996.484   3
 -18  -7   4 6664.53 1353.61   4
 -25   7   4 5738.93 1335.41   4
 -18  -7   4 4342.06 769.315   2
 -18  -7   7 5327.06 1383.24   4
 -25   8  -6 2013.36 1630.40   2
  -8  25  -6 4413.74 1742.87   1
  25 -17  -6 2049.25 1484.05   3
  17 -25  -6 1221.16 1232.35   3
 -17  -8  -6 2335.53 857.013   3
  -8  25  -6 1628.62 894.235   2
  25 -17  -6 575.154 874.523   1
 -17  -8  -6 2494.19 1277.76   4
   8  17  -6 1333.05 1188.99   1
 -17  -8  -6 2138.55 1727.51   2
 -25   8  -6 2063.51 1376.33   4
  25 -17  -3 21915.1 1763.19   1
  25 -17  -3 25100.3 2211.19   3
  17 -25  -3 24972.2 2040.63   3
 -17  -8  -3 16456.8 1483.73   3
   8  17  -3 16532.0 1540.67   1
 -17  -8  -3 24835.5 2148.78   4
 -17  -8  -3 24074.5 2655.06   2
 -25   8  -3 18929.9 2160.96   4
  -8  25  -3 21224.9 1966.11   1
 -25   8  -3 20279.4 2140.88   2
  -8  25   0 3753.38 685.583   1
 -25   8   0 1620.33 937.260   2
  25 -17   0 2937.58 1118.40   3
  17 -25   0 2001.56 864.884   3
 -17  -8   0 1099.07 932.869   3
 -17  -8   0 3169.83 1148.52   4
   8  17   0 1271.15 735.892   1
 -25   8   0 2205.00 1221.61   4
 -17  -8   0 1396.61 1309.76   2
 -25   8   3 8302.83 1031.03   2
  25 -17   3 6800.88 657.199   3
  17 -25   3 7540.51 1085.79   3
 -17  -8   3 10812.4 1616.03   4
   8  17   3 4091.13 924.909   1
 -17  -8   3 12432.3 1436.98   2
 -25   8   3 10530.8 1556.27   4
  17 -25   6 3127.27 1227.86   3
 -17  -8   6 4083.89 1326.93   4
 -25   8   6 3591.10 1220.31   4
 -25   9  -7 1213.62 1472.94   2
  -9  25  -7 3343.51 1877.57   1
  25 -16  -7 3095.41 1780.46   3
  16 -25  -7-278.708 1246.14   3
  25 -16  -7 3561.29 1110.45   1
  -9  25  -7 2203.63 943.703   2
 -16  -9  -7 3478.95 1328.92   4
   9  16  -7 1648.03 1421.69   1
 -16  -9  -7 1114.26 1702.05   2
 -25   9  -7 3430.84 1486.52   4
  -9  25  -4-205.458 1297.66   1
 -25   9  -4 1100.83 1198.82   2
  25 -16  -4 2672.12 1383.71   3
  25 -16  -4 1327.77 861.674   1
  16 -25  -4 175.570 994.959   3
 -16  -9  -4 1030.76 916.790   3
  -9  25  -4 171.452 777.131   2
 -16  -9  -4-629.318 938.615   4
 -16  -9  -4 1842.54 1443.28   2
 -25   9  -4 3255.67 1393.15   4
   9  16  -4 232.959 831.387   1
 -25   9  -1 3732.48 1141.56   2
  25 -16  -1 2928.43 1115.05   3
  25 -16  -1 2071.96 930.818   1
  -9  25  -1 2732.31 899.597   1
  16 -25  -1 3123.51 959.862   3
   9  16  -1 2203.88 772.165   1
 -16  -9  -1 4418.47 1064.42   3
 -16  -9  -1 3143.73 1112.33   4
 -16  -9  -1 3783.50 1528.02   2
 -25   9  -1 3649.98 1370.58   4
  25 -16   2 3424.96 635.130   3
 -25   9   2 3047.02 870.701   2
   9  16   2 1908.09 841.205   1
  16 -25   2 1067.46 742.273   3
 -16  -9   2 2560.86 1172.84   4
 -16  -9   2 1803.94 1122.97   2
 -25   9   2 4298.51 1290.25   4
 -25   9   5 3120.27 855.205   2
  16 -25   5 2589.53 1006.16   3
 -16  -9   5 6165.83 1340.94   4
 -25   9   5 3985.28 1235.53   4
  25 -15  -5 10450.3 1897.06   3
  15 -25  -5 6574.46 1431.46   3
 -15 -10  -5 9209.78 1218.77   3
  10  15  -5 7630.78 1418.64   1
 -10  25  -5 8821.42 1257.97   2
 -15 -10  -5 9957.35 1584.99   4
  25 -15  -5 6360.76 1131.71   1
 -10  25  -5 11371.0 1979.33   1
 -25  10  -5 9172.82 1825.61   4
 -15 -10  -5 6966.53 1908.19   2
 -25  10  -5 8624.57 1753.24   2
  25 -15  -2 8064.69 1488.02   3
  25 -15  -2 7927.04 1243.61   1
  15 -25  -2 7216.92 1264.17   3
 -15 -10  -2 6736.74 1203.19   3
 -10  25  -2 6346.70 1133.81   2
 -15 -10  -2 12959.3 2119.16   2
 -15 -10  -2 4788.77 1195.09   4
  10  15  -2 8188.02 1146.66   1
 -10  25  -2 9255.87 1453.37   1
 -25  10  -2 8325.73 1660.46   4
 -25  10  -2 8254.07 1481.43   2
 -25  10   1 6891.01 1090.44   2
  25 -15   1 8452.44 1110.06   3
 -10  25   1 3583.64 364.750   1
  15 -25   1 5282.11 946.510   3
  10  15   1 3520.72 877.323   1
 -15 -10   1 4976.80 1112.91   3
 -15 -10   1 8206.54 1648.53   2
 -15 -10   1 7187.44 1359.00   4
 -25  10   1 6842.04 1440.11   4
 -25  10   4 5745.10 952.398   2
  15 -25   4 4515.36 1051.36   3
 -15 -10   4 5915.36 1468.89   4
 -25  10   4 3813.67 1285.66   4
 -15 -10   4 4799.58 950.481   2
  15 -25   7 7079.80 1519.52   3
 -15 -10   7 9770.07 1583.20   4
  25 -14  -6 2660.63 1695.26   3
 -25  11  -6-8.76842 1254.55   2
  25 -14  -6 919.756 922.209   1
  14 -25  -6 324.128 1071.42   3
 -14 -11  -6 920.794 816.299   3
 -11  25  -6 1463.80 865.066   2
 -14 -11  -6-205.606 984.072   4
 -14 -11  -6-284.017 1564.53   2
 -25  11  -6 1284.37 1351.11   4
  11  14  -6 3202.09 1258.84   1
 -11  25  -6 3858.31 1842.68   1
  25 -14  -3 6825.61 1519.61   3
 -25  11  -3 4850.17 1355.59   2
  11  14  -3 5103.58 1069.85   1
  14 -25  -3 5902.74 1203.97   3
  25 -14  -3 5851.50 1120.87   1
 -14 -11  -3 5908.60 1036.96   3
 -11  25  -3 4342.85 1025.62   2
 -14 -11  -3 4168.90 1176.55   4
 -14 -11  -3 8437.84 1845.70   2
 -25  11  -3 5889.53 1454.45   4
 -11  25  -3 7446.59 1562.53   1
 -11  25   0 1815.58 765.490   1
  25 -14   0 2307.91 1062.35   3
 -25  11   0 2027.26 904.893   2
  14 -25   0 1280.71 795.451   3
 -14 -11   0 1898.09 922.993   3
  25 -14   0 2990.27 1023.70   1
 -14 -11   0 1551.24 1024.31   4
 -14 -11   0 2240.74 1303.82   2
 -25  11   0 934.671 1129.01   4
  11  14   0 802.432 736.644   1
  25 -14   3 510.725 301.224   3
  11  14   3 1271.11 902.768   1
 -25  11   3 675.487 730.612   2
  14 -25   3 541.456 794.575   3
 -14 -11   3 1613.09 1226.10   4
 -14 -11   3 1900.48 1077.75   2
 -25  11   3 553.047 1024.00   4
  14 -25   6 5465.45 1350.04   3
 -14 -11   6 2818.81 1321.79   4
 -25  11   6 2886.16 1073.75   4
 -12  25  -7 2398.45 1342.73   4
  25 -13  -7 3912.37 1958.63   3
 -25  12  -7 3856.70 1556.07   2
  13 -25  -7 3167.00 1333.67   3
 -13 -12  -7 1637.93 971.791   3
 -12  25  -7 4278.77 1123.06   2
 -13 -12  -7 3522.42 1297.21   4
 -13 -12  -7 4706.97 1837.04   2
  12  13  -7 1800.94 1240.83   1
 -25  12  -7 4417.71 1584.20   4
 -12  25  -7 3985.39 2012.76   1
  25 -13  -7 1976.50 1039.17   1
 -12  25  -4 3699.89 1290.34   4
  25 -13  -4 3473.84 1379.24   3
  12  13  -4 3612.08 1054.64   1
 -25  12  -4 4607.08 1441.27   2
  13 -25  -4 1295.49 1008.06   3
 -13 -12  -4 4705.80 1016.31   3
 -12  25  -4 2107.50 916.120   2
 -13 -12  -4 7782.66 1945.12   2
 -13 -12  -4 3779.41 1187.25   4
  25 -13  -4 4354.59 1071.57   1
 -25  12  -4 1132.32 1281.02   4
 -12  25  -4 6661.03 1679.61   1
  25 -13  -1 5482.11 1336.21   3
  25 -13  -1 5896.39 1110.11   1
 -25  12  -1 2360.42 982.169   2
  13 -25  -1 5366.08 1076.40   3
 -13 -12  -1 3372.33 974.637   3
 -12  25  -1 4717.84 1073.70   2
 -13 -12  -1 5199.88 1312.55   4
  12  13  -1 3827.60 891.917   1
 -13 -12  -1 6484.33 1669.52   2
 -25  12  -1 5795.68 1429.40   4
 -12  25  -1 5134.95 1193.28   1
  25 -13   2 10493.0 917.251   3
 -25  12   2 10446.4 1248.50   2
  13 -25   2 6712.41 1055.10   3
 -13 -12   2 10022.9 1425.10   3
 -13 -12   2 12477.6 1686.39   2
  12  13   2 8692.12 1168.95   1
 -25  12   2 9652.21 1553.35   4
  13 -25   5 1669.32 1089.52   3
 -25  12   5 2173.82 877.590   2
 -25  12   5 2431.25 1094.26   4
  13  12  -5 3063.13 1215.53   1
 -13  25  -5 2131.57 1192.64   4
 -25  13  -5 1550.61 1104.69   2
  12 -25  -5 1502.57 1099.81   3
  25 -12  -5 3041.40 987.405   1
 -12 -13  -5 1396.39 899.488   3
 -13  25  -5 1792.57 865.076   2
 -12 -13  -5 3081.11 1208.70   4
 -12 -13  -5 838.950 1432.10   2
 -25  13  -5 1758.24 1250.07   4
 -13  25  -5 4680.11 1777.74   1
 -25  13  -2 9318.49 1475.04   2
  25 -12  -2 10461.9 1559.69   3
  12 -25  -2 8924.61 1281.72   3
 -12 -13  -2 6612.52 1128.01   3
 -13  25  -2 7135.34 1170.31   2
 -12 -13  -2 8171.07 1415.12   4
 -12 -13  -2 8424.85 1812.18   2
 -13  25  -2 9628.73 1520.07   1
  25 -12  -2 6976.55 1157.79   1
 -25  13  -2 10773.2 1768.48   4
  13  12  -2 7126.06 1069.18   1
 -13  25  -2 10048.4 1612.97   4
  25 -12   1 6261.82 1178.02   3
  12 -25   1 5759.24 1019.88   3
 -25  13   1 5141.33 1017.52   2
  25 -12   1 4276.25 1140.26   1
  13  12   1 6316.78 1009.91   1
 -12 -13   1 6489.46 1229.11   3
 -12 -13   1 5066.47 1474.67   2
 -13  25   1 5021.48 724.952   1
 -25  13   1 9745.34 1589.53   4
  12 -25   4 4085.35 1108.15   3
 -25  13   4 2837.74 870.381   2
 -12 -13   4 3206.26 1108.16   2
 -25  13   4 2447.39 1111.15   4
  12 -25   7 1467.40 1257.43   3
  25 -11  -6 2139.45 1011.72   1
 -14  25  -6 5255.44 1452.25   4
 -25  14  -6 3027.80 1435.66   2
  11 -25  -6 1240.88 1107.53   3
 -11 -14  -6 2714.64 1022.84   3
 -14  25  -6 1945.51 922.580   2
 -11 -14  -6 3924.61 1339.63   4
 -11 -14  -6 2262.70 1574.55   2
 -14  25  -6 613.971 1734.85   1
 -25  14  -6 4812.28 1581.39   4
  14  11  -6 3555.25 1288.49   1
 -14  25  -3 2439.72 1207.70   4
 -25  14  -3 490.126 968.630   2
  11 -25  -3 1225.38 847.987   3
  14  11  -3 380.277 783.267   1
 -11 -14  -3 756.086 750.918   3
 -14  25  -3 465.212 787.991   2
 -11 -14  -3 1666.27 1049.08   4
 -11 -14  -3 1071.39 1375.13   2
 -14  25  -3 2341.72 1384.65   1
 -25  14  -3 976.742 1178.00   4
  25 -11  -3 485.141 780.316   1
 -14  25   0 2887.13 1205.61   4
  25 -11   0 639.847 1001.18   3
  14  11   0 3344.69 838.188   1
 -25  14   0 2182.55 909.725   2
  25 -11   0 1247.88 817.690   1
  11 -25   0 773.402 844.020   3
 -11 -14   0 1574.13 907.365   3
 -14  25   0 1761.61 855.984   2
 -11 -14   0 1072.06 1276.51   2
 -14  25   0 900.086 896.336   1
 -25  14   0 3367.28 1270.50   4
  25 -11   3 4622.14 356.848   3
 -25  14   3 7336.11 1073.96   2
  14  11   3 6025.39 1278.87   1
  11 -25   3 5616.39 1089.20   3
 -11 -14   3 6012.73 1340.84   3
 -11 -14   3 9480.31 1542.11   2
 -25  14   3 8156.70 1470.82   4
  11 -25   6 2312.04 1230.52   3
 -25  14   6 628.571 954.959   4
  10 -25  -7 6535.97 1462.35   3
 -10 -15  -7 3808.00 1079.70   3
 -15  25  -7 5524.11 1185.09   2
 -10 -15  -7 5334.94 1293.25   4
 -10 -15  -7 7947.95 2188.50   2
  25 -10  -7 6748.23 1347.28   1
 -15  25  -7 12250.6 2592.97   1
 -25  15  -7 9863.36 1867.86   4
 -15  25  -7 10681.5 1832.04   4
  15  10  -7 6720.08 1536.73   1
 -25  15  -7 10851.6 1902.14   2
 -25  15  -4 4900.48 1292.10   2
  15  10  -4 4881.35 1134.29   1
  25 -10  -4 6090.19 1143.22   1
  10 -25  -4 4177.62 1189.42   3
 -15  25  -4 5724.38 1147.35   2
 -10 -15  -4 4744.52 1011.50   3
 -10 -15  -4 5163.24 1270.33   4
 -10 -15  -4 3648.29 1710.05   2
 -15  25  -4 4574.37 1610.65   1
 -15  25  -4 9005.81 1618.72   4
 -25  15  -1 5365.46 1141.68   2
  10 -25  -1 5372.65 1088.27   3
 -10 -15  -1 3128.40 924.459   3
 -15  25  -1 3794.14 955.490   2
  25 -10  -1 4677.20 1062.18   1
 -25  15  -1 6713.15 1502.16   4
  15  10  -1 4672.85 947.246   1
 -15  25   2 10515.2 1579.19   4
  25 -10   2 10299.9 1109.89   3
 -25  15   2 5849.53 1084.11   2
  10 -25   2 8122.83 1222.49   3
 -10 -15   2 7842.95 1238.67   3
  15  10   2 5893.46 1148.29   1
 -15  25   2 4538.20 619.780   1
 -25  15   2 10120.2 1566.52   4
  25 -10   2 7655.85 1314.64   1
 -25  15   5 6755.76 1191.10   2
  10 -25   5 7759.54 1378.49   3
 -16  25  -5 3580.24 1260.57   4
  25  -9  -5 3853.16 1022.61   1
  16   9  -5 2540.44 1057.57   1
 -25  16  -5 5636.25 1438.85   2
   9 -25  -5 4898.07 1216.25   3
  -9 -16  -5 2953.85 950.086   3
 -16  25  -5 3116.27 952.694   2
  -9 -16  -5 4670.24 1320.01   4
  -9 -16  -5 4653.95 1741.29   2
 -16  25  -5 2664.02 1752.27   1
 -25  16  -5 5633.23 1579.51   4
 -16  25  -2 228.296 1077.63   4
  25  -9  -2 571.435 831.199   1
 -25  16  -2 445.746 854.633   2
   9 -25  -2 754.918 851.534   3
  -9 -16  -2 1376.94 811.132   3
 -16  25  -2 902.845 820.529   2
  16   9  -2 2554.36 856.479   1
 -25  16  -2-1268.57 1165.86   4
 -16  25   1 3010.03 1242.51   4
  16   9   1 1328.19 822.752   1
  25  -9   1 3007.78 1042.94   1
 -25  16   1 2998.65 948.650   2
   9 -25   1 2093.96 891.009   3
  -9 -16   1 3917.50 1135.91   3
 -16  25   1 3081.32 980.522   2
 -25  16   1 2344.32 1102.13   4
   9 -25   4-769.247 1031.38   3
 -25  16   4 162.006 809.344   2
 -25  16   4-719.454 979.671   4
   9 -25   7 2947.68 1481.41   3
 -17  25  -6 3122.68 1343.99   4
  17   8  -6 2084.13 1198.88   1
 -25  17  -6 2176.98 1365.93   2
   8 -25  -6 1237.78 1064.71   3
  -8 -17  -6 2915.16 986.657   3
 -17  25  -6 2981.98 980.076   2
  -8 -17  -6 4515.61 1318.95   4
  -8 -17  -6 6289.84 1881.99   2
 -17  25  -6 5768.22 2013.50   1
  25  -8  -6 2290.25 1040.59   1
 -25  17  -6 3946.38 1492.84   4
 -25  17  -3 8403.26 1414.85   2
   8 -25  -3 7140.01 1278.43   3
 -17  25  -3 8871.40 1282.70   2
  25  -8  -3 10892.5 1372.52   1
  -8 -17  -3 9368.98 1222.40   3
  17   8  -3 8863.95 1270.79   1
 -25  17  -3 7305.78 1616.41   4
 -17  25  -3 10406.6 1677.06   4
 -17  25   0 4104.05 1244.37   4
 -25  17   0 2450.80 910.244   2
   8 -25   0 612.680 815.175   3
  17   8   0 2609.32 916.502   1
  -8 -17   0 1506.42 867.012   3
 -17  25   0-57.3896 823.403   2
 -25  17   0 1882.00 1223.68   4
  25  -8   0 1405.19 854.543   1
  25  -8   3 14534.9 827.063   3
 -25  17   3 19699.1 1609.01   2
   8 -25   3 17794.5 1627.35   3
  17   8   3 16944.8 1797.98   1
  -8 -17   3 18698.2 1832.38   3
 -25  17   3 22051.4 2022.79   4
 -17  25   3 23161.3 2062.49   4
   8 -25   6 2235.87 1250.27   3
 -25  17   6 894.233 962.296   4
 -18  25  -7 4354.38 1431.92   4
 -25  18  -7 3150.37 1344.19   2
   7 -25  -7 3356.30 1236.11   3
  -7 -18  -7 5084.96 1092.46   3
 -18  25  -7 3827.51 1197.78   2
  25  -7  -7 2741.29 1124.42   1
  -7 -18  -7 3588.31 1903.81   2
 -25  18  -7 3930.70 1638.95   4
 -18  25  -4 4549.39 1366.66   4
  25  -7  -4 2107.04 943.304   1
 -25  18  -4 5075.58 1323.73   2
   7 -25  -4 3782.83 1068.04   3
  18   7  -4 5552.55 1188.93   1
  -7 -18  -4 2965.84 941.564   3
 -18  25  -4 4270.40 1087.74   2
 -25  18  -4 5458.58 1542.90   4
 -25  18  -1 8666.70 1329.97   2
  18   7  -1 9018.83 1256.19   1
   7 -25  -1 7993.83 1197.33   3
 -18  25  -1 9076.75 1236.57   2
  -7 -18  -1 7741.02 1198.90   3
  25  -7  -1 6255.70 1144.51   1
 -25  18  -1 12598.7 1833.51   4
 -18  25  -1 9436.67 1660.16   4
 -18  25   2 5272.71 1324.01   4
  25  -7   2 3497.78 1081.33   1
   7 -25   2 3235.68 1033.48   3
 -25  18   2 4105.01 979.798   2
  -7 -18   2 4505.76 1170.84   3
 -18  25   2 4134.46 1021.27   2
  18   7   2 3214.67 1050.58   1
 -25  18   2 6510.68 1354.39   4
   7 -25   5 3832.95 1230.52   3
 -25  18   5 3096.83 1076.17   2
  -7 -18   5 4050.19 1278.19   3
 -25  18   5 4237.24 1220.21   4
 -19  25  -5 2921.75 1355.78   4
 -25  19  -5 3884.47 1170.05   2
   6 -25  -5 2070.89 1112.63   3
  19   6  -5 4126.25 1135.60   1
  -6 -19  -5 3408.51 956.045   3
 -19  25  -5 3794.41 1115.83   2
 -25  19  -5 3892.17 1511.32   4
  25  -6  -5 1121.42 872.870   1
 -19  25  -2 257.456 1118.14   4
 -25  19  -2 215.810 931.800   2
   6 -25  -2 334.925 850.440   3
  -6 -19  -2 1093.94 767.807   3
 -19  25  -2 110.214 737.911   2
  25  -6  -2-221.075 794.198   1
 -25  19  -2-439.360 1130.38   4
  19   6  -2-547.711 805.811   1
 -19  25   1 2383.39 1198.63   4
  19   6   1 2318.05 1009.05   1
  25  -6   1 1846.77 989.159   1
 -25  19   1 2170.37 882.633   2
   6 -25   1 776.278 809.741   3
  -6 -19   1 2263.23 975.359   3
 -19  25   1 1388.45 816.049   2
 -25  19   1 461.462 1054.73   4
 -19  25   4 3279.72 1152.88   4
   6 -25   4 4431.47 1236.83   3
 -25  19   4 4244.74 1096.14   2
  -6 -19   4 3273.68 1186.18   3
 -25  19   4 3283.19 1158.97   4
 -25  20  -6 5963.05 1489.18   2
  20   5  -6 2763.25 1212.93   1
   5 -25  -6 2639.96 1173.81   3
  -5 -20  -6 2464.46 989.400   3
 -20  25  -6 4881.08 1295.11   2
  25  -5  -6 4340.72 1259.19   1
 -25  20  -6 403.865 1338.34   4
 -20  25  -6 6577.99 1606.58   4
 -25  20  -3 14870.8 1732.69   2
   5 -25  -3 9262.57 1362.81   3
 -20  25  -3 9516.85 1375.52   2
  25  -5  -3 9277.52 1354.86   1
  -5 -20  -3 9998.29 1341.67   3
 -25  20  -3 11964.3 1871.23   4
 -20  25  -3 11711.4 1873.69   4
  20   5  -3 10992.9 1374.06   1
 -20  25   0 6296.07 1481.68   4
 -20  25   0 5297.91 1175.47   2
 -25  20   0 6112.46 1150.92   2
   5 -25   0 4515.03 1021.56   3
  -5 -20   0 4942.20 1055.06   3
  25  -5   0 2411.04 1018.77   1
  20   5   0 4574.68 1087.82   1
 -25  20   0 7336.59 1557.75   4
 -25  20   3 13122.2 1439.92   2
   5 -25   3 16101.2 1658.12   3
  -5 -20   3 11491.5 1491.66   3
 -20  25   3 10644.0 1419.58   2
  20   5   3 13368.4 1707.21   1
 -25  20   3 16730.3 1892.42   4
 -20  25   3 14140.1 1722.11   4
   5 -25   6 3160.94 1395.08   3
  -5 -20   6 2524.49 1373.41   3
 -25  20   6 2478.47 1075.41   4
  25  -4  -4 5084.23 1143.16   1
 -25  21  -4 3731.82 1166.48   2
   4 -25  -4 4229.40 1203.54   3
  -4 -21  -4 2437.79 959.041   3
 -21  25  -4 4104.50 1152.72   2
  21   4  -4 4349.27 1211.26   1
 -25  21  -4 4505.03 1451.69   4
 -21  25  -4 6281.65 1609.21   4
  25  -4  -1 4357.61 1072.21   1
 -25  21  -1 2466.64 1008.60   2
   4 -25  -1 3026.86 963.551   3
  21   4  -1 2581.04 981.207   1
  -4 -21  -1 2433.59 904.413   3
 -21  25  -1 3741.09 1076.85   2
 -25  21  -1 4021.10 1389.62   4
 -21  25  -1 2749.37 1366.12   4
 -21  25   2 5363.10 1456.97   4
  21   4   2 2162.74 1066.56   1
  25  -4   2 3767.57 1194.63   1
   4 -25   2 3116.13 1071.77   3
 -25  21   2 3082.31 977.633   2
  -4 -21   2 1638.20 981.267   3
 -21  25   2 3732.52 1008.08   2
 -25  21   2 4327.61 1324.72   4
 -21  25   5 3374.25 1160.54   4
   4 -25   5 3894.78 1199.78   3
  -4 -21   5 3694.46 1336.71   3
 -25  21   5 2337.83 1120.59   4
 -25  22  -5 2089.87 1168.36   2
   3 -25  -5 1152.82 1002.36   3
  -3 -22  -5 442.637 948.317   3
 -22  25  -5 1617.56 1060.54   2
  22   3  -5 1954.97 1001.42   1
  25  -3  -5 904.931 1023.72   1
 -25  22  -5 3838.50 1471.58   4
 -22  25  -5 3929.66 1472.26   4
  22   3  -2 1871.54 919.774   1
 -25  22  -2-44.5133 930.357   2
   3 -25  -2 811.198 854.290   3
  -3 -22  -2 2034.52 865.208   3
 -22  25  -2 4237.65 1090.56   2
  25  -3  -2 1313.08 921.302   1
 -25  22  -2 964.782 1160.04   4
 -22  25  -2 733.974 1171.02   4
  25  -3   1 1433.16 980.268   1
   3 -25   1 1010.57 960.234   3
 -25  22   1 293.110 833.960   2
  -3 -22   1 984.015 852.056   3
 -22  25   1-0.77021 854.336   2
  22   3   1 464.091 998.874   1
 -25  22   1-696.077 1092.54   4
 -22  25   1 644.923 1043.06   4
 -22  25   4 2947.77 1251.37   4
   3 -25   4 1824.34 1116.95   3
  -3 -22   4 1827.67 1135.22   3
 -25  22   4 3078.68 1067.21   2
 -25  22   4 3019.05 1170.12   4
  23   2  -3 9087.34 1403.88   1
 -25  23  -3 12136.3 1599.37   2
 -23  25  -3 9186.23 1442.60   2
  25  -2  -3 6937.24 1214.48   1
  -2 -23  -3 8887.66 1323.36   3
   2 -25  -3 6488.92 1265.00   3
 -25  23  -3 12811.2 1983.68   4
 -23  25  -3 13881.1 1984.98   4
  23   2   0 3461.54 1043.72   1
   2 -25   0 3695.49 1072.51   3
 -25  23   0 3449.80 1052.41   2
  -2 -23   0 5962.89 1198.56   3
  25  -2   0 3343.51 1074.43   1
 -23  25   0 5449.55 1151.81   2
 -25  23   0 4707.03 1441.52   4
 -23  25   0 5032.52 1398.66   4
 -25  23   3 9415.27 1377.57   2
   2 -25   3 9476.38 1471.11   3
  -2 -23   3 10932.7 1556.99   3
 -23  25   3 10536.5 1464.48   2
  25  -2   3 7128.37 1430.21   1
 -25  23   3 11352.9 1751.32   4
 -23  25   3 11686.6 1739.13   4
  25  -1  -4 524.934 945.047   1
 -25  24  -4-408.822 971.139   2
   1 -25  -4-71.2564 944.620   3
 -24  25  -4 1812.06 1129.99   2
  -1 -24  -4 470.531 976.689   3
  24   1  -4 1373.89 994.071   1
 -25  24  -4-158.674 1237.46   4
 -24  25  -4 2430.61 1445.63   4
  25  -1  -1 821.754 912.106   1
   1 -25  -1 4285.56 1084.87   3
 -25  24  -1 2266.51 996.469   2
  -1 -24  -1 1523.90 948.842   3
 -24  25  -1 2399.83 997.167   2
  24   1  -1 2016.32 1015.61   1
 -25  24  -1 5349.64 1506.23   4
 -24  25  -1 2473.69 1323.28   4
   1 -25   2 5477.04 1345.68   3
  24   1   2 2410.91 1088.59   1
  -1 -24   2 3709.70 1137.40   3
 -25  24   2 3352.01 1115.94   2
 -24  25   2 3161.21 1066.96   2
  25  -1   2 698.301 1039.48   1
 -25  24   2 1067.43 1220.18   4
 -24  25   2 5669.19 1507.15   4
 -25  24   5 3841.25 1261.60   4
 -24  25   5 3159.02 1221.33   4
   1 -25   5 5047.52 1477.93   3
  -1 -24   5 2470.13 1284.79   3
   0 -25  -2 2997.66 1084.49   3
 -25  25  -2 3196.53 1086.97   2
  25   0  -2 4232.17 1173.92   1
 -25  25  -2 3637.23 1471.75   4
   0 -25   1-1419.18 1051.93   3
 -25  25   1 512.009 893.907   2
  25   0   1 1336.07 1028.63   1
 -25  25   1 1060.49 1129.05   4
 -25  25   4 3513.21 1252.94   4
   0 -25   4 4931.63 1311.65   3
 -25  25   4 2671.88 1185.18   2
  26 -26  -2 8057.74 1547.40   3
   0  26  -2 5056.18 1058.86   1
 -26   0  -2 8138.88 1832.03   4
 -26   0  -2 6463.42 1835.46   2
 -26   0   1 2610.64 1170.46   2
  26 -26   1 115.357 758.691   3
 -26   0   1 1169.00 1343.57   4
  26 -25  -3 11227.7 1865.77   3
  25 -26  -3 12044.6 1846.41   3
  -1  26  -3 8676.91 1371.90   1
   1  25  -3 10178.0 1381.99   1
 -25  -1  -3 12442.9 2049.56   4
 -26   1  -3 14373.2 2107.42   4
 -25  -1  -3 14025.5 2334.65   2
 -26   1  -3 8432.18 1989.37   2
 -25  -1   0 3340.76 1522.67   2
 -26   1   0 1394.25 1306.50   2
  26 -25   0 926.328 967.335   3
  25 -26   0 2697.00 990.126   3
   1  25   0 1267.95 642.740   1
 -25  -1   0 3308.11 1440.94   4
 -26   1   0 2780.53 1343.99   4
 -26   1   3 6333.42 1035.20   2
  25 -26   3 7000.54 1017.68   3
  26 -25   3 4681.51 912.778   3
 -25  -1   3 7896.34 1732.00   4
 -26   1   3 8583.24 1813.28   4
 -25  -1   3 7068.72 1107.64   2
  26 -24  -4 3157.67 1371.37   3
  24 -26  -4 3929.44 1371.88   3
  -2  26  -4 525.806 1107.71   1
   2  24  -4 458.975 1026.50   1
 -24  -2  -4 591.733 1305.93   4
 -26   2  -4 3761.86 1641.07   4
 -24  -2  -4 2243.13 1642.28   2
 -26   2  -4 38.9740 1428.97   2
 -26   2  -1 1644.87 1216.34   2
  26 -24  -1 2430.53 1151.96   3
   2  24  -1 2257.55 750.157   1
  24 -26  -1 798.721 992.384   3
 -24  -2  -1 2609.19 1354.39   4
 -26   2  -1 4293.88 1528.78   4
 -24  -2  -1 3602.11 1560.07   2
  -2  26  -1 1339.82 669.222   1
 -24  -2   2 5918.29 1212.00   2
 -26   2   2 2811.99 1014.82   2
  26 -24   2 1757.51 738.478   3
  24 -26   2 1932.38 860.631   3
 -24  -2   2 2783.93 1436.33   4
 -26   2   2 1307.63 1364.49   4
  26 -23  -5 2335.74 1454.78   3
  23 -26  -5-635.284 1240.73   3
  -3  26  -5 2565.22 1445.08   1
   3  23  -5 1487.87 1196.92   1
 -23  -3  -5 2514.31 1429.53   4
 -26   3  -5 2481.93 1616.89   4
  26 -23  -5 319.387 910.599   1
 -23  -3  -5-782.299 1643.70   2
 -26   3  -5 3292.20 1706.78   2
 -26   3  -2 7328.17 1751.21   2
  26 -23  -2 10411.7 1658.33   3
  23 -26  -2 10597.2 1632.24   3
  -3  26  -2 8643.42 1207.35   1
   3  23  -2 7264.16 1113.51   1
 -23  -3  -2 9450.14 1750.34   4
 -26   3  -2 9070.28 1952.33   4
 -23  -3  -2 8080.39 1876.85   2
 -26   3   1 1056.70 1035.03   2
  26 -23   1 2395.15 837.823   3
  23 -26   1 1937.70 857.915   3
   3  23   1 114.382 629.117   1
 -23  -3   1 3487.04 1445.70   4
 -26   3   1 825.648 1299.20   4
 -23  -3   1 1754.61 1176.35   2
  23 -26   4 1436.33 816.258   3
 -23  -3   4 3997.88 1415.17   4
 -26   3   4 5346.78 1598.32   4
 -26   4  -3 9368.55 1849.02   2
  26 -22  -3 7285.61 1288.82   1
  26 -22  -3 9648.96 1783.80   3
  -4  26  -3 6948.87 1397.91   1
  22 -26  -3 9545.92 1625.92   3
   4  22  -3 7236.42 1210.84   1
 -22  -4  -3 8983.90 1783.16   4
 -26   4  -3 10016.7 1954.76   4
 -22  -4  -3 12655.1 2327.89   2
 -26   4   0 1001.17 1069.52   2
  -4  26   0 2646.01 617.664   1
  26 -22   0 2933.48 1016.91   3
  22 -26   0 4518.30 1072.82   3
   4  22   0 1452.53 706.529   1
 -22  -4   0 5858.40 1457.87   4
 -26   4   0 2810.00 1364.87   4
 -22  -4   0 1026.07 1267.19   2
 -26   4   3 10960.1 1150.55   2
  26 -22   3 6442.53 867.262   3
  22 -26   3 7134.92 1063.20   3
 -22  -4   3 11865.2 1874.88   4
 -26   4   3 12947.2 1840.63   4
 -22  -4   3 7024.27 1122.58   2
 -26   5  -4-489.071 1373.00   2
  26 -21  -4 223.089 1283.13   3
  21 -26  -4 506.261 1249.13   3
  -5  26  -4 1680.69 1274.73   1
  26 -21  -4 1214.53 948.491   1
 -21  -5  -4-27.1922 1120.11   4
 -26   5  -4-932.781 1342.90   4
   5  21  -4 1098.03 1043.55   1
 -21  -5  -4 1470.68 1689.79   2
 -26   5  -1-220.188 1147.37   2
  26 -21  -1 530.735 1038.18   3
  21 -26  -1 916.962 925.937   3
   5  21  -1 94.6318 668.281   1
  -5  26  -1-76.9964 637.814   1
 -21  -5  -1 1498.37 1204.96   4
 -26   5  -1-423.624 1245.06   4
 -21  -5  -1 3316.43 1579.18   2
 -26   5   2 2121.82 943.436   2
  26 -21   2 2727.74 734.406   3
  21 -26   2 1182.59 785.564   3
   5  21   2 1719.67 723.495   1
 -21  -5   2 61.0154 1111.74   4
 -26   5   2 4026.77 1392.45   4
 -21  -5   2 2902.76 1117.47   2
  21 -26   5 1082.14 939.582   3
 -21  -5   5 1772.46 1276.68   4
 -26   5   5 3752.90 1333.89   4
 -26   6  -5 4350.34 1702.42   2
  26 -20  -5 6403.55 1648.61   3
  20 -26  -5 4236.69 1385.65   3
  -6  26  -5 4598.92 1522.36   1
 -20  -6  -5 1281.59 813.727   3
  26 -20  -5 4095.90 1148.15   1
 -20  -6  -5 4202.56 1448.76   4
   6  20  -5 5036.46 1401.17   1
 -26   6  -5 4078.09 1564.03   4
 -20  -6  -5 3473.83 1885.63   2
 -26   6  -2 6323.06 1564.43   2
  26 -20  -2 7062.56 1510.26   3
  20 -26  -2 4152.24 1183.17   3
  -6  26  -2 5271.37 1105.96   1
  26 -20  -2 5624.77 1238.03   1
   6  20  -2 5547.05 1024.62   1
 -20  -6  -2 6091.37 1390.35   4
 -26   6  -2 6279.65 1705.58   4
 -20  -6  -2 10985.5 1974.95   2
 -26   6   1 4951.34 1106.96   2
  26 -20   1 5677.94 960.818   3
  20 -26   1 5244.22 1018.17   3
   6  20   1 4691.04 868.481   1
 -20  -6   1 6865.53 1431.35   4
 -26   6   1 5673.56 1522.33   4
 -20  -6   1 6991.29 1597.76   2
 -26   6   4 4314.86 934.484   2
  20 -26   4 6287.55 1145.95   3
 -20  -6   4 10424.7 1713.93   4
 -26   6   4 8977.54 1596.21   4
 -26   7  -6 3988.31 1729.25   2
  26 -19  -6 3980.66 1636.56   3
  26 -19  -6 3237.08 1130.45   1
  -7  26  -6 2180.45 1525.49   1
  19 -26  -6 3150.34 1408.02   3
 -19  -7  -6 5520.54 1503.49   4
   7  19  -6 2269.91 1302.44   1
 -26   7  -6 4346.03 1643.56   4
 -19  -7  -6 1077.51 1697.12   2
 -26   7  -3 6213.36 1666.09   2
  26 -19  -3 8103.51 1615.14   3
  19 -26  -3 4488.45 1294.13   3
  26 -19  -3 4785.89 1177.19   1
   7  19  -3 8047.89 1249.93   1
 -19  -7  -3 7607.98 1186.00   3
 -19  -7  -3 7651.44 1500.39   4
 -26   7  -3 9322.80 1828.35   4
 -19  -7  -3 10335.6 2097.66   2
  -7  26  -3 7437.18 1428.33   1
  26 -19   0 9355.11 1362.99   3
  19 -26   0 8128.72 1167.82   3
  -7  26   0 7937.56 764.100   1
 -19  -7   0 8035.15 1477.22   4
 -26   7   0 10954.9 1738.59   4
 -19  -7   0 8049.36 1761.60   2
 -26   7   0 8234.84 1438.74   2
   7  19   0 5229.86 950.784   1
   7  19   3 4968.21 897.573   1
 -26   7   3 9823.29 1123.98   2
  26 -19   3 6262.76 720.453   3
  19 -26   3 6886.26 1096.69   3
 -19  -7   3 7913.81 1532.62   4
 -26   7   3 10215.7 1683.65   4
 -19  -7   3 9498.58 1266.84   2
  19 -26   6 840.521 1048.13   3
 -19  -7   6 1419.10 1207.75   4
 -26   7   6 2002.50 1203.04   4
 -26   8  -4 1968.51 1293.68   2
  26 -18  -4 2458.97 1356.37   3
  -8  26  -4 1262.00 1273.62   1
  18 -26  -4 1351.87 1135.09   3
 -18  -8  -4 864.393 812.748   3
  26 -18  -4 1594.50 1001.03   1
 -18  -8  -4-117.580 1094.67   4
 -26   8  -4 1735.14 1336.89   4
 -18  -8  -4 5412.85 1862.92   2
   8  18  -4 324.661 989.155   1
  -8  26  -1 6397.42 1025.98   1
  26 -18  -1 8001.21 1373.32   1
  26 -18  -1 7316.71 1472.45   3
  18 -26  -1 6871.76 1183.66   3
   8  18  -1 4587.34 916.958   1
 -18  -8  -1 7893.46 1270.30   3
 -18  -8  -1 11874.1 2114.24   2
 -18  -8  -1 6204.41 1371.62   4
 -26   8  -1 5831.14 1569.50   4
 -26   8  -1 8690.10 1528.51   2
 -26   8   2-444.628 742.405   2
  26 -18   2 813.980 612.146   3
   8  18   2 1616.57 802.590   1
  18 -26   2 94.4070 716.984   3
 -18  -8   2 4.96636 1011.73   4
 -26   8   2 1754.42 1162.63   4
 -18  -8   2 1733.07 1143.94   2
 -26   8   5 1260.79 724.691   2
  18 -26   5 1575.98 958.779   3
 -26   8   5 3452.98 1252.44   4
 -26   9  -5 4225.52 1714.06   2
  -9  26  -5 7399.90 1844.44   1
  26 -17  -5 7510.43 1771.92   3
  26 -17  -5 6001.43 1171.99   1
  17 -26  -5 8623.32 1560.02   3
  -9  26  -5 6398.33 1196.84   2
 -17  -9  -5 6044.59 1074.61   3
 -17  -9  -5 6112.14 1490.07   4
 -17  -9  -5 7067.96 1964.46   2
 -26   9  -5 5359.90 1686.05   4
   9  17  -5 5772.72 1387.63   1
  26 -17  -2 9840.64 1662.27   3
 -26   9  -2 3758.43 1324.00   2
  -9  26  -2 6632.13 1222.01   1
  17 -26  -2 4501.26 1100.80   3
  26 -17  -2 7415.72 1330.14   1
 -17  -9  -2 5020.89 1082.13   3
 -17  -9  -2 5241.29 1363.06   4
   9  17  -2 4972.22 1015.44   1
 -17  -9  -2 8047.98 1913.75   2
 -26   9  -2 2820.82 1397.89   4
 -26   9   1 12085.1 1440.17   2
  26 -17   1 12262.9 1244.28   3
  17 -26   1 8473.79 1161.77   3
   9  17   1 7988.09 1106.38   1
 -17  -9   1 9208.39 1414.36   3
 -17  -9   1 14376.1 1821.46   4
 -17  -9   1 14565.0 1984.00   2
 -26   9   1 10332.7 1691.88   4
 -26   9   4 1483.39 769.456   2
  17 -26   4 1304.25 887.229   3
 -17  -9   4 1239.19 1114.91   4
 -26   9   4 2361.21 1144.04   4
 -10  26  -6 8905.51 2065.58   1
 -26  10  -6 8002.62 1962.72   2
  26 -16  -6 9164.37 1989.55   3
  16 -26  -6 3873.60 1405.20   3
 -10  26  -6 6119.57 1216.49   2
 -16 -10  -6 4803.74 1098.13   3
  26 -16  -6 4088.68 1112.44   1
 -16 -10  -6 5666.05 1473.67   4
 -16 -10  -6 8350.59 2046.95   2
  10  16  -6 6521.10 1433.13   1
 -26  10  -6 7326.40 1829.15   4
 -10  26  -3 2719.70 1341.97   1
  26 -16  -3 5706.79 1473.82   3
 -26  10  -3 1497.19 1265.02   2
  10  16  -3 2053.14 980.550   1
  16 -26  -3 5582.40 1279.48   3
 -16 -10  -3 1888.63 933.324   3
 -10  26  -3 3046.15 1010.10   2
  26 -16  -3 4153.32 1080.72   1
 -16 -10  -3 3931.45 1222.85   4
 -16 -10  -3 5907.30 1827.66   2
 -26  10  -3 2732.91 1340.66   4
 -26  10   0 7582.90 1267.90   2
  26 -16   0 7359.60 1294.82   1
  10  16   0 6756.73 1041.26   1
  26 -16   0 11613.0 1457.83   3
  16 -26   0 7138.96 1235.88   3
 -16 -10   0 9142.32 1315.52   3
 -16 -10   0 10359.0 1626.21   4
 -26  10   0 7603.90 1551.56   4
 -16 -10   0 5291.01 1580.43   2
 -10  26   0 5839.32 793.500   1
 -26  10   3 1873.24 821.720   2
  16 -26   3 2355.93 861.507   3
  10  16   3 2033.64 905.491   1
 -16 -10   3 3194.52 1223.51   4
 -26  10   3 2631.29 1148.65   4
 -16 -10   3 2779.65 1185.34   2
  16 -26   6 5839.30 1365.43   3
 -26  10   6 8621.65 1504.67   4
 -11  26  -4-68.5792 1240.87   1
  11  15  -4-380.979 903.919   1
  26 -15  -4 1400.02 1268.68   3
 -26  11  -4 1061.08 1209.73   2
  26 -15  -4 52.8985 899.829   1
  15 -26  -4 1392.18 1053.32   3
 -15 -11  -4 1179.09 849.749   3
 -11  26  -4-520.203 771.768   2
 -15 -11  -4-261.955 1021.49   4
 -15 -11  -4-481.765 1441.20   2
 -26  11  -4 690.044 1231.36   4
 -26  11  -1 7167.42 1356.48   2
  26 -15  -1 9429.93 1543.77   3
  15 -26  -1 6712.46 1123.61   3
  26 -15  -1 8815.68 1354.40   1
 -15 -11  -1 7504.39 1314.41   3
 -15 -11  -1 10819.7 1616.02   4
 -15 -11  -1 9727.76 1974.76   2
 -26  11  -1 11673.2 1781.17   4
 -11  26  -1 10072.6 1326.25   1
  11  15  -1 7898.97 1068.57   1
  26 -15   2 1055.14 557.014   3
 -26  11   2 930.633 794.355   2
  15 -26   2 1068.39 784.579   3
  11  15   2 778.941 843.830   1
 -15 -11   2 777.006 999.235   3
 -15 -11   2-95.2331 1064.52   4
 -26  11   2 213.873 1014.44   4
  15 -26   5 2222.04 1024.09   3
 -26  11   5 2921.50 890.919   2
 -26  11   5 3653.33 1234.24   4
  26 -14  -5 12569.1 2050.28   3
 -26  12  -5 6158.67 1680.69   2
  14 -26  -5 8554.78 1517.64   3
  26 -14  -5 7057.45 1295.43   1
 -14 -12  -5 10359.4 1321.48   3
 -12  26  -5 8160.93 1262.60   2
  12  14  -5 9346.11 1497.79   1
 -14 -12  -5 12163.1 2196.59   2
 -14 -12  -5 7448.98 1456.48   4
 -12  26  -5 11796.9 2163.15   1
 -26  12  -5 12382.4 2052.98   4
  26 -14  -2 2014.25 1166.67   3
 -26  12  -2 3282.86 1198.98   2
  14 -26  -2 1072.78 924.548   3
  12  14  -2 742.264 741.140   1
 -14 -12  -2 883.804 871.717   3
 -12  26  -2 2313.23 915.178   2
 -14 -12  -2 3843.98 1189.24   4
 -14 -12  -2 1827.61 1454.90   2
  26 -14  -2 1409.94 916.436   1
 -26  12  -2 685.315 1215.63   4
 -12  26  -2 3515.53 1206.06   1
  26 -14   1 10685.9 1288.12   3
 -26  12   1 8679.43 1182.48   2
  14 -26   1 5584.57 1054.28   3
  12  14   1 5965.10 1063.48   1
 -14 -12   1 6107.13 1229.09   3
 -14 -12   1 7904.74 1532.96   4
 -14 -12   1 8605.14 1789.65   2
 -26  12   1 9393.12 1656.96   4
 -12  26   1 4373.99 490.152   1
 -26  12   4-591.205 721.437   2
  14 -26   4 96.2565 855.506   3
 -14 -12   4 116.561 1183.78   4
 -14 -12   4 233.536 913.572   2
 -26  12   4-368.265 1047.81   4
  26 -13  -6 10456.3 2136.07   3
 -26  13  -6 8083.73 1774.27   2
  26 -13  -6 7025.25 1292.26   1
  13 -26  -6 7515.09 1481.05   3
 -13  26  -6 6631.02 1227.37   2
  13  13  -6 8283.37 1564.54   1
 -13 -13  -6 5337.66 1119.42   3
 -13 -13  -6 8070.19 1500.42   4
 -13  26  -6 10252.4 2301.46   1
 -13 -13  -6 9046.69 2133.27   2
 -26  13  -6 14047.4 2166.85   4
 -13  26  -6 9272.27 1679.73   4
 -13  26  -3 696.792 1022.44   4
  26 -13  -3 4654.70 1483.61   3
 -26  13  -3 1745.85 1150.19   2
  26 -13  -3 983.910 828.975   1
  13  13  -3 2778.54 954.688   1
  13 -26  -3 1249.14 1021.22   3
 -13 -13  -3 2651.08 971.574   3
 -13  26  -3 1104.03 899.668   2
 -13 -13  -3 1510.54 1100.42   4
 -13 -13  -3 303.466 1480.10   2
 -26  13  -3 1687.51 1282.15   4
 -13  26  -3 663.242 1197.50   1
  26 -13   0 9817.50 1469.74   3
  13  13   0 5894.92 1038.19   1
 -26  13   0 4780.89 1129.49   2
  13 -26   0 7767.15 1118.00   3
 -13 -13   0 5945.27 1224.04   3
  26 -13   0 5229.45 1248.40   1
 -13 -13   0 6965.35 1495.82   4
 -13 -13   0 14020.5 2128.52   2
 -13  26   0 14072.8 1381.63   1
 -26  13   0 6158.28 1547.14   4
 -26  13   3 616.708 724.295   2
  13 -26   3 448.062 829.626   3
  13  13   3 806.773 955.459   1
 -13 -13   3 1209.22 1103.66   3
 -13 -13   3 1643.04 1211.15   2
 -26  13   3 1936.82 1114.60   4
  13 -26   6 9020.25 1543.13   3
 -13 -13   6 9739.09 1827.82   4
 -26  13   6 7835.34 1354.65   4
 -14  26  -4 2397.11 1216.40   4
 -26  14  -4-15.6485 1097.04   2
  14  12  -4 63.7424 850.128   1
  12 -26  -4 1196.58 1010.94   3
 -12 -14  -4 1800.07 907.462   3
 -14  26  -4 9.03870 799.735   2
 -12 -14  -4 75.4036 1036.84   4
 -12 -14  -4-878.974 1490.15   2
  26 -12  -4 381.441 863.038   1
 -14  26  -4 2667.00 1471.18   1
 -26  14  -4 1869.42 1362.02   4
  26 -12  -1 6594.44 1413.30   3
  26 -12  -1 5363.31 1210.58   1
 -26  14  -1 4970.99 1114.04   2
  12 -26  -1 5148.64 1124.27   3
 -14  26  -1 6048.66 1156.42   2
 -12 -14  -1 4988.34 1051.76   3
 -14  26  -1 5228.54 1326.38   1
 -12 -14  -1 8253.13 1764.12   2
  14  12  -1 4818.48 977.421   1
 -26  14  -1 6336.14 1602.78   4
 -14  26  -1 9261.75 1555.00   4
  26 -12   2 3680.97 827.600   3
 -26  14   2 2292.31 870.932   2
  12 -26   2 2487.63 890.917   3
  14  12   2 3795.49 1084.37   1
 -12 -14   2 2276.70 1039.33   3
 -12 -14   2 4495.55 1429.47   2
 -26  14   2 3472.00 1260.88   4
 -26  14   5 6080.24 1176.61   2
 -26  14   5 6579.22 1383.94   4
 -15  26  -5 1105.03 1175.23   4
  15  11  -5 3943.44 1117.37   1
 -26  15  -5 2545.75 1233.42   2
  11 -26  -5 3714.64 1170.57   3
  26 -11  -5 4238.96 1136.54   1
 -11 -15  -5 3582.01 1000.32   3
 -15  26  -5 4783.92 1120.06   2
 -11 -15  -5 5976.18 1442.76   4
 -11 -15  -5 6862.77 1858.01   2
 -15  26  -5 6389.34 1968.01   1
 -26  15  -5 4823.41 1591.17   4
 -15  26  -2-206.566 1012.17   4
 -26  15  -2 479.254 972.848   2
  11 -26  -2 1335.29 887.957   3
  26 -11  -2 411.976 857.364   1
 -11 -15  -2 378.315 785.542   3
 -15  26  -2 811.303 799.098   2
  15  11  -2-145.459 724.759   1
 -11 -15  -2 177.168 1436.39   2
 -15  26  -2 1200.31 1162.20   1
 -26  15  -2 1912.47 1342.28   4
 -15  26   1 12337.0 1708.12   4
  26 -11   1 13435.4 1491.37   3
 -26  15   1 8768.94 1239.51   2
  11 -26   1 6836.49 1112.32   3
 -11 -15   1 11416.0 1460.57   3
  15  11   1 7539.21 1198.16   1
 -26  15   1 9472.94 1634.37   4
 -15  26   1 5010.32 888.128   1
  26 -11   1 5923.39 1251.65   1
  11 -26   4 324.099 883.136   3
 -26  15   4 646.408 791.597   2
 -11 -15   4-425.723 1003.06   3
 -11 -15   4 876.863 1081.70   2
 -26  15   4 1978.95 1105.59   4
  26 -10  -6 5735.97 1243.40   1
 -26  16  -6 6160.28 1599.62   2
  10 -26  -6 7823.64 1428.24   3
 -16  26  -6 11252.4 1468.95   2
 -10 -16  -6 7763.60 1271.17   3
  16  10  -6 8265.31 1512.30   1
 -10 -16  -6 7653.15 1543.91   4
 -10 -16  -6 10153.3 2241.20   2
 -16  26  -6 6867.81 2233.61   1
 -26  16  -6 9611.08 1905.17   4
 -16  26  -6 10904.4 1844.60   4
 -16  26  -3 4784.32 1408.22   4
 -26  16  -3 3188.91 1136.57   2
  10 -26  -3 3739.38 1045.66   3
  16  10  -3 2791.53 928.723   1
 -10 -16  -3 817.789 799.259   3
 -16  26  -3 3056.19 983.969   2
 -10 -16  -3 4285.79 1553.12   2
 -16  26  -3 4222.53 1487.75   1
 -26  16  -3 3543.82 1454.28   4
  26 -10  -3 2111.04 894.056   1
 -26  16   0 8768.48 1301.07   2
  26 -10   0 7159.87 1232.33   1
  10 -26   0 5930.56 1121.46   3
  16  10   0 4292.54 1044.69   1
 -10 -16   0 7622.73 1229.68   3
 -16  26   0 5396.97 1135.12   2
 -26  16   0 5924.24 1439.03   4
 -16  26   0 8830.00 1585.78   4
  10 -26   3 2726.01 971.139   3
 -26  16   3 1001.44 799.841   2
 -10 -16   3 3906.71 1199.00   3
  16  10   3 3537.97 1284.94   1
 -26  16   3 1954.82 1167.60   4
  10 -26   6 3577.75 1463.57   3
 -26  16   6 4321.60 1224.15   4
 -17  26  -4 1334.45 1236.37   4
 -26  17  -4 1352.26 1112.32   2
   9 -26  -4 2463.62 1019.95   3
  17   9  -4 1477.05 967.124   1
  26  -9  -4 1056.32 906.000   1
  -9 -17  -4 1315.66 826.767   3
 -17  26  -4 2528.91 1085.79   2
 -26  17  -1 11809.7 1490.24   2
  17   9  -1 7039.77 1191.91   1
   9 -26  -1 8698.39 1321.33   3
  -9 -17  -1 10528.2 1300.97   3
 -17  26  -1 8302.81 1281.48   2
 -26  17  -1 12416.1 1921.04   4
  26  -9  -1 8973.89 1249.05   1
 -17  26  -1 14353.9 1832.65   4
 -17  26   2 6322.31 1400.79   4
  26  -9   2 6546.45 1117.08   3
  26  -9   2 3623.37 1114.87   1
 -26  17   2 6437.52 1143.48   2
   9 -26   2 2949.43 1012.20   3
  -9 -17   2 5972.61 1270.56   3
  17   9   2 3975.90 1186.44   1
 -26  17   2 4247.09 1319.86   4
   9 -26   5 7404.79 1462.96   3
 -26  17   5 5852.33 1236.07   2
  -9 -17   5 6817.17 1537.67   3
 -26  17   5 5480.87 1319.40   4
 -18  26  -5 2702.71 1357.79   4
  26  -8  -5 4976.12 1139.37   1
 -26  18  -5 2546.75 1297.77   2
  18   8  -5 1415.81 939.390   1
   8 -26  -5 2029.60 1016.88   3
  -8 -18  -5 3598.23 1064.12   3
 -18  26  -5 2474.57 1028.05   2
  -8 -18  -5 2812.08 1267.80   4
 -26  18  -5 2356.49 1404.62   4
 -18  26  -2 1911.20 1205.02   4
  26  -8  -2 1000.82 858.810   1
 -26  18  -2 1418.80 971.930   2
   8 -26  -2 1403.35 947.370   3
  -8 -18  -2-90.1416 861.383   3
 -18  26  -2 914.878 911.921   2
  18   8  -2 1119.46 833.967   1
 -26  18  -2 615.291 1347.49   4
 -26  18   1 5717.63 1176.75   2
   8 -26   1 7583.47 1271.31   3
  -8 -18   1 5557.24 1198.50   3
 -18  26   1 5818.70 1163.25   2
  18   8   1 7585.88 1220.38   1
 -26  18   1 8534.21 1574.63   4
  26  -8   1 4835.09 1115.45   1
 -18  26   1 9592.60 1603.59   4
   8 -26   4 906.227 1000.92   3
 -26  18   4 739.681 861.447   2
  -8 -18   4 2215.73 1165.94   3
 -26  18   4 514.435 1109.88   4
 -19  26  -6 1163.25 1315.86   4
 -26  19  -6 3262.86 1326.20   2
  19   7  -6 68.6859 1025.02   1
   7 -26  -6 136.107 1004.11   3
  -7 -19  -6 2611.45 1066.19   3
 -19  26  -6 577.586 965.945   2
  -7 -19  -6 1261.93 1186.12   4
  26  -7  -6 347.715 982.640   1
 -26  19  -6 1032.45 1372.54   4
 -26  19  -3 4896.06 1355.00   2
 -19  26  -3 7166.44 1271.73   2
   7 -26  -3 5404.13 1192.12   3
  26  -7  -3 7785.76 1252.49   1
  -7 -19  -3 5367.69 1123.99   3
  19   7  -3 5226.34 1142.11   1
 -26  19  -3 9876.12 1851.64   4
 -19  26  -3 9549.71 1731.44   4
  26  -7   0 8396.87 1334.15   1
 -26  19   0 7851.96 1298.57   2
  -7 -19   0 6817.16 1230.61   3
 -19  26   0 6808.45 1269.28   2
   7 -26   0 5494.26 1114.09   3
  19   7   0 4486.14 1068.57   1
 -26  19   0 10152.0 1712.01   4
 -19  26   0 11835.7 1822.29   4
 -26  19   3 7164.78 1232.02   2
   7 -26   3 7014.57 1279.05   3
  -7 -19   3 9409.39 1501.21   3
 -26  19   3 8823.99 1576.95   4
  19   7   3 7112.94 1444.42   1
 -19  26   3 10677.6 1630.54   4
   7 -26   6 3162.15 1376.02   3
 -26  19   6 4490.44 1211.10   4
 -20  26  -4 6212.56 1663.63   4
 -26  20  -4 7159.86 1461.73   2
  26  -6  -4 4917.62 1174.35   1
   6 -26  -4 3704.63 1118.61   3
  -6 -20  -4 4497.74 1137.81   3
 -20  26  -4 6144.40 1252.73   2
  20   6  -4 4549.64 1174.05   1
 -26  20  -4 6000.90 1767.37   4
 -20  26  -1 7397.57 1544.28   4
  20   6  -1 7075.17 1145.01   1
 -26  20  -1 5314.28 1164.61   2
   6 -26  -1 5998.89 1149.42   3
  -6 -20  -1 5521.21 1110.02   3
 -20  26  -1 4286.79 1065.43   2
  26  -6  -1 6805.28 1238.62   1
 -26  20  -1 10299.5 1759.47   4
 -20  26   2 5466.58 1243.40   2
   6 -26   2 4455.98 1164.35   3
 -26  20   2 3279.47 1033.00   2
  -6 -20   2 6013.11 1222.63   3
  26  -6   2 5210.81 1233.30   1
 -26  20   2 7294.64 1526.30   4
 -20  26   2 8454.68 1558.30   4
  20   6   2 3501.23 1197.25   1
   6 -26   5 5372.26 1372.03   3
 -26  20   5 2551.12 1163.53   2
  -6 -20   5 6181.25 1570.12   3
 -26  20   5 1846.67 1099.36   4
  26  -5  -5 298.014 905.995   1
 -26  21  -5 1829.97 1145.77   2
   5 -26  -5 2324.62 1181.23   3
  -5 -21  -5 1454.71 1002.39   3
 -21  26  -5 1393.48 1006.27   2
  21   5  -5 942.969 941.427   1
 -26  21  -5 1572.13 1257.42   4
 -21  26  -5 2597.54 1372.24   4
  21   5  -2-233.840 897.817   1
 -26  21  -2 2234.58 1066.64   2
   5 -26  -2 2039.01 972.803   3
  -5 -21  -2 1881.42 913.944   3
 -21  26  -2 944.370 869.547   2
 -26  21  -2 2346.33 1361.69   4
  26  -5  -2 3621.45 1072.55   1
 -21  26  -2 3923.62 1409.08   4
 -21  26   1 1237.24 1130.15   4
  26  -5   1 372.646 893.273   1
  21   5   1 1899.18 1050.50   1
   5 -26   1 213.793 887.992   3
 -26  21   1 260.136 833.110   2
  -5 -21   1 948.921 938.582   3
 -21  26   1 477.813 856.029   2
 -26  21   1 2777.49 1286.91   4
 -21  26   4 1326.47 1052.50   4
   5 -26   4 1316.43 1115.82   3
 -26  21   4 509.860 969.059   2
  -5 -21   4-1018.81 1105.50   3
 -26  21   4 317.548 1081.16   4
 -26  22  -3 8710.08 1487.81   2
 -22  26  -3 10378.1 1522.52   2
   4 -26  -3 7232.63 1312.40   3
  26  -4  -3 7783.76 1342.03   1
  -4 -22  -3 5537.62 1132.33   3
 -26  22  -3 13574.2 2048.82   4
 -22  26  -3 11215.3 1878.74   4
  22   4  -3 6048.04 1246.09   1
 -22  26   0 3894.02 1409.85   4
  22   4   0 1971.38 1046.28   1
 -26  22   0 416.325 896.474   2
   4 -26   0 2690.41 1018.96   3
  -4 -22   0 1996.44 919.811   3
 -22  26   0 2524.21 944.979   2
  26  -4   0 2699.04 1075.26   1
 -26  22   0 716.460 1259.41   4
 -22  26   3 6312.91 1484.71   4
 -26  22   3 8354.70 1340.80   2
  -4 -22   3 7617.53 1466.43   3
 -22  26   3 7293.68 1305.87   2
  22   4   3 7201.63 1456.53   1
   4 -26   3 7465.22 1385.97   3
  26  -4   3 6025.98 1384.06   1
 -26  22   3 9180.84 1660.18   4
  26  -3  -4 5926.11 1280.45   1
 -26  23  -4 3479.62 1258.95   2
   3 -26  -4 2862.96 1163.21   3
  -3 -23  -4 3666.69 1158.62   3
 -23  26  -4 5443.00 1321.40   2
  23   3  -4 3858.35 1176.35   1
 -26  23  -4 3050.92 1563.57   4
 -23  26  -4 6026.22 1697.26   4
  26  -3  -1 1452.95 888.680   1
 -26  23  -1 172.498 929.203   2
   3 -26  -1 283.821 862.717   3
  -3 -23  -1 1637.53 967.205   3
 -23  26  -1 1233.92 977.977   2
  23   3  -1 928.825 904.178   1
 -26  23  -1 3805.69 1490.11   4
 -23  26  -1 3538.83 1529.59   4
  26  -3   2 4883.90 1309.35   1
  23   3   2 4083.74 1300.45   1
 -26  23   2 8096.72 1321.20   2
   3 -26   2 7975.72 1436.46   3
  -3 -23   2 6179.09 1262.55   3
 -23  26   2 5716.63 1268.16   2
 -26  23   2 8943.63 1647.50   4
 -23  26   2 7845.47 1617.79   4
 -23  26   5 2083.74 1191.44   4
   3 -26   5 1917.69 1261.56   3
  -3 -23   5 1377.23 1172.86   3
 -26  23   5 2109.14 1193.69   4
 -26  24  -2 1716.01 1067.68   2
   2 -26  -2 1049.51 959.948   3
  -2 -24  -2 529.962 924.625   3
  24   2  -2 1743.51 1022.79   1
 -24  26  -2 1293.60 948.476   2
  26  -2  -2 2708.90 1140.41   1
 -26  24  -2 2326.01 1483.51   4
 -24  26  -2 3108.46 1410.14   4
  26  -2   1 2873.00 1087.72   1
   2 -26   1 721.512 957.811   3
 -26  24   1 1891.38 959.447   2
  -2 -24   1 1263.67 922.261   3
 -24  26   1 1690.37 982.235   2
  24   2   1 2916.82 1143.47   1
 -26  24   1 644.991 1188.12   4
 -24  26   1 183.301 1163.73   4
 -24  26   4 2129.81 1217.19   4
   2 -26   4 1084.69 1066.52   3
  -2 -24   4 2722.85 1361.11   3
 -26  24   4 1137.29 983.206   2
 -26  24   4 2555.24 1164.19   4
  25   1  -3 7098.49 1387.52   1
 -25  26  -3 9117.29 1481.17   2
   1 -26  -3 7018.67 1323.81   3
  26  -1  -3 5370.23 1280.51   1
 -26  25  -3 6038.56 1378.05   2
  -1 -25  -3 5686.64 1263.87   3
 -26  25  -3 10472.4 1911.17   4
 -25  26  -3 7581.27 1864.23   4
  25   1   0-501.956 975.682   1
   1 -26   0 706.428 1021.62   3
  -1 -25   0 2093.28 1104.74   3
 -26  25   0 2067.77 1009.51   2
 -25  26   0-91.7000 957.553   2
  26  -1   0 1192.47 1062.79   1
 -26  25   0 1953.00 1339.16   4
 -25  26   0 2555.07 1445.54   4
  26  -1   3 7712.03 1661.27   1
  25   1   3 5897.77 1600.67   1
   1 -26   3 8065.75 1521.35   3
 -26  25   3 9593.99 1493.31   2
  -1 -25   3 10600.2 1644.37   3
 -25  26   3 11311.4 1557.47   2
 -26  25   3 11797.5 1822.07   4
 -25  26   3 10938.7 1746.00   4
  26   0  -1-557.120 1010.21   1
   0 -26  -1 1785.66 1010.50   3
 -26  26  -1 434.407 999.675   2
 -26  26  -1 480.569 1281.50   4
   0 -26   2 7203.85 1488.70   3
 -26  26   2 3860.25 1265.47   2
  26   0   2 2859.25 1284.75   1
 -26  26   2 5515.79 1626.28   4
 -27   0   0 6766.74 1662.29   2
  27 -27   0 5447.28 1179.02   3
 -27   0   0 5785.52 1720.02   4
 -27   1  -1 2344.28 1399.49   2
  27 -26  -1 3912.58 1261.10   3
  26 -27  -1 4012.19 1332.60   3
   1  26  -1 3805.49 850.884   1
 -26  -1  -1 5099.55 1556.79   4
 -27   1  -1 3558.78 1567.10   4
 -26  -1  -1 5146.60 1692.73   2
 -26  -1   2 1348.86 1088.15   2
 -27   1   2 2750.30 1062.48   2
  27 -26   2 960.375 756.643   3
  26 -27   2 1962.68 768.158   3
 -26  -1   2 2493.35 1478.36   4
 -27   1   2 2563.69 1549.00   4
 -27   2  -2 1169.89 1502.14   2
   2  25  -2 675.057 816.911   1
  27 -25  -2 1158.10 1170.18   3
  25 -27  -2 1157.27 1134.85   3
 -25  -2  -2 1155.38 1307.35   4
 -27   2  -2-1704.05 1533.28   4
  -2  27  -2 1232.00 837.687   1
 -25  -2  -2 1853.46 1651.39   2
 -25  -2   1 1327.13 1199.78   2
 -27   2   1 849.361 1069.05   2
  27 -25   1 2806.28 906.701   3
  25 -27   1 926.890 873.735   3
 -25  -2   1 2002.07 1348.24   4
 -27   2   1 1800.56 1396.18   4
 -27   3  -3 1144.01 1473.15   2
  27 -24  -3 203.931 1247.28   3
  24 -27  -3 1858.90 1261.78   3
  -3  27  -3-456.738 1042.55   1
 -24  -3  -3 1526.65 1283.84   4
 -27   3  -3 2766.61 1525.91   4
   3  24  -3 2295.62 992.917   1
 -24  -3  -3 2512.51 1841.28   2
  24 -27   0 9427.21 1365.88   3
  27 -24   0 6259.68 1232.16   3
 -27   3   0 10001.6 1976.58   4
   3  24   0 3470.00 813.260   1
 -24  -3   0 7369.16 1688.69   4
 -27   3   0 7213.39 1610.54   2
 -24  -3   0 8307.59 1814.62   2
 -27   3   3 2400.25 900.137   2
  24 -27   3 384.131 748.721   3
 -24  -3   3 2085.70 1388.28   4
 -27   3   3 4320.37 1586.17   4
 -27   4  -4 1412.53 1507.69   2
  27 -23  -4 1346.65 1302.48   3
  23 -27  -4 322.342 1208.84   3
  -4  27  -4 84.0242 1187.65   1
 -23  -4  -4-468.854 1267.91   4
 -27   4  -4 2343.06 1505.75   4
   4  23  -4 103.529 1036.42   1
 -23  -4  -4-2840.37 1807.51   2
  27 -23  -4 680.828 951.196   1
 -27   4  -1 546.845 1207.79   2
  27 -23  -1 3510.66 1204.64   3
  23 -27  -1 1670.74 1066.53   3
   4  23  -1 1442.49 770.421   1
 -23  -4  -1 2150.17 1227.41   4
 -27   4  -1 3012.81 1477.58   4
  -4  27  -1 2350.94 718.906   1
 -23  -4  -1 4194.96 1697.93   2
 -23  -4   2 415.772 987.648   2
 -27   4   2 331.534 838.640   2
  27 -23   2-395.776 642.533   3
  23 -27   2 179.623 740.159   3
 -23  -4   2 979.515 1191.78   4
 -27   4   2 2197.27 1341.55   4
 -27   5  -5 3894.99 1831.94   2
  27 -22  -5 3908.25 1681.45   3
  27 -22  -5 2341.93 1055.24   1
  22 -27  -5 2246.43 1273.35   3
  -5  27  -5 3255.22 1529.56   1
 -22  -5  -5 5278.38 1597.04   4
   5  22  -5 3859.24 1341.61   1
 -27   5  -5 4273.08 1618.45   4
 -22  -5  -5 3845.17 1971.00   2
 -27   5  -2 2306.07 1446.49   2
   5  22  -2 2917.99 956.185   1
  27 -22  -2 4104.46 1496.66   3
  22 -27  -2 2557.12 1174.89   3
  -5  27  -2 3589.27 985.094   1
 -22  -5  -2 3004.44 1410.46   4
 -27   5  -2 4050.66 1561.68   4
 -22  -5  -2 2800.55 1719.00   2
  27 -22   1 6262.69 994.469   3
  22 -27   1 2630.95 954.069   3
   5  22   1 3338.52 842.400   1
 -22  -5   1 4870.26 1492.03   4
 -27   5   1 5319.85 1615.36   4
 -22  -5   1 4316.70 1472.70   2
 -27   5   1 5673.82 1301.94   2
  22 -27   4 207.878 815.666   3
 -22  -5   4 2357.98 1339.70   4
 -27   5   4 2887.31 1345.45   4
   6  21  -3 2963.39 1081.11   1
 -27   6  -3 4421.69 1592.81   2
  27 -21  -3 3093.91 1559.17   3
  21 -27  -3 4436.35 1344.23   3
  -6  27  -3 2458.97 1146.60   1
  27 -21  -3 2025.12 1152.64   1
 -21  -6  -3 2635.61 1310.73   4
 -27   6  -3 2387.93 1379.56   4
 -21  -6  -3 3224.75 1728.55   2
   6  21   0 16994.4 1295.65   1
  27 -21   0 21575.9 1783.63   3
  21 -27   0 19896.5 1703.75   3
 -21  -6   0 23338.2 2320.11   4
 -27   6   0 21435.8 2342.12   4
 -21  -6   0 24876.4 2556.48   2
 -27   6   0 20264.3 1994.24   2
 -21  -6   3 260.474 877.459   2
 -27   6   3 1650.46 811.163   2
  21 -27   3 427.103 809.218   3
 -21  -6   3 1454.70 1305.94   4
 -27   7  -4 430.913 1369.14   2
  27 -20  -4 1009.63 1041.08   1
  27 -20  -4 2503.60 1441.79   3
  20 -27  -4 696.572 1184.44   3
  -7  27  -4 2455.93 1303.07   1
 -20  -7  -4 1755.87 913.340   3
 -20  -7  -4 381.339 1115.88   4
 -27   7  -4 1300.27 1360.69   4
 -20  -7  -4 1526.09 1562.62   2
   7  20  -4 65.9818 937.619   1
 -27   7  -1 195.810 1090.07   2
  27 -20  -1 2080.85 1123.75   3
  20 -27  -1 2388.49 1039.91   3
   7  20  -1 1780.98 783.279   1
  -7  27  -1 883.114 732.354   1
 -20  -7  -1 2065.20 1289.04   4
 -27   7  -1 1535.24 1338.23   4
 -20  -7  -1 4483.04 1699.03   2
 -27   7   2 520.880 744.569   2
  27 -20   2 1379.03 672.403   3
  20 -27   2 765.298 793.141   3
   7  20   2 1651.24 874.450   1
 -20  -7   2 1911.40 1249.01   4
 -27   7   2 1917.88 1257.31   4
 -20  -7   2 1836.30 1120.37   2
  20 -27   5 1831.01 1008.43   3
 -20  -7   5 1278.31 1188.22   4
 -27   7   5 2759.47 1263.23   4
 -27   8  -5 5269.28 1741.31   2
  27 -19  -5 2999.56 1648.22   3
  -8  27  -5 4984.39 1666.32   1
  19 -27  -5 3793.57 1339.41   3
  27 -19  -5 2431.16 1027.40   1
 -19  -8  -5 939.570 900.029   3
 -19  -8  -5 5450.44 1532.45   4
 -27   8  -5 3830.42 1657.44   4
 -19  -8  -5 3221.34 1826.64   2
   8  19  -5 3681.41 1264.89   1
 -27   8  -2 2859.30 1263.12   2
  27 -19  -2 4235.04 1418.04   3
   8  19  -2 1313.47 835.895   1
  19 -27  -2 3361.07 1182.52   3
  -8  27  -2 3766.46 1118.29   1
  27 -19  -2 1578.24 996.848   1
 -19  -8  -2 1917.23 1013.52   3
 -19  -8  -2 100.135 1151.31   4
 -27   8  -2-419.607 1247.73   4
 -19  -8  -2-50.3938 1526.37   2
 -27   8   1 4197.16 1106.75   2
  27 -19   1 3376.10 920.448   3
  19 -27   1 3019.22 946.052   3
   8  19   1 3753.78 907.435   1
 -19  -8   1 6831.79 1514.95   4
 -27   8   1 7852.98 1668.84   4
 -19  -8   1 4062.20 1498.74   2
 -27   8   4 4543.00 963.248   2
  19 -27   4 3231.80 976.954   3
 -19  -8   4 4218.63 1423.41   4
 -27   8   4 6580.33 1506.42   4
  27 -18  -6 5349.16 1202.09   1
 -27   9  -6 5461.55 1899.00   2
  18 -27  -6 6000.10 1619.05   3
  -9  27  -6 6999.50 1187.64   2
  27 -18  -3 3945.79 1052.53   1
 -27   9  -3 3421.70 1405.95   2
  27 -18  -3 3699.59 1405.02   3
   9  18  -3 2707.92 1051.07   1
  -9  27  -3 3507.99 1272.25   1
  18 -27  -3 4423.85 1220.97   3
 -18  -9  -3 1513.00 900.134   3
 -18  -9  -3 2624.66 1227.68   4
 -18  -9  -3 4284.81 1775.42   2
 -27   9  -3 3688.20 1505.60   4
  -9  27   0 3766.79 629.576   1
 -27   9   0 3619.94 1104.78   2
  27 -18   0 5139.95 1277.48   3
  18 -27   0 3347.74 1038.10   3
 -18  -9   0 3943.58 1122.20   3
 -18  -9   0 3539.89 1308.56   4
 -27   9   0 4037.27 1403.51   4
 -18  -9   0 4006.58 1601.36   2
   9  18   0 2543.12 840.702   1
 -27   9   3 1076.36 777.353   2
  18 -27   3 2525.52 948.325   3
 -18  -9   3 1266.56 1266.53   4
   9  18   3 1773.44 846.720   1
 -27   9   3 3465.03 1261.11   4
 -18  -9   3 1147.21 1032.58   2
  18 -27   6 2914.72 1254.20   3
  10  17  -4 3166.79 1061.83   1
 -10  27  -4 6568.64 1651.34   1
 -27  10  -4 3844.65 1492.01   2
  27 -17  -4 3112.70 1486.45   3
  17 -27  -4 5300.52 1411.51   3
  27 -17  -4 2347.91 1009.46   1
 -17 -10  -4 4333.39 1153.82   3
 -10  27  -4 3950.27 1105.52   2
 -17 -10  -4 6888.15 1464.45   4
 -17 -10  -4 6319.02 1953.41   2
 -27  10  -4 5118.14 1668.84   4
  27 -17  -1 4324.91 1339.29   3
 -27  10  -1 2770.32 1182.48   2
 -10  27  -1 1986.65 890.668   1
  17 -27  -1 1842.25 999.536   3
 -17 -10  -1 1504.09 1045.03   3
  10  17  -1 919.693 789.727   1
  27 -17  -1 2476.83 1108.41   1
 -17 -10  -1 1353.27 1166.19   4
 -17 -10  -1 3437.86 1681.30   2
 -27  10  -1 1241.67 1260.11   4
  27 -17   2 1634.69 614.285   3
 -27  10   2 1165.42 806.868   2
  17 -27   2 1225.52 831.214   3
  10  17   2 2097.27 905.801   1
 -17 -10   2 3503.32 1324.15   4
 -27  10   2 1733.04 1180.45   4
 -17 -10   2 2386.20 1316.47   2
 -27  10   5-467.390 775.753   2
  17 -27   5 1037.16 1036.46   3
 -17 -10   5-104.039 1195.77   4
 -27  10   5 1210.72 1139.57   4
 -11  27  -5 5850.90 1740.32   1
  27 -16  -5 4117.81 1129.12   1
  27 -16  -5 4112.39 1642.19   3
 -27  11  -5 4258.66 1501.00   2
  16 -27  -5 3459.17 1322.03   3
 -16 -11  -5 1647.86 958.799   3
 -11  27  -5 3059.72 1082.27   2
 -16 -11  -5 2510.01 1266.36   4
 -16 -11  -5 7111.90 2047.58   2
 -27  11  -5 5017.38 1654.76   4
  11  16  -5 5019.40 1290.17   1
 -11  27  -2 5191.88 1287.67   1
 -27  11  -2 4796.62 1368.75   2
  27 -16  -2 1906.37 1094.11   1
  16 -27  -2 3776.78 1153.19   3
  11  16  -2 5077.82 1017.25   1
 -16 -11  -2 4794.62 1069.84   3
 -16 -11  -2 1858.05 1199.16   4
 -16 -11  -2 5511.39 1704.25   2
 -27  11  -2 2186.87 1393.25   4
 -27  11   1 5911.79 1107.59   2
  27 -16   1 7158.16 1154.14   3
  16 -27   1 5325.97 1082.30   3
 -16 -11   1 4762.31 1233.27   3
 -16 -11   1 7947.87 1600.79   4
 -16 -11   1 10333.2 1865.13   2
  11  16   1 2747.21 893.643   1
 -27  11   1 4627.58 1416.88   4
 -27  11   4 3244.99 876.397   2
  16 -27   4 3109.60 1023.41   3
 -16 -11   4 5731.00 1483.39   4
 -27  11   4 2287.32 1265.93   4
  27 -15  -6 2254.05 1772.39   3
 -27  12  -6 1500.12 1349.19   2
  15 -27  -6 1324.03 1145.96   3
 -15 -12  -6 611.387 925.456   3
  27 -15  -6-617.191 1012.54   1
 -12  27  -6-124.877 968.122   2
 -15 -12  -6 583.484 1163.66   4
 -15 -12  -6 1424.01 1667.41   2
 -27  12  -6-46.7073 1375.28   4
  12  15  -6 854.899 1095.41   1
 -12  27  -6 2830.08 1756.40   1
 -12  27  -3 3614.52 1375.61   1
  27 -15  -3 2753.68 1471.28   3
 -27  12  -3 3393.04 1370.57   2
  12  15  -3 2783.53 1024.42   1
  15 -27  -3 2602.14 1150.70   3
 -15 -12  -3 3658.15 1058.06   3
  27 -15  -3 2038.76 1026.22   1
 -12  27  -3 2936.64 1024.75   2
 -15 -12  -3 1196.34 1116.02   4
 -15 -12  -3 3559.92 1789.13   2
 -27  12  -3 5070.75 1686.12   4
  27 -15   0 1983.02 1147.84   3
  12  15   0 1115.06 769.998   1
  27 -15   0 772.789 947.674   1
 -12  27   0 1351.92 688.557   1
 -27  12   0 2429.30 992.068   2
  15 -27   0 1058.45 877.781   3
 -15 -12   0 2269.70 1060.18   3
 -15 -12   0 1392.13 1162.84   4
 -15 -12   0 288.736 1384.05   2
 -27  12   0 1104.53 1277.85   4
 -27  12   3 1206.52 781.782   2
  15 -27   3 146.711 841.781   3
  12  15   3 1673.17 943.023   1
 -15 -12   3 442.877 1183.86   4
 -15 -12   3 1649.00 1205.42   2
 -27  12   3 2284.38 1226.21   4
  15 -27   6 2845.29 1313.28   3
 -15 -12   6 4769.17 1562.54   4
 -27  12   6 6051.18 1411.57   4
 -13  27  -4 5963.89 1549.45   4
  27 -14  -4 6171.23 1656.08   3
  27 -14  -4 3701.72 1078.44   1
 -27  13  -4 4353.41 1420.34   2
  13  14  -4 4530.44 1164.77   1
  14 -27  -4 3653.61 1197.05   3
 -14 -13  -4 2354.89 1026.96   3
 -13  27  -4 4849.08 1108.90   2
 -14 -13  -4 5466.63 1385.32   4
 -14 -13  -4 5378.12 1843.26   2
 -27  13  -4 6398.16 1729.33   4
 -13  27  -4 4928.19 1655.87   1
  27 -14  -1 9321.24 1559.21   3
 -27  13  -1 6517.39 1348.10   2
  14 -27  -1 7126.00 1288.62   3
  27 -14  -1 5194.40 1241.41   1
 -14 -13  -1 5558.73 1160.59   3
 -13  27  -1 4451.37 1114.21   2
 -14 -13  -1 9822.42 1641.26   4
 -13  27  -1 8326.31 1344.97   1
 -14 -13  -1 7448.81 1900.84   2
 -27  13  -1 7095.24 1557.29   4
  13  14  -1 5922.17 1063.80   1
  27 -14   2 4632.72 757.325   3
 -27  13   2 4554.05 977.371   2
  14 -27   2 4326.77 998.111   3
  13  14   2 3251.48 1055.37   1
 -14 -13   2 5977.32 1342.70   3
 -14 -13   2 5860.38 1593.70   4
 -14 -13   2 5759.61 1563.83   2
 -27  13   2 7698.19 1612.75   4
  14 -27   5 2026.08 1178.99   3
 -27  13   5 1922.82 948.667   2
 -14 -13   5 5208.76 1596.04   4
 -27  13   5 3850.44 1217.03   4
 -14  27  -5 4851.28 1483.29   4
  27 -13  -5 4201.02 1802.74   3
  14  13  -5 2374.63 1193.82   1
 -27  14  -5 3743.96 1463.93   2
  13 -27  -5 3480.53 1240.66   3
 -13 -14  -5 1881.10 940.224   3
 -14  27  -5 2762.78 1003.61   2
  27 -13  -5 2039.37 948.975   1
 -13 -14  -5 2180.82 1232.37   4
 -13 -14  -5 3850.95 1851.13   2
 -27  14  -5 5726.32 1781.62   4
 -14  27  -5 1198.73 1524.17   1
  27 -13  -2 6853.60 1512.66   3
 -27  14  -2 4272.13 1308.51   2
  13 -27  -2 5076.07 1196.08   3
 -13 -14  -2 6631.69 1145.17   3
 -14  27  -2 3678.05 1013.28   2
  14  13  -2 3057.28 978.553   1
 -13 -14  -2 6284.33 1496.31   4
  27 -13  -2 6201.35 1232.28   1
 -13 -14  -2 6291.84 1813.03   2
 -27  14  -2 8424.11 1752.13   4
 -14  27  -2 5459.71 1440.56   1
 -14  27  -2 9907.83 1663.45   4
  27 -13   1 6347.69 1357.35   1
  27 -13   1 9110.22 1327.57   3
  13 -27   1 6459.42 1156.89   3
 -27  14   1 2380.32 967.751   2
 -13 -14   1 8142.82 1398.28   3
 -13 -14   1 9862.75 1818.63   2
 -14  27   1 4736.77 665.429   1
 -27  14   1 6787.64 1537.90   4
  14  13   1 3768.89 994.406   1
  13 -27   4 5320.23 1226.51   3
 -27  14   4 4508.49 1025.19   2
 -13 -14   4 4675.50 1226.09   2
 -27  14   4 6856.33 1479.77   4
 -15  27  -6 6206.42 1629.02   4
  15  12  -6 5042.50 1430.80   1
 -27  15  -6 2126.36 1355.21   2
  27 -12  -6 5721.08 1251.30   1
  12 -27  -6 4792.41 1355.97   3
 -12 -15  -6 4264.22 1170.19   3
 -15  27  -6 2958.80 1110.32   2
 -12 -15  -6 4515.91 1433.68   4
 -12 -15  -6 489.361 1665.77   2
 -27  15  -6 4981.10 1681.03   4
 -15  27  -6 4203.30 2003.74   1
 -15  27  -3 997.169 1129.97   4
  27 -12  -3 66.2424 851.504   1
 -27  15  -3 889.062 1007.49   2
  12 -27  -3-288.391 987.247   3
  15  12  -3 1500.47 898.321   1
 -12 -15  -3 604.797 849.840   3
 -15  27  -3 2473.82 954.967   2
 -12 -15  -3-102.550 1032.37   4
 -12 -15  -3-1455.44 1570.66   2
 -15  27  -3 2435.95 1447.13   1
 -27  15  -3 1600.26 1356.62   4
 -15  27   0 2125.95 1254.63   4
  27 -12   0 685.244 1103.88   3
 -27  15   0-508.361 837.964   2
  15  12   0 766.340 775.029   1
  12 -27   0 1668.85 869.234   3
 -12 -15   0 371.839 899.469   3
 -15  27   0 638.999 886.961   2
 -12 -15   0 3333.61 1701.71   2
  27 -12   0 3812.06 1181.39   1
 -15  27   0 676.916 935.258   1
 -27  15   0 1024.02 1145.48   4
 -27  15   3 4022.12 1001.56   2
  12 -27   3 2123.28 981.529   3
  15  12   3 1876.27 1076.76   1
 -12 -15   3 3640.23 1255.41   3
 -12 -15   3 3773.36 1412.10   2
 -27  15   3 5781.97 1457.79   4
  12 -27   6 231.439 1181.30   3
 -27  15   6 2792.93 1193.11   4
 -16  27  -4 4991.74 1444.13   4
 -27  16  -4 3941.10 1366.92   2
  11 -27  -4 1469.82 1018.51   3
  16  11  -4 2990.14 1021.33   1
 -11 -16  -4 4965.34 1128.98   3
 -16  27  -4 3632.05 1108.01   2
 -11 -16  -4 4286.35 1324.89   4
 -11 -16  -4 1620.55 1457.70   2
  27 -11  -4 1978.80 1034.00   1
 -16  27  -4 3953.25 1678.79   1
 -27  16  -4 3872.38 1530.46   4
  16  11  -1 3649.84 930.838   1
 -16  27  -1 2270.01 1242.42   4
 -27  16  -1 3016.17 1073.47   2
  11 -27  -1 834.993 950.226   3
 -11 -16  -1 5064.08 1084.30   3
 -16  27  -1 4468.72 1141.19   2
 -11 -16  -1 5445.13 1769.71   2
 -16  27  -1 5094.96 1360.46   1
 -27  16  -1 4913.12 1509.17   4
  27 -11  -1 3782.02 1090.48   1
  27 -11   2 4102.99 958.202   3
 -27  16   2 2968.88 931.159   2
  11 -27   2 2926.24 1053.36   3
 -11 -16   2 4303.38 1211.11   3
  16  11   2 3082.01 1054.17   1
 -27  16   2 4317.11 1400.90   4
  11 -27   5 3352.53 1217.49   3
 -27  16   5 1569.11 1011.75   2
 -27  16   5 2686.12 1214.16   4
 -17  27  -5 2496.80 1387.67   4
 -27  17  -5 1997.11 1249.56   2
  17  10  -5 1386.51 1012.38   1
  10 -27  -5 981.056 1009.49   3
  27 -10  -5 1243.59 987.777   1
 -10 -17  -5 1265.68 958.027   3
 -17  27  -5 603.521 850.389   2
 -10 -17  -5 401.400 1055.81   4
 -10 -17  -5 466.659 1592.24   2
 -17  27  -5 1286.04 1740.77   1
 -27  17  -5-776.695 1259.20   4
 -17  27  -2 2725.02 1280.99   4
 -27  17  -2 858.588 1065.11   2
  27 -10  -2 1978.06 936.024   1
  10 -27  -2 594.315 894.465   3
 -10 -17  -2 3176.02 1026.97   3
 -17  27  -2 3243.75 1000.86   2
  17  10  -2 1574.12 859.147   1
 -27  17  -2 3680.97 1477.78   4
 -17  27   1 1044.11 1128.59   4
  27 -10   1 2090.04 1116.93   3
  17  10   1 2064.37 979.644   1
 -27  17   1 1908.31 987.864   2
  10 -27   1 1167.06 899.939   3
 -10 -17   1-501.657 915.796   3
  27 -10   1 1166.16 893.968   1
 -17  27   1 1013.15 865.585   2
 -27  17   1 2286.46 1284.43   4
  10 -27   4 4567.09 1230.43   3
 -27  17   4 3614.33 1030.72   2
 -10 -17   4 3871.30 1302.46   3
 -27  17   4 7518.95 1433.37   4
  27  -9  -6 3792.96 1193.08   1
 -27  18  -6 2266.15 1316.64   2
   9 -27  -6 109.214 1053.08   3
  -9 -18  -6 1885.38 963.145   3
 -18  27  -6 2674.05 1098.92   2
  -9 -18  -6 2611.26 1881.92   2
 -27  18  -6 6058.14 1750.43   4
 -18  27  -3 2980.11 1373.31   4
 -27  18  -3 2273.52 1137.88   2
   9 -27  -3 1993.67 1072.33   3
  -9 -18  -3 1579.40 925.345   3
 -18  27  -3 815.219 917.107   2
  18   9  -3 802.219 915.785   1
 -27  18  -3 548.919 1304.33   4
  27  -9  -3 1840.13 922.830   1
 -18  27   0 2848.03 1285.72   4
  27  -9   0 3841.19 1106.44   1
 -27  18   0 4473.76 1147.68   2
   9 -27   0 4422.58 1029.06   3
  -9 -18   0 4812.34 1096.19   3
 -18  27   0 3326.33 1056.22   2
  18   9   0 2911.50 960.621   1
 -27  18   0 4273.62 1452.55   4
   9 -27   3 2081.35 991.673   3
 -27  18   3 1707.96 931.895   2
  -9 -18   3 4666.12 1282.17   3
  18   9   3 1441.68 1150.44   1
 -27  18   3 3406.67 1265.55   4
   9 -27   6 2867.00 1371.80   3
 -19  27  -4 6517.75 1679.08   4
 -27  19  -4 3450.29 1264.11   2
   8 -27  -4 6100.75 1373.00   3
  -8 -19  -4 6029.77 1156.15   3
  27  -8  -4 4454.99 1166.61   1
 -19  27  -4 3637.47 1109.51   2
  19   8  -4 2549.40 1123.13   1
 -27  19  -4 9610.61 1873.96   4
 -19  27  -1 2809.44 1266.82   4
  19   8  -1 2331.65 913.218   1
 -27  19  -1 3573.19 1142.93   2
   8 -27  -1 1956.66 976.612   3
  -8 -19  -1 2629.23 1016.88   3
 -19  27  -1 3091.65 1039.08   2
  27  -8  -1 3967.41 1173.12   1
 -27  19  -1 4674.00 1601.49   4
 -19  27   2 4162.91 1410.77   4
   8 -27   2 1918.28 955.804   3
 -27  19   2 1542.72 968.952   2
  -8 -19   2 2181.95 1039.84   3
 -19  27   2 669.547 904.236   2
  27  -8   2 1077.29 1026.42   1
  19   8   2 1958.90 1104.81   1
 -27  19   2 2619.59 1292.18   4
   8 -27   5 3215.36 1334.49   3
 -27  19   5 3255.68 1199.87   2
  -8 -19   5 4347.98 1452.79   3
 -27  19   5 3514.75 1318.08   4
 -20  27  -5 2533.51 1386.59   4
  27  -7  -5 2274.76 989.569   1
 -27  20  -5 2936.57 1280.48   2
   7 -27  -5 1757.84 1209.11   3
  -7 -20  -5 1920.99 1052.85   3
  20   7  -5-1523.32 1101.57   1
 -20  27  -5 397.401 912.186   2
 -27  20  -5 857.523 1250.90   4
 -20  27  -2-707.469 1207.86   4
  20   7  -2 2169.37 1005.19   1
  27  -7  -2 1129.04 957.484   1
 -27  20  -2 2661.85 1125.62   2
   7 -27  -2 2116.79 998.865   3
  -7 -20  -2 1113.35 867.255   3
 -20  27  -2 1522.39 896.424   2
 -27  20  -2 1343.05 1232.81   4
 -20  27   1 1332.05 1165.50   4
  20   7   1 1734.55 1028.28   1
 -27  20   1-150.865 916.759   2
   7 -27   1 2479.60 1040.09   3
  -7 -20   1 766.111 870.973   3
 -20  27   1 1681.48 1000.73   2
  27  -7   1 185.729 1017.90   1
 -27  20   1 2373.86 1281.26   4
 -20  27   4 46.0705 1039.22   4
   7 -27   4 1029.40 1026.79   3
 -27  20   4 677.660 978.308   2
  -7 -20   4 1197.32 1162.24   3
 -27  20   4 2398.64 1220.57   4
 -21  27  -3 2101.12 1320.22   4
 -27  21  -3-557.555 1100.33   2
   6 -27  -3 940.850 1050.51   3
  -6 -21  -3-708.680 911.088   3
 -21  27  -3 1191.98 1002.35   2
  27  -6  -3 1380.57 1001.42   1
  21   6  -3 1265.09 1018.26   1
 -27  21  -3 3990.71 1495.20   4
  27  -6   0 16341.9 1714.07   1
 -27  21   0 18528.9 1739.43   2
   6 -27   0 14418.9 1581.85   3
 -21  27   0 17730.1 1720.00   2
  -6 -21   0 15561.8 1646.59   3
  21   6   0 14601.0 1617.18   1
 -27  21   0 22255.5 2345.50   4
 -21  27   0 21673.3 2336.18   4
 -21  27   3 1594.90 1203.30   4
  21   6   3 3262.38 1277.99   1
   6 -27   3 2573.90 1152.81   3
 -27  21   3 2361.74 1016.94   2
  -6 -21   3 4082.49 1331.08   3
 -27  21   3 4475.71 1350.90   4
  27  -5  -4 669.059 957.789   1
 -27  22  -4 2305.89 1177.85   2
   5 -27  -4 901.871 949.130   3
  -5 -22  -4 154.490 944.667   3
 -22  27  -4 3646.52 1150.24   2
  22   5  -4 301.103 926.561   1
 -27  22  -4 4106.87 1569.52   4
 -22  27  -4-313.377 1293.42   4
 -22  27  -1 6923.46 1642.27   4
  -5 -22  -1 6043.84 1264.35   3
  27  -5  -1 3621.87 1153.93   1
 -27  22  -1 4018.02 1212.04   2
   5 -27  -1 4068.63 1123.28   3
 -22  27  -1 4256.38 1118.45   2
  22   5  -1 5582.31 1214.75   1
 -27  22  -1 8571.82 1746.23   4
 -22  27   2 5266.18 1462.69   4
  22   5   2 1474.81 1096.82   1
   5 -27   2 2439.49 1110.87   3
 -27  22   2 1631.18 978.098   2
  -5 -22   2 2036.34 1106.28   3
 -22  27   2 2711.45 1099.93   2
  27  -5   2 1311.85 1108.56   1
 -27  22   2 5905.24 1543.87   4
   5 -27   5 5246.90 1483.72   3
  -5 -22   5 5537.20 1523.91   3
 -27  22   5 594.583 1099.43   2
 -27  22   5 3343.81 1287.12   4
  23   4  -2-765.400 941.197   1
 -27  23  -2 1932.98 1085.45   2
   4 -27  -2 1248.30 966.045   3
  -4 -23  -2-313.798 877.153   3
 -23  27  -2 118.651 861.361   2
 -27  23  -2 2080.53 1385.40   4
  27  -4  -2 552.559 923.977   1
 -23  27  -2-146.611 1197.41   4
 -23  27   1 2533.30 1339.04   4
  27  -4   1 1852.43 1019.86   1
   4 -27   1 920.355 956.118   3
 -27  23   1 2143.25 974.262   2
  -4 -23   1 2018.71 1001.10   3
 -23  27   1 3343.25 1141.27   2
  23   4   1 2674.26 1109.60   1
 -27  23   1 3041.84 1297.76   4
 -23  27   4 1206.97 1176.22   4
   4 -27   4-181.712 1040.60   3
 -27  23   4 338.989 1014.45   2
  -4 -23   4 2333.03 1227.35   3
 -27  23   4 1318.31 1189.11   4
  24   3  -3 2335.46 1160.33   1
 -27  24  -3 1439.26 1137.15   2
   3 -27  -3 2141.24 1054.65   3
  -3 -24  -3 1714.71 1065.32   3
 -24  27  -3 3692.17 1245.60   2
  27  -3  -3-110.398 962.249   1
 -27  24  -3 4065.00 1636.90   4
 -24  27  -3 2160.00 1440.15   4
  24   3   0 3683.72 1165.62   1
 -27  24   0 7359.13 1353.37   2
   3 -27   0 6865.77 1324.87   3
  -3 -24   0 6238.25 1258.42   3
 -24  27   0 6638.45 1335.27   2
  27  -3   0 5083.75 1260.19   1
 -24  27   0 10222.4 1808.11   4
 -27  24   0 7152.16 1679.60   4
 -24  27   3 97.3674 1200.20   4
  27  -3   3-349.261 1157.10   1
   3 -27   3 202.063 1071.88   3
 -27  24   3 635.795 1070.68   2
  -3 -24   3 695.434 1091.09   3
 -24  27   3-601.557 1024.82   2
  24   3   3 477.917 1268.01   1
 -27  24   3 662.276 1169.15   4
  27  -2  -1 1457.96 1066.69   1
   2 -27  -1 2294.12 1149.45   3
 -27  25  -1 410.424 957.830   2
  -2 -25  -1 1082.14 1040.67   3
 -25  27  -1 661.509 995.372   2
 -27  25  -1 2245.09 1437.70   4
  25   2  -1-282.423 1043.79   1
 -25  27  -1 4065.93 1495.11   4
 -25  27   2-353.704 1173.03   4
  27  -2   2-683.028 1167.27   1
  25   2   2 1297.64 1287.46   1
   2 -27   2 1190.33 1126.30   3
 -27  25   2-357.023 950.193   2
  -2 -25   2 1427.48 1020.33   3
 -25  27   2 655.049 999.428   2
 -27  25   2 1186.50 1264.35   4
   1 -27  -2 2169.28 1163.03   3
 -27  26  -2 2147.79 1191.33   2
  -1 -26  -2 1159.48 937.200   3
 -26  27  -2 1296.70 1035.47   2
  26   1  -2 921.109 970.717   1
  27  -1  -2 458.264 1031.84   1
 -27  26  -2 2137.27 1522.44   4
 -26  27  -2 755.768 1310.92   4
  27  -1   1 2991.81 1262.08   1
   1 -27   1 2617.44 1191.69   3
  -1 -26   1 3090.59 1132.98   3
 -27  26   1 3202.74 1194.43   2
 -26  27   1 2136.21 1150.17   2
 -27  26   1 5722.29 1616.34   4
  26   1   1 3828.03 1286.43   1
 -26  27   1 6936.74 1615.05   4
   0 -27   0 2335.16 1167.80   3
 -27  27   0 3037.47 1122.26   2
  27   0   0 3414.83 1238.43   1
 -27  27   0 6531.68 1741.20   4
 -26  -2   0 3146.81 1627.19   2
 -28   2   0 3596.05 1413.22   2
  28 -26   0 3075.17 1153.33   3
  26 -28   0 2045.19 1059.22   3
 -26  -2   0 3675.40 1628.07   4
 -28   2   0 4682.19 1705.63   4
 -28   3  -1-195.102 1331.14   2
  28 -25  -1 459.202 1124.90   3
  25 -28  -1 682.523 1059.84   3
   3  25  -1-116.174 729.532   1
 -25  -3  -1 1426.90 1355.31   4
 -28   3  -1 149.874 1350.32   4
 -25  -3  -1-615.050 1454.60   2
 -25  -3   2 2057.40 1131.75   2
 -28   3   2 2179.93 1011.65   2
  28 -25   2 1917.86 831.433   3
  25 -28   2 2197.38 891.462   3
 -25  -3   2-236.352 1342.99   4
 -28   3   2 1610.53 1460.76   4
 -28   4  -2 2885.90 1627.84   2
   4  24  -2 1417.48 914.113   1
  28 -24  -2 3212.75 1378.29   3
  24 -28  -2-517.558 1140.91   3
  -4  28  -2 2322.94 902.193   1
 -24  -4  -2 928.804 1297.62   4
 -28   4  -2-886.449 1463.19   4
 -24  -4  -2 1183.68 1625.25   2
 -28   4   1 1016.95 1032.62   2
  28 -24   1 547.328 788.407   3
  24 -28   1 2378.47 1005.41   3
 -24  -4   1 2241.56 1449.07   4
 -28   4   1 979.562 1310.00   4
 -24  -4   1 1493.10 1283.15   2
 -28   5  -3 9001.87 1889.01   2
  28 -23  -3 9075.52 1856.05   3
  -5  28  -3 10895.1 1611.36   1
  23 -28  -3 11031.4 1722.17   3
   5  23  -3 8145.87 1328.21   1
 -23  -5  -3 8237.61 1769.44   4
 -23  -5  -3 14994.8 2685.34   2
 -28   5  -3 7792.75 1870.10   4
 -28   5   0 5844.61 1480.31   2
  28 -23   0 2378.60 1058.29   3
  23 -28   0 4531.38 1137.08   3
 -23  -5   0 2694.12 1388.80   4
 -28   5   0 6553.03 1804.12   4
   5  23   0 3626.39 849.369   1
 -23  -5   0 6904.01 1708.37   2
 -28   5   3 8668.30 1217.53   2
  23 -28   3 9641.00 1226.21   3
 -23  -5   3 14065.9 2099.05   4
 -28   5   3 9509.15 1891.03   4
 -28   6  -4-1083.92 1458.14   2
  28 -22  -4 2139.32 1119.19   1
  28 -22  -4 484.716 1351.62   3
  22 -28  -4 690.596 1175.16   3
  -6  28  -4 1620.81 1309.34   1
 -22  -6  -4 110.479 1187.66   4
 -28   6  -4 664.217 1348.16   4
 -22  -6  -4 3482.55 1895.33   2
   6  22  -4-227.336 1026.99   1
 -28   6  -1 911.364 1241.49   2
  28 -22  -1 1656.90 1227.43   3
  22 -28  -1 888.326 942.615   3
   6  22  -1 349.488 675.288   1
 -22  -6  -1 1142.26 1299.93   4
 -28   6  -1 1209.75 1269.04   4
 -22  -6  -1 2343.90 1672.54   2
 -28   6   2 1757.82 927.635   2
  28 -22   2 716.069 693.635   3
  22 -28   2 860.799 804.774   3
 -22  -6   2 330.475 1231.79   4
 -28   6   2 1785.18 1288.62   4
 -22  -6   2 1393.31 1155.67   2
  -7  28  -2 10364.9 1326.78   1
 -28   7  -2 7339.38 1702.40   2
  28 -21  -2 11693.8 1850.84   3
  21 -28  -2 8759.09 1447.77   3
  28 -21  -2 8251.76 1467.33   1
   7  21  -2 5172.71 1078.75   1
 -21  -7  -2 7776.03 1646.46   4
 -28   7  -2 9121.72 1902.64   4
 -21  -7  -2 8775.72 2148.89   2
 -28   7   1 2052.50 1066.06   2
  28 -21   1 3068.72 892.936   3
  21 -28   1 2839.74 1037.93   3
   7  21   1 517.465 731.203   1
 -21  -7   1 3828.62 1390.69   4
 -28   7   1 2192.96 1336.95   4
 -21  -7   1 4814.31 1449.88   2
  21 -28   4 2669.80 993.995   3
 -21  -7   4 892.292 1261.26   4
  28 -20  -3 10063.7 1946.63   3
  20 -28  -3 7660.00 1505.78   3
  28 -20  -3 7325.69 1514.13   1
 -20  -8  -3 10887.0 1500.43   3
   8  20  -3 10242.4 1438.79   1
 -20  -8  -3 9876.87 1756.51   4
 -20  -8  -3 12825.9 2441.01   2
 -28   8  -3 5207.52 1719.20   4
 -28   8  -3 11034.2 1931.36   2
  -8  28  -3 8570.22 1535.43   1
  28 -20   0 6518.59 1335.74   3
 -28   8   0 4324.43 1308.34   2
  20 -28   0 2777.24 1045.14   3
 -20  -8   0 4830.15 1513.64   4
 -28   8   0 4212.83 1507.97   4
 -20  -8   0 7486.90 1931.40   2
   8  20   0 3111.06 885.483   1
 -28   8   3 6267.88 1099.43   2
   8  20   3 3746.07 979.034   1
  20 -28   3 7066.13 1160.27   3
 -20  -8   3 9340.62 1794.89   4
 -20  -8   3 8024.17 1334.19   2
 -28   8   3 4940.47 1452.02   4
   9  19  -4 376.644 1002.06   1
 -28   9  -4 1074.38 1455.83   2
  28 -19  -4 2028.02 1458.31   3
  -9  28  -4 732.101 1209.43   1
  19 -28  -4 1340.65 1228.23   3
 -19  -9  -4 2544.34 1062.15   3
 -19  -9  -4 1134.51 1117.95   4
 -19  -9  -4 4068.70 1905.99   2
 -28   9  -4 2252.30 1434.70   4
  28 -19  -4 259.230 979.182   1
 -28   9  -1 880.942 1183.49   2
  28 -19  -1 1338.07 1231.23   3
  19 -28  -1-2.26268 882.224   3
  -9  28  -1 2113.06 804.750   1
 -19  -9  -1 2070.39 1046.61   3
   9  19  -1-145.356 727.470   1
 -19  -9  -1 3452.44 1359.14   4
  28 -19  -1 2241.05 1120.03   1
 -28   9  -1 1605.32 1402.92   4
 -19  -9  -1 2836.96 1730.51   2
  28 -19   2 344.838 598.576   3
 -28   9   2 1715.10 905.221   2
  19 -28   2 236.417 755.295   3
   9  19   2 2400.64 874.514   1
 -19  -9   2 882.367 1194.27   4
 -28   9   2 3298.18 1352.75   4
 -19  -9   2 2364.70 1309.88   2
  19 -28   5 953.594 1054.11   3
 -19  -9   5 2989.36 1504.22   4
 -28   9   5 1528.68 1269.38   4
 -28  10  -5 5096.56 1851.29   2
 -10  28  -5 3900.40 1678.95   1
  28 -18  -5 4298.28 1761.19   3
  18 -28  -5 1045.02 1247.87   3
  28 -18  -5 3150.80 1122.48   1
 -18 -10  -5 3605.09 1180.65   3
 -10  28  -5 5261.86 1194.86   2
 -18 -10  -5 4592.60 1427.27   4
 -18 -10  -5 4113.04 1969.80   2
 -28  10  -5 4328.16 1636.41   4
  10  18  -5 3314.94 1250.88   1
  28 -18  -2 13680.8 1961.30   3
  18 -28  -2 7737.06 1422.38   3
  28 -18  -2 13096.8 1680.06   1
 -18 -10  -2 7880.32 1370.25   3
 -18 -10  -2 11390.5 1814.27   4
 -28  10  -2 12111.3 1985.52   4
  10  18  -2 7914.88 1202.32   1
 -18 -10  -2 7762.37 2112.22   2
 -10  28  -2 10231.1 1445.90   1
 -28  10  -2 10018.7 1679.02   2
 -28  10   1 6001.90 1216.65   2
  28 -18   1 7269.47 1106.94   3
  18 -28   1 6466.65 1134.29   3
 -18 -10   1 12258.6 1885.72   4
  10  18   1 5554.96 1066.41   1
 -28  10   1 11039.2 1888.55   4
 -18 -10   1 9739.11 1798.32   2
 -28  10   4 7715.25 1149.29   2
  18 -28   4 5325.28 1239.93   3
 -28  10   4 8329.17 1651.14   4
 -11  28  -3 4464.76 1452.76   1
  28 -17  -3 6036.37 1544.91   3
 -28  11  -3 5230.92 1540.53   2
  17 -28  -3 6660.83 1434.83   3
  11  17  -3 3966.90 1081.87   1
 -17 -11  -3 2679.29 1060.87   3
 -17 -11  -3 5627.18 1455.04   4
 -17 -11  -3 3622.42 1881.01   2
 -28  11  -3 6072.83 1800.52   4
  28 -17  -3 3884.84 1238.03   1
  11  17   0 579.488 754.790   1
  28 -17   0 2151.53 1224.03   3
 -28  11   0 1481.90 973.440   2
  17 -28   0 489.674 856.045   3
 -17 -11   0 800.127 1021.47   3
 -17 -11   0 1331.98 1224.70   4
 -17 -11   0 3792.31 1662.01   2
 -28  11   0 2315.93 1409.93   4
 -28  11   3 1996.18 893.293   2
  17 -28   3 1928.38 974.351   3
 -17 -11   3 4339.53 1554.96   4
  11  17   3 1682.11 992.238   1
 -28  11   3 1038.25 1156.16   4
 -17 -11   3 497.887 1142.99   2
 -12  28  -4 5533.43 1635.46   1
  28 -16  -4 4023.44 1597.71   3
 -28  12  -4 3714.29 1445.98   2
  12  16  -4 3341.33 1123.32   1
  16 -28  -4 3387.28 1260.61   3
  28 -16  -4 2133.85 1076.40   1
 -16 -12  -4 2163.73 1006.83   3
 -12  28  -4 1986.59 1019.36   2
 -16 -12  -4 4060.21 1289.47   4
 -16 -12  -4 2050.14 1762.46   2
 -28  12  -4 4118.32 1564.72   4
  28 -16  -1 822.512 1186.71   3
 -12  28  -1 562.431 903.337   1
  28 -16  -1-226.953 946.304   1
 -28  12  -1-40.5697 973.348   2
  16 -28  -1 1509.56 983.745   3
 -16 -12  -1 60.3693 961.532   3
 -16 -12  -1 448.245 1058.06   4
 -16 -12  -1 1021.21 1566.24   2
  12  16  -1-519.430 752.966   1
 -28  12  -1-122.034 1315.17   4
  28 -16   2 7759.22 845.940   3
 -28  12   2 7239.16 1120.03   2
  16 -28   2 4823.30 1056.23   3
 -16 -12   2 7586.48 1464.86   3
  12  16   2 6132.74 1214.85   1
 -16 -12   2 7007.16 1659.80   4
 -16 -12   2 7782.40 1677.09   2
 -28  12   2 8198.56 1602.72   4
  16 -28   5 2029.89 1068.07   3
 -28  12   5 413.056 874.210   2
 -16 -12   5 1456.70 1367.16   4
 -28  12   5 1808.95 1306.65   4
  28 -15  -5-593.656 1509.00   3
  13  15  -5 3483.12 1208.19   1
 -28  13  -5 3807.70 1659.27   2
  15 -28  -5 3491.92 1323.07   3
 -15 -13  -5 1753.71 1043.73   3
 -13  28  -5 5241.54 1213.67   2
 -15 -13  -5 2359.17 1226.09   4
 -15 -13  -5 5093.91 1837.89   2
 -28  13  -5 7871.49 1875.60   4
  28 -15  -5 428.808 1025.08   1
 -13  28  -5 2752.27 1641.93   1
 -13  28  -2 8404.95 1470.67   1
  28 -15  -2 7990.22 1653.63   3
  28 -15  -2 6625.67 1342.99   1
 -28  13  -2 5818.61 1401.42   2
  15 -28  -2 6544.44 1290.38   3
 -15 -13  -2 8830.89 1361.77   3
 -13  28  -2 6232.07 1272.25   2
  13  15  -2 5084.93 1049.94   1
 -15 -13  -2 7097.30 1515.29   4
 -15 -13  -2 8582.67 2083.00   2
 -28  13  -2 5793.93 1620.58   4
  28 -15   1 3676.80 1066.63   3
 -28  13   1 2805.82 1000.76   2
  15 -28   1 168.190 807.325   3
 -15 -13   1 1952.13 1143.70   3
 -15 -13   1 1330.32 1288.08   4
 -15 -13   1 3290.83 1513.93   2
 -28  13   1 2880.77 1399.92   4
  13  15   1-522.943 814.098   1
  15 -28   4 8003.63 1350.36   3
 -15 -13   4 12375.5 2068.70   4
 -28  13   4 11240.4 1748.93   4
 -14  28  -3 2168.47 1328.52   4
  28 -14  -3 3426.43 1460.50   3
 -28  14  -3 765.275 1095.92   2
  14 -28  -3 3588.55 1186.42   3
  14  14  -3 2615.69 1111.55   1
  28 -14  -3 1746.65 1043.38   1
 -14 -14  -3 1821.27 1008.67   3
 -14  28  -3 1533.24 929.090   2
 -14 -14  -3 1691.91 1139.91   4
 -14 -14  -3 3028.40 1731.78   2
 -28  14  -3 2446.19 1594.23   4
 -14  28  -3 633.733 1278.29   1
 -14  28   0 3079.19 944.588   1
  28 -14   0 4484.16 1405.10   3
 -28  14   0 3011.16 1092.07   2
  14  14   0 1350.07 864.324   1
  14 -28   0 3342.58 991.551   3
 -14 -14   0 2288.47 1098.43   3
  28 -14   0 1004.14 1040.17   1
 -14 -14   0 1146.73 1250.00   4
 -14 -14   0 4566.83 1694.21   2
 -28  14   0 2918.36 1415.27   4
 -28  14   3 2002.98 908.716   2
  14 -28   3 1000.65 890.536   3
  14  14   3 1450.81 1079.33   1
 -14 -14   3 1961.65 1170.27   3
 -14 -14   3 1413.84 1354.31   4
 -14 -14   3 1790.81 1294.86   2
 -28  14   3-201.137 1107.63   4
 -28  15  -4 8526.72 1652.51   2
  28 -13  -4 11928.0 2053.28   3
  13 -28  -4 9442.09 1514.04   3
 -13 -15  -4 7552.96 1288.36   3
 -15  28  -4 6990.66 1337.57   2
  28 -13  -4 9061.49 1432.79   1
 -13 -15  -4 10043.0 1677.85   4
 -15  28  -4 11553.1 2160.36   1
  15  13  -4 8327.00 1394.48   1
 -13 -15  -4 9207.37 2232.79   2
 -28  15  -4 12087.5 2105.30   4
 -15  28  -4 8326.09 1706.73   4
 -15  28  -1 1894.67 1316.74   4
  28 -13  -1 1681.05 1265.16   3
  28 -13  -1 1671.05 1006.35   1
 -28  15  -1 1609.34 1078.96   2
  13 -28  -1 138.069 935.787   3
 -13 -15  -1 1837.65 963.243   3
 -15  28  -1 323.647 940.226   2
 -13 -15  -1 4118.99 1355.69   4
 -13 -15  -1 2667.93 1564.41   2
 -28  15  -1 2033.47 1344.34   4
 -15  28  -1 1359.22 1134.85   1
  15  13  -1 839.135 798.723   1
 -28  15   2 7745.17 1244.90   2
  13 -28   2 5408.89 1121.64   3
 -13 -15   2 5261.75 1354.29   3
  15  13   2 5805.55 1275.36   1
 -13 -15   2 7016.62 1792.57   2
 -28  15   2 6358.57 1532.33   4
  13 -28   5 1880.42 1183.48   3
 -28  15   5 2884.40 1071.23   2
 -28  15   5 1522.17 1193.35   4
 -16  28  -5 1447.42 1356.01   4
 -28  16  -5 782.094 1234.79   2
  16  12  -5 1985.98 1164.11   1
  12 -28  -5 1434.62 1024.75   3
 -12 -16  -5 766.687 924.760   3
 -16  28  -5 1291.86 951.722   2
  28 -12  -5 1674.51 971.144   1
 -12 -16  -5 2510.54 1335.24   4
 -12 -16  -5 892.903 1648.28   2
 -16  28  -5 4006.83 1803.36   1
 -28  16  -5 1373.77 1424.10   4
 -16  28  -2 9069.34 1621.06   4
 -28  16  -2 5653.19 1374.09   2
  12 -28  -2 5571.57 1224.72   3
 -12 -16  -2 6168.40 1217.33   3
 -16  28  -2 5418.73 1226.75   2
 -12 -16  -2 8081.69 1624.76   4
 -12 -16  -2 5919.20 1969.69   2
 -16  28  -2 6428.66 1462.96   1
 -28  16  -2 8773.34 1812.39   4
  28 -12  -2 6874.19 1276.19   1
  16  12  -2 7206.82 1224.92   1
  16  12   1 492.083 916.020   1
  28 -12   1 612.200 1069.32   3
 -28  16   1 353.330 785.245   2
  12 -28   1-92.5941 949.106   3
  28 -12   1-124.402 1038.93   1
 -12 -16   1 714.522 1085.38   3
 -12 -16   1 1034.90 1564.30   2
 -28  16   1-1988.43 1325.16   4
  12 -28   4 3641.16 1220.62   3
 -28  16   4 4022.60 1044.87   2
 -12 -16   4 6161.39 1440.57   3
 -12 -16   4 5214.43 1411.70   2
 -28  16   4 4265.31 1316.00   4
 -17  28  -3 519.777 1219.91   4
  28 -11  -3 3552.08 1154.84   1
 -28  17  -3 2212.49 1123.21   2
  11 -28  -3 1446.12 1113.80   3
 -11 -17  -3 2527.36 1102.34   3
 -17  28  -3-180.643 943.447   2
  17  11  -3 250.410 910.938   1
 -11 -17  -3 2106.53 1246.05   4
 -11 -17  -3-198.419 1518.98   2
 -17  28  -3 10.1613 1382.67   1
 -28  17  -3 2660.14 1535.91   4
 -17  28   0 2146.61 1256.82   4
  28 -11   0 4423.43 1317.28   3
 -28  17   0 1504.48 1001.03   2
  11 -28   0 695.936 893.891   3
  17  11   0 1286.70 955.171   1
 -11 -17   0 1722.44 969.396   3
  28 -11   0 40.9942 976.809   1
 -17  28   0 1535.12 928.851   2
 -17  28   0 1472.23 1095.90   1
 -28  17   0 1427.75 1274.75   4
  11 -28   3 4816.68 1140.88   3
 -28  17   3 2429.64 956.277   2
 -11 -17   3 4459.16 1336.64   3
 -11 -17   3 5354.16 1691.43   2
  17  11   3 4033.76 1342.53   1
 -28  17   3 3656.70 1379.68   4
 -28  18  -4 8677.30 1629.88   2
  10 -28  -4 6048.44 1326.77   3
 -18  28  -4 7326.40 1337.09   2
  18  10  -4 5936.68 1292.06   1
 -10 -18  -4 6760.22 1238.19   3
 -10 -18  -4 9205.60 1710.93   4
 -10 -18  -4 8550.98 2148.99   2
  28 -10  -4 5201.44 1238.60   1
 -18  28  -4 5228.89 1869.38   1
 -28  18  -4 8953.12 1973.56   4
 -18  28  -4 10983.9 1869.55   4
 -18  28  -1 5999.03 1597.67   4
 -28  18  -1 9675.53 1466.87   2
  18  10  -1 6450.54 1193.16   1
  10 -28  -1 6253.58 1239.03   3
 -18  28  -1 7617.28 1378.44   2
 -10 -18  -1 6865.43 1238.13   3
 -28  18  -1 9270.76 1911.33   4
  28 -10  -1 4622.20 1211.70   1
 -18  28   2 11367.7 1730.13   4
 -28  18   2 7761.86 1285.30   2
  10 -28   2 9025.14 1309.99   3
 -10 -18   2 8850.04 1513.75   3
 -28  18   2 9330.96 1668.77   4
  28 -10   2 8007.46 1448.66   1
  18  10   2 7103.22 1426.11   1
  10 -28   5 3688.37 1332.42   3
 -28  18   5 5283.84 1244.69   2
 -10 -18   5 4338.30 1489.83   3
 -28  18   5 4878.67 1433.39   4
 -19  28  -5 82.2917 1279.81   4
 -28  19  -5 2296.84 1317.73   2
   9 -28  -5 1463.64 1064.32   3
  28  -9  -5 675.043 1047.45   1
  19   9  -5 36.5190 986.843   1
  -9 -19  -5 1540.53 1002.85   3
 -19  28  -5 1549.91 994.955   2
  -9 -19  -5 2402.93 1327.95   4
  -9 -19  -5 2251.89 1786.30   2
 -19  28  -5 2219.62 1972.48   1
 -28  19  -5-287.913 1354.17   4
 -19  28  -2 1687.44 1311.79   4
 -28  19  -2 2519.90 1128.42   2
  28  -9  -2 1570.77 1048.65   1
   9 -28  -2-827.152 963.918   3
  -9 -19  -2-60.0358 903.140   3
 -19  28  -2 1303.06 938.568   2
 -28  19  -2-280.148 1252.05   4
  19   9  -2-856.302 861.460   1
 -19  28   1 1210.50 1184.23   4
  19   9   1 661.401 968.139   1
  28  -9   1 474.512 972.134   1
 -28  19   1 2456.64 1042.44   2
   9 -28   1 1080.33 936.006   3
  -9 -19   1 1206.33 999.085   3
 -19  28   1-183.537 955.197   2
 -28  19   1 548.326 1234.48   4
   9 -28   4-766.005 1010.51   3
 -28  19   4 696.271 957.380   2
  -9 -19   4 1840.53 1301.38   3
 -28  19   4 38.7118 1125.80   4
   8 -28  -3 6652.21 1418.59   3
 -28  20  -3 6015.06 1412.86   2
  -8 -20  -3 5544.39 1182.21   3
 -20  28  -3 5204.68 1264.09   2
  20   8  -3 3531.80 1200.28   1
 -28  20  -3 8727.84 1891.85   4
  28  -8  -3 2679.54 1175.00   1
 -20  28  -3 8154.17 1756.99   4
 -20  28   0 6893.22 1604.40   4
  28  -8   0 5186.04 1317.26   1
 -28  20   0 2094.50 999.915   2
   8 -28   0 5521.39 1177.30   3
  -8 -20   0 4170.61 1131.24   3
 -20  28   0 2699.93 1077.04   2
  20   8   0 3166.71 1082.15   1
 -28  20   0 3149.87 1449.86   4
  20   8   3 7841.08 1617.21   1
 -28  20   3 7465.21 1298.19   2
   8 -28   3 6248.75 1325.20   3
  -8 -20   3 6824.87 1521.04   3
 -28  20   3 10496.9 1772.58   4
 -20  28   3 9747.95 1657.04   4
 -21  28  -4 5547.88 1587.17   4
 -28  21  -4 4943.11 1369.55   2
   7 -28  -4 2442.33 1235.88   3
  -7 -21  -4 5876.35 1273.72   3
 -21  28  -4 1186.79 925.845   2
  28  -7  -4 3072.23 1124.74   1
  21   7  -4 2788.99 1159.14   1
 -28  21  -4 4035.62 1686.59   4
 -21  28  -1 3308.16 1515.79   4
 -28  21  -1 2463.79 1143.30   2
   7 -28  -1 2049.75 979.725   3
  21   7  -1 1033.15 957.670   1
  -7 -21  -1 5127.70 1137.28   3
 -21  28  -1 3899.01 1130.85   2
  28  -7  -1 2642.21 1110.61   1
 -28  21  -1 5173.42 1598.99   4
 -21  28   2 7520.89 1569.41   4
  21   7   2 6921.25 1391.32   1
  28  -7   2 6620.74 1430.55   1
   7 -28   2 7519.92 1297.98   3
 -28  21   2 5698.49 1260.58   2
  -7 -21   2 6097.88 1365.92   3
 -21  28   2 6153.02 1317.03   2
 -28  21   2 8936.26 1716.18   4
 -22  28  -2 4148.04 1436.04   4
  28  -6  -2 115.202 926.665   1
  22   6  -2 855.132 959.040   1
 -28  22  -2 2288.33 1101.01   2
   6 -28  -2 31.4433 893.352   3
  -6 -22  -2 492.022 941.818   3
 -22  28  -2 271.564 944.588   2
 -28  22  -2 1739.62 1480.48   4
 -22  28   1 1223.07 1245.37   4
   6 -28   1 1450.33 1010.23   3
 -28  22   1 1342.43 964.880   2
  -6 -22   1 1494.65 1010.55   3
  22   6   1-627.602 981.848   1
 -22  28   1 1397.68 1085.96   2
  28  -6   1 1162.96 1121.39   1
 -28  22   1 632.946 1240.84   4
 -22  28   4 2105.57 1147.82   4
   6 -28   4 1303.63 1205.65   3
 -28  22   4 779.894 1070.54   2
  -6 -22   4 2550.84 1296.70   3
 -28  22   4 3122.77 1303.75   4
  23   5  -3 3826.02 1281.88   1
 -28  23  -3 10088.9 1642.49   2
   5 -28  -3 10263.4 1533.51   3
 -23  28  -3 10106.7 1543.69   2
  -5 -23  -3 8961.63 1395.98   3
  28  -5  -3 8462.72 1502.39   1
 -28  23  -3 15652.0 2286.15   4
 -23  28  -3 11770.8 2039.11   4
 -23  28   0 4868.53 1560.46   4
  23   5   0 3095.28 1172.22   1
   5 -28   0 3639.79 1185.71   3
 -28  23   0 4351.60 1244.05   2
  -5 -23   0 4757.89 1219.61   3
 -23  28   0 6466.59 1325.74   2
  28  -5   0 3559.61 1240.91   1
 -28  23   0 7228.81 1668.53   4
 -28  23   3 9158.80 1441.29   2
   5 -28   3 8618.57 1560.42   3
  -5 -23   3 11195.5 1758.71   3
  23   5   3 8321.63 1777.45   1
 -28  23   3 9488.21 1791.88   4
 -23  28   3 10575.3 1822.48   4
 -24  28  -1 3251.88 1480.71   4
  28  -4  -1 345.526 1015.79   1
 -28  24  -1 544.070 962.413   2
   4 -28  -1 1036.03 976.896   3
  -4 -24  -1-278.040 961.393   3
 -24  28  -1 1022.05 1002.65   2
  24   4  -1 2020.44 1145.85   1
 -28  24  -1 3379.84 1536.41   4
 -24  28   2-662.897 1289.71   4
  24   4   2 967.665 1191.28   1
   4 -28   2 328.912 1061.65   3
 -28  24   2 1505.04 1010.77   2
  -4 -24   2 1808.78 1088.58   3
 -24  28   2 1112.97 1024.51   2
  28  -4   2 1142.24 1174.48   1
 -28  24   2 905.400 1280.45   4
  28  -3  -2 303.303 1008.70   1
 -28  25  -2 2899.75 1218.44   2
   3 -28  -2 315.818 1001.49   3
  -3 -25  -2 1265.23 993.061   3
 -25  28  -2 1094.24 968.513   2
  25   3  -2-418.170 1045.99   1
 -28  25  -2 2310.50 1508.72   4
 -25  28  -2 2278.56 1427.25   4
 -25  28   1-1080.97 1280.60   4
  28  -3   1-685.762 1039.51   1
   3 -28   1-637.513 1002.60   3
 -28  25   1 870.684 974.654   2
  -3 -25   1-260.967 1002.31   3
 -25  28   1 774.504 996.346   2
  25   3   1 538.427 1033.35   1
 -28  25   1-541.117 1232.38   4
  -2 -26   0 4930.09 1555.28   3
  26   2   0 1210.61 1111.08   1
   2 -28   0 2785.94 1238.72   3
 -28  26   0 3366.12 1166.44   2
 -26  28   0 806.441 1007.54   2
  28  -2   0 1287.52 1172.51   1
 -28  26   0 3737.19 1512.03   4
 -26  28   0 3814.99 1697.79   4
 -29   4   0 959.985 1273.10   2
  29 -25   0 361.056 976.090   3
  25 -29   0 818.072 974.855   3
 -25  -4   0 459.669 1380.68   4
 -29   4   0 1609.73 1472.96   4
 -25  -4   0 3439.21 1622.83   2
 -29   5  -1 278.348 1251.12   2
  29 -24  -1 3243.20 1331.44   3
  24 -29  -1 371.139 1004.90   3
   5  24  -1 1145.73 764.159   1
 -24  -5  -1-7.62888 1311.79   4
 -29   5  -1 2901.31 1574.30   4
 -24  -5  -1 1812.27 1624.22   2
 -24  -5   2 1479.82 1192.97   2
 -29   5   2 2421.04 976.881   2
  24 -29   2 1854.71 904.878   3
 -24  -5   2-531.224 1508.03   4
 -29   5   2 1381.46 1375.79   4
 -29   6  -2 4549.48 1599.18   2
  29 -23  -2 2929.37 1379.98   3
   6  23  -2 1529.64 887.611   1
  23 -29  -2-846.166 1156.18   3
 -23  -6  -2 3063.72 1412.93   4
 -29   6  -2 2187.60 1558.57   4
 -23  -6  -2 2106.91 1816.20   2
 -29   6   1 2008.81 1017.95   2
  29 -23   1 1026.47 840.320   3
  23 -29   1 1945.81 913.241   3
 -23  -6   1 3811.92 1552.81   4
 -29   6   1-11.3653 1347.39   4
 -23  -6   1 1905.81 1371.99   2
 -29   7  -3 4766.28 1744.26   2
   7  22  -3 4693.40 1152.98   1
  29 -22  -3 5683.75 1751.25   3
  22 -29  -3 3877.75 1426.34   3
  29 -22  -3 5172.57 1302.03   1
  -7  29  -3 5450.92 1430.98   1
 -22  -7  -3 4047.25 1524.49   4
 -29   7  -3 2433.81 1597.76   4
 -22  -7  -3 6563.80 2207.23   2
   7  22   0 1853.20 828.237   1
 -29   7   0 2553.45 1167.92   2
  29 -22   0 2164.64 1086.13   3
  22 -29   0 2826.91 1126.94   3
 -22  -7   0 2708.99 1445.38   4
 -29   7   0 4210.67 1567.21   4
 -22  -7   0 4404.52 1668.08   2
 -29   7   3 4067.60 1034.32   2
  22 -29   3 6927.82 1207.61   3
 -22  -7   3 3862.12 1528.51   4
 -29   7   3 6297.02 1715.43   4
 -29   8  -1 490.817 1197.27   2
  29 -21  -1 170.357 1212.46   3
  21 -29  -1 1137.46 1003.60   3
   8  21  -1 1092.08 828.509   1
 -21  -8  -1 2069.32 1389.44   4
 -29   8  -1 2752.42 1477.06   4
 -21  -8  -1 2406.42 1832.27   2
 -29   8   2 868.176 865.742   2
  21 -29   2 510.033 813.656   3
   8  21   2 370.118 826.754   1
 -21  -8   2 1741.70 1327.64   4
 -29   8   2 1368.08 1301.67   4
 -21  -8   2 390.773 1193.57   2
  29 -20  -2 3991.40 1329.01   1
 -29   9  -2 1428.66 1292.22   2
  29 -20  -2 5894.60 1621.88   3
  20 -29  -2 2716.77 1244.67   3
  -9  29  -2 2970.94 1055.64   1
   9  20  -2 3517.09 1027.21   1
 -20  -9  -2 2768.08 1147.67   3
 -20  -9  -2 5349.94 1563.28   4
 -29   9  -2 3261.17 1534.95   4
 -20  -9  -2 6544.63 2078.89   2
 -29   9   1 2278.17 1031.57   2
  29 -20   1 3338.01 952.655   3
  20 -29   1 3391.81 1024.04   3
 -20  -9   1 4066.54 1402.53   4
   9  20   1 1252.74 822.772   1
 -29   9   1 3325.49 1395.43   4
 -20  -9   1 3851.55 1584.13   2
 -29   9   4 686.633 816.752   2
  20 -29   4 300.358 905.889   3
 -20  -9   4 2980.04 1471.75   4
 -29   9   4 2862.42 1410.91   4
 -29  10  -3 3987.94 1538.18   2
  29 -19  -3 3707.31 1543.99   3
 -10  29  -3 4570.81 1385.94   1
  10  19  -3 3429.01 1087.97   1
  19 -29  -3 2535.86 1211.56   3
  29 -19  -3 1920.21 1168.86   1
 -19 -10  -3 5762.16 1290.42   3
 -19 -10  -3 5600.15 1523.34   4
 -19 -10  -3 6315.63 2060.70   2
 -29  10  -3 2068.05 1612.14   4
  10  19   0 2604.35 880.868   1
  29 -19   0 3783.30 1215.00   3
 -29  10   0 3502.46 1236.04   2
  19 -29   0 2561.07 1070.03   3
 -19 -10   0 2103.92 1188.39   3
 -19 -10   0 3509.40 1387.27   4
 -29  10   0 6296.50 1671.15   4
 -19 -10   0 4615.34 1779.83   2
  10  19   3 2340.01 1021.86   1
 -29  10   3 1705.70 875.417   2
  19 -29   3 1857.67 918.611   3
 -19 -10   3 3386.11 1413.22   4
 -29  10   3 3399.29 1487.85   4
  29 -18  -4 510.226 1388.03   3
 -29  11  -4 1824.17 1468.27   2
 -11  29  -4-151.501 1346.71   1
  11  18  -4 961.462 1002.83   1
  18 -29  -4-340.596 1119.33   3
 -18 -11  -4 1826.81 983.400   3
 -18 -11  -4 1914.37 1215.42   4
  29 -18  -4 927.900 1067.10   1
 -18 -11  -4 863.943 1749.14   2
 -29  11  -4 3535.71 1658.58   4
  29 -18  -1 685.894 1217.35   3
 -29  11  -1-370.691 1064.61   2
 -11  29  -1-68.8520 815.841   1
  18 -29  -1-966.447 998.396   3
  29 -18  -1 560.276 1104.93   1
 -18 -11  -1 1709.24 1004.42   3
 -18 -11  -1 1616.32 1311.29   4
  11  18  -1 1254.07 851.249   1
 -18 -11  -1 3188.57 1799.74   2
 -29  11  -1-736.486 1286.89   4
 -29  11   2 827.764 873.794   2
  18 -29   2 1502.90 923.772   3
  11  18   2 1720.50 948.780   1
 -18 -11   2 1985.88 1366.33   4
 -29  11   2 3430.65 1405.14   4
 -18 -11   2 3029.63 1367.55   2
  29 -17  -2 3231.75 1463.85   3
 -12  29  -2 3521.60 1192.42   1
 -29  12  -2 1780.72 1159.54   2
  17 -29  -2 3033.55 1160.93   3
  29 -17  -2 1280.13 1182.26   1
  12  17  -2 1328.93 891.405   1
 -17 -12  -2 3222.85 1076.84   3
 -17 -12  -2 4548.03 1458.70   4
 -17 -12  -2 1866.43 1837.04   2
 -29  12  -2 1487.48 1325.38   4
 -29  12   1 7549.24 1299.82   2
  29 -17   1 8666.43 1234.39   3
  17 -29   1 5093.41 1130.79   3
  12  17   1 5507.07 1152.56   1
 -17 -12   1 10405.7 1629.80   3
 -17 -12   1 8774.03 1792.95   4
 -17 -12   1 11359.1 2066.63   2
 -29  12   1 3646.84 1460.59   4
 -29  12   4 1217.97 883.174   2
  17 -29   4-267.736 1016.96   3
 -17 -12   4 2780.86 1467.83   4
 -29  12   4 181.887 1251.53   4
 -13  29  -3-1207.43 1297.17   1
  29 -16  -3 1506.90 1345.19   3
 -29  13  -3 1731.53 1245.94   2
  16 -29  -3 1401.68 1100.82   3
  13  16  -3 2879.01 1040.64   1
 -16 -13  -3 1202.88 1029.17   3
 -13  29  -3 1319.98 993.847   2
 -16 -13  -3 2790.49 1313.97   4
 -16 -13  -3 2502.88 1872.11   2
  29 -16  -3 3262.64 1134.23   1
 -29  13  -3 197.183 1348.14   4
  29 -16   0 6649.60 1510.31   3
 -29  13   0 4922.46 1230.55   2
  13  16   0 4493.30 1079.95   1
  16 -29   0 2751.39 1110.50   3
 -16 -13   0 4664.56 1244.10   3
 -16 -13   0 6016.54 1602.32   4
 -16 -13   0 7632.77 2046.89   2
 -29  13   0 6632.41 1775.97   4
  29 -16   0 2771.76 1241.41   1
 -29  13   3 948.700 924.319   2
  16 -29   3-338.229 917.135   3
 -16 -13   3 1307.02 1400.67   4
  13  16   3-124.748 982.193   1
 -16 -13   3 1518.78 1265.11   2
 -29  13   3 2407.38 1355.92   4
  29 -15  -4 4980.55 1694.08   3
 -29  14  -4 2709.67 1328.20   2
  14  15  -4 3161.78 1109.66   1
  15 -29  -4 1837.95 1207.56   3
  29 -15  -4 4471.61 1255.84   1
 -15 -14  -4 2507.66 1090.14   3
 -14  29  -4 3152.82 1140.30   2
 -15 -14  -4 2214.01 1323.96   4
 -15 -14  -4 2275.50 1773.65   2
 -29  14  -4 3298.22 1626.84   4
 -14  29  -4-10.7539 1496.67   1
  29 -15  -1 16336.3 1968.91   3
  14  15  -1 6888.00 1239.65   1
 -29  14  -1 8829.76 1439.03   2
  15 -29  -1 6803.37 1244.05   3
  29 -15  -1 11032.0 1603.64   1
 -15 -14  -1 9632.21 1467.14   3
 -15 -14  -1 11638.7 1825.91   4
 -14  29  -1 8918.82 1423.00   1
 -15 -14  -1 11715.4 2233.38   2
 -29  14  -1 13315.4 2139.11   4
 -29  14   2 1223.50 889.228   2
  15 -29   2 982.643 840.320   3
 -15 -14   2 1628.95 1199.03   3
 -15 -14   2 898.083 1354.25   4
  14  15   2 504.150 973.430   1
 -15 -14   2 570.658 1474.91   2
 -29  14   2 693.306 1220.03   4
  29 -14  -2-7.23613 1306.00   3
 -29  15  -2 2020.02 1114.33   2
  14 -29  -2-732.725 1066.77   3
 -14 -15  -2-1651.84 1017.09   3
 -15  29  -2-1120.46 1045.80   2
 -14 -15  -2 2430.24 1298.61   4
  15  14  -2 1068.61 880.823   1
 -14 -15  -2-1339.76 1630.55   2
 -29  15  -2 2582.94 1434.62   4
 -15  29  -2-270.411 1178.44   1
  29 -14  -2-68.0612 1061.11   1
  29 -14   1 13474.2 1576.17   3
 -29  15   1 10664.9 1423.36   2
  14 -29   1 10001.1 1357.26   3
 -14 -15   1 10187.6 1552.60   3
  15  14   1 7888.51 1313.38   1
 -14 -15   1 14262.3 2071.50   4
 -14 -15   1 10027.6 2110.30   2
 -29  15   1 10076.8 1910.34   4
  14 -29   4 2610.24 1137.09   3
 -29  15   4-547.662 873.822   2
 -14 -15   4 3227.26 1659.01   4
 -29  15   4 2154.13 1299.08   4
 -16  29  -3 2724.07 1391.74   4
  29 -13  -3 377.529 1359.38   3
 -29  16  -3 1560.54 1193.17   2
  13 -29  -3 610.979 1071.56   3
  29 -13  -3 566.303 972.699   1
  16  13  -3 1285.02 902.766   1
 -13 -16  -3 902.724 980.516   3
 -16  29  -3 565.141 977.582   2
 -13 -16  -3 3066.38 1349.03   4
 -13 -16  -3 1321.65 1643.30   2
 -29  16  -3 2396.34 1422.98   4
 -16  29  -3 1896.97 1430.42   1
  29 -13   0 7637.87 1609.50   3
 -29  16   0 2661.92 1113.74   2
  29 -13   0 3285.52 1271.47   1
  13 -29   0 3037.72 1014.28   3
  16  13   0 2453.48 1068.45   1
 -13 -16   0 4153.99 1263.53   3
 -13 -16   0 2383.68 1827.35   2
 -29  16   0 2620.44 1475.13   4
 -29  16   3 2642.21 954.201   2
  13 -29   3 2377.26 1066.94   3
 -13 -16   3 504.243 1203.43   3
 -13 -16   3 358.527 1384.93   2
  16  13   3 1562.38 1166.80   1
 -29  16   3 2273.70 1346.27   4
 -17  29  -4-328.371 1253.24   4
  29 -12  -4 1914.32 1150.91   1
 -29  17  -4 1664.15 1169.80   2
  12 -29  -4 120.992 1149.60   3
  17  12  -4-1304.01 996.252   1
 -12 -17  -4 260.756 988.390   3
 -17  29  -4 2564.48 1118.65   2
 -12 -17  -4 460.968 1258.50   4
 -12 -17  -4 1616.41 1689.99   2
 -17  29  -4 4450.63 1797.32   1
 -29  17  -4-355.460 1346.44   4
 -17  29  -1 7895.14 1676.46   4
  29 -12  -1 11247.5 1819.54   3
 -29  17  -1 8401.07 1401.25   2
  29 -12  -1 5993.12 1366.47   1
  17  12  -1 5810.25 1116.93   1
  12 -29  -1 3340.68 1109.26   3
 -12 -17  -1 7412.19 1313.77   3
 -17  29  -1 6458.52 1322.87   2
 -12 -17  -1 10298.9 2240.35   2
 -17  29  -1 7783.66 1517.52   1
 -29  17  -1 7777.31 1755.79   4
 -29  17   2 1974.59 1005.55   2
  12 -29   2 857.837 936.337   3
 -12 -17   2 3699.27 1277.94   3
 -12 -17   2 1457.60 1575.77   2
  17  12   2 2263.63 1123.36   1
 -29  17   2 1756.50 1342.21   4
 -18  29  -2 526.224 1269.60   4
 -29  18  -2 1883.43 1179.36   2
  11 -29  -2 410.951 976.242   3
 -11 -18  -2 806.351 924.558   3
 -18  29  -2 2242.83 1058.05   2
  29 -11  -2 1859.37 1048.15   1
 -11 -18  -2 2074.31 1633.39   2
 -18  29  -2 3683.41 1489.77   1
 -29  18  -2 2727.10 1531.07   4
  18  11  -2 1365.24 935.067   1
 -18  29   1 655.874 1168.68   4
  29 -11   1 1355.02 1135.44   1
  29 -11   1 1300.77 1202.49   3
  18  11   1 182.356 906.680   1
 -29  18   1 358.556 842.749   2
  11 -29   1 1406.51 967.680   3
 -11 -18   1 141.738 998.128   3
 -29  18   1 915.284 1199.15   4
  11 -29   4 1619.79 1134.92   3
 -29  18   4 654.499 946.090   2
 -11 -18   4 2511.16 1279.00   3
 -29  18   4 1406.86 1239.55   4
 -19  29  -3 4491.78 1539.51   4
  29 -10  -3 1313.06 1124.76   1
 -29  19  -3 1796.14 1181.26   2
  10 -29  -3 1520.41 1148.07   3
 -10 -19  -3 2005.78 1019.80   3
 -19  29  -3 1759.77 1007.74   2
 -10 -19  -3 533.815 1633.40   2
  19  10  -3 2291.35 1086.75   1
 -19  29  -3 1163.01 1485.35   1
 -29  19  -3 1933.60 1513.49   4
 -19  29   0 3914.25 1468.66   4
 -29  19   0 2633.19 1109.92   2
  10 -29   0 3375.16 1077.37   3
  29 -10   0 1947.18 1141.26   1
 -10 -19   0 2062.76 1041.06   3
 -19  29   0 3047.32 1098.90   2
  19  10   0 1646.35 939.946   1
 -29  19   0 5067.09 1550.84   4
  10 -29   3 2829.76 1246.13   3
 -29  19   3 2118.93 1025.72   2
 -10 -19   3 1409.62 1165.08   3
 -29  19   3 3071.08 1318.55   4
  19  10   3 1380.41 1213.03   1
 -20  29  -4 1071.04 1292.73   4
 -29  20  -4-428.337 1298.43   2
   9 -29  -4-1982.30 1298.37   3
  -9 -20  -4 2496.13 1139.20   3
 -20  29  -4 1199.52 1057.73   2
  20   9  -4 1195.94 965.053   1
  29  -9  -4 2605.98 1121.27   1
 -29  20  -4 3871.68 1605.59   4
 -20  29  -1 6561.09 1713.29   4
 -29  20  -1 2794.29 1182.59   2
  20   9  -1 1794.21 1029.04   1
   9 -29  -1 3133.18 1110.49   3
  -9 -20  -1 2206.66 1098.14   3
 -20  29  -1 2397.40 1064.26   2
  29  -9  -1 2267.86 1058.99   1
 -29  20  -1 4263.02 1646.07   4
  20   9   2 3591.91 1275.04   1
 -20  29   2 2917.97 1373.84   4
   9 -29   2 2340.66 1120.21   3
 -29  20   2 3645.58 1166.53   2
  -9 -20   2 3947.74 1309.88   3
  29  -9   2 4474.62 1390.41   1
 -29  20   2 5535.35 1597.02   4
 -21  29  -2 1325.73 1317.24   4
  21   8  -2 1270.98 949.267   1
 -29  21  -2-194.195 1034.33   2
  29  -8  -2 368.533 932.782   1
   8 -29  -2-389.249 918.852   3
  -8 -21  -2 1440.33 1054.74   3
 -21  29  -2 2.70808 905.943   2
 -29  21  -2 2152.54 1478.39   4
 -21  29   1 628.191 1189.75   4
  29  -8   1-114.567 1002.06   1
 -29  21   1-93.6695 1006.98   2
   8 -29   1 664.431 1022.74   3
  21   8   1 2070.62 1142.69   1
  -8 -21   1-89.7516 931.937   3
 -21  29   1 897.354 974.723   2
 -29  21   1 1698.62 1286.04   4
 -22  29  -3 7216.85 1715.94   4
 -29  22  -3 5301.64 1410.00   2
 -22  29  -3 6991.58 1390.17   2
   7 -29  -3 3033.39 1295.38   3
  -7 -22  -3 2366.72 1047.87   3
 -29  22  -3 8895.86 1891.94   4
  22   7  -3 4564.18 1261.40   1
  29  -7  -3 3469.67 1250.01   1
 -22  29   0 4019.53 1551.06   4
  22   7   0 2391.92 1052.09   1
  29  -7   0 4037.71 1265.48   1
 -29  22   0 2097.12 1015.63   2
   7 -29   0 866.673 990.057   3
  -7 -22   0 1071.25 1057.81   3
 -22  29   0 3007.01 1189.05   2
 -29  22   0 1420.56 1298.97   4
 -22  29   3 4893.71 1494.12   4
  22   7   3 3993.53 1418.21   1
   7 -29   3 7070.84 1401.29   3
 -29  22   3 3585.18 1146.25   2
  -7 -22   3 3798.12 1328.47   3
 -29  22   3 4823.94 1574.10   4
 -23  29  -1 1780.99 1449.63   4
 -29  23  -1 950.415 1034.70   2
   6 -29  -1 2801.61 1101.83   3
  -6 -23  -1 3350.33 1245.16   3
 -23  29  -1 2959.33 1141.85   2
  29  -6  -1 3093.26 1140.74   1
  23   6  -1 907.615 1052.38   1
 -29  23  -1 4513.68 1656.83   4
 -23  29   2 3037.95 1439.20   4
  23   6   2 3202.93 1387.44   1
  29  -6   2 2303.24 1220.91   1
   6 -29   2 2462.50 1168.90   3
 -29  23   2 2779.92 1068.15   2
  -6 -23   2 1468.24 1208.04   3
 -23  29   2 2566.68 1106.31   2
 -29  23   2 1331.52 1343.67   4
 -24  29  -2 2636.11 1471.51   4
  29  -5  -2 2898.77 1201.40   1
 -29  24  -2 2731.54 1281.58   2
   5 -29  -2 4756.02 1267.29   3
  24   5  -2 1353.36 1087.36   1
  -5 -24  -2 911.475 978.543   3
 -24  29  -2 1643.11 1027.24   2
 -29  24  -2 3073.71 1537.19   4
 -24  29   1 877.125 1301.80   4
   5 -29   1-330.267 1058.84   3
 -29  24   1 29.9084 972.241   2
  -5 -24   1 2231.25 1168.96   3
 -24  29   1-350.501 1020.83   2
  29  -5   1-372.690 1096.75   1
  24   5   1 2081.47 1094.76   1
 -29  24   1 2341.01 1436.13   4
 -25  29   0 1050.50 1289.87   4
  25   4   0-1232.86 1110.14   1
   4 -29   0 541.269 1020.52   3
 -29  25   0 556.155 1007.03   2
  -4 -25   0 1307.96 1013.82   3
 -25  29   0 1633.92 1134.72   2
  29  -4   0 1660.87 1112.20   1
 -29  25   0 1204.27 1335.69   4
 -30   7  -1-380.552 1273.38   2
  30 -23  -1 1365.49 1175.37   3
  23 -30  -1-879.578 1113.09   3
   7  23  -1-318.555 776.346   1
 -23  -7  -1 1891.00 1438.34   4
 -30   7  -1 1840.52 1578.24   4
 -23  -7  -1 3358.10 1804.24   2
 -30   8  -2 1947.28 1459.96   2
  30 -22  -2 3539.15 1476.58   3
  22 -30  -2 747.601 1156.62   3
   8  22  -2 650.646 854.206   1
 -22  -8  -2-567.742 1330.16   4
 -30   8  -2-460.951 1487.23   4
 -22  -8  -2 1116.22 1795.67   2
 -30   8   1 2955.94 1125.33   2
  30 -22   1 3988.78 1015.47   3
  22 -30   1 3530.78 1024.46   3
 -22  -8   1 3969.15 1610.59   4
 -30   8   1 3623.39 1582.74   4
 -22  -8   1 1965.22 1540.74   2
   8  22   1 1226.77 859.410   1
   9  21   0 2925.31 853.800   1
 -30   9   0 2944.17 1201.88   2
  30 -21   0 6398.49 1324.86   3
  21 -30   0 4749.79 1245.27   3
 -21  -9   0 3788.64 1506.13   4
 -30   9   0 4190.24 1665.32   4
 -21  -9   0 8408.30 2112.61   2
 -30  10  -1 136.911 1071.99   2
  30 -20  -1 1040.80 1257.57   3
  20 -30  -1-279.587 1009.65   3
 -20 -10  -1 983.085 1183.15   3
 -20 -10  -1-567.068 1184.70   4
  10  20  -1-45.9746 785.539   1
 -30  10  -1-1752.42 1544.51   4
 -20 -10  -1 2446.33 1786.55   2
 -30  10   2 1749.61 941.660   2
  20 -30   2 556.769 862.880   3
 -20 -10   2 2316.29 1481.11   4
  10  20   2 1140.65 1007.76   1
 -30  10   2 936.234 1320.54   4
 -20 -10   2 860.954 1388.40   2
  30 -19  -2 3400.25 1674.37   3
 -30  11  -2 4103.13 1373.10   2
 -11  30  -2 3202.48 1119.71   1
  19 -30  -2 1024.97 1010.18   3
  11  19  -2 2255.18 926.472   1
  30 -19  -2 4021.68 1271.41   1
 -19 -11  -2 4828.06 1358.42   3
 -19 -11  -2 3362.65 1384.10   4
 -19 -11  -2 3933.90 2000.06   2
 -30  11  -2 3709.46 1667.15   4
  30 -19   1 5785.01 1121.60   3
 -30  11   1 5780.98 1254.65   2
  19 -30   1 4580.04 1101.32   3
 -19 -11   1 8032.85 1794.82   4
 -30  11   1 7013.84 1700.66   4
 -19 -11   1 7964.88 1904.59   2
  11  19   1 3655.94 1065.95   1
  30 -18  -3 961.243 1455.57   3
 -30  12  -3 3069.62 1426.57   2
 -12  30  -3 2914.02 1394.09   1
  30 -18  -3 1462.67 1206.64   1
  18 -30  -3 2265.10 1254.63   3
  12  18  -3 824.101 963.015   1
 -18 -12  -3 1604.49 1118.22   3
 -18 -12  -3 1767.04 1266.05   4
 -18 -12  -3 422.185 1789.27   2
 -30  12  -3 1925.62 1575.34   4
  30 -18   0 4173.35 1341.20   3
 -30  12   0 4520.21 1264.12   2
  12  18   0 2102.10 912.593   1
  18 -30   0 967.714 1021.24   3
 -18 -12   0 4221.21 1269.13   3
 -18 -12   0 3514.89 1410.56   4
 -18 -12   0 6171.05 1985.77   2
 -30  12   0 4583.03 1658.42   4
  12  18   3 3487.09 1239.60   1
 -30  12   3 3026.88 1034.15   2
  18 -30   3 3856.83 1148.05   3
 -18 -12   3 6849.46 1824.95   4
 -30  12   3 4182.28 1537.26   4
  30 -17  -1 8354.18 1765.41   3
 -30  13  -1 2823.70 1154.84   2
  17 -30  -1 3547.09 1141.08   3
 -17 -13  -1 5471.56 1365.30   3
 -17 -13  -1 5024.32 1523.80   4
  30 -17  -1 5532.26 1419.38   1
 -17 -13  -1 5374.51 2118.99   2
 -30  13  -1 7784.33 1811.27   4
  13  17  -1 1725.46 906.255   1
 -30  13   2 3125.60 1082.69   2
  17 -30   2 2254.71 973.799   3
 -17 -13   2 4611.10 1629.10   4
  13  17   2 1922.17 1034.82   1
 -17 -13   2 3238.27 1555.30   2
 -30  13   2 1868.14 1485.10   4
 -14  30  -2 4732.56 1396.37   1
  30 -16  -2 7960.04 1774.19   3
 -30  14  -2 2776.49 1276.95   2
  30 -16  -2 2342.45 1178.35   1
  16 -30  -2 2674.08 1232.65   3
 -16 -14  -2 4009.48 1260.22   3
 -16 -14  -2 5912.96 1638.35   4
  14  16  -2 2586.20 1024.84   1
 -16 -14  -2 8091.10 2199.45   2
 -30  14  -2 6021.58 1845.08   4
  14  16   1 2003.06 1010.33   1
  30 -16   1 1544.21 1017.22   3
 -30  14   1 2299.81 1052.65   2
  16 -30   1 2540.26 1028.85   3
 -16 -14   1 3588.36 1303.38   3
 -16 -14   1 4129.80 1586.93   4
 -16 -14   1 1575.69 1711.08   2
 -30  14   1 3049.12 1579.24   4
  30 -15  -3 7777.87 1780.96   3
 -30  15  -3 6158.08 1631.57   2
  15 -30  -3 4104.05 1293.38   3
  15  15  -3 4941.74 1187.14   1
 -15 -15  -3 5058.58 1327.52   3
 -15  30  -3 5219.78 1299.58   2
 -15 -15  -3 6241.38 1574.86   4
 -15 -15  -3 2271.67 2077.73   2
  30 -15  -3 2735.85 1274.46   1
 -30  15  -3 9674.97 2088.91   4
 -15  30  -3 4986.27 1613.13   1
  30 -15   0 1053.28 1198.79   3
 -30  15   0-738.010 936.807   2
  30 -15   0-12.0215 1155.17   1
  15 -30   0-340.160 929.455   3
  15  15   0-617.387 943.568   1
 -15 -15   0 2801.53 1200.05   3
 -15 -15   0-893.700 1327.91   4
 -15 -15   0 4385.24 1901.81   2
 -30  15   0 1362.64 1369.64   4
 -30  15   3 4537.75 1078.01   2
  15 -30   3 2850.50 1100.43   3
 -15 -15   3 2700.30 1457.20   3
 -15 -15   3 3841.29 1702.83   4
 -15 -15   3 5662.71 1638.73   2
 -30  15   3 4596.18 1513.10   4
  15  15   3 2243.97 1225.78   1
  16  14  -1 2064.52 945.713   1
  30 -14  -1 3650.17 1472.52   3
 -30  16  -1 805.479 1011.53   2
  14 -30  -1 802.185 1003.02   3
  30 -14  -1 3815.93 1264.94   1
 -14 -16  -1 1423.98 1059.05   3
 -16  30  -1 1162.40 1093.65   2
 -14 -16  -1 3460.31 1495.26   4
 -14 -16  -1 3480.46 2025.15   2
 -30  16  -1 1704.11 1437.39   4
 -30  16   2 5012.09 1143.36   2
  14 -30   2 1662.47 1066.86   3
 -14 -16   2 5677.14 1511.40   3
 -14 -16   2 4182.40 1669.57   4
 -14 -16   2 1993.74 1588.30   2
  16  14   2 960.707 1084.50   1
 -30  16   2 5201.99 1585.34   4
 -17  30  -2 1497.45 1320.76   4
  30 -13  -2 1258.47 1416.13   3
 -30  17  -2 2116.86 1224.75   2
  13 -30  -2 4047.33 1268.48   3
 -13 -17  -2 1890.17 1141.33   3
 -17  30  -2 3745.88 1197.29   2
 -13 -17  -2 3945.69 1541.70   4
 -13 -17  -2 3437.90 1877.64   2
 -30  17  -2 4726.57 1695.29   4
  30 -13  -2 1574.68 1174.57   1
 -17  30  -2 4944.73 1569.88   1
  17  13  -2 1259.61 930.454   1
  17  13   1 5759.03 1272.86   1
  30 -13   1 5898.68 1419.43   1
 -30  17   1 5029.98 1207.42   2
  13 -30   1 4530.54 1176.97   3
 -13 -17   1 5901.92 1348.74   3
 -13 -17   1 7175.45 1999.53   2
 -30  17   1 6312.01 1655.54   4
 -18  30  -3 2181.23 1424.91   4
 -30  18  -3 3305.45 1278.20   2
  12 -30  -3 2522.81 1160.62   3
  30 -12  -3 2486.27 1239.51   1
 -12 -18  -3 1257.49 1069.32   3
 -18  30  -3 3873.77 1193.52   2
 -12 -18  -3 4439.71 1510.24   4
  18  12  -3 3655.70 1124.15   1
 -12 -18  -3 4037.22 2005.35   2
 -18  30  -3 3101.65 1592.71   1
 -30  18  -3 3407.95 1625.72   4
 -18  30   0 4702.09 1564.64   4
  30 -12   0 1664.89 1171.51   1
 -30  18   0 3528.73 1161.95   2
  12 -30   0 2466.13 1165.05   3
 -12 -18   0 5056.77 1303.37   3
 -18  30   0 3152.11 1132.96   2
 -12 -18   0 3183.56 1922.17   2
  18  12   0 2240.94 1110.91   1
 -30  18   0 5628.45 1744.99   4
  12 -30   3 1485.39 1041.85   3
 -30  18   3-270.179 884.925   2
 -12 -18   3 1213.38 1224.35   3
 -12 -18   3 3079.34 1662.65   2
 -30  18   3 3082.71 1460.08   4
  18  12   3 468.673 1217.62   1
  30 -11  -1 5197.10 1392.65   1
 -30  19  -1 7019.08 1468.28   2
  19  11  -1 3383.29 1153.48   1
  11 -30  -1 4457.18 1246.04   3
 -11 -19  -1 5003.14 1211.58   3
 -19  30  -1 3630.20 1232.11   2
 -11 -19  -1 6557.64 2148.64   2
 -19  30  -1 3522.21 1432.11   1
 -30  19  -1 6015.06 1824.42   4
 -19  30  -1 9319.14 1868.58   4
 -30  19   2 606.300 951.581   2
  11 -30   2 1335.13 967.979   3
 -11 -19   2 3305.70 1306.94   3
 -11 -19   2 4718.63 1913.57   2
 -30  19   2 3105.25 1473.75   4
  19  11   2 2052.55 1248.94   1
 -20  30  -2 1629.76 1451.53   4
  20  10  -2 1714.89 1067.19   1
 -30  20  -2 1199.74 1139.59   2
  10 -30  -2 1729.89 1038.59   3
 -10 -20  -2 2009.04 1124.32   3
 -20  30  -2 1121.92 1039.76   2
  30 -10  -2 3021.44 1203.64   1
 -30  20  -2 1607.32 1466.46   4
 -20  30   1-14.3218 1295.20   4
  20  10   1 1414.81 1139.23   1
 -30  20   1 255.388 919.401   2
  10 -30   1 68.9984 966.628   3
 -10 -20   1 622.555 1032.04   3
 -20  30   1 276.185 1025.22   2
  30 -10   1 115.167 1061.59   1
 -30  20   1 1015.69 1303.66   4
 -21  30   0 4722.86 1645.42   4
  21   9   0 3031.66 1198.99   1
  30  -9   0 5345.29 1389.66   1
 -30  21   0 3255.74 1186.57   2
   9 -30   0 3012.77 1140.04   3
  -9 -21   0 4002.85 1238.54   3
 -21  30   0 4170.83 1297.31   2
 -30  21   0 6400.66 1772.28   4
 -22  30  -1 4630.83 1644.30   4
 -30  22  -1 3889.80 1268.89   2
   8 -30  -1 2728.61 1112.73   3
  -8 -22  -1 4341.52 1260.94   3
 -22  30  -1 3617.48 1218.76   2
  22   8  -1 2111.57 1101.06   1
  30  -8  -1 2633.88 1252.99   1
 -30  22  -1 3295.63 1592.20   4
 -22  30   2 761.473 1245.85   4
  30  -8   2 230.404 1161.20   1
  22   8   2 927.111 1154.80   1
   8 -30   2 649.689 1014.59   3
 -30  22   2 1192.19 960.747   2
  -8 -22   2 31.2771 1177.87   3
 -30  22   2 1401.15 1337.11   4
 -23  30   1 1568.53 1327.27   4
  30  -7   1 2850.93 1252.42   1
   7 -30   1-634.225 999.612   3
 -30  23   1 429.968 996.709   2
  -7 -23   1 1695.16 1184.69   3
 -23  30   1 3232.37 1259.40   2
  23   7   1 888.548 1070.94   1
 -30  23   1 216.068 1309.71   4
  31 -20   0 2750.82 1210.40   3
 -31  11   0 1773.94 1142.35   2
  20 -31   0 3080.01 1199.74   3
  11  20   0 2522.28 926.002   1
 -20 -11   0 3003.54 1453.24   4
 -31  11   0 6193.21 1713.91   4
 -20 -11   0 4644.94 2000.62   2
  31 -19  -1 2341.20 1450.66   3
 -31  12  -1 1693.11 1195.75   2
  19 -31  -1 1780.07 1203.02   3
  31 -19  -1-1856.16 1332.18   1
 -19 -12  -1 1651.20 1177.98   3
 -19 -12  -1 2169.85 1356.38   4
 -19 -12  -1 1766.91 1954.80   2
 -31  12  -1-508.497 1398.88   4
  12  19  -1 1714.05 963.371   1
  31 -18  -2 9779.96 1927.05   3
  31 -18  -2 6082.62 1491.30   1
 -31  13  -2 6045.37 1612.59   2
  18 -31  -2 6926.59 1461.24   3
 -18 -13  -2 7979.98 1521.73   3
 -18 -13  -2 6711.82 1626.85   4
  13  18  -2 4787.20 1154.03   1
 -18 -13  -2 8228.20 2376.69   2
 -31  13  -2 6751.65 1953.38   4
  13  18   1 2224.79 1065.08   1
 -31  13   1 3129.53 1148.00   2
  18 -31   1 4029.66 1127.58   3
 -18 -13   1 4144.53 1417.97   3
 -18 -13   1 3415.98 1617.13   4
 -18 -13   1 3827.31 1787.80   2
 -31  13   1 3857.53 1635.94   4
  31 -17   0 4609.79 1483.46   3
 -31  14   0 2076.13 1125.93   2
  17 -31   0 2459.64 1084.61   3
  14  17   0 964.164 985.872   1
 -17 -14   0 2250.47 1175.50   3
 -17 -14   0 1528.69 1415.84   4
 -17 -14   0 5752.10 2143.78   2
 -31  14   0 3106.69 1543.45   4
  15  16  -1 1193.91 931.217   1
  31 -16  -1-178.415 1331.00   3
 -31  15  -1 1135.84 1124.96   2
  16 -31  -1 1973.41 1158.22   3
  31 -16  -1 1950.80 1304.74   1
 -16 -15  -1 2720.90 1240.19   3
 -16 -15  -1 345.253 1278.76   4
 -16 -15  -1 1374.76 1951.95   2
 -31  15  -1 657.769 1475.95   4
 -31  15   2 4433.50 1163.73   2
  16 -31   2 4377.21 1176.12   3
 -16 -15   2 8801.74 1619.79   3
 -16 -15   2 7451.91 1865.35   4
 -16 -15   2 9803.08 2062.72   2
  15  16   2 5021.28 1354.75   1
 -31  15   2 6461.17 1729.82   4
  31 -15  -2 6625.07 1822.69   3
  31 -15  -2 5992.83 1493.29   1
 -31  16  -2 5300.21 1437.04   2
  15 -31  -2 3311.84 1212.41   3
 -15 -16  -2 5420.70 1291.71   3
 -16  31  -2 4099.63 1305.42   2
 -15 -16  -2 3504.36 1469.79   4
 -15 -16  -2 7463.80 2319.28   2
  16  15  -2 3728.74 1156.43   1
 -31  16  -2 3339.61 1661.87   4
  16  15   1 1868.74 1128.90   1
 -31  16   1-2366.72 1164.83   2
  15 -31   1 694.864 973.615   3
 -15 -16   1 1451.57 1213.65   3
 -15 -16   1 3043.36 1562.23   4
 -15 -16   1 308.582 1740.97   2
 -31  16   1 3379.03 1583.98   4
  31 -14   0 4233.15 1469.59   3
 -31  17   0 637.187 1010.50   2
  14 -31   0 769.789 946.952   3
 -14 -17   0 2812.98 1426.78   3
 -14 -17   0 3203.70 1568.33   4
  17  14   0 682.557 971.337   1
 -14 -17   0 1199.10 1934.16   2
 -31  17   0 337.422 1341.55   4
  31 -14   0-312.257 1163.53   1
 -18  31  -1 1493.58 1353.71   4
  31 -13  -1 5512.72 1678.96   3
  18  13  -1 2487.86 1111.95   1
 -31  18  -1 1705.62 1216.53   2
  13 -31  -1 1805.47 1131.48   3
  31 -13  -1 1903.18 1233.46   1
 -13 -18  -1 2306.93 1187.76   3
 -18  31  -1 4021.05 1193.47   2
 -13 -18  -1 2646.36 1452.71   4
 -13 -18  -1 2728.54 1951.87   2
 -31  18  -1 4439.91 1682.56   4
 -31  18   2 7886.29 1385.94   2
  13 -31   2 6314.41 1367.37   3
 -13 -18   2 6985.92 1652.05   3
 -13 -18   2 11480.0 2331.23   2
 -31  18   2 7919.77 1897.05   4
  18  13   2 3947.89 1414.22   1
  19  12   1 619.505 1037.48   1
 -31  19   1 1110.74 1062.89   2
  12 -31   1 1542.72 1018.94   3
 -12 -19   1 1443.52 1195.12   3
 -12 -19   1-866.667 1795.64   2
  31 -12   1-932.280 1233.71   1
 -31  19   1 3758.87 1589.35   4
 -20  31   0 4830.45 1638.84   4
  31 -11   0 6677.64 1691.07   3
 -31  20   0 2148.94 1220.77   2
  11 -31   0 1188.62 1081.60   3
 -11 -20   0 2510.27 1186.00   3
 -20  31   0 3113.81 1227.35   2
 -31  20   0 5137.14 1722.45   4
  31 -11   0 1703.43 1242.32   1
  20  11   0 1587.70 1113.70   1
   0   0   0    0.00    0.00   0

TITL YY_Zn_Gly_Pyr_P-xylene in R3c
REM R3c (#161 in standard setting)
CELL 0.71073  26.620821  26.620821  10.154342  90.0000  90.0000 120.0000
ZERR   18.00   0.001328   0.001328   0.000403   0.0000   0.0000   0.0000
LATT -3
SYMM -y, x-y, z
SYMM -x+y,-x, z
SYMM -y,-x, z+1/2
SYMM -x+y, y, z+1/2
SYMM  x, x-y, z+1/2
SFAC C H N O Zn
UNIT 108.00 144.00 54.00 54.00 18.00
TREF
HKLF 4
END
;
_shelx_hkl_checksum              37012
_olex2_submission_special_instructions 'No special instructions were received'
_oxdiff_exptl_absorpt_empirical_details
;
Empirical correction (ABSPACK) includes:
- Absorption correction using spherical harmonics
- Frame scaling
;
_oxdiff_exptl_absorpt_empirical_full_max 1.734
_oxdiff_exptl_absorpt_empirical_full_min 0.647
loop_
_space_group_symop_operation_xyz
'x, y, z'
'-y, x-y, z'
'-x+y, -x, z'
'-x+y, y, z+1/2'
'x, x-y, z+1/2'
'-y, -x, z+1/2'
'x+2/3, y+1/3, z+1/3'
'-y+2/3, x-y+1/3, z+1/3'
'-x+y+2/3, -x+1/3, z+1/3'
'-x+y+2/3, y+1/3, z+5/6'
'x+2/3, x-y+1/3, z+5/6'
'-y+2/3, -x+1/3, z+5/6'
'x+1/3, y+2/3, z+2/3'
'-y+1/3, x-y+2/3, z+2/3'
'-x+y+1/3, -x+2/3, z+2/3'
'-x+y+1/3, y+2/3, z+7/6'
'x+1/3, x-y+2/3, z+7/6'
'-y+1/3, -x+2/3, z+7/6'
loop_
_atom_site_label
_atom_site_type_symbol
_atom_site_fract_x
_atom_site_fract_y
_atom_site_fract_z
_atom_site_U_iso_or_equiv
_atom_site_adp_type
_atom_site_occupancy
_atom_site_site_symmetry_order
_atom_site_calc_flag
_atom_site_refinement_flags_posn
_atom_site_refinement_flags_adp
_atom_site_refinement_flags_occupancy
_atom_site_disorder_assembly
_atom_site_disorder_group
Zn1 Zn -0.35202(5) -0.02817(5) -0.14825(13) 0.0236(4) Uani 1 1 d . . . . .
O2 O -0.4014(3) -0.0822(3) -0.2875(6) 0.0269(16) Uani 1 1 d . U . . .
N1 N -0.4047(4) -0.0514(4) 0.0041(8) 0.0234(19) Uani 1 1 d . U . . .
O3 O -0.5566(3) -0.1126(3) 0.2879(7) 0.0346(18) Uani 1 1 d . U . . .
N3 N -0.5859(4) -0.1252(4) 0.0745(8) 0.0252(19) Uani 1 1 d . . . . .
H3 H -0.5774 -0.1280 -0.0079 0.030 Uiso 1 1 calc R . . . .
N2 N -0.3161(4) 0.0549(4) -0.2023(8) 0.0260(19) Uani 1 1 d . U . . .
O1 O -0.2892(3) -0.0459(3) -0.1259(7) 0.0273(17) Uani 1 1 d . U . . .
C6 C -0.4356(4) -0.0834(4) -0.3766(10) 0.0226(19) Uani 1 1 d . U . . .
C4 C -0.5444(5) -0.1084(5) 0.1704(10) 0.028(2) Uani 1 1 d . U . . .
C1 C -0.4622(5) -0.0794(5) 0.0002(11) 0.028(2) Uani 1 1 d . U . . .
H1 H -0.4853 -0.0944 -0.0768 0.034 Uiso 1 1 calc R . . . .
C2 C -0.4832(5) -0.0830(5) 0.1266(11) 0.029(2) Uani 1 1 d . U . . .
C5 C -0.6440(5) -0.1383(5) 0.1100(11) 0.029(2) Uani 1 1 d . U . . .
H5A H -0.6552 -0.1597 0.1944 0.035 Uiso 1 1 calc R . . . .
H5B H -0.6716 -0.1635 0.0416 0.035 Uiso 1 1 calc R . . . .
C3 C -0.4365(5) -0.0581(4) 0.2040(11) 0.027(2) Uani 1 1 d . U . . .
H3A H -0.4373 -0.0554 0.2972 0.033 Uiso 1 1 calc R . . . .
C10 C -0.5270(12) -0.2400(11) -0.034(3) 0.163(17) Uiso 0.65(3) 1 d D U P . .
C11 C -0.5280(12) -0.2314(13) 0.100(3) 0.156(17) Uiso 0.65(3) 1 d DG U P . .
H11 H -0.5638 -0.2425 0.1433 0.187 Uiso 0.65(3) 1 calc R . P . .
C12 C -0.4767(14) -0.2065(15) 0.172(2) 0.175(19) Uiso 0.65(3) 1 d DG U P . .
H12 H -0.4774 -0.2006 0.2643 0.210 Uiso 0.65(3) 1 calc R . P . .
C7 C -0.4244(12) -0.1902(11) 0.109(3) 0.121(13) Uiso 0.65(3) 1 d DG U P . .
C8 C -0.4234(12) -0.1989(13) -0.025(3) 0.130(14) Uiso 0.65(3) 1 d DG U P . .
H8 H -0.3876 -0.1878 -0.0684 0.156 Uiso 0.65(3) 1 calc R . P . .
C9 C -0.4747(15) -0.2238(15) -0.097(2) 0.177(18) Uiso 0.65(3) 1 d DG U P . .
H9 H -0.4740 -0.2297 -0.1894 0.212 Uiso 0.65(3) 1 calc R . P . .
C13 C -0.3687(18) -0.164(2) 0.185(4) 0.24(3) Uiso 0.65(3) 1 d D U P . .
H13A H -0.3365 -0.1551 0.1255 0.357 Uiso 0.65(3) 1 calc R . P . .
H13B H -0.3622 -0.1278 0.2273 0.357 Uiso 0.65(3) 1 calc R . P . .
H13C H -0.3710 -0.1909 0.2533 0.357 Uiso 0.65(3) 1 calc R . P . .
C14 C -0.5833(18) -0.2672(18) -0.112(5) 0.25(3) Uiso 0.65(3) 1 d D U P . .
H14A H -0.5752 -0.2703 -0.2049 0.377 Uiso 0.65(3) 1 calc R . P . .
H14B H -0.6098 -0.3060 -0.0771 0.377 Uiso 0.65(3) 1 calc R . P . .
H14C H -0.6012 -0.2429 -0.1042 0.377 Uiso 0.65(3) 1 calc R . P . .
loop_
_atom_site_aniso_label
_atom_site_aniso_U_11
_atom_site_aniso_U_22
_atom_site_aniso_U_33
_atom_site_aniso_U_23
_atom_site_aniso_U_13
_atom_site_aniso_U_12
Zn1 0.0302(7) 0.0330(7) 0.0076(6) 0.0007(5) 0.0001(5) 0.0159(6)
O2 0.030(4) 0.039(4) 0.010(4) -0.005(3) -0.006(3) 0.015(3)
N1 0.030(4) 0.032(4) 0.008(4) 0.004(3) 0.002(3) 0.016(3)
O3 0.038(4) 0.051(5) 0.012(4) 0.000(3) 0.003(3) 0.021(4)
N3 0.033(5) 0.036(5) 0.011(5) -0.006(4) 0.004(3) 0.021(4)
N2 0.040(5) 0.023(4) 0.007(4) 0.001(3) 0.000(3) 0.010(4)
O1 0.033(4) 0.036(4) 0.019(4) -0.005(3) 0.000(3) 0.022(3)
C6 0.025(4) 0.032(5) 0.010(4) 0.001(4) 0.003(3) 0.014(4)
C4 0.038(5) 0.034(5) 0.014(4) -0.004(4) -0.002(4) 0.020(4)
C1 0.033(5) 0.038(5) 0.012(5) 0.003(4) -0.002(4) 0.017(4)
C2 0.037(5) 0.036(5) 0.016(5) -0.004(4) 0.001(4) 0.021(4)
C5 0.028(5) 0.036(6) 0.018(5) 0.000(4) 0.001(4) 0.011(4)
C3 0.029(5) 0.035(5) 0.018(5) 0.000(4) 0.003(4) 0.016(4)
loop_
_atom_type_symbol
_atom_type_description
_atom_type_scat_dispersion_real
_atom_type_scat_dispersion_imag
_atom_type_scat_source
C C 0.0033 0.0016 'International Tables Vol C Tables 4.2.6.8 and 6.1.1.4'
H H 0.0000 0.0000 'International Tables Vol C Tables 4.2.6.8 and 6.1.1.4'
N N 0.0061 0.0033 'International Tables Vol C Tables 4.2.6.8 and 6.1.1.4'
O O 0.0106 0.0060 'International Tables Vol C Tables 4.2.6.8 and 6.1.1.4'
Zn Zn 0.2839 1.4301 'International Tables Vol C Tables 4.2.6.8 and 6.1.1.4'
loop_
_geom_angle_atom_site_label_1
_geom_angle_atom_site_label_2
_geom_angle_atom_site_label_3
_geom_angle
_geom_angle_site_symmetry_1
_geom_angle_site_symmetry_3
_geom_angle_publ_flag
O2 Zn1 N2 112.6(3) . . ?
N1 Zn1 O2 102.9(3) . . ?
N1 Zn1 N2 115.8(4) . . ?
O1 Zn1 O2 104.2(3) . . ?
O1 Zn1 N1 113.1(3) . . ?
O1 Zn1 N2 107.6(3) . . ?
C6 O2 Zn1 137.4(7) . . ?
N2 N1 Zn1 125.5(7) 8_455 . ?
C1 N1 Zn1 126.4(7) . . ?
C1 N1 N2 107.9(8) . 8_455 ?
C4 N3 C5 119.4(9) . . ?
N1 N2 Zn1 122.6(7) 15_444 . ?
C3 N2 Zn1 129.7(7) 15_444 . ?
C3 N2 N1 107.6(8) 15_444 15_444 ?
C6 O1 Zn1 120.4(6) 8_455 . ?
O2 C6 C5 117.9(9) . 4_454 ?
O1 C6 O2 124.9(9) 15_444 . ?
O1 C6 C5 117.1(9) 15_444 4_454 ?
O3 C4 N3 121.9(10) . . ?
O3 C4 C2 120.9(10) . . ?
N3 C4 C2 117.2(9) . . ?
N1 C1 C2 108.9(10) . . ?
C1 C2 C4 128.4(10) . . ?
C3 C2 C4 126.0(10) . . ?
C3 C2 C1 105.6(10) . . ?
N3 C5 C6 111.5(8) . 4_455 ?
C2 C3 N2 110.0(10) . 8_455 ?
C11 C10 C9 120.0 . . ?
C11 C10 C14 119.6(11) . . ?
C9 C10 C14 120.4(11) . . ?
C12 C11 C10 120.0 . . ?
C11 C12 C7 120.0 . . ?
C12 C7 C8 120.0 . . ?
C12 C7 C13 120.7(11) . . ?
C8 C7 C13 119.3(11) . . ?
C9 C8 C7 120.0 . . ?
C8 C9 C10 120.0 . . ?
loop_
_geom_bond_atom_site_label_1
_geom_bond_atom_site_label_2
_geom_bond_distance
_geom_bond_site_symmetry_2
_geom_bond_publ_flag
Zn1 O2 1.976(7) . ?
Zn1 N1 1.968(8) . ?
Zn1 N2 1.997(9) . ?
Zn1 O1 1.965(7) . ?
O2 C6 1.271(12) . ?
N1 N2 1.352(12) 8_455 ?
N1 C1 1.328(14) . ?
O3 C4 1.227(13) . ?
N3 C4 1.369(14) . ?
N3 C5 1.451(14) . ?
N2 N1 1.352(12) 15_444 ?
N2 C3 1.340(14) 15_444 ?
O1 C6 1.250(12) 8_455 ?
C6 O1 1.250(12) 15_444 ?
C6 C5 1.520(15) 4_454 ?
C4 C2 1.486(16) . ?
C1 C2 1.383(15) . ?
C2 C3 1.334(16) . ?
C5 C6 1.520(15) 4_455 ?
C3 N2 1.340(14) 8_455 ?
C10 C11 1.3900 . ?
C10 C9 1.3900 . ?
C10 C14 1.52(3) . ?
C11 C12 1.3900 . ?
C12 C7 1.3900 . ?
C7 C8 1.3900 . ?
C7 C13 1.50(3) . ?
C8 C9 1.3900 . ?
