#------------------------------------------------------------------------------
#$Date: 2020-08-22 02:01:14 +0300 (Sat, 22 Aug 2020) $
#$Revision: 255545 $
#$URL: file:///home/coder/svn-repositories/cod/cif/4/13/51/4135192.cif $
#------------------------------------------------------------------------------
#
# This file is available in the Crystallography Open Database (COD),
# http://www.crystallography.net/
#
# All data on this site have been placed in the public domain by the
# contributors.
#
data_4135192
loop_
_publ_author_name
'Yan, Yong'
'Carrington, Elliot J.'
'P\'etuya, R\'emi'
'Whitehead, George F. S.'
'Verma, Ajay'
'Hylton, Rebecca K.'
'Tang, Chiu C.'
'Berry, Neil G.'
'Darling, George R.'
'Dyer, Matthew S.'
'Antypov, Dmytro'
'Katsoulidis, Alexandros P.'
'Rosseinsky, Matthew J.'
_publ_section_title
;
 Amino Acid Residues Determine the Response of Flexible Metal-Organic
 Frameworks to Guests.
;
_journal_name_full               'Journal of the American Chemical Society'
_journal_paper_doi               10.1021/jacs.0c03853
_journal_year                    2020
_chemical_formula_moiety         'C6 H5 N3 O3 Zn'
_chemical_formula_sum            'C6 H5 N3 O3 Zn'
_chemical_formula_weight         232.50
_space_group_crystal_system      trigonal
_space_group_IT_number           161
_space_group_name_Hall           'R 3 -2"c'
_space_group_name_H-M_alt        'R 3 c :H'
_atom_sites_solution_hydrogens   geom
_atom_sites_solution_primary     direct
_audit_creation_date             2017-12-21
_audit_creation_method
;
Olex2 1.2
(compiled 2017.08.10 svn.r3458 for OlexSys, GUI svn.r5381)
;
_cell_angle_alpha                90
_cell_angle_beta                 90
_cell_angle_gamma                120
_cell_formula_units_Z            18
_cell_length_a                   28.539(3)
_cell_length_b                   28.539(3)
_cell_length_c                   10.1528(6)
_cell_measurement_reflns_used    3655
_cell_measurement_temperature    150
_cell_measurement_theta_max      22.9870
_cell_measurement_theta_min      2.4870
_cell_volume                     7161.3(11)
_computing_cell_refinement       'CrysAlisPro 1.171.38.46 (Rigaku OD, 2015)'
_computing_data_collection       'CrysAlisPro 1.171.38.46 (Rigaku OD, 2015)'
_computing_data_reduction        'CrysAlisPro 1.171.38.46 (Rigaku OD, 2015)'
_computing_molecular_graphics    'Olex2 (Dolomanov et al., 2009)'
_computing_publication_material  'Olex2 (Dolomanov et al., 2009)'
_computing_structure_refinement  'ShelXL (Sheldrick, 2015)'
_computing_structure_solution    'XS (Sheldrick, 2008)'
_diffrn_ambient_temperature      150
_diffrn_detector                 'CCD plate'
_diffrn_measured_fraction_theta_full 0.997
_diffrn_measured_fraction_theta_max 0.997
_diffrn_measurement_details
;
List of Runs (angles in degrees, time in seconds):

  # Type    Start    End  Width  t~exp~   \w     \q     \k     \f   Frames
--------------------------------------------------------------------------
  1  \w   -110.00  15.00   1.00   10.00    --  -20.00 -68.00   0.00  125
  2  \w   -110.00  15.00   1.00   10.00    --  -20.00 -68.00 120.00  125
  3  \w   -110.00  15.00   1.00   10.00    --  -20.00 -68.00 240.00  125
  4  \w   -110.00  15.00   1.00   10.00    --  -20.00 -30.00  90.00  125
;
_diffrn_measurement_device       'abstract diffractometer'
_diffrn_measurement_device_type
'dtrek-CrysAlisPro-abstract goniometer imported rigaku-d*trek images'
_diffrn_measurement_method       '\w scans'
_diffrn_orient_matrix_type
'CrysAlisPro convention (1999,Acta A55,543-557)'
_diffrn_orient_matrix_UB_11      -0.0064015000
_diffrn_orient_matrix_UB_12      -0.0272310000
_diffrn_orient_matrix_UB_13      0.0089934000
_diffrn_orient_matrix_UB_21      0.0258940000
_diffrn_orient_matrix_UB_22      0.0066037000
_diffrn_orient_matrix_UB_23      -0.0244138000
_diffrn_orient_matrix_UB_31      0.0106249000
_diffrn_orient_matrix_UB_32      0.0062599000
_diffrn_orient_matrix_UB_33      0.0647534000
_diffrn_radiation_monochromator  graphite
_diffrn_radiation_probe          x-ray
_diffrn_radiation_type           MoK\a
_diffrn_radiation_wavelength     0.71073
_diffrn_reflns_av_R_equivalents  0.1571
_diffrn_reflns_av_unetI/netI     0.0868
_diffrn_reflns_Laue_measured_fraction_full 0.997
_diffrn_reflns_Laue_measured_fraction_max 0.997
_diffrn_reflns_limit_h_max       31
_diffrn_reflns_limit_h_min       -31
_diffrn_reflns_limit_k_max       31
_diffrn_reflns_limit_k_min       -31
_diffrn_reflns_limit_l_max       10
_diffrn_reflns_limit_l_min       -11
_diffrn_reflns_number            20672
_diffrn_reflns_point_group_measured_fraction_full 0.969
_diffrn_reflns_point_group_measured_fraction_max 0.969
_diffrn_reflns_theta_full        23.293
_diffrn_reflns_theta_max         23.293
_diffrn_reflns_theta_min         2.472
_diffrn_source                   'fine-focus sealed X-ray tube'
_diffrn_source_type              'Enhance (Mo) X-ray Source'
_exptl_absorpt_coefficient_mu    1.530
_exptl_absorpt_correction_T_max  1.00000
_exptl_absorpt_correction_T_min  0.57196
_exptl_absorpt_correction_type   multi-scan
_exptl_absorpt_process_details
;
CrysAlisPro 1.171.38.46 (Rigaku Oxford Diffraction, 2015)
Empirical absorption correction using spherical harmonics,
 implemented in SCALE3 ABSPACK scaling algorithm.
;
_exptl_crystal_colour            white
_exptl_crystal_colour_primary    white
_exptl_crystal_density_diffrn    0.970
_exptl_crystal_description       needle
_exptl_crystal_F_000             2088
_exptl_crystal_preparation       'Desolvated from Benzene'
_exptl_crystal_size_max          0.12
_exptl_crystal_size_mid          0.02
_exptl_crystal_size_min          0.012
_refine_diff_density_max         1.712
_refine_diff_density_min         -0.682
_refine_diff_density_rms         0.164
_refine_ls_abs_structure_details
;
 Flack x determined using 532 quotients [(I+)-(I-)]/[(I+)+(I-)]
 (Parsons, Flack and Wagner, Acta Cryst. B69 (2013) 249-259).
;
_refine_ls_abs_structure_Flack   0.00(2)
_refine_ls_extinction_method     none
_refine_ls_goodness_of_fit_ref   1.131
_refine_ls_hydrogen_treatment    constr
_refine_ls_matrix_type           full
_refine_ls_number_parameters     64
_refine_ls_number_reflns         2230
_refine_ls_number_restraints     73
_refine_ls_restrained_S_all      1.142
_refine_ls_R_factor_all          0.1354
_refine_ls_R_factor_gt           0.1092
_refine_ls_shift/su_max          0.000
_refine_ls_shift/su_mean         0.000
_refine_ls_structure_factor_coef Fsqd
_refine_ls_weighting_details
'w=1/[\s^2^(Fo^2^)+(0.1446P)^2^+55.8135P] where P=(Fo^2^+2Fc^2^)/3'
_refine_ls_weighting_scheme      calc
_refine_ls_wR_factor_gt          0.2517
_refine_ls_wR_factor_ref         0.2676
_reflns_Friedel_coverage         0.932
_reflns_Friedel_fraction_full    0.941
_reflns_Friedel_fraction_max     0.941
_reflns_number_gt                1729
_reflns_number_total             2230
_reflns_threshold_expression     'I > 2\s(I)'
_cod_data_source_file            ZnGlyPyr_BenzeneRemoved_150K.cif
_cod_data_source_block           ZnGlyPyr_BenzeneRemoved_150K
_cod_original_cell_volume        7161.3(14)
_cod_original_sg_symbol_H-M      'R 3 c'
_cod_database_code               4135192
_shelx_shelxl_version_number     2014/7
_chemical_oxdiff_formula         'Zn C6 H8 N3 O5'
_shelx_space_group_comment
;
The symmetry employed for this shelxl refinement is uniquely defined
by the following loop, which should always be used as a source of
symmetry information in preference to the above space-group names.
They are only intended as comments.
;
_reflns_odcompleteness_completeness 70.98
_reflns_odcompleteness_iscentric 1
_reflns_odcompleteness_theta     26.32
_olex2_refinement_description
;
1. Fixed Uiso
 At 1.2 times of:
  All C(H) groups, All C(H,H) groups, All N(H) groups
2. Uiso/Uaniso restraints and constraints
Uanis(C6) \\sim Ueq, Uanis(C2) \\sim Ueq, Uanis(N2) \\sim Ueq, Uanis(Zn1) \\sim
Ueq, Uanis(O1) \\sim Ueq, Uanis(N1) \\sim Ueq, Uanis(C1) \\sim Ueq, Uanis(C3)
\\sim Ueq, Uanis(C4) \\sim Ueq, Uanis(O3) \\sim Ueq, Uanis(N3) \\sim Ueq,
Uanis(C5) \\sim Ueq: with sigma of 0.01 and sigma for terminal atoms of 0.02
Uanis(O1) = Uanis(O2) = Uanis(C6)
Uanis(C2) = Uanis(N2) = Uanis(N1) = Uanis(C1) = Uanis(C3)
Uanis(C4) = Uanis(O3) = Uanis(N3) = Uanis(C5)
3.a Secondary CH2 refined with riding coordinates:
 C5(H5A,H5B)
3.b Aromatic/amide H refined with riding coordinates:
 N3(H3), C2(H2), C1(H1)
;
_shelx_res_file
;
    yy_zn_gly_pyr_benzene_heat_5_16_150k.res created by SHELXL-2014/7

TITL YY_Zn_Gly_Pyr_Benzene_Heat_5_16_150K in R3c #161
REM reset to R3c #161
CELL 0.71073 28.53892 28.53892 10.152781 90 90 120
ZERR 18 0.002692 0.002692 0.00057 0 0 0
LATT -3
SYMM -Y,+X-Y,+Z
SYMM +Y-X,-X,+Z
SYMM +Y-X,+Y,0.5+Z
SYMM +X,+X-Y,0.5+Z
SYMM -Y,-X,0.5+Z
SFAC C H N O Zn
UNIT 108 90 54 54 18
ISOR 0.01 0.02 C6 C2 N2 Zn1 O1 N1 C1 C3 C4 O3 N3 C5
EADP O1 O2 C6
EADP C2 N2 N1 C1 C3
EADP C4 O3 N3 C5

L.S. 16
PLAN  20
BOND
fmap 2
acta
REM <olex2.extras>
REM <HklSrc "%.\\YY_Zn_Gly_Pyr_Benzene_Heat_5_16_150K.hkl">
REM </olex2.extras>

WGHT    0.144600   55.813496
FVAR       0.52588
ZN1   5    0.309240   -0.004187    0.165283    11.00000    0.05774    0.05583 =
         0.00618   -0.00014   -0.00132    0.02956
N1    3    0.386733    0.028970    0.220524    11.00000    0.04383    0.04759 =
         0.01496    0.00319    0.00042    0.02196
O2    4    0.281435   -0.080957    0.145575    11.00000    0.05332    0.06539 =
         0.00936   -0.00106    0.00229    0.02542
O3    4    0.543923    0.087634    0.065094    11.00000    0.04901    0.06290 =
         0.01722    0.00225    0.00101    0.02605
N2    3    0.293112    0.029117    0.015143    11.00000    0.04383    0.04759 =
         0.01496    0.00319    0.00042    0.02196
N3    3    0.570602    0.097026    0.274960    11.00000    0.04901    0.06290 =
         0.01722    0.00225    0.00101    0.02605
AFIX  43
H3    2    0.561797    0.095381    0.356541    11.00000   -1.20000
AFIX   0
O1    4    0.263444    0.000325    0.305272    11.00000    0.05332    0.06539 =
         0.00936   -0.00106    0.00229    0.02542
C4    1    0.530537    0.083711    0.183809    11.00000    0.04901    0.06290 =
         0.01722    0.00225    0.00101    0.02605
C2    1    0.273581    0.060950    0.017737    11.00000    0.04383    0.04759 =
         0.01496    0.00319    0.00042    0.02196
AFIX  43
H2    2    0.263881    0.071571    0.094819    11.00000   -1.20000
AFIX   0
C3    1    0.475702    0.064779    0.228335    11.00000    0.04383    0.04759 =
         0.01496    0.00319    0.00042    0.02196
C5    1    0.624134    0.112934    0.247523    11.00000    0.04901    0.06290 =
         0.01722    0.00225    0.00101    0.02605
AFIX  23
H5A   2    0.646727    0.136422    0.317727    11.00000   -1.20000
H5B   2    0.634601    0.133832    0.166655    11.00000   -1.20000
AFIX   0
C1    1    0.429987    0.043649    0.144710    11.00000    0.04383    0.04759 =
         0.01496    0.00319    0.00042    0.02196
AFIX  43
H1    2    0.430099    0.040566    0.053535    11.00000   -1.20000
AFIX   0
C6    1    0.301302   -0.099860    0.066717    11.00000    0.05332    0.06539 =
         0.00936   -0.00106    0.00229    0.02542
HKLF 4

REM  YY_Zn_Gly_Pyr_Benzene_Heat_5_16_150K in R3c #161
REM R1 =  0.1092 for    1729 Fo > 4sig(Fo)  and  0.1354 for all    2230 data
REM     64 parameters refined using     73 restraints

END

WGHT      0.1456     55.3020

REM Highest difference peak  1.712,  deepest hole -0.682,  1-sigma level  0.164
Q1    1   0.3040 -0.0420  0.1616  11.00000  0.05    1.71
Q2    1   0.2719 -0.0020  0.1661  11.00000  0.05    1.66
Q3    1   0.3391 -0.0125  0.1689  11.00000  0.05    1.47
Q4    1   0.3429  0.0385  0.1687  11.00000  0.05    1.45
Q5    1   0.3165  0.0356  0.1700  11.00000  0.05    1.24
Q6    1   0.2436 -0.0888  0.1485  11.00000  0.05    0.48
Q7    1   0.5798  0.1185  0.0720  11.00000  0.05    0.45
Q8    1   0.2569  0.0182  0.0172  11.00000  0.05    0.44
Q9    1   0.5855  0.1364  0.2787  11.00000  0.05    0.43
Q10   1   0.3901  0.0642  0.2005  11.00000  0.05    0.43
Q11   1   0.6353  0.1586  0.2548  11.00000  0.05    0.41
Q12   1   0.5388  0.0510  0.0631  11.00000  0.05    0.41
Q13   1   0.3800 -0.0105  0.2254  11.00000  0.05    0.41
Q14   1   0.5847  0.0609  0.2584  11.00000  0.05    0.40
Q15   1   0.5119  0.0546  0.0728  11.00000  0.05    0.39
Q16   1   0.3117 -0.0870  0.1608  11.00000  0.05    0.39
Q17   1   0.6128  0.1448  0.2758  11.00000  0.05    0.39
Q18   1   0.3172  0.0672  0.0228  11.00000  0.05    0.38
Q19   1   0.3102  0.0712  0.1538  11.00000  0.05    0.38
Q20   1   0.5485  0.1267  0.0582  11.00000  0.05    0.38
;
_shelx_res_checksum              21629
_shelx_hkl_file
;
   0   0  -9-108.551 773.368   3
   0   0  -9-216.425 327.579   4
   0   0  -9 386.218 490.451   1
   0   0  -6 68800.7 2040.98   1
   0   0  -6 67175.6 2567.05   3
   0   0  -6 70209.4 1561.28   4
   0   0  -3 198.145 176.842   4
   0   0  -3 163.522 335.078   3
   0   0  -3-97.1027 248.768   1
   0   0   3-186.433 275.176   1
  -1   0 -10-1.65905 504.623   1
   1  -1 -10-1142.09 835.507   3
  -1   0 -10 1248.47 1004.87   3
   1  -1 -10 68.9601 498.318   1
   0   1 -10 590.501 839.095   3
   0   1 -10-111.252 539.842   1
   0   1  -7-394.126 542.347   3
  -1   0  -7-174.913 247.895   4
  -1   0  -7-611.610 575.467   3
  -1   0  -7 62.6055 377.452   1
   0   1  -7 581.827 527.348   2
   1  -1  -7-35.4007 320.061   1
   0   1  -7-117.959 257.118   4
   1  -1  -7 184.323 341.302   4
   1  -1  -7 248.654 484.146   3
   0   1  -7 20.0878 326.215   1
   1  -1  -4 4245.05 572.837   3
  -1   0  -4 3919.06 483.387   1
  -1   0  -4 3800.28 301.357   4
   0   1  -4 3863.43 336.825   4
   1  -1  -4 4447.86 397.095   4
   1  -1  -4 3816.24 415.674   1
   0   1  -4 3373.05 592.624   3
   0   1  -4 3970.20 443.894   1
  -1   0  -4 3907.85 588.601   3
   1  -1  -1 71.1997 164.575   3
   0   1  -1 10.8071 119.470   1
   1  -1   2 12777.6 610.377   1
   0   1   2 13410.5 663.590   3
  -1   0   2 13819.0 510.070   1
  -1   0   2 13551.4 465.614   4
  -1   0   5 120.800 298.454   1
   0  -1 -11 1068.05 949.445   3
   0  -1 -11 474.340 654.027   1
  -1   1 -11-898.087 960.263   3
  -1   1 -11-644.753 726.801   1
   1   0 -11 648.612 705.246   1
   1   0 -11 1982.68 1175.09   3
   1   0  -8 906.749 692.632   3
  -1   1  -8 1359.77 829.495   3
   0  -1  -8 857.596 332.324   4
  -1   1  -8 768.365 267.016   4
   0  -1  -8-124.931 641.693   3
   1   0  -8 956.057 382.326   4
   0  -1  -8 1027.93 467.307   1
   1   0  -8 840.429 417.377   1
  -1   1  -8 1099.76 514.390   1
   0  -1  -5 291.037 344.803   1
   1   0  -5 526.473 471.995   3
  -1   1  -5-113.425 154.577   4
   1   0  -5-60.0809 242.851   4
  -1   1  -5 1009.10 508.720   3
   0  -1  -5 150.648 315.449   4
   0  -1  -5-22.1556 477.354   3
  -1   1  -5-85.9884 296.267   1
   1   0  -5 43.8303 257.090   1
   1   0  -2 13028.1 474.506   1
   0  -1  -2 11956.0 628.458   3
   1   0  -2 13497.2 458.367   4
  -1   1  -2 12053.1 572.755   1
   1   0  -2 12108.2 663.387   3
   0  -1  -2 12824.3 528.293   1
   1   0  -2 13796.5 619.017   2
   0  -1   1 109.209 123.066   1
  -1   1   1 133.628 150.952   3
   0  -1   4 4929.91 526.855   1
   0   2 -11 789.310 1037.83   3
  -2   0 -11-205.624 640.166   1
  -2   0 -11-939.107 901.228   3
   2  -2 -11 787.723 876.521   3
   0   2 -11-605.386 658.525   1
   2  -2 -11-560.220 485.582   1
   2  -2  -8 3402.35 807.938   3
  -2   0  -8 4495.19 748.543   1
   0   2  -8 4293.86 690.987   1
   2  -2  -8 4329.75 606.391   1
   2  -2  -8 4048.86 638.299   4
   0   2  -8 3824.36 430.182   4
  -2   0  -8 4043.39 428.328   4
  -2   0  -8 6128.16 1058.22   3
   0   2  -8 5716.79 1089.34   3
  -2   0  -8 4013.96 409.601   4
   0   2  -5 53.6154 477.347   3
   2  -2  -5-77.5077 260.859   4
  -2   0  -5-152.478 336.257   1
  -2   0  -5-73.0457 171.296   4
   2  -2  -5-211.434 435.829   3
   0   2  -5 334.156 309.478   1
  -2   0  -5 345.520 459.010   3
   0   2  -5-247.743 233.795   4
   2  -2  -5 208.579 241.332   1
   0   2  -5 421.922 306.190   2
   0   2  -2 26056.2 836.228   1
   0   2  -2 24786.3 722.239   2
  -2   0  -2 24276.9 567.917   4
   0   2  -2 25757.8 600.497   4
   2  -2  -2 25342.9 766.357   4
   2  -2  -2 25962.1 988.198   3
   2  -2   1-2.81527 173.404   1
  -2   0   1 209.224 121.269   1
  -2   0   1-33.8357 179.986   3
  -2   0   1 272.668 175.050   2
  -2   0   1 97.2898 150.381   4
   0   2   1 2.35535 131.578   3
   2  -2   4 5886.96 616.401   1
  -2   0   4 7181.81 564.714   1
  -1  -1  -9 17040.4 1343.25   1
  -2   1  -9 18073.3 1763.36   3
  -1   2  -9 15939.3 1772.01   3
   2  -1  -9 17624.9 1735.44   3
   2  -1  -9 18786.5 1188.28   4
  -1  -1  -9 16181.7 871.073   4
   1  -2  -9 18813.9 1752.73   3
   1   1  -9 17540.8 1295.72   1
  -2   1  -9 18188.1 1458.47   1
  -1   2  -9 18928.5 1454.64   1
  -1  -1  -9 15462.7 901.517   4
   1   1  -9 18722.3 1853.78   3
   1  -2  -9 15475.3 1085.01   4
   2  -1  -9 18187.6 1206.11   1
   1  -2  -9 15567.3 1219.26   1
   1   1  -9 15438.7 908.092   4
  -1  -1  -9 18985.7 1743.08   3
  -1  -1  -6 21025.1 1230.89   1
  -2   1  -6 20231.0 1243.96   1
  -1   2  -6 18515.5 695.564   4
   1  -2  -6 20985.8 1449.78   3
  -2   1  -6 20203.3 1457.26   3
   2  -1  -6 20458.5 1348.25   2
   1   1  -6 21433.7 944.747   4
   1   1  -6 19466.6 1479.60   3
   2  -1  -6 20773.9 1014.27   1
  -1   2  -6 20053.3 1171.78   1
   1  -2  -6 19690.3 953.327   4
  -1  -1  -6 19681.6 1375.01   3
  -1   2  -6 20429.1 1539.38   3
  -1  -1  -6 21124.6 863.801   4
   2  -1  -6 19653.3 1421.04   3
   1   1  -6 21611.9 1297.70   2
   1  -2  -6 19806.8 1058.58   1
  -2   1  -6 18802.8 665.797   4
  -2   1  -6 17251.8 610.539   4
   1   1  -6 20015.7 1086.92   1
  -1   2  -6 20599.2 1221.95   2
   2  -1  -6 20848.9 1008.22   4
   1   1  -3 64365.0 1379.57   1
  -1   2  -3 63552.2 1575.98   1
   1  -2  -3 64617.7 1764.83   3
   1   1  -3 62976.0 1801.37   3
   2  -1  -3 64555.7 1817.88   3
   1   1  -3 69524.9 1599.22   2
   1   1  -3 65196.0 1191.42   4
  -1  -1  -3 62841.8 1675.32   3
   2  -1  -3 64806.4 1306.02   4
   2  -1  -3 63257.6 1148.89   1
  -1  -1  -3 65741.8 1569.19   1
  -2   1  -3 66783.1 1671.28   1
   1  -2  -3 63136.4 1268.59   1
  -1  -1   3 67433.5 1195.56   4
  -1  -1   3 70155.2 1515.00   1
  -2   1   3 69412.9 1291.28   1
  -1   2   3 69324.3 1852.79   3
  -2   1   3 69447.7 1921.80   3
   1  -2   3 70890.2 1710.91   1
  -1  -1   6 21743.1 1233.72   1
   1  -2   6 20818.9 1298.51   1
  -2   2 -10 1246.54 925.723   3
   2   0 -10 1640.66 602.507   1
   0  -2 -10 1552.40 631.376   1
   2   0 -10-36.0012 892.422   3
   0  -2 -10 933.836 417.007   4
   0  -2 -10 927.072 731.487   3
  -2   2 -10 1368.50 679.067   1
   2   0  -7-320.046 312.562   1
   2   0  -7 406.816 388.030   4
   0  -2  -7 123.372 313.847   4
   0  -2  -7-429.077 573.450   3
   0  -2  -7 79.0275 357.731   1
   2   0  -7 1060.79 689.961   3
  -2   2  -7-205.726 425.087   1
  -2   2  -7 508.060 622.925   3
   2   0  -4 5450.47 709.872   3
   0  -2  -4 6144.11 684.142   3
   2   0  -4 7354.16 517.469   1
   0  -2  -4 6440.39 577.652   1
   2   0  -4 6220.14 474.007   4
   2   0  -4 5537.19 600.588   2
  -2   2  -4 5417.73 583.239   1
  -2   2  -1 177.781 185.253   1
   2   0  -1 14.2603 160.991   3
   2   0  -1 56.6216 169.711   2
   2   0  -1 168.201 129.820   1
   2   0  -1 7.92432 166.117   4
   0  -2  -1 95.4556 149.257   3
   0  -2   2 25953.2 848.433   1
  -2   2   2 25539.4 980.200   3
   0  -2   2 23855.6 586.493   4
   0  -2   5 654.434 398.929   1
   3  -3  -9 40.9130 369.826   1
  -3   0  -9-21.6137 483.616   1
   3  -3  -9 483.235 546.890   4
   0   3  -9 179.885 167.978   4
  -3   0  -9 146.500 133.421   4
  -3   0  -9 105.985 124.893   4
   0   3  -9-143.892 694.280   3
   3  -3  -9 1066.26 786.085   3
  -3   0  -9 469.228 673.016   3
   0   3  -9 331.820 524.281   1
   0   3  -6 87802.6 2453.12   1
   3  -3  -6 88655.5 1894.31   1
  -3   0  -6 83950.6 1524.47   4
  -3   0  -6 89743.3 1586.77   4
   3  -3  -6 89275.6 2967.69   3
  -3   0  -6 90830.7 2948.88   3
   0   3  -6 84684.0 3109.10   3
   0   3  -6 86707.3 1698.98   4
  -3   0  -6 91332.3 2766.94   1
   0   3  -6 95278.3 2528.08   2
   3  -3  -6 87935.3 2217.43   4
   3  -3  -3 90.6404 117.294   1
   3  -3  -3-19.6512 444.372   3
   0   3  -3-11.7892 198.035   4
   0   3  -3 295.344 292.950   1
  -3   0  -3 93.1326 180.031   4
   0   3  -3-30.6323 214.156   2
   3  -3  -3-370.051 271.251   4
  -3   0   0 191006. 1945.91   4
  -3   0   0 195026. 2032.62   2
   3  -3   0 188650. 1783.35   1
   0   3   0 190206. 2087.01   2
   0   3   0 189195. 1792.28   1
   0   3   0 192503. 2006.22   4
   0   3   0 192277. 1501.58   3
   3  -3   0 190167. 1668.12   2
   3  -3   0 192301. 1822.54   3
   3  -3   3 98.8250 343.915   1
   0   3   3 402.925 355.895   3
  -3   0   3 34.5414 237.424   4
  -3   0   3-111.945 227.429   1
  -3   0   6 65467.4 1974.86   1
  -2  -1 -10-1470.77 914.874   3
   1   2 -10 469.489 774.358   3
  -2  -1 -10 1140.36 699.964   1
  -3   1 -10-118.202 519.140   1
  -1   3 -10 186.589 601.226   1
   2  -3 -10-40.9380 450.674   1
   3  -2 -10 361.118 826.035   3
  -1   3 -10-755.311 952.485   3
   1   2 -10 567.225 558.641   1
  -3   1 -10 1454.63 1013.17   3
   2  -3 -10 84.9235 722.175   3
   3  -2 -10 530.555 450.870   1
   3  -2  -7 11015.7 780.365   1
  -3   1  -7 11890.6 1083.48   1
   2  -3  -7 11582.7 1194.20   3
  -2  -1  -7 10698.5 675.541   4
   3  -2  -7 12959.7 1294.54   3
  -3   1  -7 8820.16 455.060   4
  -2  -1  -7 11530.9 709.424   4
  -1   3  -7 11681.4 1017.39   1
  -1   3  -7 8777.01 465.341   4
  -3   1  -7 8611.54 431.159   4
  -1   3  -7 10751.6 981.018   2
   1   2  -7 10351.1 1277.70   3
   1   2  -7 10712.1 1009.97   2
   2  -3  -7 9867.91 814.804   1
  -2  -1  -7 12479.7 1108.91   1
  -1   3  -7 9997.31 1268.93   3
  -2  -1  -7 13670.5 1343.83   3
  -3   1  -7 10809.7 1248.93   3
   1   2  -7 13368.3 1022.28   1
   2  -3  -7 11651.9 864.822   4
   3  -2  -7 10867.3 862.080   4
   1   2  -7 10808.4 756.691   4
  -1   3  -4 708.221 327.170   1
   1   2  -4 1230.72 300.595   4
   3  -2  -4 827.214 215.401   1
   3  -2  -4 1080.65 299.084   4
  -3   1  -4 848.041 167.924   4
   2  -3  -4 1542.49 502.599   3
  -2  -1  -4 896.520 232.297   4
  -2  -1  -4 787.691 340.839   1
  -1   3  -4 942.504 281.354   2
  -2  -1  -4 1100.78 451.288   3
  -1   3  -4 743.124 171.180   4
   3  -2  -4 1682.69 468.904   2
   2  -3  -4 808.881 271.142   1
   3  -2  -4 2059.53 514.712   3
  -3   1  -4 1205.82 381.472   1
   1   2  -4 1157.85 332.140   1
   2  -3  -4 1040.82 298.874   4
   1   2  -4 1071.90 347.510   2
  -3   1  -1 8092.83 344.393   4
  -2  -1  -1 8588.16 427.950   4
   1   2  -1 8358.17 439.533   2
   3  -2  -1 8003.60 499.653   2
  -2  -1  -1 7786.90 542.920   2
  -3   1  -1 7047.24 432.611   2
   2  -3  -1 6247.70 448.895   3
  -1   3  -1 8358.88 371.009   4
   1   2  -1 7989.96 436.770   4
   3  -2  -1 8460.85 450.016   4
  -1   3  -1 7903.46 470.691   1
   1   2  -1 8924.84 460.581   1
   3  -2  -1 8040.42 495.634   3
  -2  -1   2 16314.9 666.772   4
   2  -3   2 17571.5 836.547   1
  -3   1   2 17653.1 711.443   4
   1   2   2 17730.4 745.130   3
  -3   1   2 16529.6 484.498   1
  -2  -1   2 17493.9 655.801   1
  -1   3   2 17021.6 794.862   3
  -2  -1   2 17498.3 750.648   2
  -3   1   2 18536.9 869.827   2
  -3   1   2 17496.8 890.569   3
   3  -2   2 15266.5 810.055   1
   2  -3   5 640.669 453.676   1
  -2  -1   5 122.922 332.921   1
  -3   1   5-359.301 305.005   1
   2   1 -11 918.350 698.169   1
   1  -3 -11-381.455 600.749   1
   1  -3 -11-80.2529 792.821   3
   2   1 -11 1381.86 1085.16   3
   3  -1 -11 1696.61 1067.92   3
   3  -1 -11-235.767 492.338   1
  -3   2 -11 905.453 787.308   1
  -1  -2 -11 249.454 963.198   3
  -2   3 -11 629.816 888.563   3
  -3   2 -11-24.8341 878.234   3
  -1  -2 -11-572.572 672.662   1
  -2   3 -11 1078.71 775.623   1
  -1  -2  -8 413.334 401.577   4
   3  -1  -8 344.060 338.368   1
  -1  -2  -8 98.1871 463.558   1
   2   1  -8 476.933 418.354   4
  -3   2  -8-173.028 415.216   1
   2   1  -8 603.356 677.891   3
  -1  -2  -8-425.878 687.742   3
  -1  -2  -8 689.007 358.433   4
   1  -3  -8 164.184 376.937   4
  -2   3  -8 1483.35 897.641   3
  -3   2  -8 667.268 696.268   3
   2   1  -8 515.479 370.942   1
   3  -1  -8 269.162 626.270   3
   1  -3  -8 515.708 584.365   3
  -2   3  -8 329.835 438.039   1
   1  -3  -8 451.743 477.817   1
   3  -1  -8 584.175 452.707   4
  -3   2  -5 241.778 359.053   1
   3  -1  -5-57.0489 348.704   2
  -1  -2  -5 376.322 406.771   3
   2   1  -5-175.779 524.481   3
   2   1  -5-391.766 389.132   2
   3  -1  -5 303.697 291.446   4
   3  -1  -5-133.121 429.981   3
   1  -3  -5 280.406 282.523   4
   1  -3  -5 394.013 418.347   3
  -1  -2  -5 403.676 390.516   1
  -2   3  -5 138.504 391.880   1
   2   1  -5 564.041 320.980   4
   2   1  -5 816.095 330.268   1
   1  -3  -5 285.019 282.634   1
   3  -1  -5 245.050 239.338   1
   3  -1  -2 16250.7 681.625   4
  -3   2  -2 15788.0 668.205   2
   2   1  -2 16109.7 739.085   2
   2   1  -2 14944.1 648.607   4
   2   1  -2 16694.0 827.018   3
   3  -1  -2 16013.4 463.779   1
  -2   3  -2 16899.1 797.304   1
   3  -1  -2 16830.9 849.475   3
   3  -1  -2 17395.1 834.417   2
  -3   2  -2 16691.6 832.338   1
   1  -3  -2 15586.1 751.383   3
  -1  -2  -2 14642.4 683.776   3
   2   1  -2 16153.8 626.675   1
   3  -1   1 8178.87 356.769   4
   3  -1   1 8058.04 480.670   2
   2   1   1 9176.36 451.546   4
  -1  -2   1 8127.94 443.164   1
   1  -3   1 8305.32 359.867   4
  -3   2   1 8615.54 458.282   4
  -2   3   1 7184.36 441.128   3
  -3   2   1 7748.65 510.337   2
  -1  -2   1 8564.05 439.329   4
   2   1   1 8801.95 603.640   2
  -1  -2   1 8383.09 398.851   2
   1  -3   1 8898.91 493.147   1
  -3   2   1 8437.94 501.808   3
   1  -3   4 846.454 361.018   1
   1  -3   4 819.094 168.042   4
  -2   3   4 1571.72 492.213   3
  -3   2   4 992.971 275.522   1
  -1  -2   4 1401.57 271.058   4
  -1  -2   4 1465.65 387.725   1
  -3   2   4 1083.24 464.580   3
  -1  -2   7 9671.13 951.146   1
   1  -3   7 10223.0 1069.35   1
   3   0  -9-1589.00 855.609   3
  -3   3  -9 1321.09 907.784   3
   0  -3  -9 238.920 399.848   4
   0  -3  -9 283.718 457.679   1
  -3   3  -9-603.999 612.283   1
   3   0  -9-35.7965 468.295   4
   0  -3  -9 6.87402 423.225   4
   0  -3  -9-129.235 627.313   3
   3   0  -9 251.617 421.497   1
   0  -3  -6 62898.4 2010.69   1
  -3   3  -6 59928.2 2241.60   1
   0  -3  -6 61777.6 1718.76   4
   3   0  -6 60687.8 1868.56   4
   3   0  -6 60681.2 2552.83   3
   3   0  -6 63541.3 1776.38   1
   0  -3  -6 59772.5 2357.36   3
   3   0  -6 58668.5 2230.37   2
   3   0  -3-11.0524 368.877   3
   3   0  -3-77.4142 245.925   4
  -3   3  -3 205.646 346.308   1
   3   0  -3 435.652 319.677   2
   3   0  -3 72.8641 231.380   1
   0  -3  -3-5.84395 297.893   3
   0  -3   0 180368. 2032.62   2
  -3   3   0 177728. 1720.04   1
   3   0   0 180672. 1985.41   2
   0  -3   0 177760. 1906.00   4
   0  -3   0 179449. 1475.08   3
   3   0   0 181034. 1907.03   4
  -3   3   0 177927. 1774.87   3
  -3   3   0 175544. 1606.55   2
   0  -3   0 177920. 1771.51   1
  -3   3   3-590.770 367.083   3
   0  -3   3 252.958 330.740   1
   0  -3   3 183.232 180.352   4
   0  -3   6 99365.7 2802.94   1
  -4   0 -10 5861.44 1300.26   2
   0   4 -10 2783.02 803.480   1
   0   4 -10 5378.57 1375.69   3
  -4   0 -10 4817.56 1128.48   3
   4  -4 -10 3825.84 1126.06   3
  -4   0 -10 4577.76 1018.65   1
   4  -4 -10 3484.22 609.680   1
   0   4  -7-330.288 414.351   1
  -4   0  -7-199.671 193.745   4
   4  -4  -7 286.002 571.397   3
  -4   0  -7-49.4923 574.912   3
   4  -4  -7 58.6364 399.405   4
   0   4  -7 93.9756 227.727   4
   4  -4  -7 292.928 302.744   1
   0   4  -7 528.387 687.938   3
  -4   0  -7 234.375 597.356   1
  -4   0  -7 49.3611 204.139   4
   0   4  -7-749.703 447.031   2
  -4   0  -4 3699.93 345.990   4
  -4   0  -4 3078.36 570.839   2
   0   4  -4 3964.80 455.196   2
   4  -4  -4 2709.25 243.473   1
   4  -4  -4 4061.25 486.563   4
   4  -4  -4 4172.64 685.145   3
   0   4  -4 3970.35 545.138   1
  -4   0  -4 3797.74 639.080   1
   0   4  -4 3396.02 387.668   4
   4  -4  -1 550.149 260.903   4
   0   4  -1 307.562 248.707   2
  -4   0  -1-182.331 253.185   4
   4  -4  -1 381.999 272.955   2
  -4   0  -1 43.2701 316.891   2
   0   4  -1-368.514 250.166   4
   4  -4  -1-10.1404 254.726   3
   0   4  -1 299.338 285.492   1
   0   4   2 3341.44 420.389   3
  -4   0   2 4184.10 389.233   1
   4  -4   2 3235.75 248.760   4
  -4   0   2 3740.93 449.548   4
   4  -4   2 4184.74 568.251   1
  -4   0   2 3581.63 506.114   3
  -4   0   2 4160.69 512.242   2
  -4   0   5 45.1560 286.666   4
   4  -4   5 578.880 443.656   1
  -4   0   5 173.318 290.766   1
   4  -3 -11 116.615 856.302   3
  -3  -1 -11-147.733 659.597   1
  -4   1 -11 998.819 825.411   3
   1   3 -11 988.742 1005.33   3
  -4   1 -11 181.083 632.805   1
  -4   1 -11 31.5511 963.032   2
  -1   4 -11 1671.63 997.985   3
  -1   4 -11 397.254 706.564   1
   1   3 -11-47.0188 583.280   1
  -3  -1 -11 1316.46 1054.94   2
   3  -4 -11 107.979 870.967   3
  -3  -1 -11 471.243 812.433   3
  -3  -1  -8 3387.53 444.985   4
  -3  -1  -8 5186.72 1023.54   3
   1   3  -8 3772.99 513.580   4
  -4   1  -8 5402.91 930.623   1
   3  -4  -8 3652.15 648.494   4
   3  -4  -8 3630.86 549.314   1
   4  -3  -8 4061.90 531.021   1
   1   3  -8 4074.42 696.666   1
   1   3  -8 1687.95 702.773   3
  -1   4  -8 3591.79 726.302   1
   4  -3  -8 3135.78 657.765   4
  -4   1  -8 3882.87 917.959   3
  -1   4  -8 3855.80 1006.61   3
  -3  -1  -8 4236.60 779.546   1
   4  -3  -8 5082.52 957.996   3
   3  -4  -8 3977.20 919.631   3
  -1   4  -8 3272.44 700.266   2
  -3  -1  -8 3226.32 430.373   4
  -1   4  -5 5497.92 389.329   4
   4  -3  -5 7098.64 883.795   3
  -3  -1  -5 6664.71 778.172   3
  -4   1  -5 5451.44 351.987   4
   4  -3  -5 6111.61 787.050   2
   1   3  -5 6073.11 654.954   1
  -3  -1  -5 6450.50 791.235   1
   3  -4  -5 6172.76 507.493   1
   4  -3  -5 6007.84 440.028   1
  -3  -1  -5 6035.78 497.030   4
   3  -4  -5 6329.15 797.238   3
  -1   4  -5 7638.24 655.700   2
  -1   4  -5 6746.05 696.894   1
  -4   1  -5 5905.88 752.411   1
   1   3  -5 5913.34 654.508   2
   4  -3  -5 5767.50 627.872   4
   3  -4  -5 5534.95 613.148   4
   1   3  -5 5168.44 523.281   4
  -1   4  -2 228.503 204.199   4
  -3  -1  -2 337.778 366.462   2
   4  -3  -2 640.152 350.458   2
  -4   1  -2 533.005 331.931   2
  -4   1  -2 360.959 195.436   4
   4  -3  -2 547.877 269.986   4
   1   3  -2 391.267 243.162   4
  -1   4  -2 306.790 200.115   2
   3  -4  -2 273.173 328.991   3
   4  -3  -2 1099.41 387.130   3
  -3  -1  -2 1040.86 288.922   4
   1   3  -2 443.585 274.020   2
   1   3  -2 499.912 307.041   1
  -1   4  -2 850.635 325.124   1
  -4   1   1 674.055 275.839   3
  -1   4   1 423.534 180.185   1
  -4   1   1 431.209 171.952   1
  -3  -1   1 426.965 237.451   4
   4  -3   1 470.326 175.875   4
  -3  -1   1 341.268 204.215   1
  -4   1   1 305.014 272.832   2
   3  -4   1 544.998 275.132   1
   1   3   1 1372.63 436.248   2
   4  -3   1 542.070 310.957   1
   1   3   1 306.492 262.530   4
   1   3   1 478.948 156.531   3
  -4   1   1 609.671 251.321   4
  -3  -1   1 457.584 249.302   2
  -1   4   1 301.642 208.227   3
   4  -3   1 647.230 201.655   2
   4  -3   1 435.546 231.639   3
   3  -4   4 1169.56 412.515   1
  -3  -1   4 1609.57 380.724   1
  -4   1   4 1693.78 384.001   4
  -1   4   4 1503.43 455.568   3
  -4   1   4 1206.40 296.990   1
  -3  -1   4 797.540 305.911   4
   4  -3   4 1416.28 420.935   1
  -3  -1   7 2190.73 575.638   1
   2  -4  -9 13787.3 1557.92   3
   4  -2  -9 15802.5 1703.80   3
  -2   4  -9 17655.8 1455.61   1
  -4   2  -9 15808.0 1485.77   1
   4  -2  -9 14782.0 1018.69   1
  -2   4  -9 14772.5 1770.77   3
  -2  -2  -9 14478.8 893.661   4
  -2  -2  -9 12749.7 1436.36   3
  -2  -2  -9 16090.5 1438.98   1
   4  -2  -9 11605.6 1123.09   4
   2  -4  -9 10846.2 984.811   4
   2   2  -9 10505.0 844.946   4
  -2  -2  -9 12453.2 851.148   4
   2   2  -9 16400.9 1276.13   1
  -4   2  -9 16889.6 1766.79   3
   2  -4  -9 14029.4 1075.03   1
   2   2  -9 16342.4 1839.09   3
   4  -2  -6 14101.7 765.180   1
  -2  -2  -6 14578.6 1228.08   3
   2  -4  -6 13121.7 1186.29   3
  -4   2  -6 12860.0 1140.69   1
   4  -2  -6 13312.1 1244.87   3
   2  -4  -6 13775.1 867.046   1
  -2   4  -6 12651.2 922.779   2
   2   2  -6 13480.2 852.189   4
   4  -2  -6 12075.6 912.882   4
  -2   4  -6 14304.2 1110.02   1
  -2  -2  -6 14517.7 1135.24   1
   4  -2  -6 14316.7 1231.46   2
   2  -4  -6 12833.1 909.292   4
   2   2  -6 13987.3 1081.97   2
   2   2  -6 14422.9 961.913   1
   2   2  -6 15402.4 1368.86   3
  -2  -2  -6 12998.9 768.189   4
   4  -2  -3 51484.0 1421.20   4
  -4   2  -3 52165.4 1508.49   2
   2  -4  -3 51799.4 1646.53   3
  -4   2  -3 54165.3 1750.55   1
   2   2  -3 53957.0 1499.03   2
   4  -2  -3 50098.5 877.499   1
   2   2  -3 52868.0 1365.66   1
   4  -2  -3 54293.2 1800.25   3
  -2  -2  -3 50174.8 1470.65   3
  -2  -2  -3 53016.4 1268.29   4
   4  -2  -3 57265.8 1775.10   2
  -2   4  -3 51585.1 1119.73   2
  -2   4  -3 52005.3 1605.97   1
   2   2  -3 50115.7 1290.82   4
   2   2   0 38247.8 1086.78   2
   4  -2   0 37682.9 793.711   3
   4  -2   0 36218.8 916.244   4
   4  -2   0 37964.0 929.831   2
  -2  -2   0 37558.6 982.385   4
   2   2   0 32909.6 965.026   4
  -4   2   0 35329.9 898.601   4
   2  -4   0 35321.9 872.328   1
  -4   2   0 36134.2 903.594   2
   2   2   0 35417.0 883.690   1
  -2   4   0 36264.8 865.826   3
  -2   4   0 36571.8 857.201   1
  -4   2   0 37242.4 818.700   3
   2  -4   0 36325.8 872.039   3
  -2  -2   0 37010.0 1055.62   2
  -2  -2   3 58690.4 1490.78   1
  -4   2   3 59201.5 1537.03   4
  -4   2   3 56914.8 1000.50   1
   2  -4   3 59435.4 1782.38   1
  -2   4   3 61746.9 1817.67   3
  -2  -2   3 54564.6 1334.00   4
  -2  -2   3 59868.2 1602.60   2
   2  -4   6 14617.3 1209.26   1
  -2  -2   6 15810.8 1111.19   1
  -1  -3 -10 2250.71 744.178   1
   3   1 -10 1426.19 962.289   3
  -1  -3 -10 2057.00 527.008   4
  -4   3 -10 3199.50 902.878   1
  -1  -3 -10 2274.00 846.898   3
  -3   4 -10 1725.70 980.628   3
   4  -1 -10 1704.20 534.073   1
  -4   3 -10 3536.72 1203.75   3
  -3   4 -10 1406.41 723.206   1
   1  -4 -10 3887.30 1082.23   3
   3   1 -10 3365.67 737.439   1
   1  -4 -10 1621.49 580.442   4
   1  -4 -10 2212.67 652.398   1
   4  -1 -10 322.745 739.064   3
  -1  -3  -7 2096.67 458.185   4
   3   1  -7 2823.97 529.435   1
   1  -4  -7 3342.31 783.320   3
   4  -1  -7 2723.61 904.588   3
  -4   3  -7 2590.72 781.722   3
  -4   3  -7 2975.19 711.746   1
  -3   4  -7 1999.98 585.457   1
   1  -4  -7 1387.09 423.157   4
   4  -1  -7 1939.89 541.270   4
   4  -1  -7 2951.50 503.114   1
   1  -4  -7 2517.91 529.189   1
   3   1  -7 2302.81 801.709   3
  -3   4  -7 2486.98 552.781   2
   3   1  -7 2413.43 560.380   4
  -1  -3  -7 1792.54 602.571   1
  -1  -3  -7 2630.76 670.376   3
   4  -1  -4 269.721 478.054   3
   4  -1  -4 533.275 255.348   1
  -4   3  -4 582.483 414.330   1
   3   1  -4 459.803 301.994   4
   3   1  -4 388.621 342.105   2
   3   1  -4 640.991 316.744   1
   4  -1  -4 778.168 344.927   2
   1  -4  -4 1104.08 451.664   3
   3   1  -4 1343.25 504.532   3
  -1  -3  -4 802.619 412.097   3
   4  -1  -4 914.174 325.947   4
  -3   4  -4 1401.53 442.138   1
   3   1  -1 923.685 294.010   4
  -3   4  -1 107.321 218.998   3
  -4   3  -1 571.062 285.001   1
   4  -1  -1 685.560 267.646   4
  -4   3  -1 610.977 246.623   3
  -1  -3  -1 444.876 161.547   3
   3   1  -1 507.149 271.784   2
  -3   4  -1 363.710 244.227   1
  -4   3  -1 334.710 164.360   2
   1  -4  -1 596.740 200.692   1
   1  -4  -1 632.022 257.852   3
   3   1  -1 684.255 239.083   1
  -4   3  -1 624.221 197.476   4
  -1  -3  -1 621.180 379.336   2
   4  -1  -1 596.626 250.636   3
   4  -1  -1 841.429 331.886   2
  -1  -3  -1 582.487 207.205   1
  -1  -3  -1 1303.40 311.645   4
   3   1  -1 752.588 245.480   3
  -4   3   2 936.347 342.786   3
   4  -1   2 549.341 349.457   2
   4  -1   2 876.690 237.398   4
  -1  -3   2 535.508 279.071   1
  -3   4   2 816.416 353.594   3
   1  -4   2 783.012 323.610   1
   1  -4   2 982.583 208.312   2
   3   1   2 343.230 242.981   4
  -4   3   2 710.505 302.589   4
  -1  -3   2 800.341 257.502   2
   1  -4   2 1146.18 248.058   4
  -1  -3   2 311.082 237.792   4
   1  -4   5 5291.58 345.355   4
  -4   3   5 6416.10 875.571   3
  -1  -3   5 6118.80 469.728   4
   1  -4   5 5382.49 711.934   1
  -1  -3   5 6241.72 714.462   1
  -3   4   5 4528.68 747.412   3
  -1  -3   8 3658.67 768.383   1
  -4   4 -11 1159.70 1028.05   2
   4   0 -11-71.3516 927.909   3
   4   0 -11-181.928 499.609   1
   0  -4 -11 653.551 663.249   1
  -4   4 -11-5.67473 950.137   3
  -4   4 -11-320.578 748.858   1
   0  -4 -11-400.107 831.739   3
  -4   4  -8 13264.6 1184.78   2
   0  -4  -8 11238.4 911.560   4
   4   0  -8 12082.2 1102.82   4
   4   0  -8 14322.5 1040.32   1
  -4   4  -8 12487.2 1259.54   1
   4   0  -8 16316.5 1631.95   3
   0  -4  -8 14251.3 1412.47   3
  -4   4  -8 14094.0 1622.36   3
   0  -4  -8 14438.4 1165.59   1
   4   0  -5 448.956 463.991   3
   0  -4  -5-81.2985 326.894   1
   4   0  -5 88.4734 282.985   1
   0  -4  -5-316.193 450.931   3
   4   0  -5-126.203 403.351   2
  -4   4  -5 773.780 432.952   1
   4   0  -5 118.409 293.336   4
   4   0  -2 5726.50 598.526   3
   0  -4  -2 3549.78 399.976   3
  -4   4  -2 5015.90 584.514   1
   4   0  -2 4815.57 589.859   2
   0  -4  -2 3828.94 358.530   1
   4   0  -2 4389.83 364.840   1
   4   0  -2 4262.26 503.851   4
   4   0   1 262.704 230.519   4
   4   0   1 323.052 317.396   2
   0  -4   1 6.94694 233.562   4
   0  -4   1 286.717 193.259   2
  -4   4   1 27.2294 236.137   3
   0  -4   1-310.717 272.477   1
   0  -4   4 2716.45 325.383   4
  -4   4   4 2590.06 604.687   3
   0  -4   4 2695.09 500.930   1
   0  -4   7 398.455 564.286   1
  -5   0 -11 1918.00 1072.27   2
   5  -5 -11-780.667 889.492   3
   0   5 -11 429.056 670.083   1
  -5   0 -11 167.763 645.462   1
   0   5 -11 592.382 1049.86   3
  -5   0 -11 1234.36 965.681   3
   0   5  -8 2279.68 652.022   1
   5  -5  -8 1862.22 846.798   3
   0   5  -8 1151.49 584.429   2
  -5   0  -8 1545.65 647.563   2
  -5   0  -8 1505.04 623.289   1
  -5   0  -8 1489.36 754.075   3
   5  -5  -8 1686.22 393.856   1
  -5   0  -8 1203.26 248.832   4
   5  -5  -8 1834.51 604.789   4
   0   5  -8 1803.91 829.590   3
  -5   0  -8 1349.35 252.028   4
   0   5  -8 938.216 281.732   4
   5  -5  -5 504.078 341.975   4
  -5   0  -5 47.7176 219.142   4
   5  -5  -5-123.873 124.050   1
  -5   0  -5-458.041 488.000   1
   0   5  -5 307.148 258.640   4
   0   5  -5 199.158 299.042   2
  -5   0  -5-48.1051 333.667   3
   0   5  -5 745.845 460.591   1
   5  -5  -5 697.298 524.261   3
  -5   0  -5-713.674 502.507   2
   0   5  -2 24252.6 842.141   2
   5  -5  -2 27269.6 1225.56   2
  -5   0  -2 25930.6 924.860   4
   5  -5  -2 28738.4 1122.51   4
  -5   0  -2 25770.5 1238.00   2
   0   5  -2 26641.6 1084.75   1
   5  -5  -2 25700.5 1144.77   3
   0   5  -2 25367.8 964.735   4
  -5   0   1 202.802 240.802   3
   5  -5   1 100.070 286.937   1
   0   5   1-24.7445 235.752   1
   5  -5   1 63.8597 153.186   2
  -5   0   1 324.823 315.024   2
   0   5   1 40.0156 199.672   3
   5  -5   1 65.1288 208.866   4
  -5   0   1-106.216 204.843   1
  -5   0   1-149.044 286.493   4
   5  -5   1 247.734 297.741   3
   5  -5   4 13077.5 1071.81   1
  -5   0   4 12473.4 1011.37   2
  -5   0   4 11916.2 710.736   1
  -5   0   4 12412.1 840.631   4
   0   5   4 11250.9 934.040   3
  -5   0   7 692.028 475.443   1
   4  -5  -9 8633.80 751.247   1
  -1   5  -9 11377.5 1233.01   1
  -5   1  -9 7703.43 1298.52   2
   5  -4  -9 7426.07 671.277   1
  -4  -1  -9 10194.0 1376.97   3
   1   4  -9 8016.08 1414.42   3
  -1   5  -9 8651.84 1464.99   3
  -4  -1  -9 7156.10 531.158   4
   1   4  -9 10318.1 1114.19   1
   4  -5  -9 11138.0 1468.01   3
  -4  -1  -9 6423.89 480.295   4
  -5   1  -9 10113.0 1404.92   3
   1   4  -9 6828.66 594.193   4
  -4  -1  -9 8471.19 1136.84   1
  -4  -1  -9 9428.60 1418.01   2
   4  -5  -9 7230.83 1021.08   4
  -5   1  -9 7715.20 1118.32   1
   5  -4  -9 10534.3 1479.02   3
   5  -4  -9 6241.41 971.081   4
  -5   1  -6 11864.6 529.264   4
  -4  -1  -6 13577.1 1178.19   1
  -5   1  -6 15605.1 1289.81   2
   5  -4  -6 13034.6 984.314   4
   1   4  -6 13154.2 1350.83   3
  -1   5  -6 13850.3 1092.40   1
  -5   1  -6 14014.2 1244.81   3
   1   4  -6 13896.1 1050.63   1
   4  -5  -6 14284.8 1267.89   3
   1   4  -6 13804.8 1025.47   2
  -1   5  -6 13008.1 925.505   2
   4  -5  -6 11847.1 952.791   4
  -5   1  -6 14116.2 1217.11   1
   4  -5  -6 12327.1 655.154   1
   1   4  -6 13954.8 832.677   4
   5  -4  -6 13533.6 638.400   1
  -1   5  -6 12077.5 603.780   4
  -4  -1  -6 13808.5 1160.20   3
  -4  -1  -6 14430.2 777.992   4
   5  -4  -6 13728.0 1268.52   3
  -5   1  -3 18519.2 675.450   4
  -4  -1  -3 17805.6 787.318   4
  -1   5  -3 18513.6 755.764   2
   1   4  -3 18007.5 835.950   4
   1   4  -3 18830.9 964.449   1
  -5   1  -3 17273.1 1024.66   2
  -4  -1  -3 17228.6 1120.01   2
   5  -4  -3 19396.3 1149.41   3
  -1   5  -3 18735.9 1024.42   1
  -1   5  -3 18720.8 731.982   4
   5  -4  -3 18894.2 1127.88   2
   4  -5  -3 17848.4 1085.42   3
   5  -4  -3 19970.9 974.886   4
   1   4  -3 17786.4 877.563   2
   4  -5   0 22959.1 836.798   3
  -5   1   0 22104.9 852.484   4
  -1   5   0 22964.2 816.586   1
  -4  -1   0 24337.8 929.318   4
   1   4   0 23734.6 1017.16   2
  -5   1   0 21985.3 914.879   2
  -4  -1   0 21432.6 810.427   1
   5  -4   0 23672.3 812.157   3
   5  -4   0 24789.6 804.034   2
   1   4   0 23089.4 856.849   1
   5  -4   0 23247.3 822.123   4
  -5   1   0 22670.8 665.760   3
   1   4   0 23887.4 933.485   4
   5  -4   0 19956.2 762.165   1
   1   4   0 23169.2 613.177   3
  -1   5   0 23867.0 753.145   3
  -4  -1   0 23109.5 944.308   2
   4  -5   0 22554.0 793.610   1
  -4  -1   3 56775.2 1575.41   4
  -5   1   3 57060.2 1631.56   4
  -5   1   3 57655.9 1187.91   1
  -4  -1   3 58655.5 1743.65   2
  -1   5   3 60818.9 1765.73   3
  -5   1   3 60480.7 1963.01   3
  -4  -1   3 58697.9 1413.12   1
   1   4   3 64360.4 1730.54   3
   4  -5   3 56734.5 1887.21   1
   5  -4   3 59244.2 1897.31   1
  -5   1   3 60866.7 1894.90   2
  -5   1   6 7199.16 674.808   1
   4  -5   6 6235.98 895.215   1
  -4  -1   6 6341.72 647.019   4
  -3  -2 -10 3865.51 966.516   3
  -3  -2 -10 7271.11 1382.43   2
  -2   5 -10 5884.32 1060.16   1
  -5   2 -10 6745.80 1076.55   1
   2   3 -10 7345.28 1418.77   3
  -3  -2 -10 4980.75 941.677   1
  -5   2 -10 3909.02 1118.22   3
   3  -5 -10 4083.05 978.925   3
  -5   2 -10 5177.41 1174.73   2
  -2   5 -10 6866.74 1628.36   3
   5  -3 -10 5817.40 688.677   1
   5  -3 -10 6812.54 1266.50   3
   2   3 -10 5746.86 915.604   1
   3  -5 -10 4200.78 662.930   1
   3  -5  -7 9618.81 749.692   1
   3  -5  -7 9891.18 902.824   4
  -2   5  -7 9870.35 1035.38   1
  -3  -2  -7 10994.0 1166.91   3
  -2   5  -7 9613.91 861.318   2
   2   3  -7 9821.71 1028.38   2
   2   3  -7 10439.4 924.250   1
  -5   2  -7 10856.2 1169.81   2
   3  -5  -7 10764.3 1232.53   3
  -3  -2  -7 10424.6 753.497   4
  -5   2  -7 8017.96 1120.57   3
   2   3  -7 8766.55 782.162   4
   5  -3  -7 9653.25 672.187   1
  -3  -2  -7 9801.29 1074.99   1
  -5   2  -7 12426.4 1219.49   1
   2   3  -7 9578.79 1270.95   3
   5  -3  -7 8926.40 1170.00   3
   5  -3  -7 10039.0 975.009   4
   2   3  -4 853.127 357.081   2
  -3  -2  -4 1376.12 366.549   3
  -5   2  -4 1700.11 520.662   2
   2   3  -4 1059.58 343.924   4
   2   3  -4 1552.29 430.796   1
   5  -3  -4 1009.67 422.072   2
   5  -3  -4 1835.38 448.036   4
  -2   5  -4 1166.99 254.621   2
  -2   5  -4 1143.85 198.789   4
  -5   2  -4 912.895 154.015   4
   5  -3  -4 1596.77 517.881   3
  -3  -2  -4 1630.87 324.570   4
   5  -3  -4 1269.35 214.192   1
  -5   2  -4 1457.25 504.173   1
   3  -5  -4 1036.79 269.626   1
   3  -5  -4 1526.38 488.177   3
  -2   5  -4 2252.49 498.053   1
  -2   5  -1 11232.6 638.166   3
  -3  -2  -1 11708.7 649.253   4
   5  -3  -1 11563.7 657.052   3
   2   3  -1 10654.2 637.646   2
   5  -3  -1 13146.6 725.089   2
  -3  -2  -1 12126.9 857.684   2
  -2   5  -1 9994.38 655.488   1
   2   3  -1 10792.1 637.500   1
  -5   2  -1 12275.2 566.270   4
  -5   2  -1 11214.3 506.312   3
   3  -5  -1 10798.5 644.872   3
   3  -5  -1 11671.1 485.514   1
  -5   2  -1 11245.4 630.504   2
   2   3  -1 11856.8 683.593   4
   5  -3  -1 11437.9 671.067   4
  -3  -2   2 17830.5 864.382   4
  -3  -2   2 17675.6 768.277   1
  -5   2   2 18688.9 537.065   1
   3  -5   2 18904.6 602.907   4
   3  -5   2 18030.4 960.904   1
  -5   2   2 20501.0 1025.00   2
   5  -3   2 18732.3 592.746   4
  -2   5   2 17476.7 865.249   3
  -5   2   2 18566.9 959.209   3
   2   3   2 19736.0 745.796   3
   5  -3   2 19187.7 805.277   2
  -3  -2   2 17492.8 847.394   2
  -5   2   2 18576.3 899.058   4
  -5   2   5 4171.11 449.552   1
  -2   5   5 4252.39 721.254   3
  -3  -2   5 3275.01 463.894   4
   3  -5   5 3867.91 669.336   1
  -3  -2   5 4213.99 581.065   1
  -3  -2   8 9728.24 1070.81   1
  -2  -3 -11 135.512 633.232   1
  -3   5 -11 1619.81 1136.07   3
   2  -5 -11 366.453 794.651   3
  -3   5 -11-494.591 726.039   1
   5  -2 -11 228.998 852.198   3
  -5   3 -11 1104.26 817.157   1
   3   2 -11 875.525 625.930   1
  -5   3 -11 538.468 928.028   3
  -2  -3 -11-29.4190 862.555   2
  -5   3 -11 782.233 908.544   2
   3   2 -11-1106.75 1020.04   3
  -2  -3 -11 313.690 825.911   3
   5  -2  -8 9714.86 1290.32   3
  -5   3  -8 11830.5 1253.63   1
   3   2  -8 8667.79 870.995   1
  -3   5  -8 13355.1 1644.71   3
   3   2  -8 10945.2 1400.07   3
  -3   5  -8 7475.50 851.253   2
   5  -2  -8 8942.14 757.300   1
  -2  -3  -8 7816.71 719.171   4
   2  -5  -8 10248.5 1276.35   3
  -2  -3  -8 10417.4 837.763   4
   2  -5  -8 10039.9 898.280   1
   3   2  -8 9281.17 900.770   4
  -2  -3  -8 10872.7 1223.38   3
  -3   5  -8 10768.3 1182.71   1
   5  -2  -8 7769.85 965.813   4
  -2  -3  -8 10703.8 1152.17   1
  -5   3  -8 10671.3 1371.52   3
   2  -5  -8 7554.63 849.576   4
  -3   5  -5 2576.49 581.520   1
   3   2  -5 3705.21 723.400   3
  -2  -3  -5 2802.66 416.640   4
   5  -2  -5 3575.04 411.407   1
   5  -2  -5 3590.90 634.386   2
   2  -5  -5 3069.71 460.174   1
   5  -2  -5 2917.19 505.854   4
   3   2  -5 2515.78 541.243   2
  -5   3  -5 3593.91 667.885   1
   3   2  -5 2358.84 479.045   4
   5  -2  -5 3680.99 757.244   3
  -3   5  -5 3332.78 435.625   2
   3   2  -5 2762.65 475.615   1
  -5   3  -5 2787.86 581.098   2
   2  -5  -5 3064.85 595.951   3
  -2  -3  -5 3293.54 610.531   3
  -5   3  -2 21185.4 1055.39   1
   5  -2  -2 19221.8 893.488   4
  -2  -3  -2 19632.6 1147.70   2
   5  -2  -2 20391.0 1022.71   2
   3   2  -2 19240.8 795.343   1
  -2  -3  -2 18498.5 842.788   4
   2  -5  -2 19668.8 582.337   1
   2  -5  -2 18887.9 889.668   3
   3   2  -2 17638.3 861.043   4
   3   2  -2 18543.6 940.014   2
   5  -2  -2 18774.5 967.919   3
  -5   3  -2 18309.7 561.664   4
  -3   5  -2 19915.0 973.040   1
  -2  -3  -2 18110.1 707.770   3
  -5   3  -2 18575.6 770.239   2
  -2  -3   1 11144.2 643.707   1
   2  -5   1 12133.3 704.935   1
  -3   5   1 11152.0 666.876   3
  -2  -3   1 11137.0 636.892   2
   3   2   1 12586.0 857.846   2
   5  -2   1 11815.7 648.619   2
   5  -2   1 11796.4 570.167   4
   3   2   1 12390.6 702.804   4
  -5   3   1 12133.8 726.398   2
  -5   3   1 13099.6 698.714   4
  -2  -3   1 12070.6 694.512   4
  -5   3   1 11651.2 687.251   3
  -3   5   1 11744.6 467.813   1
   5  -2   1 12400.8 513.764   3
  -5   3   4 830.538 202.843   1
  -2  -3   4 668.053 326.202   1
   2  -5   4 1019.25 478.225   1
  -3   5   4 1060.97 471.900   3
  -5   3   4 1361.23 530.365   3
  -2  -3   4 885.497 319.042   4
   2  -5   4 721.717 166.626   4
  -2  -3   7 10809.9 1055.66   1
  -1  -4  -9 16251.4 1632.43   3
  -1  -4  -9 13722.9 1020.61   4
   1  -5  -9 15494.8 1254.47   1
   4   1  -9 15931.0 1786.10   3
  -4   5  -9 15715.2 1506.67   1
   5  -1  -9 15551.4 1068.91   1
   4   1  -9 16158.7 1202.36   1
  -5   4  -9 18568.9 1619.09   2
   1  -5  -9 15951.0 1663.10   3
  -5   4  -9 15258.7 1855.28   3
  -4   5  -9 17443.9 1882.36   3
   4   1  -9 13577.7 1145.48   4
   1  -5  -9 10261.1 993.178   4
   5  -1  -9 12619.2 1257.11   4
  -1  -4  -9 11821.6 947.366   4
  -1  -4  -9 16807.3 1446.13   1
   5  -1  -9 14231.8 1684.74   3
  -5   4  -9 15007.8 1514.37   1
  -1  -4  -6 7529.47 914.675   3
  -5   4  -6 6301.60 898.640   1
  -4   5  -6 6847.72 868.154   1
  -1  -4  -6 5333.76 760.637   1
   5  -1  -6 6578.52 598.890   1
   4   1  -6 7416.01 683.136   1
   5  -1  -6 5448.40 720.498   4
   1  -5  -6 6789.53 911.863   3
   4   1  -6 7208.49 1048.07   3
   5  -1  -6 7238.07 918.559   2
   5  -1  -6 5824.81 892.993   3
   4   1  -6 6065.98 742.665   4
   4   1  -6 5889.53 819.580   2
   1  -5  -6 5930.14 709.597   1
   5  -1  -3 55241.4 1772.76   2
   4   1  -3 52928.6 1842.56   3
   5  -1  -3 56550.1 1905.16   3
  -5   4  -3 53758.9 1819.71   1
   4   1  -3 50941.1 1691.17   2
   4   1  -3 50636.1 1528.74   4
  -5   4  -3 49729.2 1301.89   2
  -4   5  -3 51835.6 1762.87   1
  -1  -4  -3 49524.5 1507.33   3
  -1  -4  -3 50009.1 1461.22   4
   5  -1  -3 53328.6 1114.83   1
   4   1  -3 53345.8 1333.18   1
   5  -1  -3 48846.3 1513.04   4
   1  -5  -3 54070.4 1663.78   3
   1  -5   0 20371.3 729.119   3
  -5   4   0 20391.4 762.764   1
   5  -1   0 20665.3 831.141   4
  -1  -4   0 19641.5 859.682   4
  -1  -4   0 19452.5 585.383   3
  -5   4   0 20084.9 770.108   4
   1  -5   0 18330.1 850.747   2
   1  -5   0 20610.6 797.991   1
   5  -1   0 19237.3 858.361   2
  -5   4   0 20631.3 785.720   3
   5  -1   0 21452.6 612.475   3
  -4   5   0 20942.9 754.740   1
  -1  -4   0 20674.7 936.512   2
  -5   4   0 18167.4 717.193   2
  -4   5   0 17038.8 732.139   3
   4   1   0 18830.4 896.433   2
   1  -5   0 20312.1 853.599   4
  -1  -4   0 19592.3 784.247   1
   4   1   0 20412.7 873.639   4
   5  -1   3 20452.8 708.558   4
  -1  -4   3 20531.4 884.693   2
   1  -5   3 18597.6 715.373   4
   1  -5   3 20426.9 1082.72   1
  -1  -4   3 17025.7 803.110   4
  -5   4   3 19309.4 1159.03   3
  -1  -4   3 21626.3 1051.31   1
  -4   5   3 19001.5 1115.24   3
   4   1   3 19354.6 810.239   4
  -1  -4   6 16334.2 1234.29   1
   1  -5   6 12982.4 1151.75   1
  -1  -4   6 13996.6 727.068   4
   0  -5 -10 7317.82 1338.00   3
   0  -5 -10 8270.23 1052.79   1
  -5   5 -10 9184.88 1308.62   1
  -5   5 -10 10888.4 1411.07   2
  -5   5 -10 10863.2 1708.08   3
   5   0 -10 10335.8 1570.30   3
   0  -5 -10 7353.61 875.553   4
   5   0 -10 8536.77 924.727   1
   5   0  -7-412.494 444.838   4
  -5   5  -7-249.930 454.611   1
   0  -5  -7-48.4433 391.855   1
   5   0  -7-96.8318 405.158   1
   5   0  -7 781.336 623.706   3
   0  -5  -7-338.775 516.179   3
  -5   5  -4 9825.41 670.747   2
   5   0  -4 10260.5 908.266   2
  -5   5  -4 10427.9 915.854   1
   5   0  -4 11034.3 1012.94   3
   5   0  -4 8901.09 746.886   4
   0  -5  -4 9625.01 836.368   3
   5   0  -4 11035.0 655.462   1
   5   0  -1 28.0607 302.199   2
   0  -5  -1 456.046 335.967   4
  -5   5  -1-262.165 308.915   1
   0  -5  -1 80.0758 230.134   1
   0  -5  -1-3.18441 197.242   3
  -5   5  -1 101.263 155.905   2
   5   0  -1-221.484 239.415   1
   5   0  -1 37.6742 233.119   3
   0  -5  -1 339.106 367.761   2
   5   0  -1-239.948 297.991   4
  -5   5  -1-174.254 249.340   3
   0  -5   2 27153.5 1132.87   1
  -5   5   2 26611.5 1178.98   3
   5   0   2 26049.2 1258.36   2
   0  -5   2 25265.4 943.506   4
   5   0   2 27756.1 972.297   4
   0  -5   2 24957.9 805.759   2
   0  -5   5 446.237 241.595   4
  -5   5   5 1017.11 532.120   3
   0  -5   5 553.443 436.432   1
   0   6  -9-166.790 149.389   4
   0   6  -9 1384.60 938.863   3
  -6   0  -9-63.0551 709.379   2
  -6   0  -9 437.222 588.253   1
   6  -6  -9 194.739 773.407   3
   0   6  -9 107.966 596.491   1
  -6   0  -9 337.021 653.622   3
   6  -6  -9 514.578 276.376   1
   0   6  -6 24427.5 1453.39   1
  -6   0  -6 25436.0 1649.51   1
  -6   0  -6 25461.7 989.582   4
   6  -6  -6 24964.6 1722.36   3
   6  -6  -6 21492.3 1360.90   4
   0   6  -6 23032.0 1270.88   2
   0   6  -6 24157.0 1051.15   4
  -6   0  -6 24058.8 1504.18   3
  -6   0  -6 24200.9 1672.01   2
   6  -6  -3 696.982 457.541   2
   6  -6  -3-950.500 485.608   3
   6  -6  -3 286.896 298.738   4
  -6   0  -3 255.559 270.321   4
   0   6  -3 230.550 269.061   4
   0   6  -3 321.599 315.649   2
   0   6  -3 334.066 345.608   1
  -6   0  -3 399.624 448.817   2
  -6   0   0 14450.3 832.065   4
   6  -6   0 15524.9 795.016   3
  -6   0   0 13407.7 531.979   3
   0   6   0 15138.8 861.047   4
   6  -6   0 14509.5 751.081   4
   6  -6   0 14153.2 752.380   1
   0   6   0 12560.6 747.555   1
   6  -6   0 14715.8 705.959   2
   0   6   0 13404.7 873.938   2
   0   6   0 14219.3 639.359   3
  -6   0   0 14275.4 871.063   2
   6  -6   3 125.343 393.655   1
   0   6   3 627.484 336.230   3
   6  -6   3 63.1256 152.714   4
  -6   0   3 253.207 272.625   1
  -6   0   3 230.305 390.046   2
  -6   0   3-275.453 351.296   3
  -6   0   3 475.591 344.710   4
  -6   0   6 19320.9 1165.86   4
  -6   0   6 20593.5 1131.17   1
   5  -6 -10 378.675 326.984   1
  -6   1 -10 1790.33 968.128   2
  -1   6 -10 261.765 626.267   1
   5  -6 -10 944.005 807.908   3
  -5  -1 -10 934.996 804.592   3
   6  -5 -10 1567.81 1056.74   3
   1   5 -10 12.5500 568.080   1
  -1   6 -10 1201.14 1037.20   3
  -5  -1 -10 606.282 753.662   2
  -6   1 -10-750.930 800.499   3
  -6   1 -10 347.409 627.889   1
   6  -5 -10 338.375 316.651   1
   1   5 -10-687.804 1046.41   3
  -5  -1 -10 446.249 637.582   1
  -5  -1  -7 9398.97 684.771   4
   6  -5  -7 8558.54 511.664   1
   5  -6  -7 7602.79 494.477   1
  -1   6  -7 10197.3 1061.91   1
   6  -5  -7 7905.54 928.284   4
   6  -5  -7 9945.34 1272.74   3
   1   5  -7 8500.29 918.648   2
   1   5  -7 9266.47 1339.41   3
   1   5  -7 9589.29 987.028   1
  -1   6  -7 6983.66 483.219   4
  -5  -1  -7 9808.75 1109.54   3
  -5  -1  -7 8703.40 1199.47   2
  -1   6  -7 7891.27 824.592   2
  -6   1  -7 7977.04 1073.51   1
  -5  -1  -7 9425.07 1101.82   1
   5  -6  -7 9152.73 937.978   4
  -6   1  -7 8660.66 1116.05   3
  -6   1  -7 6268.16 386.697   4
   5  -6  -7 10536.5 1275.34   3
  -6   1  -7 9632.18 1163.79   2
   1   5  -7 9992.08 774.831   4
  -1   6  -4 1325.38 338.796   2
   6  -5  -4 2225.56 606.595   3
   1   5  -4 822.980 311.035   4
  -5  -1  -4 1036.68 350.919   3
  -5  -1  -4 1012.28 304.697   4
   6  -5  -4 2324.08 496.047   4
  -6   1  -4 1545.01 485.280   2
  -6   1  -4 1310.67 270.938   4
   1   5  -4 1448.51 395.454   2
   6  -5  -4 1360.97 490.789   2
  -1   6  -4 1505.11 316.325   4
   1   5  -4 1705.50 440.573   1
  -6   1  -4 2202.94 591.996   1
  -5  -1  -4 803.360 491.594   2
   5  -6  -4 1578.64 440.272   4
  -1   6  -4 1377.97 468.774   1
   5  -6  -4 987.095 498.178   3
   1   5  -1 34454.4 1189.36   2
   6  -5  -1 34154.8 1189.48   3
  -6   1  -1 34658.7 1309.00   2
   6  -5  -1 35478.6 1237.48   2
  -1   6  -1 33215.5 1085.00   3
  -6   1  -1 34034.7 767.404   3
   5  -6  -1 32979.5 858.112   1
  -1   6  -1 33551.3 1183.77   1
  -1   6  -1 35805.5 1147.47   4
   5  -6  -1 34204.3 1177.02   3
  -5  -1  -1 32593.0 1382.57   2
   6  -5  -1 34948.7 1193.08   4
  -5  -1  -1 32718.1 1167.02   4
   1   5  -1 37122.8 1204.32   1
   1   5  -1 33695.7 1195.27   4
  -6   1  -1 33340.9 1072.18   4
  -1   6  -1 34447.3 1041.75   2
   5  -6   2 2551.31 487.515   1
  -6   1   2 2415.03 458.360   4
  -6   1   2 1992.95 459.260   2
  -5  -1   2 1992.41 417.705   4
   6  -5   2 2311.98 492.816   1
  -5  -1   2 3292.94 416.578   1
  -6   1   2 1577.48 418.498   3
  -1   6   2 2699.11 344.717   1
   6  -5   2 2560.05 330.427   2
  -1   6   2 2239.12 410.102   3
   6  -5   2 2358.27 294.057   4
  -6   1   2 2492.87 331.310   1
   1   5   2 2430.77 349.609   3
   5  -6   5 4861.05 801.285   1
  -1   6   5 5426.44 838.981   3
  -6   1   5 6235.30 572.910   1
  -5  -1   5 6141.13 637.181   1
  -5  -1   5 6304.57 666.262   4
  -6   1   5 6494.97 701.942   4
  -6   1   8 801.813 489.781   1
  -5  -1   8 1569.03 597.321   1
  -4  -2 -11 371.847 844.662   3
   4  -6 -11 2148.41 1019.29   3
  -2   6 -11 2609.04 1344.02   3
  -6   2 -11 2243.10 1005.75   2
  -6   2 -11 1296.41 798.852   1
   6  -4 -11 2418.31 1217.73   3
  -2   6 -11 1694.67 864.311   1
   2   4 -11 1040.64 773.830   1
   2   4 -11 1648.06 1119.01   3
  -4  -2 -11 1575.81 838.943   1
  -4  -2 -11 1918.48 1083.16   2
  -6   2 -11 175.338 1022.24   3
  -6   2  -8 836.388 625.282   1
  -6   2  -8 260.977 566.339   3
   4  -6  -8 462.920 337.361   1
   2   4  -8 883.776 570.769   1
  -2   6  -8 86.0608 421.714   2
   6  -4  -8 751.158 695.178   3
  -2   6  -8 1829.29 914.138   3
  -6   2  -8 1232.21 694.222   2
  -4  -2  -8 170.882 578.995   3
   2   4  -8 782.279 433.604   4
   4  -6  -8 186.647 592.579   3
  -4  -2  -8 146.552 700.273   2
   6  -4  -8 506.784 323.265   1
  -4  -2  -8 16.0111 270.919   4
  -4  -2  -8 1091.87 619.408   1
  -2   6  -8 1745.49 666.451   1
  -4  -2  -8 708.904 369.234   4
   6  -4  -8 199.524 509.590   4
   4  -6  -8 361.077 518.080   4
   2   4  -8 630.329 700.158   3
  -2   6  -5 6892.32 574.718   2
   6  -4  -5 8044.94 985.628   3
   2   4  -5 7511.76 811.115   2
  -6   2  -5 7259.78 864.023   2
  -4  -2  -5 7699.28 632.575   4
  -6   2  -5 8421.66 948.825   1
  -6   2  -5 5821.70 348.974   4
  -4  -2  -5 7065.52 767.424   3
  -2   6  -5 5943.30 397.303   4
   4  -6  -5 7492.99 946.690   3
   6  -4  -5 7198.80 746.692   4
   6  -4  -5 8021.11 943.409   2
   4  -6  -5 6367.73 468.421   1
  -2   6  -5 6925.34 776.204   1
   2   4  -5 7508.36 756.979   1
  -4  -2  -5 7593.45 1024.99   2
   6  -4  -5 6695.83 371.723   1
   4  -6  -5 7239.20 735.318   4
   2   4  -5 7010.30 655.949   4
  -2   6  -2 12297.2 475.106   2
  -4  -2  -2 12639.7 557.118   3
   6  -4  -2 12893.7 864.507   3
   2   4  -2 12901.0 800.173   4
  -6   2  -2 14013.0 838.903   2
   2   4  -2 14686.4 814.945   1
   2   4  -2 13334.9 787.218   2
  -2   6  -2 13559.2 862.333   1
   4  -6  -2 13993.8 877.755   3
   6  -4  -2 13977.2 812.131   4
  -6   2  -2 13263.9 621.560   4
  -4  -2  -2 14288.6 1035.68   2
   6  -4  -2 14226.2 894.424   2
  -4  -2  -2 13573.2 753.598   4
   4  -6  -2 12981.4 455.835   1
   6  -4   1 2155.35 315.531   4
  -4  -2   1 2295.14 361.003   1
   4  -6   1 1791.27 373.000   1
   2   4   1 1878.38 355.921   1
  -4  -2   1 2096.95 411.942   4
   4  -6   1 2243.63 410.021   3
  -4  -2   1 2311.42 418.030   2
   2   4   1 2354.42 237.501   3
   2   4   1 2701.98 541.729   2
  -6   2   1 2432.03 429.142   2
  -6   2   1 2967.10 446.069   4
   6  -4   1 2442.65 381.406   3
   2   4   1 2055.88 400.507   4
   6  -4   1 2094.54 320.049   2
  -2   6   1 2054.36 303.565   1
  -6   2   1 2273.75 359.494   3
  -2   6   1 1756.25 324.929   3
  -6   2   4 4252.42 397.726   1
  -6   2   4 4822.36 773.645   3
   4  -6   4 3205.37 631.816   1
  -4  -2   4 2832.80 450.431   1
  -2   6   4 4436.64 646.661   3
  -6   2   4 4208.83 583.561   4
  -4  -2   4 3497.27 484.155   4
  -4  -2   4 3407.81 601.039   2
  -4  -2   7 14333.9 1154.41   1
  -6   2   7 13802.5 903.366   1
   3  -6  -9 1186.29 903.649   3
   3   3  -9 1301.07 602.861   1
   6  -3  -9-969.007 709.281   3
  -3   6  -9 398.487 613.527   1
  -6   3  -9 1504.79 875.519   2
   3  -6  -9 832.774 597.902   4
   3  -6  -9 1084.35 449.064   1
  -3   6  -9 1636.20 987.466   3
   3   3  -9 625.061 475.812   4
  -3  -3  -9 712.183 660.021   3
  -6   3  -9-272.700 749.917   3
   3   3  -9 1081.69 849.550   3
   6  -3  -9-42.0250 642.965   4
  -6   3  -9-571.149 617.256   1
   6  -3  -9-23.0891 390.382   1
  -3  -3  -9 358.588 361.109   4
  -3  -3  -9 1128.35 472.989   4
  -3  -3  -9-110.595 512.162   1
   3   3  -6 15066.7 1456.86   3
  -3   6  -6 16531.8 949.857   2
  -6   3  -6 19364.0 1462.03   1
   3  -6  -6 16786.1 902.299   1
  -3  -3  -6 18452.5 1325.68   3
   3   3  -6 18350.7 1117.42   1
   3   3  -6 16806.1 1244.94   2
   6  -3  -6 16868.5 1159.36   4
   3  -6  -6 18003.3 1165.87   4
   3  -6  -6 19307.8 1503.46   3
   3   3  -6 16062.0 1084.01   4
  -3  -3  -6 16505.8 1279.22   1
   6  -3  -6 18248.9 774.495   1
   6  -3  -6 19239.2 1505.64   3
  -3   6  -6 16760.7 1270.21   1
  -3  -3  -6 19612.0 1030.43   4
  -6   3  -6 16926.5 1281.42   2
   6  -3  -3 2765.73 419.378   4
  -3  -3  -3 1922.85 353.010   3
  -3  -3  -3 2277.47 410.657   4
  -6   3  -3 2248.66 528.535   1
   3  -6  -3 2698.01 253.500   1
  -3   6  -3 2076.78 221.939   2
   3   3  -3 2773.13 441.077   4
   6  -3  -3 4085.74 632.433   3
   6  -3  -3 2258.83 209.185   1
   3   3  -3 3226.93 540.256   2
   3  -6  -3 2452.35 500.904   3
  -3   6  -3 3105.67 517.673   1
  -6   3  -3 2678.80 265.598   4
  -6   3  -3 1620.95 443.024   2
   6  -3  -3 2380.11 520.758   2
   3   3  -3 2939.89 460.367   1
  -3  -3  -3 2743.48 646.332   2
  -3   6   0 118264. 1910.36   3
   6  -3   0 116501. 1728.37   3
  -3  -3   0 117682. 2175.31   4
   6  -3   0 117218. 2029.77   2
   3   3   0 119929. 2346.17   2
  -3   6   0 116788. 1881.90   1
   6  -3   0 121216. 2029.10   4
   3  -6   0 115377. 1916.25   3
   3   3   0 116930. 1971.79   1
  -6   3   0 115031. 1789.37   3
   3   3   0 106005. 2051.44   4
  -6   3   0 117259. 1987.67   2
  -3  -3   0 123788. 2296.54   2
  -6   3   0 115507. 1932.15   4
   3  -6   0 113208. 1884.28   1
  -6   3   3 3202.86 572.120   3
  -3  -3   3 2660.07 446.435   2
   6  -3   3 2957.65 285.203   4
  -6   3   3 2254.66 220.927   1
  -3   6   3 2995.63 524.687   3
  -3  -3   3 2804.09 472.126   1
  -6   3   3 2590.94 481.907   4
   3  -6   3 2773.57 302.230   4
   3  -6   3 3513.17 556.309   1
  -3  -3   3 2249.15 408.998   4
   3  -6   6 18502.5 1436.00   1
  -3  -3   6 19413.9 1007.32   4
  -3  -3   6 20381.6 1287.97   1
  -2  -4 -10 2435.42 897.047   3
  -6   4 -10 664.467 922.913   3
   4   2 -10-381.343 852.715   3
   6  -2 -10 933.172 471.696   1
   6  -2 -10 1507.10 777.496   3
  -4   6 -10 870.143 667.558   1
   2  -6 -10 296.591 456.924   1
   2  -6 -10 1511.50 860.773   3
  -6   4 -10 1204.12 845.724   1
  -2  -4 -10 764.922 451.854   4
  -4   6 -10 2380.85 1066.95   3
  -2  -4 -10 1931.02 785.056   1
  -6   4 -10 628.593 810.418   2
   4   2 -10 1997.11 650.647   1
  -4   6  -7 12459.0 1173.30   1
   4   2  -7 12962.5 1423.64   3
   6  -2  -7 10231.4 1314.01   3
   6  -2  -7 11887.0 777.823   1
   2  -6  -7 10762.9 889.538   1
   2  -6  -7 13145.7 1353.73   3
   4   2  -7 13582.3 1049.51   1
  -4   6  -7 10773.3 872.623   2
  -2  -4  -7 11251.1 1111.04   1
  -6   4  -7 11356.3 1213.95   1
   4   2  -7 11428.0 1010.27   4
  -2  -4  -7 11593.2 883.651   4
   2  -6  -7 10037.6 950.923   4
  -2  -4  -7 12916.0 1253.74   3
  -6   4  -7 12140.1 1184.13   2
   6  -2  -7 11697.1 1089.50   4
   4   2  -4 3829.95 533.190   1
   4   2  -4 4279.91 719.899   3
  -4   6  -4 3022.71 554.831   1
  -6   4  -4 4304.84 547.466   2
  -4   6  -4 3498.74 348.308   2
  -2  -4  -4 3595.82 527.365   3
   6  -2  -4 3464.93 517.971   4
  -2  -4  -4 3966.50 514.028   4
   6  -2  -4 3389.10 634.249   2
   6  -2  -4 3454.92 361.361   1
   4   2  -4 3381.63 478.905   4
   2  -6  -4 2795.13 555.308   3
   6  -2  -4 3835.32 668.153   3
   4   2  -4 3719.01 590.621   2
  -6   4  -4 3173.93 602.718   1
  -6   4  -1 2913.86 359.456   4
   2  -6  -1 2200.20 349.107   3
   4   2  -1 1991.99 421.836   2
  -6   4  -1 2518.80 362.689   3
  -2  -4  -1 2794.57 423.472   4
   6  -2  -1 2889.70 411.547   3
   4   2  -1 2584.59 361.584   3
  -2  -4  -1 2662.23 244.635   3
   6  -2  -1 2678.82 430.937   4
   4   2  -1 2627.85 427.016   4
  -4   6  -1 2939.60 455.040   1
   6  -2  -1 2562.48 441.462   2
  -2  -4  -1 2541.86 361.490   1
  -6   4  -1 2369.66 347.469   2
  -4   6  -1 2197.99 370.746   3
  -2  -4  -1 2514.24 554.066   2
  -6   4  -1 1982.62 419.673   1
   4   2  -1 3260.98 394.391   1
   2  -6  -1 2525.28 354.823   1
   4   2   2 14634.0 783.873   4
   2  -6   2 14099.5 871.915   1
  -4   6   2 16035.7 919.518   3
  -6   4   2 14494.6 888.290   3
  -2  -4   2 14622.5 799.571   1
  -6   4   2 13881.6 859.686   4
   4   2   2 17018.6 1096.53   2
   2  -6   2 13090.5 434.136   2
   6  -2   2 15749.4 908.991   2
  -4   6   2 14802.5 459.505   1
   2  -6   2 13876.4 661.125   4
  -2  -4   2 14523.0 761.713   2
   6  -2   2 14915.1 682.452   4
  -2  -4   2 13976.1 795.234   4
  -6   4   2 14658.7 950.537   2
   2  -6   5 7693.64 901.129   1
  -6   4   5 8287.09 1011.81   3
  -4   6   5 6182.04 893.657   3
  -2  -4   5 7769.73 626.583   4
  -2  -4   5 8564.71 840.558   1
   5   1 -11 835.814 629.985   1
  -5   6 -11 2390.38 1269.61   3
  -5   6 -11 944.981 876.509   2
  -1  -5 -11 2264.52 938.917   3
  -6   5 -11 2242.79 1216.69   3
   1  -6 -11 3321.99 1095.39   3
  -6   5 -11 1217.00 771.515   1
  -5   6 -11 1756.44 890.921   1
   5   1 -11 1514.51 999.651   3
   6  -1 -11 1024.96 1026.87   3
  -1  -5 -11 680.140 630.809   1
  -6   5 -11 1357.39 995.757   2
  -5   6  -8 1374.31 633.463   1
  -5   6  -8 1252.92 474.228   2
   6  -1  -8 507.521 529.022   4
   5   1  -8 562.295 447.404   1
  -1  -5  -8 1316.23 607.031   1
  -6   5  -8 2597.34 786.456   1
   5   1  -8 1945.61 836.751   3
  -1  -5  -8 931.335 448.878   4
   6  -1  -8 1365.12 473.402   1
   1  -6  -8 558.984 524.361   4
  -6   5  -8 1193.03 627.630   2
   6  -1  -8 1587.33 690.358   3
   1  -6  -8 906.044 675.227   3
  -1  -5  -8 1002.84 662.101   3
   1  -6  -8 1174.23 503.747   1
   5   1  -8 913.961 546.474   4
   6  -1  -5 7729.49 600.430   1
   6  -1  -5 6354.67 899.842   3
  -5   6  -5 6273.63 821.940   1
   5   1  -5 5553.08 705.622   4
   1  -6  -5 6056.67 797.909   3
   6  -1  -5 6398.38 751.090   4
   5   1  -5 5599.99 814.194   2
  -6   5  -5 6013.38 819.822   1
   5   1  -5 6480.83 632.771   1
  -1  -5  -5 6585.12 692.796   4
  -6   5  -5 5777.60 649.436   2
   5   1  -5 6013.06 898.214   3
   6  -1  -5 6727.87 827.643   2
  -1  -5  -5 6600.15 799.500   3
  -1  -5  -2 1545.30 407.580   4
   5   1  -2 2146.42 428.764   4
  -6   5  -2 2047.36 454.571   1
  -5   6  -2 1635.03 396.707   3
  -6   5  -2 1523.76 367.132   3
   6  -1  -2 1703.33 433.507   2
   6  -1  -2 1943.01 428.484   3
  -1  -5  -2 1713.08 327.003   1
  -6   5  -2 2059.61 273.877   2
   5   1  -2 1976.06 340.555   1
  -5   6  -2 1996.26 460.344   1
   5   1  -2 1813.51 424.565   3
   1  -6  -2 1762.58 281.466   1
  -1  -5  -2 1120.20 511.137   2
   6  -1  -2 1805.66 304.327   1
   6  -1  -2 1157.99 375.675   4
  -1  -5  -2 1847.22 308.154   3
   1  -6  -2 2103.05 393.116   3
   5   1   1 35483.8 1240.30   4
   5   1   1 36696.2 1435.48   2
  -6   5   1 34817.9 1264.65   2
  -6   5   1 33889.6 882.185   1
  -1  -5   1 34629.0 1191.09   4
  -5   6   1 34690.7 863.659   1
  -1  -5   1 34435.3 1219.90   1
   1  -6   1 35469.4 996.977   2
   6  -1   1 34719.9 772.023   3
  -6   5   1 37686.0 1272.25   3
  -1  -5   1 34665.1 1105.08   2
   6  -1   1 34100.5 1284.85   2
   6  -1   1 36077.0 1152.42   4
   1  -6   1 33722.2 1201.11   1
   1  -6   1 35771.4 1152.60   4
  -5   6   1 36095.4 1246.97   3
   1  -6   4 897.534 275.909   4
   6  -1   4 1321.19 299.128   4
  -1  -5   4 1122.86 387.073   2
  -5   6   4 979.426 451.765   3
  -1  -5   4 1116.77 340.248   4
   1  -6   4 1462.76 453.878   1
  -6   5   4 1277.10 473.485   3
  -1  -5   4 1474.29 437.400   1
  -1  -5   7 7483.29 989.737   1
  -1  -5   7 8953.33 626.425   4
   0  -6  -9 137.496 425.844   4
  -6   6  -9-1094.09 683.618   2
   0  -6  -9 1491.30 762.694   3
   0  -6  -9 127.355 488.354   4
   6   0  -9-92.3396 620.443   4
  -6   6  -9-93.4251 803.308   3
  -6   6  -9-670.111 613.526   1
   0  -6  -9 153.448 518.676   1
   6   0  -9 556.667 472.656   1
   6   0  -9 630.809 677.749   3
  -6   6  -6 14733.3 1031.94   2
   6   0  -6 16647.2 966.177   1
  -6   6  -6 17444.3 1407.66   1
   6   0  -6 15492.5 1201.79   4
   0  -6  -6 16807.1 1323.53   3
   6   0  -6 15341.6 1382.81   3
   0  -6  -3-61.7874 216.037   1
   6   0  -3 710.709 353.440   4
   0  -6  -3 597.315 362.661   3
  -6   6  -3 196.987 196.940   2
   6   0  -3 302.674 372.011   2
  -6   6  -3-146.893 388.557   1
   6   0  -3-90.0326 257.268   1
   6   0  -3 715.120 474.741   3
   6   0   0 10033.8 768.882   2
   6   0   0 11133.9 465.258   3
   0  -6   0 10857.9 693.013   1
   6   0   0 10929.0 769.626   4
  -6   6   0 8437.46 582.948   2
   0  -6   0 9997.95 767.365   2
  -6   6   0 11103.5 677.993   1
   0  -6   0 10259.1 586.665   3
   0  -6   0 10914.6 753.092   4
  -6   6   0 11329.9 693.041   3
   0  -6   3-229.966 338.409   1
   0  -6   3 190.787 220.983   2
   0  -6   3 203.602 269.916   4
  -6   6   3-77.3414 361.478   3
   6   0   3 535.114 278.883   4
   6   0   3 117.451 412.534   2
   0  -6   6 23284.1 1544.82   1
   0  -6   6 21561.3 875.197   4
   7  -7 -10 9084.69 1522.88   3
   0   7 -10 6118.41 1103.26   1
   0   7 -10 7485.64 1606.93   3
  -7   0 -10 8360.63 1254.96   1
  -7   0 -10 6773.40 1332.25   3
  -7   0 -10 6764.24 1383.21   2
  -7   0  -7-489.703 518.241   1
  -7   0  -7-296.526 556.983   2
   7  -7  -7-65.9310 478.090   4
   0   7  -7-208.031 477.487   1
  -7   0  -7 327.789 438.707   3
  -7   0  -7-53.4774 233.871   4
   7  -7  -7 332.947 573.799   3
   0   7  -7-444.058 495.096   2
   0   7  -7 374.171 327.462   4
   7  -7  -4 4786.15 765.247   2
  -7   0  -4 4311.00 496.569   4
   0   7  -4 4465.55 559.897   2
   0   7  -4 4665.81 567.619   4
   7  -7  -4 4467.46 759.801   3
   0   7  -4 4789.48 665.296   1
   7  -7  -4 4365.76 642.107   4
  -7   0  -4 5024.05 782.802   2
  -7   0  -1-139.035 391.874   2
   0   7  -1 19.9020 265.562   3
   7  -7  -1 164.985 313.324   3
  -7   0  -1 31.7104 160.583   3
   0   7  -1 499.636 348.710   2
   0   7  -1 235.575 330.040   4
  -7   0  -1 410.804 300.813   4
   7  -7  -1 33.4613 282.584   2
   7  -7  -1 27.5058 241.539   1
   0   7  -1-470.698 354.535   1
   7  -7  -1 14.3980 322.215   4
  -7   0   2 14526.9 956.320   4
  -7   0   2 13222.4 904.472   3
   7  -7   2 14823.0 692.639   4
   0   7   2 15938.0 831.987   1
  -7   0   2 14277.3 750.975   1
   7  -7   2 13658.5 1008.02   1
   0   7   2 13761.4 774.692   3
   7  -7   2 12239.0 506.141   2
  -7   0   2 15797.0 1013.37   2
  -7   0   5 257.675 321.072   1
  -7   0   5-52.6899 416.836   2
   0   7   5-529.623 463.882   3
   7  -7   5-566.364 492.031   1
  -7   0   5 270.922 368.221   4
  -7   0   8 10097.4 985.557   1
   7  -6  -8 1590.58 748.772   3
  -6  -1  -8 1189.75 683.247   2
  -1   7  -8 1200.89 554.828   2
  -1   7  -8 1587.05 650.293   1
  -6  -1  -8 1625.95 372.754   4
  -7   1  -8 875.232 704.051   2
  -7   1  -8 3147.86 898.656   3
   1   6  -8 3154.34 1022.53   3
   1   6  -8 1703.57 588.558   1
  -6  -1  -8 1569.71 668.812   1
   6  -7  -8 982.445 212.851   1
   7  -6  -8 994.216 207.182   1
   6  -7  -8 2479.98 846.615   3
  -7   1  -8 1829.01 680.273   1
   1   6  -8 1368.70 586.971   2
   1   6  -8 1284.93 416.986   4
  -6  -1  -8 2421.02 845.092   3
   1   6  -5 856.975 377.671   4
  -6  -1  -5 267.488 490.162   2
  -7   1  -5 652.394 431.885   2
  -1   7  -5 1491.37 368.620   4
   7  -6  -5 442.452 484.579   3
  -7   1  -5 634.219 273.655   4
   1   6  -5 1156.21 461.463   2
  -7   1  -5 1379.46 586.515   1
   6  -7  -5 783.211 474.742   3
  -1   7  -5 1263.85 490.712   1
   7  -6  -5-144.249 350.932   4
   6  -7  -5 1643.01 507.058   4
  -6  -1  -5 635.390 404.289   3
   1   6  -5 583.936 486.935   1
  -1   7  -5 582.772 341.381   2
  -6  -1  -5 1049.38 361.252   4
  -6  -1  -2 3254.54 479.817   4
   1   6  -2 2381.52 464.727   1
   6  -7  -2 3825.64 567.111   3
  -1   7  -2 2836.13 400.869   2
   7  -6  -2 3443.02 497.193   4
  -1   7  -2 3392.58 449.760   4
  -1   7  -2 2560.95 476.052   1
  -7   1  -2 3672.18 625.326   2
  -7   1  -2 2390.07 395.237   4
   7  -6  -2 4123.17 621.147   2
  -7   1  -2 3146.25 323.051   3
   6  -7  -2 3636.90 284.823   1
   1   6  -2 3261.82 475.585   2
  -6  -1  -2 3205.80 608.799   2
   7  -6  -2 3107.88 510.840   3
   1   6  -2 4153.06 543.862   4
  -7   1   1 1613.61 368.594   3
  -7   1   1 1116.43 376.657   4
  -6  -1   1 1562.39 324.099   1
  -7   1   1 1572.74 307.611   1
   7  -6   1 1235.80 316.488   4
   7  -6   1 1846.86 390.290   3
   1   6   1 768.419 409.465   4
   1   6   1 1600.88 364.405   1
  -1   7   1 1499.57 331.157   3
  -6  -1   1 1476.01 427.336   2
  -7   1   1 1425.70 435.243   2
   6  -7   1 1692.52 460.549   1
  -6  -1   1 2008.62 422.586   4
  -1   7   1 1928.28 367.479   1
   7  -6   1 1465.74 298.616   2
   1   6   1 1855.17 505.540   2
   6  -7   1 1240.20 231.445   2
   6  -7   1 1517.82 372.505   3
  -6  -1   1 885.355 290.525   3
   1   6   1 1309.04 279.676   3
   7  -6   1 809.951 344.258   1
   1   6   4 5064.44 675.699   3
  -6  -1   4 4256.53 600.329   4
   7  -6   4 4202.44 697.926   1
   6  -7   4 4819.54 766.653   1
  -7   1   4 3495.59 582.299   4
  -6  -1   4 3489.59 476.347   1
  -7   1   4 3621.15 421.395   1
  -7   1   4 4975.23 781.072   3
  -7   1   4 5531.84 751.033   2
  -6  -1   4 4849.87 667.935   2
  -1   7   4 4376.82 655.361   3
  -6  -1   7 3789.42 668.743   1
  -7   1   7 4159.40 622.482   1
  -6  -1   7 3243.58 591.582   4
  -5  -2  -9 2735.25 808.080   1
  -7   2  -9 2743.08 817.555   1
   5  -7  -9 2657.96 920.340   3
  -7   2  -9 2910.64 923.585   3
  -5  -2  -9 2658.84 872.231   3
   7  -5  -9 2478.53 929.099   3
   2   5  -9 5265.52 1268.87   3
  -5  -2  -9 2309.87 877.633   2
  -5  -2  -9 1033.19 324.219   4
   7  -5  -9 2042.93 331.922   1
  -5  -2  -9 906.978 330.731   4
  -2   7  -9 2849.26 1086.97   3
  -2   7  -9 3494.73 879.073   1
   2   5  -9 1828.56 496.396   4
  -7   2  -9 1648.07 798.405   2
   2   5  -9 1505.13 621.309   1
   5  -7  -9 1486.43 330.067   1
  -5  -2  -6 3102.86 611.164   3
   2   5  -6 4027.53 656.356   1
   5  -7  -6 2712.41 632.274   4
  -7   2  -6 2865.60 825.084   1
   7  -5  -6 2291.65 214.212   1
   5  -7  -6 1853.51 228.821   1
   5  -7  -6 2288.54 675.738   3
  -5  -2  -6 2345.45 754.112   2
   5  -7  -6 1612.64 251.824   1
   7  -5  -6 2018.48 519.140   4
   2   5  -6 3171.76 663.744   2
   2   5  -6 2733.00 827.031   3
  -7   2  -6 3606.99 783.587   2
  -5  -2  -6 3517.42 708.845   1
  -2   7  -6 2325.11 612.999   1
  -5  -2  -6 2562.88 455.715   4
  -2   7  -6 2267.75 456.475   2
  -7   2  -6 2367.85 261.799   4
   2   5  -6 3203.21 544.050   4
   7  -5  -6 3074.73 778.555   3
  -5  -2  -3 36032.1 1741.93   2
   5  -7  -3 33261.6 1497.72   3
  -2   7  -3 33402.3 908.825   2
   2   5  -3 33626.9 1294.73   4
  -7   2  -3 35285.7 1487.09   2
   2   5  -3 34125.4 1394.28   2
  -7   2  -3 33948.7 1028.41   4
   7  -5  -3 34509.3 1388.51   4
   2   5  -3 35160.8 1386.79   1
  -5  -2  -3 29670.7 1039.13   3
  -5  -2  -3 35095.7 1271.26   4
   7  -5  -3 35154.4 1584.35   2
   7  -5  -3 33616.9 1529.29   3
  -2   7  -3 30101.6 1380.51   1
   7  -5   0 21171.2 904.597   3
   5  -7   0 21211.3 942.859   3
  -7   2   0 21411.5 1036.06   2
  -7   2   0 22365.7 998.799   4
  -2   7   0 21554.5 953.866   1
  -5  -2   0 22206.1 1110.82   2
   2   5   0 22817.9 1183.57   2
   2   5   0 22508.6 969.685   1
  -5  -2   0 22086.6 1056.52   4
  -2   7   0 22254.4 869.046   3
  -7   2   0 21166.2 797.954   3
   5  -7   0 20836.4 904.555   1
   2   5   0 23126.3 1083.67   4
   7  -5   0 21693.4 978.546   4
   2   5   0 21734.4 659.327   3
   7  -5   0 22674.5 940.847   2
  -5  -2   0 21492.9 934.141   1
  -5  -2   3 39966.4 1339.61   1
   5  -7   3 38783.7 1680.49   1
  -7   2   3 40201.3 1010.67   1
   2   5   3 39633.5 1352.19   3
  -2   7   3 39693.5 1520.43   3
  -7   2   3 41562.7 1735.49   3
  -5  -2   3 40033.7 1520.83   2
  -7   2   3 39869.4 1688.12   2
   7  -5   3 40130.1 946.412   4
  -7   2   3 40545.2 1559.18   4
  -5  -2   3 36796.7 1442.97   4
   7  -5   3 42102.8 1335.52   2
  -5  -2   6 4069.15 657.714   1
  -5  -2   6 4361.78 599.799   4
  -7   2   6 4159.24 500.544   1
  -7   2   6 5247.37 704.682   4
  -4  -3 -10 819.172 737.408   3
  -3   7 -10 1652.77 1133.82   3
  -7   3 -10 2673.00 1056.09   2
  -4  -3 -10 988.710 944.463   2
  -7   3 -10 1427.62 869.580   3
   7  -4 -10 428.080 312.195   1
  -3   7 -10 18.1561 699.513   1
   3   4 -10 653.712 603.565   1
   4  -7 -10 1157.82 402.613   1
  -4  -3 -10 707.122 394.468   4
   3   4 -10 1041.92 1060.39   3
   7  -4 -10 2483.82 1104.54   3
  -4  -3 -10 1566.58 730.763   1
  -7   3 -10 2369.15 902.834   1
   4  -7 -10 1474.96 888.463   3
   4  -7  -7 50.0538 612.950   3
  -3   7  -7 443.937 350.894   2
  -4  -3  -7 584.133 534.673   3
   4  -7  -7 229.260 263.050   1
   3   4  -7 487.081 400.411   4
  -4  -3  -7 214.692 491.851   1
  -7   3  -7 633.646 659.762   1
   3   4  -7 453.576 452.694   2
  -4  -3  -7 256.751 308.528   4
   7  -4  -7 665.178 612.759   3
  -4  -3  -7 302.845 638.415   2
   3   4  -7 152.060 421.938   1
   3   4  -7-578.707 579.974   3
   4  -7  -7 738.404 484.271   4
  -3   7  -7 521.754 457.013   1
  -7   3  -7 663.587 625.486   2
   7  -4  -7 396.510 509.132   4
   7  -4  -7 282.794 234.743   1
  -7   3  -4 5304.85 781.169   1
  -3   7  -4 5719.20 736.811   1
  -7   3  -4 5243.87 364.804   4
   7  -4  -4 5473.86 795.468   3
  -4  -3  -4 4640.74 529.367   4
   4  -7  -4 4551.17 319.124   1
  -3   7  -4 4971.61 408.760   2
  -4  -3  -4 5865.47 628.976   3
   3   4  -4 4823.15 575.578   4
   3   4  -4 5291.24 672.342   2
   7  -4  -4 5884.92 664.161   4
   4  -7  -4 5722.63 773.196   3
   3   4  -4 5939.67 687.879   1
  -7   3  -4 5335.38 712.881   2
   7  -4  -4 5832.77 779.168   2
  -4  -3  -4 6022.45 912.328   2
   3   4  -1 5338.69 614.876   2
  -7   3  -1 5356.11 538.750   2
  -7   3  -1 5826.58 443.316   3
  -7   3  -1 5929.13 505.501   4
   7  -4  -1 6040.99 629.582   2
   4  -7  -1 6043.62 473.042   1
   7  -4  -1 4942.51 568.957   4
  -4  -3  -1 6159.40 545.073   1
  -3   7  -1 6401.93 537.466   3
  -4  -3  -1 7495.56 795.083   2
   3   4  -1 5612.35 594.218   4
   7  -4  -1 6653.69 581.883   3
  -3   7  -1 6030.62 600.633   1
   4  -7  -1 5927.16 557.605   3
  -4  -3  -1 6133.80 621.597   4
   3   4  -1 5837.71 553.387   1
   3   4   2 5501.37 580.991   4
   7  -4   2 5396.60 525.702   2
   4  -7   2 4749.03 603.273   1
  -7   3   2 4622.37 337.093   1
  -4  -3   2 5915.35 546.556   1
   3   4   2 5594.95 813.631   2
  -7   3   2 5650.19 662.258   2
  -7   3   2 5586.50 659.043   3
  -4  -3   2 5553.11 597.249   4
  -4  -3   2 5169.86 594.957   2
  -7   3   2 5648.09 623.053   4
   3   4   2 5454.06 405.310   3
  -3   7   2 6454.79 620.883   3
  -3   7   2 5794.13 414.763   1
   7  -4   2 5391.92 447.491   4
  -7   3   5 3413.24 611.297   4
  -3   7   5 2882.01 669.047   3
  -4  -3   5 4263.35 663.345   2
  -4  -3   5 2014.23 442.285   4
  -7   3   5 2659.94 344.431   1
   4  -7   5 2475.92 647.684   1
  -4  -3   5 2310.84 477.545   1
  -4  -3   8 4376.38 837.664   1
  -4   7 -11 1007.72 1144.89   3
  -4   7 -11 409.953 745.672   1
  -3  -4 -11 797.889 962.963   3
  -7   4 -11 2125.73 959.226   1
  -7   4 -11 339.224 844.887   2
   3  -7 -11 3154.93 1147.70   3
   7  -3 -11 1908.47 1016.70   3
   3  -7 -11 1665.37 699.125   4
  -3  -4 -11 1770.30 1190.78   2
   4   3 -11 1221.35 1104.38   3
  -3  -4 -11 1031.04 756.698   1
   4   3 -11 1115.67 659.376   1
  -7   4 -11 2188.88 1143.15   3
  -3  -4  -8 6284.87 1183.54   2
  -4   7  -8 5417.22 951.765   1
   3  -7  -8 7168.23 1130.75   3
  -7   4  -8 4655.18 855.947   2
  -3  -4  -8 4620.66 636.000   4
   7  -3  -8 5102.03 1085.57   3
  -3  -4  -8 4020.55 826.740   3
  -7   4  -8 4285.15 951.811   1
   4   3  -8 4929.91 759.289   1
   3  -7  -8 4502.80 638.672   1
  -4   7  -8 3266.68 583.242   2
   7  -3  -8 5567.56 550.075   1
   4   3  -8 4833.20 800.830   4
   3  -7  -8 4407.90 814.658   4
   4   3  -8 5864.86 1105.62   3
  -3  -4  -8 4476.09 876.173   1
   7  -3  -8 4998.02 885.487   4
   7  -3  -5 2671.16 309.681   1
  -4   7  -5 2244.97 541.791   1
   4   3  -5 2516.99 602.094   2
  -3  -4  -5 3347.36 530.993   4
  -4   7  -5 2625.55 347.147   2
   3  -7  -5 2691.50 624.468   3
  -7   4  -5 2843.25 641.555   1
   4   3  -5 2374.91 527.517   4
   4   3  -5 2442.95 512.792   1
  -3  -4  -5 2979.36 810.455   2
   3  -7  -5 2684.93 317.935   1
  -7   4  -5 3590.03 617.947   2
  -3  -4  -5 2694.88 529.048   3
   4   3  -5 2850.80 686.104   3
   7  -3  -5 1302.21 538.491   2
   7  -3  -5 2388.08 508.830   4
   7  -3  -5 3075.30 721.089   3
   3  -7  -2 3832.49 505.010   3
   4   3  -2 1914.22 461.576   2
   4   3  -2 3608.33 511.602   4
  -3  -4  -2 4006.27 352.308   3
  -7   4  -2 3363.46 575.119   1
   3  -7  -2 3900.47 365.243   1
  -7   4  -2 4229.24 453.727   2
  -3  -4  -2 3376.92 504.100   4
  -4   7  -2 4113.86 561.410   1
   7  -3  -2 3702.72 537.013   2
  -4   7  -2 3410.08 487.554   3
  -3  -4  -2 3659.08 701.821   2
  -7   4  -2 3599.63 362.509   4
   4   3  -2 4049.55 482.431   1
   7  -3  -2 3294.81 513.310   3
   7  -3  -2 3651.46 526.054   4
  -7   4  -2 3889.08 461.546   3
   3  -7   1 6920.85 486.522   2
   7  -3   1 5968.55 552.929   2
   7  -3   1 7209.11 490.749   3
  -3  -4   1 5690.85 553.114   1
  -3  -4   1 6773.66 623.019   2
  -7   4   1 6670.14 647.394   2
   3  -7   1 5691.14 581.871   1
  -4   7   1 7661.50 640.330   3
  -7   4   1 5692.04 560.265   3
   4   3   1 7759.25 660.003   4
  -7   4   1 6203.13 600.340   4
  -4   7   1 7876.80 488.082   1
   7  -3   1 6637.94 553.744   4
  -3  -4   1 6232.89 600.188   4
   3  -7   1 7112.13 592.613   3
   4   3   1 6877.74 774.427   2
  -4   7   4 5603.17 781.855   3
   3  -7   4 6329.10 792.605   1
   3  -7   4 5176.22 385.502   4
  -3  -4   4 6084.18 622.486   4
  -7   4   4 4035.24 268.428   1
  -3  -4   4 5382.25 632.793   2
  -7   4   4 5648.54 681.694   4
  -3  -4   4 5933.76 663.050   1
  -7   4   4 6525.73 867.101   3
   7  -3   4 4796.57 357.979   4
  -3  -4   7-8.30619 473.902   1
  -3  -4   7 157.697 360.323   4
  -2  -5  -9 9822.04 1178.86   1
   2  -7  -9 10147.0 1387.08   3
   5   2  -9 7883.57 1061.61   4
  -2  -5  -9 10538.6 970.582   4
  -7   5  -9 11813.9 1678.49   3
   2  -7  -9 9363.86 966.536   1
   5   2  -9 10090.7 1532.14   3
   5   2  -9 10018.2 1033.12   1
   7  -2  -9 10056.1 812.669   1
  -7   5  -9 9218.22 1178.66   2
  -2  -5  -9 9754.89 1325.92   3
  -7   5  -9 9464.87 1306.00   1
  -5   7  -9 8595.45 1184.82   1
  -2  -5  -9 6039.69 752.544   4
   7  -2  -9 12373.8 1617.38   3
  -5   7  -9 5691.99 816.570   2
  -2  -5  -6 3424.80 562.646   4
  -5   7  -6 3467.27 464.939   2
   5   2  -6 4223.08 878.727   3
  -2  -5  -6 3952.53 720.805   3
   7  -2  -6 4134.77 466.115   1
   5   2  -6 3821.80 679.752   4
   2  -7  -6 3579.76 760.498   3
   7  -2  -6 3201.00 767.085   3
   2  -7  -6 3638.81 531.411   1
  -5   7  -6 3885.01 758.121   1
   5   2  -6 3408.01 755.110   2
  -7   5  -6 4337.93 821.441   1
   7  -2  -6 3192.88 669.455   4
   5   2  -6 4093.46 617.282   1
  -7   5  -6 3906.68 658.676   2
  -7   5  -3 37214.0 1187.04   2
   7  -2  -3 36918.0 1466.82   4
  -2  -5  -3 36853.2 1245.47   3
   7  -2  -3 37282.4 964.537   1
   5   2  -3 38288.4 1621.25   2
  -7   5  -3 39974.8 1748.87   1
   5   2  -3 38255.1 1614.81   3
  -5   7  -3 37848.3 1588.52   1
   5   2  -3 37012.9 1271.13   1
  -2  -5  -3 37341.3 1413.42   4
   2  -7  -3 36335.7 1460.03   3
   7  -2  -3 35873.5 1583.67   2
   7  -2  -3 38505.4 1680.25   3
   5   2  -3 35637.4 1404.95   4
  -2  -5  -3 38219.8 1887.89   2
   2  -7  -3 36923.9 1023.31   1
  -2  -5   0 21092.3 1046.54   4
   5   2   0 21974.1 1073.01   4
   2  -7   0 20374.6 1025.12   2
  -7   5   0 21061.3 918.563   2
   2  -7   0 19628.1 916.386   1
  -2  -5   0 23237.3 1150.32   2
   7  -2   0 21257.5 1039.02   2
   5   2   0 20923.0 1110.31   2
   7  -2   0 22582.8 1020.62   4
   7  -2   0 21723.8 765.178   3
  -7   5   0 19655.0 905.473   1
  -2  -5   0 20907.0 929.241   1
  -7   5   0 20400.2 915.508   4
  -5   7   0 21602.4 939.617   3
   2  -7   0 22149.5 877.807   3
  -7   5   0 22317.6 933.695   3
   5   2   0 17876.2 518.409   3
  -5   7   0 20204.4 871.874   1
   2  -7   3 34113.4 1079.54   4
   7  -2   3 35977.6 1562.72   2
  -2  -5   3 34365.7 1237.39   2
  -2  -5   3 38545.8 1478.36   1
   5   2   3 36539.5 1296.89   4
   2  -7   3 31904.2 837.854   2
   7  -2   3 36124.5 1092.93   4
  -7   5   3 35944.7 1645.76   3
  -2  -5   3 32761.1 1242.53   4
   2  -7   3 39229.2 1617.43   1
  -5   7   3 36012.1 1582.09   3
   2  -7   6 2122.09 257.381   4
   2  -7   6 2963.23 773.017   1
  -2  -5   6 3443.25 492.608   4
  -2  -5   6 3651.49 696.251   1
   7  -1 -10 514.787 443.652   1
  -7   6 -10-359.826 780.155   2
  -6   7 -10 1058.18 776.796   2
  -7   6 -10-527.894 881.416   3
  -1  -6 -10 1448.35 838.771   3
  -6   7 -10 1242.71 786.234   1
   6   1 -10 1133.06 616.176   1
  -7   6 -10 2058.75 815.681   1
   1  -7 -10 1531.85 689.233   1
  -1  -6 -10 67.7184 505.407   4
   7  -1 -10-168.737 814.097   3
   1  -7 -10 349.824 778.603   3
  -1  -6 -10 778.009 681.557   1
  -6   7 -10 1479.36 1027.77   3
   1  -7 -10 1255.94 641.977   4
   6   1 -10 134.522 852.460   3
   7  -1  -7 3126.51 852.246   3
   1  -7  -7 2932.67 781.580   3
  -7   6  -7 3986.46 880.673   1
   7  -1  -7 4131.97 824.906   4
  -6   7  -7 3436.04 663.315   2
  -6   7  -7 3837.30 826.416   1
  -1  -6  -7 2946.19 717.213   3
  -7   6  -7 4490.39 725.804   2
   6   1  -7 4776.33 1013.24   3
   1  -7  -7 4610.23 686.637   1
   7  -1  -7 4071.83 541.086   1
  -6   7  -7 3461.07 558.311   2
   6   1  -7 2901.96 705.237   4
   6   1  -7 4286.54 637.099   1
  -1  -6  -7 3596.10 631.321   4
  -1  -6  -7 3716.08 688.854   1
  -6   7  -4 3952.76 671.315   1
   1  -7  -4 3821.40 634.305   3
   7  -1  -4 3843.18 422.936   1
  -6   7  -4 2848.70 346.521   2
   7  -1  -4 4172.34 638.855   4
   7  -1  -4 4598.41 708.905   3
   1  -7  -4 4620.95 457.164   1
  -1  -6  -4 3552.78 542.533   4
   6   1  -4 4318.29 611.455   4
   6   1  -4 4664.69 525.137   1
  -7   6  -4 3540.15 485.288   2
   7  -1  -4 3879.70 654.600   2
   6   1  -4 4514.53 678.817   2
  -7   6  -4 4691.12 713.513   1
   6   1  -4 4247.06 732.289   3
  -1  -6  -4 4565.65 605.717   3
   6   1  -1 1520.30 340.275   3
   6   1  -1 2130.97 439.691   4
   7  -1  -1 2633.86 396.634   3
   1  -7  -1 1097.37 474.238   2
  -1  -6  -1 1742.25 573.359   2
  -7   6  -1 1893.11 382.098   3
  -7   6  -1 1902.22 437.308   1
  -7   6  -1 1469.76 279.159   2
   6   1  -1 1952.71 457.295   2
  -6   7  -1 1936.40 379.843   3
   1  -7  -1 1206.83 313.624   3
  -1  -6  -1 1583.75 267.680   3
  -6   7  -1 1364.35 405.528   1
   7  -1  -1 1785.41 459.027   2
  -1  -6  -1 1578.28 347.327   1
   7  -1  -1 2200.83 453.122   4
   6   1  -1 1428.89 326.954   1
   1  -7  -1 1999.06 366.088   1
  -1  -6  -1 1446.32 437.675   4
  -1  -6   2 3744.55 514.613   4
  -7   6   2 3539.18 562.508   3
  -1  -6   2 3498.61 480.115   2
  -6   7   2 2934.12 514.723   3
  -6   7   2 3165.21 264.477   1
   7  -1   2 2426.80 514.931   2
   1  -7   2 3479.84 469.362   4
   6   1   2 3613.87 614.174   2
  -7   6   2 2995.60 264.009   1
  -1  -6   2 4325.81 553.602   1
   1  -7   2 3564.65 375.034   2
   1  -7   2 3803.81 555.516   1
   7  -1   2 3768.04 495.379   4
   6   1   2 3616.24 509.900   4
  -1  -6   5 1243.42 534.099   1
   1  -7   5 362.113 450.028   1
  -1  -6   5 692.510 329.741   4
   1  -7   5 623.360 288.320   4
   7   0  -8 11932.5 944.887   1
   7   0  -8 9316.67 1364.44   3
  -7   7  -8 9329.05 1043.64   2
   0  -7  -8 10736.6 1318.07   3
  -7   7  -8 10041.1 1257.97   1
   0  -7  -8 10343.1 1044.22   4
   7   0  -8 6023.35 993.337   4
   0  -7  -8 11630.1 1143.31   1
  -7   7  -8 7325.45 831.281   2
   7   0  -5-441.648 495.447   3
  -7   7  -5-369.374 431.660   1
  -7   7  -5 149.709 312.743   2
   7   0  -5 412.608 435.703   4
   7   0  -5 318.443 335.704   1
   7   0  -5 234.039 444.886   2
   0  -7  -5 549.629 407.338   3
   7   0  -2 13187.1 951.580   4
   0  -7  -2 14526.2 1187.03   2
   0  -7  -2 13958.7 760.851   1
  -7   7  -2 13592.5 979.522   1
  -7   7  -2 11608.7 452.628   2
   0  -7  -2 13902.4 941.184   4
   7   0  -2 13768.0 744.965   1
  -7   7  -2 14735.9 881.046   3
   7   0  -2 13919.0 1030.24   2
   7   0  -2 13881.3 895.906   3
   0  -7  -2 14532.1 781.869   3
  -7   7   1-286.739 224.505   1
   0  -7   1 21.6321 295.643   2
  -7   7   1-142.783 307.928   3
   7   0   1-381.496 396.762   2
   7   0   1 96.9014 317.396   4
   7   0   1 118.828 132.922   3
   0  -7   1 308.231 334.731   4
   0  -7   1 376.382 371.284   1
   0  -7   4 3732.06 460.611   4
   0  -7   4 2736.17 562.185   1
  -7   7   4 4587.69 748.786   3
   7   0   4 3850.93 477.405   4
   0  -7   4 3726.29 468.851   2
   0  -7   7-51.0021 243.265   4
  -8   0  -8 5289.33 973.580   3
   0   8  -8 4057.88 520.940   4
   0   8  -8 5358.31 912.396   1
  -8   0  -8 5078.27 475.801   4
   8  -8  -8 6678.04 1157.93   3
   0   8  -8 4760.19 808.364   2
  -8   0  -8 5585.50 1057.76   2
  -8   0  -8 7482.29 1153.87   1
   0   8  -5 138.893 338.559   4
  -8   0  -5 386.918 572.911   2
   8  -8  -5-334.132 468.784   3
   0   8  -5 821.940 422.578   2
  -8   0  -5 125.456 305.146   4
   0   8  -5 186.347 387.733   1
   8  -8  -5 35.2926 381.027   4
   8  -8  -2 28050.4 1330.32   4
  -8   0  -2 25995.9 741.889   3
   0   8  -2 25002.2 1168.47   2
   0   8  -2 28329.5 1336.82   1
   8  -8  -2 27496.5 1378.86   2
   0   8  -2 25529.6 1228.96   4
   8  -8  -2 26989.3 1329.46   3
  -8   0  -2 27681.5 1468.71   2
  -8   0  -2 26850.7 1196.14   4
   8  -8   1-160.943 224.128   2
  -8   0   1 114.707 272.764   3
   0   8   1 118.053 245.748   3
   8  -8   1 456.404 347.726   3
   8  -8   1 251.141 343.181   1
   0   8   1-353.849 311.589   1
  -8   0   1-230.693 349.830   2
   8  -8   1 443.683 312.165   4
  -8   0   1-170.708 357.590   4
  -8   0   1-117.172 258.885   1
  -8   0   4 8538.84 937.466   2
   8  -8   4 7895.34 964.709   1
  -8   0   4 8817.02 865.882   4
  -8   0   4 9852.49 724.133   1
   8  -8   4 8092.02 439.414   4
   0   8   4 10704.7 901.425   3
  -8   0   7 120.495 374.843   1
  -8   0   7 460.713 454.638   4
  -8   1  -9 1479.81 751.644   1
   1   7  -9 2410.02 723.231   1
  -8   1  -9 3328.11 985.856   3
   1   7  -9 1016.58 793.182   3
  -1   8  -9 2309.93 802.956   1
  -7  -1  -9 3694.90 1058.97   2
  -8   1  -9 1954.09 962.706   2
   7  -8  -9 1172.33 729.919   3
  -7  -1  -9 1242.47 308.190   4
  -1   8  -9 4159.28 1121.90   3
  -7  -1  -9 2427.68 728.101   1
  -7  -1  -9 3277.34 914.815   3
   8  -7  -9 3894.03 1040.05   3
   1   7  -6 3447.15 626.547   1
  -7  -1  -6 3954.49 793.756   2
  -7  -1  -6 4112.73 681.068   3
  -1   8  -6 3193.42 644.132   1
  -1   8  -6 2571.19 520.376   2
   7  -8  -6 4047.09 892.572   3
   1   7  -6 3645.39 592.265   4
   1   7  -6 3511.05 670.363   2
  -8   1  -6 3450.16 405.868   4
  -8   1  -6 3253.21 746.904   2
  -7  -1  -6 3378.69 756.211   1
   8  -7  -6 4602.13 917.592   3
   8  -7  -6 3042.56 660.880   4
   7  -8  -6 2542.93 626.049   4
  -8   1  -6 3341.97 781.562   1
  -7  -1  -6 2604.22 483.365   4
  -1   8  -6 1890.82 388.819   4
  -7  -1  -3 6116.71 803.173   2
   8  -7  -3 7551.86 812.634   3
   8  -7  -3 6180.11 694.621   4
  -1   8  -3 6538.18 621.021   4
  -7  -1  -3 7006.69 647.592   4
   1   7  -3 5481.30 652.163   1
   1   7  -3 5678.80 618.589   2
  -1   8  -3 6492.76 740.731   1
  -8   1  -3 6171.72 767.277   2
  -8   1  -3 6309.37 619.367   4
  -1   8  -3 6453.51 560.247   2
   8  -7  -3 7816.97 872.765   2
   7  -8  -3 5134.16 652.209   4
   7  -8  -3 6597.39 792.232   3
   1   7  -3 5922.31 643.307   4
  -7  -1   0 1759.20 380.072   1
   1   7   0 3066.69 607.293   2
  -7  -1   0 1721.98 475.871   2
   7  -8   0 2395.43 439.358   1
   1   7   0 2351.28 334.069   3
   8  -7   0 1725.01 355.286   2
   8  -7   0 1530.73 399.163   1
   8  -7   0 1745.29 400.958   4
   1   7   0 2022.63 458.128   1
  -8   1   0 2104.24 498.396   2
  -1   8   0 1477.19 396.270   1
  -1   8   0 1256.83 299.655   3
   7  -8   0 1850.38 352.854   2
   8  -7   0 2284.76 431.522   3
  -7  -1   0 2226.43 495.371   4
  -8   1   0 2065.13 486.635   4
   7  -8   0 2035.97 417.689   3
   1   7   0 1746.90 490.324   4
  -8   1   0 1562.50 315.252   3
  -7  -1   0 1460.21 239.881   3
  -8   1   3 19724.5 1230.69   2
   8  -7   3 17370.8 807.907   2
   1   7   3 19144.7 1004.52   3
  -7  -1   3 17586.7 912.980   1
  -8   1   3 22064.1 1256.61   4
  -8   1   3 17954.4 1189.25   3
   8  -7   3 17681.2 1236.88   1
  -7  -1   3 19863.8 1191.78   4
   7  -8   3 18759.0 1276.31   1
   7  -8   3 18574.8 729.510   4
  -1   8   3 19570.6 1105.29   3
  -8   1   3 19601.4 875.408   1
  -7  -1   3 19209.8 1173.28   2
   8  -7   3 18856.1 750.856   4
  -7  -1   6 2908.87 558.507   1
  -7  -1   6 2947.58 594.879   4
  -8   1   6 2647.55 566.095   4
  -8   1   6 2422.34 472.997   1
  -6  -2 -10 6116.59 1085.78   1
  -8   2 -10 5604.94 1135.32   1
  -2   8 -10 6132.25 1545.53   3
  -8   2 -10 7599.52 1386.84   2
  -2   8 -10 7114.80 1197.60   1
   2   6 -10 5822.83 1026.16   1
  -6  -2 -10 7096.30 1263.02   3
  -8   2 -10 3950.99 1061.29   3
   8  -6 -10 5880.20 1233.67   3
   2   6 -10 5613.18 1430.47   3
  -6  -2 -10 4324.43 1270.30   2
   6  -8 -10 6377.50 1279.57   3
  -8   2  -7 14261.6 1387.38   3
  -2   8  -7 12320.0 1173.03   1
  -8   2  -7 12952.5 1379.68   1
  -6  -2  -7 12753.7 1202.12   3
   2   6  -7 11310.3 1084.13   1
   6  -8  -7 12114.7 1396.27   3
  -8   2  -7 12891.9 1404.36   2
   2   6  -7 14489.0 1612.60   3
  -6  -2  -7 11844.0 876.231   4
  -2   8  -7 10400.5 865.387   2
   2   6  -7 11363.4 1092.69   2
   2   6  -7 11676.8 948.398   4
  -6  -2  -7 12208.5 1451.65   2
   8  -6  -7 12025.2 1415.43   3
  -6  -2  -7 13529.9 1307.43   1
  -6  -2  -4 2863.17 746.449   2
  -6  -2  -4 3592.51 532.602   4
   8  -6  -4 3836.19 694.493   2
   2   6  -4 3016.32 578.276   1
  -2   8  -4 2194.54 577.067   1
  -6  -2  -4 2804.01 476.935   3
   2   6  -4 2809.75 522.135   2
   8  -6  -4 3979.51 705.340   3
   8  -6  -4 2385.75 558.485   4
  -8   2  -4 2897.92 404.336   4
  -8   2  -4 2477.83 577.380   2
   6  -8  -4 2905.04 631.412   3
   2   6  -4 2783.03 514.842   4
  -2   8  -4 3356.47 417.298   2
  -2   8  -1 13668.1 770.456   2
   6  -8  -1 14152.8 871.307   3
   8  -6  -1 14732.3 882.192   3
  -2   8  -1 14591.9 803.764   3
  -6  -2  -1 14933.6 1067.06   2
  -6  -2  -1 13918.3 915.032   4
  -2   8  -1 12773.6 858.511   1
   8  -6  -1 15952.2 933.432   2
  -8   2  -1 14708.1 645.471   3
   8  -6  -1 15213.2 912.220   4
   2   6  -1 12286.7 880.444   2
   6  -8  -1 14901.2 720.900   1
   2   6  -1 15056.9 888.164   1
  -8   2  -1 14308.8 830.180   4
  -8   2  -1 15162.7 929.583   2
   2   6  -1 13560.0 909.129   4
  -8   2   2 14075.9 933.112   3
  -8   2   2 16172.6 1010.94   4
   8  -6   2 15676.4 746.378   2
  -6  -2   2 15403.6 1002.69   2
  -8   2   2 15223.2 701.429   1
   2   6   2 15203.4 708.127   3
  -2   8   2 16330.8 774.567   1
   6  -8   2 14703.6 1039.27   1
  -8   2   2 16340.2 1060.13   2
  -6  -2   2 17127.1 910.101   1
  -2   8   2 15067.3 916.321   3
  -6  -2   2 15677.3 1005.75   4
   8  -6   2 16319.8 773.980   4
   6  -8   5 3166.94 685.719   1
  -6  -2   5 2865.50 522.431   1
  -8   2   5 2836.15 585.370   4
  -6  -2   5 2892.65 561.632   4
  -8   2   5 2708.35 362.258   1
  -6  -2   5 2392.66 521.104   2
  -2   8   5 3172.63 688.710   3
  -6  -2   8 4568.91 823.886   1
  -8   2   8 4506.35 643.803   1
   5  -8  -8 2658.44 358.269   1
  -5  -3  -8 4372.28 849.942   1
   5  -8  -8 3026.62 338.124   1
  -5  -3  -8 4650.91 1074.88   2
   8  -5  -8 2850.64 283.820   1
  -3   8  -8 3619.37 621.856   2
  -8   3  -8 3977.67 912.677   1
  -5  -3  -8 4390.92 643.992   4
  -3   8  -8 4802.65 881.019   1
  -8   3  -8 5641.52 1089.45   3
  -5  -3  -8 4226.50 898.496   3
   8  -5  -8 5707.50 1086.57   3
   3   5  -8 4319.57 1140.72   3
   3   5  -8 6155.97 908.609   1
   5  -8  -8 7078.49 1197.54   3
   3   5  -8 3452.42 697.687   4
  -8   3  -8 3615.31 906.082   2
  -8   3  -5 5879.21 799.203   2
  -8   3  -5 6406.69 945.364   1
  -8   3  -5 5602.78 403.782   4
   8  -5  -5 5170.10 855.775   3
   3   5  -5 7288.17 788.498   1
  -5  -3  -5 5880.48 665.940   3
   8  -5  -5 5819.90 768.515   4
   3   5  -5 6171.89 726.773   4
  -5  -3  -5 6451.65 993.093   2
   5  -8  -5 4265.56 301.046   1
   5  -8  -5 4290.48 352.934   1
   5  -8  -5 6922.04 907.482   3
  -5  -3  -5 5831.78 619.508   4
  -3   8  -5 5940.61 510.621   2
  -3   8  -5 5914.74 775.983   1
   3   5  -5 5790.28 748.986   2
  -8   3  -2 2771.20 474.381   2
  -3   8  -2 1877.09 261.615   2
  -5  -3  -2 2112.50 439.516   4
   8  -5  -2 2495.80 533.352   3
  -3   8  -2 2866.44 472.007   3
   8  -5  -2 2620.66 501.096   2
   3   5  -2 2779.15 482.899   4
   8  -5  -2 1860.95 420.112   4
   5  -8  -2 2403.77 451.123   3
  -5  -3  -2 2320.44 240.858   3
   3   5  -2 2667.22 493.537   2
  -8   3  -2 3454.49 396.335   3
  -5  -3  -2 2234.07 606.160   2
   3   5  -2 2089.07 444.823   1
  -8   3  -2 3208.17 411.451   4
  -3   8  -2 2507.05 501.581   1
   5  -8  -2 2744.52 321.202   1
   8  -5   1 7470.66 582.550   3
  -8   3   1 9071.76 762.501   2
   8  -5   1 7120.89 573.723   4
   3   5   1 8163.10 882.869   2
  -8   3   1 6753.81 671.387   4
   3   5   1 6673.73 366.122   3
  -5  -3   1 8499.28 646.218   1
   3   5   1 8333.43 655.994   1
   5  -8   1 8594.76 693.906   3
   3   5   1 7652.27 713.531   4
  -5  -3   1 7221.72 715.862   2
  -5  -3   1 7043.48 698.264   4
  -3   8   1 6802.20 521.378   1
  -3   8   1 7539.19 635.577   3
   5  -8   1 7030.72 688.189   1
   8  -5   1 6765.88 581.500   2
  -8   3   1 7211.99 630.223   3
  -5  -3   4 23420.1 1289.55   2
  -8   3   4 22813.8 1483.06   3
  -8   3   4 21509.5 1249.74   4
   8  -5   4 18162.1 631.615   4
   5  -8   4 21357.4 1427.03   1
  -5  -3   4 22324.7 1155.10   1
  -3   8   4 21952.0 1343.04   3
   5  -8   4 18714.9 662.954   4
  -5  -3   4 22139.3 1192.22   4
  -8   3   4 23267.4 1453.77   2
  -8   3   4 20041.4 732.419   1
  -5  -3   7 3643.46 693.126   1
  -8   3   7 2371.57 413.903   1
  -5  -3   7 4006.24 612.524   4
   8  -4  -9 4112.04 1105.00   3
  -4  -4  -9 4474.20 1180.25   2
  -4  -4  -9 3918.24 872.127   1
  -4   8  -9 2918.15 651.672   2
  -4   8  -9 4178.33 950.086   1
  -4  -4  -9 3717.66 624.759   4
  -4  -4  -9 4886.68 1007.38   3
   4  -8  -9 2593.30 491.320   1
  -8   4  -9 4926.02 1095.62   1
  -8   4  -9 4705.79 1018.51   2
   4  -8  -9 5495.77 1128.76   3
  -8   4  -9 1786.03 1003.68   3
   4   4  -9 3786.39 774.423   1
   8  -4  -9 2835.41 387.433   1
   4   4  -9 4493.50 1234.83   3
  -4  -4  -6 1057.07 468.146   3
  -4  -4  -6 930.169 417.956   4
   4   4  -6 1727.69 679.601   3
   8  -4  -6 1023.47 212.992   1
   4   4  -6 2123.28 561.984   4
  -4   8  -6 1482.84 338.514   2
   8  -4  -6 2029.09 681.716   3
   4   4  -6 1301.69 563.719   2
  -8   4  -6 1033.34 564.793   2
   4   4  -6 1129.98 414.834   1
  -4   8  -6 876.441 497.489   1
   4  -8  -6 1465.36 313.971   1
   4  -8  -6 2034.76 617.004   3
  -8   4  -6 198.704 496.766   1
   8  -4  -6 1275.32 538.111   4
   4  -8  -6 1371.05 271.964   1
  -4  -4  -6 1939.70 728.589   2
   4  -8  -3 21690.5 1193.38   3
   8  -4  -3 21251.0 1282.84   3
   4   4  -3 21746.3 1088.73   1
   8  -4  -3 20178.3 1241.86   2
   4   4  -3 20040.4 1103.55   4
   4  -8  -3 20135.8 720.230   1
   8  -4  -3 20021.2 1122.18   4
  -4  -4  -3 22114.6 1494.24   2
  -4  -4  -3 19093.7 1053.16   4
  -8   4  -3 22384.3 1428.81   1
  -8   4  -3 19984.5 1004.65   3
   4   4  -3 19215.5 1207.68   2
  -8   4  -3 19751.6 770.314   4
  -8   4  -3 20114.6 1047.36   2
  -4   8  -3 20010.8 1202.45   1
  -4  -4  -3 19368.3 863.787   3
   4   4   0 6845.23 611.339   1
  -8   4   0 7408.44 642.652   4
  -8   4   0 7174.07 598.370   3
  -4  -4   0 7408.00 737.112   2
   4  -8   0 7042.48 604.562   3
  -4  -4   0 7144.23 695.507   4
  -4   8   0 6553.41 582.407   1
  -8   4   0 6949.43 654.245   2
   4   4   0 7139.52 762.663   2
   8  -4   0 7484.66 557.370   3
   4  -8   0 7072.19 626.228   1
  -4   8   0 6717.55 570.292   3
   8  -4   0 7055.83 633.456   2
  -4  -4   0 6632.82 570.511   1
   8  -4   0 5950.83 631.030   4
   4   4   0 4913.72 607.768   4
   4   4   3 20770.3 1107.64   4
  -4  -4   3 20518.4 1112.07   4
  -8   4   3 20393.6 628.677   1
  -4  -4   3 20890.3 1110.13   2
  -4   8   3 22177.4 1243.61   3
  -8   4   3 22500.8 1251.94   4
   8  -4   3 21689.6 1151.51   2
   4  -8   3 21007.0 846.414   4
  -4  -4   3 22070.3 1113.59   1
  -8   4   3 20397.9 1285.16   3
  -8   4   3 22459.0 1343.94   2
   8  -4   3 21120.3 827.406   4
   4  -8   3 20353.9 1288.68   1
  -8   4   6 1413.07 263.552   1
  -4  -4   6 1229.17 476.909   1
  -4  -4   6 1935.91 444.742   4
  -3  -5 -10 822.897 940.711   2
   8  -3 -10 1395.02 1006.14   3
  -5   8 -10 794.265 738.583   2
  -8   5 -10 1829.63 818.889   2
   5   3 -10 2758.57 1138.42   3
  -8   5 -10 1672.06 788.812   1
  -5   8 -10 1730.31 882.010   1
  -5   8 -10 2447.77 1082.17   3
   8  -3 -10 1089.84 346.195   1
   5   3 -10 1946.56 737.899   1
  -3  -5 -10 2253.41 784.398   1
   3  -8 -10 1525.63 563.401   1
  -3  -5 -10 2803.19 934.653   3
  -8   5 -10 889.155 870.926   3
  -3  -5 -10 1427.73 535.433   4
   3  -8 -10 1313.72 976.252   3
  -3  -5  -7 3762.85 678.235   1
   3  -8  -7 3589.65 526.745   1
   5   3  -7 4774.21 803.842   4
   8  -3  -7 3156.81 724.225   4
   8  -3  -7 3424.57 839.109   3
   5   3  -7 4507.54 716.196   1
   3  -8  -7 3352.24 797.149   3
   5   3  -7 4264.61 908.429   3
  -8   5  -7 5157.36 942.224   1
   8  -3  -7 4083.89 453.185   1
  -3  -5  -7 3678.03 650.078   4
  -8   5  -7 2969.64 741.887   2
  -3  -5  -7 3649.62 777.245   3
  -5   8  -7 4171.10 795.170   1
  -3  -5  -7 3596.44 915.966   2
  -5   8  -7 3237.46 471.534   2
  -5   8  -4 20234.5 1282.28   1
   3  -8  -4 20783.1 1286.19   3
   8  -3  -4 19222.9 688.947   1
  -8   5  -4 20509.1 1092.26   2
  -8   5  -4 18703.8 610.246   4
   8  -3  -4 20039.5 1371.68   3
   8  -3  -4 21962.6 1255.50   4
  -8   5  -4 21627.7 1464.27   1
   5   3  -4 21449.1 1101.38   1
  -3  -5  -4 20365.9 1084.93   3
   5   3  -4 21306.0 1392.51   3
   3  -8  -4 20254.2 775.859   1
   5   3  -4 21009.3 1184.76   4
  -3  -5  -4 22446.0 1611.57   2
  -3  -5  -4 20507.3 1130.61   4
   8  -3  -4 23277.7 1430.78   2
   5   3  -4 21397.5 1346.82   2
   8  -3  -1 7990.10 740.849   2
  -3  -5  -1 8910.07 751.970   4
  -5   8  -1 7217.98 607.326   3
  -8   5  -1 7721.53 746.624   1
   5   3  -1 6498.72 703.242   2
   8  -3  -1 6837.61 670.033   4
  -8   5  -1 7688.68 591.230   3
   5   3  -1 7974.38 641.298   1
   3  -8  -1 7595.27 599.255   1
   5   3  -1 6912.82 533.042   3
  -3  -5  -1 6307.63 612.469   1
  -5   8  -1 8172.45 696.139   1
   8  -3  -1 8107.76 657.999   3
  -8   5  -1 8017.04 595.555   2
  -8   5  -1 7657.05 601.119   4
  -3  -5  -1 7555.52 348.871   3
   5   3  -1 6834.68 667.643   4
  -3  -5  -1 7361.35 818.159   2
   3  -8  -1 7841.44 640.320   3
  -5   8   2 2364.73 288.799   1
  -3  -5   2 2112.48 464.613   4
  -5   8   2 2728.20 497.176   3
  -8   5   2 2385.32 543.283   2
   5   3   2 3827.82 721.128   2
   3  -8   2 2403.34 411.429   4
   8  -3   2 1676.91 375.183   4
   3  -8   2 2736.36 264.217   2
   5   3   2 2980.37 503.725   4
  -3  -5   2 2706.54 468.263   1
  -8   5   2 2231.30 494.990   3
   3  -8   2 2520.09 482.465   1
   8  -3   2 2810.73 487.797   2
  -8   5   2 1906.83 426.624   4
  -3  -5   2 2895.30 475.071   2
   3  -8   5 4884.45 389.612   4
   3  -8   5 6405.06 910.149   1
  -3  -5   5 6800.71 801.971   1
  -5   8   5 7564.94 1002.40   3
  -3  -5   5 5863.56 641.183   4
  -3  -5   5 6435.17 771.522   2
  -3  -5   8 3569.45 554.489   4
   2  -8  -8 4499.05 979.957   3
  -2  -6  -8 3197.85 777.258   3
   6   2  -8 3640.51 1002.92   3
  -8   6  -8 3729.93 889.204   1
   6   2  -8 3545.03 779.298   4
  -6   8  -8 3222.11 880.333   1
  -8   6  -8 5394.79 915.252   2
  -2  -6  -8 4188.28 732.127   4
  -6   8  -8 3670.57 732.481   2
  -2  -6  -8 3474.30 742.024   1
  -6   8  -8 2536.21 522.967   2
   8  -2  -8 4382.72 564.906   1
   2  -8  -8 2485.90 711.609   4
   2  -8  -8 3550.95 647.709   1
   6   2  -8 4410.37 706.515   1
   8  -2  -8 3082.24 853.385   3
   6   2  -5 2319.59 547.876   3
   8  -2  -5 3943.85 778.825   3
  -2  -6  -5 2953.14 597.408   4
   2  -8  -5 2735.16 655.522   3
  -6   8  -5 2515.28 301.092   2
  -6   8  -5 2360.83 659.068   1
   6   2  -5 2889.11 520.945   1
  -6   8  -5 2767.02 380.651   2
   6   2  -5 2992.85 574.376   4
   8  -2  -5 3109.45 617.251   4
   8  -2  -5 3927.59 440.563   1
  -8   6  -5 3211.09 522.672   2
   2  -8  -5 3221.53 410.053   1
  -8   6  -5 3023.90 702.685   1
   8  -2  -5 3347.14 704.491   2
  -2  -6  -5 3233.55 594.911   3
  -2  -6  -5 3040.09 766.647   2
   6   2  -5 2862.48 657.711   2
   8  -2  -2 12851.3 871.545   3
   2  -8  -2 15621.8 767.515   1
   6   2  -2 13924.9 960.174   4
   2  -8  -2 14864.3 868.785   3
  -8   6  -2 12993.5 812.252   3
   6   2  -2 14976.8 847.480   1
  -2  -6  -2 15617.3 854.138   1
  -6   8  -2 11028.9 891.481   1
   6   2  -2 15020.4 938.664   3
   8  -2  -2 14323.2 1062.32   2
  -8   6  -2 16404.1 1088.68   1
   6   2  -2 14104.9 1027.51   2
  -8   6  -2 14479.4 709.372   4
  -2  -6  -2 14778.8 1228.60   2
  -8   6  -2 14816.0 700.087   2
  -6   8  -2 13475.7 870.167   3
   8  -2  -2 14058.9 946.911   4
  -2  -6  -2 13131.8 907.827   4
  -2  -6  -2 15762.1 701.419   3
   6   2   1 15015.6 932.219   4
  -8   6   1 12314.4 856.276   4
   2  -8   1 13622.3 898.218   1
   2  -8   1 13453.4 835.998   4
  -8   6   1 13438.9 681.531   1
   8  -2   1 14394.3 875.462   4
  -6   8   1 13979.1 679.790   1
   6   2   1 13258.0 1013.85   2
   2  -8   1 14624.0 788.977   2
  -2  -6   1 13947.3 872.425   2
  -2  -6   1 13712.9 882.612   1
   8  -2   1 14775.4 618.532   3
  -8   6   1 14259.2 878.892   3
  -8   6   1 13984.2 898.429   2
   8  -2   1 12796.9 919.081   2
  -2  -6   1 13818.6 900.329   4
  -6   8   1 13517.2 853.905   3
   6   2   4 3744.45 543.986   4
   2  -8   4 2795.57 386.647   4
  -2  -6   4 3007.18 518.338   4
  -2  -6   4 3091.19 569.895   1
  -6   8   4 3852.19 714.392   3
  -2  -6   4 3289.86 510.594   2
  -8   6   4 2146.13 625.433   3
   2  -8   4 3970.04 679.922   1
   8  -2   4 2925.38 390.265   4
   2  -8   7 8037.22 438.181   4
  -2  -6   7 11560.4 810.992   4
   1  -8  -9 10966.6 1139.27   1
  -7   8  -9 8898.10 1288.10   1
   8  -1  -9 8695.13 844.752   1
  -1  -7  -9 9355.15 1312.76   3
  -7   8  -9 10706.4 1206.21   2
   7   1  -9 10974.3 1564.67   3
   7   1  -9 9410.06 944.220   1
  -1  -7  -9 9047.51 1016.29   4
  -8   7  -9 11197.5 1426.54   1
  -8   7  -9 9579.63 1197.12   2
   8  -1  -9 12482.5 1621.60   3
   1  -8  -9 9826.51 1331.38   3
  -1  -7  -9 10746.4 1216.65   1
   1  -8  -9 12694.2 1222.46   4
   7   1  -6 2030.40 776.359   3
  -7   8  -6 2507.48 666.290   1
  -7   8  -6 1861.07 427.177   2
  -8   7  -6 1905.41 492.342   2
   1  -8  -6 1907.07 630.856   3
   7   1  -6 1714.60 618.411   4
  -7   8  -6 1898.58 348.681   2
  -1  -7  -6 2801.42 560.925   4
   8  -1  -6 2161.67 615.346   4
   1  -8  -6 1824.44 420.668   1
  -1  -7  -6 1620.57 593.933   3
   8  -1  -6 1835.34 397.519   1
   7   1  -6 2434.46 457.379   1
  -8   7  -6 2244.19 725.338   1
   8  -1  -6 3216.02 776.164   3
   1  -8  -3 18630.1 1064.67   3
  -8   7  -3 16838.0 670.981   2
  -1  -7  -3 17354.1 1103.88   4
   8  -1  -3 18471.3 846.823   1
  -1  -7  -3 16791.4 1370.14   2
  -8   7  -3 16818.6 1034.22   3
  -7   8  -3 18455.8 1127.03   3
   7   1  -3 18786.5 956.119   1
   1  -8  -3 17719.7 849.017   1
   8  -1  -3 18221.4 1130.78   4
   7   1  -3 17873.7 1163.72   3
   7   1  -3 16216.5 1062.59   4
  -8   7  -3 17533.7 1238.54   1
   8  -1  -3 19399.3 1233.28   3
  -1  -7  -3 16742.1 894.074   1
   7   1  -3 19865.7 1301.56   2
  -1  -7  -3 17293.6 951.946   3
   8  -1  -3 16795.5 1215.17   2
  -7   8  -3 18649.6 1236.23   1
  -8   7   0 1719.12 412.967   1
  -1  -7   0 1805.24 325.302   3
  -8   7   0 1042.42 351.088   2
   8  -1   0 1288.59 418.268   4
   7   1   0 1813.39 458.508   4
   1  -8   0 1708.58 456.946   1
  -7   8   0 1588.87 376.609   1
  -8   7   0 1503.47 388.568   3
   7   1   0 1414.11 460.348   2
  -7   8   0 1992.62 409.331   3
   1  -8   0 1276.27 440.118   4
   7   1   0 1551.42 249.325   3
   8  -1   0 1584.33 285.129   3
   8  -1   0 2064.82 501.426   2
  -1  -7   0 1859.30 401.761   1
   1  -8   0 1753.49 478.511   2
   1  -8   0 2474.34 400.549   3
  -1  -7   0 3117.56 603.249   2
  -1  -7   0 1975.43 475.531   4
  -1  -7   3 7368.42 619.371   2
   1  -8   3 8738.46 872.559   1
   7   1   3 7615.78 899.752   2
  -1  -7   3 6443.61 665.502   4
   7   1   3 6980.99 659.944   4
   8  -1   3 5917.83 727.973   2
  -1  -7   3 8236.75 824.562   1
   8  -1   3 6795.25 616.447   4
   1  -8   3 6866.96 621.638   4
  -8   7   3 7759.24 834.490   3
  -7   8   3 7769.94 821.984   3
   1  -8   3 7424.44 513.743   2
   1  -8   6 2742.72 396.986   4
  -1  -7   6 2688.85 689.110   1
  -1  -7   6 1848.57 412.526   4
  -8   8 -10 4472.61 1429.29   3
   8   0 -10 2567.32 570.614   1
   0  -8 -10 2408.12 794.251   4
   8   0 -10 3297.94 1169.54   3
   0  -8 -10 1665.01 854.888   3
   0  -8 -10 3192.87 880.205   1
  -8   8 -10 3506.88 1004.23   1
  -8   8 -10 3530.86 877.833   2
   0  -8  -7 236.414 495.097   3
   8   0  -7-216.708 661.378   3
  -8   8  -7 411.357 540.825   1
   8   0  -7 168.209 336.664   1
  -8   8  -7 910.016 494.513   2
   8   0  -7 558.955 597.123   4
   0  -8  -7 1015.55 518.729   4
  -8   8  -4 10949.1 1069.61   1
   8   0  -4 8105.91 919.358   3
   8   0  -4 10813.0 738.218   1
  -8   8  -4 8698.67 494.716   2
   0  -8  -4 9953.07 940.431   4
   8   0  -4 10152.5 1050.99   2
   0  -8  -4 9178.03 685.409   1
   8   0  -4 9511.93 919.827   4
   0  -8  -4 9477.69 869.425   3
   8   0  -1-358.708 420.348   2
  -8   8  -1 37.7478 336.743   1
  -8   8  -1 193.784 234.935   2
   0  -8  -1-23.2603 256.613   3
  -8   8  -1 675.837 357.283   3
   0  -8  -1 228.106 450.356   2
   0  -8  -1 243.813 374.641   4
   8   0  -1-162.769 362.693   4
   8   0  -1 605.177 292.541   3
   0  -8  -1 359.541 347.954   1
   0  -8   2 23937.9 1010.86   2
   0  -8   2 25870.7 1322.36   1
   8   0   2 24955.4 1446.95   2
   0  -8   2 24868.9 1201.54   4
   8   0   2 27046.2 1243.16   4
  -8   8   2 23335.0 1251.86   3
  -8   8   2 26055.2 778.582   1
   0  -8   5-1084.10 568.208   1
   0  -8   5 153.426 291.190   4
   0  -8   8 4339.73 444.008   4
   9  -9  -9 456.821 774.111   3
  -9   0  -9-10.1282 672.198   3
   0   9  -9 813.499 799.236   3
  -9   0  -9-422.320 580.198   1
  -9   0  -9-63.8488 691.591   2
   0   9  -9-29.0222 620.214   1
  -9   0  -9 230.701 196.967   4
  -9   0  -6 4553.39 728.901   3
   9  -9  -6 4471.39 879.972   3
   0   9  -6 4486.34 784.991   1
  -9   0  -6 4129.64 835.678   2
   0   9  -6 3815.63 635.773   2
   0   9  -6 4069.65 616.671   4
  -9   0  -6 4737.52 595.190   4
  -9   0  -6 6423.37 1070.31   1
   9  -9  -3-54.2025 370.178   4
   0   9  -3 722.668 479.896   1
   9  -9  -3 338.760 383.547   3
   0   9  -3-370.773 389.655   4
   9  -9  -3 213.852 401.401   2
  -9   0  -3 260.900 231.130   3
   0   9  -3 212.672 330.605   2
  -9   0  -3 261.870 487.095   2
  -9   0  -3 136.349 362.537   4
  -9   0   0 11776.9 963.210   2
   9  -9   0 9783.61 789.534   1
   0   9   0 10167.4 774.731   1
  -9   0   0 10686.0 598.194   3
  -9   0   0 11231.5 904.805   4
   9  -9   0 8903.50 673.553   2
   9  -9   0 10808.3 832.788   3
   0   9   0 8419.16 861.205   2
   9  -9   0 11276.2 840.267   4
   0   9   0 10326.2 659.044   3
   0   9   3 438.277 360.354   3
  -9   0   3 356.644 443.028   3
  -9   0   3 810.612 472.396   2
   9  -9   3 47.2121 239.578   4
   9  -9   3-106.658 178.898   2
  -9   0   3 112.339 375.201   1
  -9   0   3 119.057 388.629   4
   9  -9   3-220.786 450.729   1
  -9   0   6 3454.43 844.402   2
  -9   0   6 3187.49 641.476   4
  -9   0   6 3116.87 570.069   1
  -8  -1 -10 2533.52 890.776   1
  -9   1 -10 2634.72 1037.54   3
   8  -9 -10 1718.14 908.793   3
  -8  -1 -10 2499.16 999.322   2
   9  -8 -10 858.486 791.249   3
  -8  -1 -10 1588.23 882.674   3
  -1   9 -10 1790.67 806.958   1
  -9   1 -10 1703.58 765.107   1
   1   8 -10 2226.44 803.989   1
  -9   1 -10 2536.23 1012.81   2
  -1   9 -10 2124.89 1205.40   3
   1   8 -10 764.167 993.354   3
  -8  -1  -7 10514.2 1334.17   2
  -9   1  -7 13673.2 1431.62   1
  -8  -1  -7 12383.8 1221.83   3
  -1   9  -7 10438.9 756.275   4
   1   8  -7 10342.2 1050.18   2
  -9   1  -7 12835.1 1391.33   2
  -1   9  -7 12421.4 1214.20   1
   8  -9  -7 12857.0 1403.77   3
  -9   1  -7 11689.0 1214.77   3
   9  -8  -7 12104.1 1389.93   3
   1   8  -7 10824.7 916.621   4
  -8  -1  -7 12930.1 1358.14   1
  -9   1  -7 11928.9 733.883   4
  -8  -1  -7 11089.9 860.737   4
  -1   9  -7 11327.4 999.645   2
   1   8  -7 12558.3 1190.07   1
   8  -9  -4 1900.90 514.541   4
  -1   9  -4 3136.94 644.964   1
   9  -8  -4 2453.82 534.101   4
   9  -8  -4 3231.94 688.135   2
  -8  -1  -4 2535.51 505.347   4
   8  -9  -4 811.283 433.432   2
   8  -9  -4 2073.40 599.098   3
  -1   9  -4 2961.04 499.108   4
  -8  -1  -4 2430.88 693.869   2
   1   8  -4 2623.89 563.148   4
   1   8  -4 2167.78 478.067   2
  -1   9  -4 2981.51 444.882   2
  -9   1  -4 2236.66 436.349   4
  -9   1  -4 2556.42 631.653   2
   1   8  -4 2749.79 581.928   1
   9  -8  -4 1656.11 614.144   3
   8  -9  -1 19334.3 1048.08   2
   1   8  -1 20231.0 934.573   3
  -9   1  -1 19486.9 727.140   3
   1   8  -1 18840.3 1125.73   4
   1   8  -1 18829.4 1062.33   1
   9  -8  -1 19524.2 1081.80   3
  -1   9  -1 19521.4 1092.41   1
   9  -8  -1 19633.8 1083.81   2
   1   8  -1 16746.3 1077.48   2
  -1   9  -1 16508.5 874.536   3
  -9   1  -1 18572.2 1046.30   4
  -9   1  -1 18883.9 1148.93   2
   8  -9  -1 18463.8 879.127   1
  -1   9  -1 17686.5 1026.59   2
  -8  -1  -1 19239.1 1103.51   4
  -8  -1  -1 19689.0 1259.89   2
   8  -9  -1 17593.9 1025.98   3
   9  -8  -1 18900.1 1074.74   4
  -9   1   2 2828.76 547.684   3
   9  -8   2 2599.45 345.361   2
  -1   9   2 2249.68 449.631   3
  -8  -1   2 1893.81 489.701   2
   9  -8   2 1949.77 359.001   4
   8  -9   2 1970.06 237.189   2
  -9   1   2 2270.74 551.593   4
  -9   1   2 2422.11 392.342   1
  -8  -1   2 1977.39 413.299   1
  -9   1   2 2535.26 563.796   2
   1   8   2 2278.08 391.945   3
  -8  -1   2 1865.99 451.405   3
   8  -9   2 1979.45 479.815   3
   8  -9   2 2595.70 612.633   1
  -8  -1   2 2433.79 521.713   4
   9  -8   2 1826.24 439.889   3
  -1   9   2 2657.82 448.627   1
   9  -8   2 1774.46 489.406   1
   1   8   2 2975.07 489.044   1
  -1   9   5 6386.80 831.394   3
  -8  -1   5 7695.88 927.574   2
  -9   1   5 6536.40 795.228   4
  -9   1   5 6488.17 624.282   1
  -8  -1   5 5362.93 762.782   4
  -8  -1   5 6113.38 669.769   1
  -9   1   5 8277.56 1030.57   2
   1   8   5 5861.14 780.900   3
  -8  -1   8 4201.95 742.101   1
  -8  -1   8 6423.09 887.643   4
  -9   1   8 4509.59 673.097   1
  -9   2  -8 942.372 679.879   3
   2   7  -8 1084.34 492.614   4
   2   7  -8 1980.35 671.780   1
  -7  -2  -8 1676.87 626.620   1
   9  -7  -8 1455.28 775.750   3
  -2   9  -8 1066.70 512.515   2
   7  -9  -8 1604.99 694.825   3
  -7  -2  -8 1846.78 720.789   3
  -7  -2  -8 842.685 778.251   2
  -9   2  -8 862.988 713.934   1
   2   7  -8 1503.75 856.962   3
  -7  -2  -8 1676.79 467.727   4
  -9   2  -8 1585.46 744.734   2
  -2   9  -8 281.470 551.397   1
   2   7  -5 7864.75 792.165   4
  -9   2  -5 9464.76 1176.81   1
  -7  -2  -5 8510.95 825.844   3
   7  -9  -5 8528.09 1083.21   3
   2   7  -5 9509.45 902.297   1
  -2   9  -5 8948.30 675.380   2
  -9   2  -5 8633.77 627.392   4
  -9   2  -5 8721.48 1009.23   2
   9  -7  -5 7745.83 883.671   4
  -2   9  -5 7803.93 911.555   1
  -7  -2  -5 9349.98 799.875   4
   9  -7  -5 8334.51 1056.62   3
   7  -9  -5 7586.96 899.010   4
   2   7  -5 8463.83 880.684   2
  -7  -2  -5 9449.98 1144.07   2
  -7  -2  -2 5952.09 675.057   4
   2   7  -2 6197.68 694.938   1
   9  -7  -2 5149.14 660.793   3
   7  -9  -2 4940.74 412.071   1
  -2   9  -2 4111.48 488.523   2
   2   7  -2 4872.03 659.469   4
  -7  -2  -2 4531.96 263.754   3
  -9   2  -2 5108.86 441.068   3
   9  -7  -2 4531.15 697.197   2
   2   7  -2 5050.04 621.017   2
  -2   9  -2 6599.55 664.830   3
  -2   9  -2 4827.99 655.656   1
  -7  -2  -2 3907.55 684.108   2
  -9   2  -2 4720.07 532.304   4
   9  -7  -2 5969.81 696.572   4
   7  -9  -2 5517.00 686.549   3
  -9   2  -2 5301.21 703.472   2
  -7  -2  -2 3912.66 263.207   3
   2   7   1 5701.57 445.115   3
  -2   9   1 5039.02 533.105   3
  -9   2   1 4916.49 648.716   4
   7  -9   1 5877.01 684.108   1
   9  -7   1 4965.83 530.522   4
   7  -9   1 6026.38 644.276   3
   7  -9   1 5631.20 411.748   2
   9  -7   1 5385.28 529.549   2
  -2   9   1 5784.17 552.490   1
   2   7   1 6394.77 745.392   4
  -7  -2   1 6267.94 727.622   2
  -9   2   1 5372.10 560.518   3
  -9   2   1 5183.00 668.572   2
   2   7   1 6318.55 613.209   1
  -7  -2   1 5840.56 679.102   4
  -7  -2   1 5487.95 559.272   1
   9  -7   1 6881.72 626.900   3
   2   7   1 5747.53 833.901   2
  -9   2   4 539.851 284.959   1
   7  -9   4 295.725 514.165   1
  -9   2   4 201.385 389.391   4
  -2   9   4 902.911 498.128   3
  -7  -2   4 348.369 387.815   2
   9  -7   4 910.493 250.027   4
   7  -9   4 650.296 217.288   4
   7  -9   4 596.433 240.226   4
  -7  -2   4 720.659 424.473   1
  -9   2   4 794.241 464.555   2
   2   7   4 914.903 399.482   3
  -7  -2   4 46.5317 354.566   4
  -9   2   4 231.634 490.768   3
  -7  -2   7 2411.05 584.641   1
  -9   2   7 1485.76 418.167   1
  -7  -2   7 2210.69 594.492   4
  -9   2   7 2999.65 713.900   4
  -9   3  -9-760.458 796.459   2
   3   6  -9-231.757 768.328   3
  -9   3  -9-124.718 637.264   1
   6  -9  -9 579.288 724.836   3
  -3   9  -9 960.838 686.390   1
   3   6  -9 970.974 642.529   1
  -6  -3  -9 1354.59 495.318   4
  -6  -3  -9 629.472 586.727   3
   6  -9  -9 234.825 125.189   1
  -6  -3  -9 2245.23 957.918   2
   9  -6  -9-373.604 771.599   3
  -6  -3  -9 1347.78 646.327   1
  -9   3  -9-552.141 662.645   3
  -6  -3  -6 7618.99 870.150   3
   9  -6  -6 6833.46 875.686   4
   3   6  -6 7460.50 1144.37   3
  -9   3  -6 7068.42 453.683   4
  -9   3  -6 7621.82 1024.24   2
   3   6  -6 7572.24 824.839   4
  -3   9  -6 9177.29 1037.94   1
  -3   9  -6 7030.38 638.694   2
   6  -9  -6 9054.06 1018.13   4
   3   6  -6 9320.69 951.388   1
  -6  -3  -6 6512.86 1084.34   2
   9  -6  -6 8299.09 1127.95   3
   3   6  -6 7984.30 958.075   2
  -9   3  -6 9185.99 1200.21   1
  -6  -3  -6 9090.77 845.740   4
   6  -9  -6 8732.28 1109.30   3
  -6  -3  -3 5894.76 473.116   3
   6  -9  -3 6420.02 766.374   3
  -9   3  -3 5326.21 685.053   2
   9  -6  -3 7116.06 833.162   3
  -9   3  -3 6184.40 560.216   3
   3   6  -3 5937.92 718.416   4
   3   6  -3 6962.70 735.783   2
   9  -6  -3 4835.80 651.877   4
   3   6  -3 5640.26 673.781   1
  -6  -3  -3 5634.22 641.538   4
  -3   9  -3 5087.38 392.815   2
  -9   3  -3 5851.39 540.306   4
   6  -9  -3 5461.70 374.009   1
  -3   9  -3 4909.67 670.997   1
   9  -6  -3 5814.59 745.939   2
  -6  -3  -3 4777.53 822.308   2
  -3   9   0 21293.7 972.901   3
  -3   9   0 23273.6 1062.19   1
  -9   3   0 22828.1 1128.55   4
  -6  -3   0 21408.2 1045.23   1
   6  -9   0 20054.0 997.967   1
   3   6   0 20451.5 1063.12   1
  -6  -3   0 22090.4 1202.23   4
   9  -6   0 22472.8 1011.00   3
   3   6   0 22694.4 703.288   3
   6  -9   0 20870.3 1055.75   3
  -6  -3   0 22069.1 1238.98   2
   9  -6   0 20907.2 1069.10   4
  -9   3   0 20855.4 1142.83   2
  -9   3   0 20792.5 913.451   3
   3   6   0 22676.2 1214.68   4
   9  -6   0 21921.7 1068.83   2
   3   6   0 20987.8 1291.17   2
  -6  -3   3-45.1490 370.916   1
   3   6   3 408.140 270.291   3
  -9   3   3 1543.35 554.069   2
  -9   3   3-19.8507 390.171   3
  -3   9   3 552.185 445.205   3
  -6  -3   3 380.575 397.881   4
   6  -9   3 882.551 465.821   1
  -6  -3   3 614.902 394.894   2
   9  -6   3 815.606 277.869   4
  -9   3   3 875.320 444.154   4
  -9   3   3 490.631 262.436   1
   9  -6   3 480.904 349.665   2
  -9   3   6 6621.36 533.137   1
  -9   3   6 8333.36 949.388   4
  -6  -3   6 7527.03 802.449   4
  -6  -3   6 5483.38 739.711   1
  -9   4 -10-22.5972 824.289   3
  -9   4 -10-575.163 752.668   1
  -5  -4 -10 300.363 427.037   4
  -4   9 -10 444.237 946.059   3
  -5  -4 -10-84.5650 810.006   2
   4   5 -10 486.846 620.205   1
   4   5 -10 680.435 974.326   3
  -5  -4 -10 645.977 715.935   3
  -4   9 -10 1238.60 846.736   1
  -9   4 -10 1484.38 875.621   2
   9  -5 -10-32.4935 818.753   3
  -5  -4 -10 338.693 653.907   1
   5  -9 -10 1210.82 900.341   3
  -5  -4  -7 13145.7 1232.38   3
   4   5  -7 13281.8 1150.49   1
   5  -9  -7 9466.77 609.627   1
  -4   9  -7 11903.2 841.843   2
  -5  -4  -7 13094.2 1015.89   4
   4   5  -7 13105.3 1114.30   4
   5  -9  -7 9524.33 519.341   1
  -9   4  -7 13729.2 1328.70   2
   9  -5  -7 13132.6 1438.08   3
   5  -9  -7 13357.9 1389.27   3
   4   5  -7 10251.2 1395.40   3
  -9   4  -7 16241.7 1535.45   1
  -4   9  -7 12969.8 1314.20   1
  -5  -4  -7 14903.8 1616.96   2
  -5  -4  -7 15044.6 1285.09   1
  -4   9  -4 104.314 142.309   2
   4   5  -4 239.183 376.430   4
   9  -5  -4 1369.40 577.745   3
  -4   9  -4 25.8288 442.336   1
  -5  -4  -4 515.378 328.963   3
  -5  -4  -4 767.206 635.941   2
   9  -5  -4 684.486 432.445   4
   5  -9  -4 58.3577 191.270   1
  -9   4  -4 783.464 592.797   1
  -9   4  -4-469.137 270.655   4
   9  -5  -4 147.142 394.782   2
  -9   4  -4 322.659 396.193   2
   4   5  -4-304.785 424.264   1
   5  -9  -4 37.0884 425.546   3
   4   5  -4 147.039 381.940   2
  -5  -4  -4-434.452 349.065   4
  -4   9  -1 11535.1 838.703   1
  -9   4  -1 13116.4 730.357   3
   4   5  -1 11506.4 903.454   4
  -5  -4  -1 10400.6 848.543   4
   5  -9  -1 10895.2 704.926   1
  -9   4  -1 10561.5 790.504   2
   5  -9  -1 12400.6 836.723   3
  -5  -4  -1 11286.2 801.814   1
   9  -5  -1 10466.8 830.068   4
   9  -5  -1 11357.3 891.786   2
   4   5  -1 9387.40 876.308   2
  -9   4  -1 11037.1 740.976   4
   9  -5  -1 11622.0 785.713   3
  -4   9  -1 11060.6 748.917   3
   4   5  -1 10939.6 788.989   1
  -5  -4  -1 11743.6 1033.49   2
  -9   4   2 2226.17 488.997   3
   4   5   2 1609.68 618.467   2
   5  -9   2 1466.63 481.826   1
  -4   9   2 2079.78 345.472   1
  -5  -4   2 2090.78 444.850   1
   4   5   2 1816.36 256.574   3
  -9   4   2 2219.60 539.021   2
  -5  -4   2 1829.04 481.267   2
  -5  -4   2 1597.47 430.803   4
   4   5   2 1673.18 459.079   4
   9  -5   2 1962.16 410.113   4
   9  -5   2 1818.65 400.634   2
  -9   4   2 2020.22 482.036   4
  -4   9   2 2056.03 474.107   3
   9  -5   5 7742.81 404.113   4
  -5  -4   5 11161.4 960.327   1
  -5  -4   5 13337.5 1090.19   2
  -9   4   5 10850.2 978.154   4
  -5  -4   5 10608.3 885.500   4
  -9   4   5 8161.63 481.775   1
  -4   9   5 10268.8 1070.19   3
  -5  -4   8 2.09494 379.238   4
  -9   5  -8 542.623 663.995   1
  -5   9  -8 845.267 631.783   1
   4  -9  -8 186.650 268.600   1
   9  -4  -8 134.576 668.450   3
  -4  -5  -8 872.454 522.363   1
  -5   9  -8 783.157 419.937   2
  -9   5  -8 1262.27 774.563   2
  -4  -5  -8 1566.43 575.090   3
   5   4  -8 431.288 572.640   4
   4  -9  -8 1121.01 383.815   1
   9  -4  -8 377.508 220.483   1
   5   4  -8-137.575 719.029   3
   4  -9  -8 1529.03 718.574   3
  -4  -5  -8 1822.58 934.214   2
  -4  -5  -8 253.720 415.833   4
   5   4  -8 1284.80 578.905   1
  -5   9  -5 11827.1 1106.15   1
   5   4  -5 10090.9 1076.12   2
   5   4  -5 10337.0 1182.27   3
   4  -9  -5 9740.85 541.514   1
  -9   5  -5 10910.1 969.670   2
  -4  -5  -5 9455.65 852.056   4
   4  -9  -5 12210.8 1122.18   3
  -9   5  -5 11285.4 1212.05   1
   5   4  -5 10419.6 977.774   4
  -4  -5  -5 11185.3 928.708   3
  -4  -5  -5 12268.6 1339.83   2
   5   4  -5 11559.8 917.077   1
   9  -4  -5 12680.1 1231.93   3
  -5   9  -5 9849.96 517.570   2
   9  -4  -5 9753.89 950.697   4
  -9   5  -5 8401.12 411.359   4
   9  -4  -2 2124.32 548.304   2
  -5   9  -2 1500.78 396.117   3
   4  -9  -2 1218.29 336.896   1
  -4  -5  -2 1750.02 234.803   3
   9  -4  -2 1338.16 431.047   3
   9  -4  -2 1180.96 410.223   4
   4  -9  -2 1171.77 419.326   3
   5   4  -2 1421.79 406.731   1
  -5   9  -2 1550.10 476.102   1
  -4  -5  -2 1547.83 584.650   2
  -9   5  -2 1134.95 314.554   3
  -9   5  -2 1592.15 531.755   1
   5   4  -2 789.752 374.293   4
  -9   5  -2 1162.00 346.246   2
  -4  -5  -2 1535.94 474.716   4
   5   4  -2 1707.79 493.882   2
  -4  -5  -2 2010.31 436.681   1
  -9   5  -2 1424.87 341.310   4
  -9   5   1 12323.3 862.387   3
  -5   9   1 12612.9 698.839   1
   9  -4   1 12758.0 721.315   3
   4  -9   1 13509.1 747.073   2
  -9   5   1 11424.4 877.198   4
   5   4   1 13131.0 940.571   4
  -4  -5   1 11187.4 850.392   2
   9  -4   1 13569.4 847.853   4
   5   4   1 10993.4 990.689   2
   4  -9   1 12265.5 905.245   1
   4  -9   1 12330.5 856.372   3
  -4  -5   1 13459.8 869.572   1
   9  -4   1 11759.8 816.559   2
  -4  -5   1 13857.0 970.456   4
  -5   9   1 12921.2 859.746   3
  -9   5   1 12019.6 889.358   2
  -9   5   4-9.84084 104.531   1
  -9   5   4-340.499 395.652   4
  -9   5   4-231.517 459.823   3
   9  -4   4 80.5563 228.860   4
   4  -9   4 201.658 250.398   4
  -4  -5   4 23.1513 376.389   1
  -4  -5   4 734.312 405.086   2
   4  -9   4 55.6545 418.307   1
  -4  -5   4 186.204 335.917   4
  -5   9   4 330.780 435.141   3
  -4  -5   7 10932.1 1169.37   1
  -4  -5   7 12436.6 946.400   4
   6   3  -9 20.8676 497.062   1
   3  -9  -9 367.435 634.654   3
   6   3  -9-448.098 841.837   3
   9  -3  -9-733.031 844.973   3
  -9   6  -9 1313.68 859.763   1
   9  -3  -9 538.833 318.320   1
  -3  -6  -9 796.471 800.056   2
  -3  -6  -9 744.146 510.265   4
  -6   9  -9 760.697 582.584   2
  -6   9  -9 770.156 703.563   1
  -3  -6  -9 1115.49 713.432   3
   3  -9  -9 31.2345 417.264   1
  -3  -6  -9 503.986 530.147   1
  -9   6  -9 668.510 727.971   2
   9  -3  -6 6020.17 832.515   4
  -6   9  -6 6044.40 887.636   1
  -9   6  -6 6603.83 1006.73   1
  -9   6  -6 5847.31 776.941   2
  -3  -6  -6 7230.55 856.135   3
  -3  -6  -6 8281.69 1214.94   2
   9  -3  -6 5611.16 970.605   3
  -6   9  -6 5124.02 546.295   2
  -6   9  -6 5170.95 447.189   2
  -3  -6  -6 5700.62 720.684   4
   3  -9  -6 6635.38 950.108   3
   6   3  -6 5853.64 1087.44   3
   6   3  -6 5080.41 792.728   4
   6   3  -6 4916.69 848.498   2
   6   3  -6 6414.56 750.748   1
   3  -9  -6 5597.20 507.492   1
   9  -3  -6 5967.84 474.837   1
  -9   6  -3 137.556 253.489   2
  -9   6  -3 884.706 517.586   1
  -3  -6  -3 358.342 234.467   3
   9  -3  -3 87.7779 373.808   4
   9  -3  -3-207.420 373.878   3
   6   3  -3 619.694 400.042   4
  -3  -6  -3 312.517 578.837   2
  -6   9  -3 454.075 369.441   3
   3  -9  -3 1068.98 301.747   1
  -6   9  -3 0.35163 392.342   1
   9  -3  -3 868.171 489.046   2
   6   3  -3 1036.17 527.600   2
  -3  -6  -3 580.386 413.343   4
  -3  -6  -3 251.288 304.210   1
  -9   6  -3 497.838 349.269   3
   3  -9  -3 588.853 397.805   3
   6   3  -3 360.434 384.517   3
   6   3  -3 281.515 379.557   1
  -9   6  -3 618.499 248.616   4
  -6   9   0 17032.1 921.220   1
  -3  -6   0 19023.4 1108.99   4
  -3  -6   0 18202.7 1147.99   2
   3  -9   0 17708.2 1051.49   2
  -9   6   0 18522.6 952.037   3
   3  -9   0 17520.6 987.357   1
  -9   6   0 17093.8 980.677   4
   6   3   0 19689.8 1114.76   4
  -9   6   0 17035.9 951.423   1
   9  -3   0 17011.0 1028.32   4
  -6   9   0 17385.6 948.578   3
   6   3   0 17332.0 1171.14   2
  -3  -6   0 17463.5 959.946   1
   9  -3   0 16545.1 1068.40   2
   9  -3   0 18427.8 824.300   3
   3  -9   0 19317.5 961.419   3
   6   3   0 15899.3 535.017   3
  -9   6   0 17153.6 953.276   2
  -3  -6   3 5887.69 629.762   2
  -6   9   3 6208.78 772.922   3
   6   3   3 6780.41 728.675   4
   9  -3   3 6471.70 773.744   2
  -9   6   3 7000.95 813.237   3
   3  -9   3 5404.94 340.559   2
   3  -9   3 6101.96 579.316   4
  -9   6   3 6447.49 737.377   4
  -3  -6   3 6479.39 707.132   4
  -9   6   3 5523.79 291.497   1
   3  -9   3 6363.09 772.770   1
  -6   9   3 6398.82 381.691   1
   9  -3   3 7371.02 609.695   4
   6   3   3 5550.44 851.739   2
  -3  -6   3 7312.23 738.109   1
  -3  -6   6 8194.94 748.938   4
   3  -9   6 6499.14 458.333   4
  -3  -6   6 8404.78 987.711   1
   7   2 -10 477.586 562.535   1
   2  -9 -10 1020.96 684.193   4
   9  -2 -10 946.362 355.036   1
   9  -2 -10 220.469 806.459   3
  -7   9 -10-18.8728 706.901   2
  -2  -7 -10-63.9753 525.107   4
  -9   7 -10 992.482 957.116   3
   2  -9 -10 2315.42 885.189   3
   7   2 -10-76.0935 890.245   3
   2  -9 -10 954.350 585.505   1
  -7   9 -10 95.8321 738.284   1
  -2  -7 -10 1035.63 986.872   2
  -9   7 -10 1209.18 812.324   2
  -2  -7 -10 1274.96 838.526   3
  -9   7 -10 450.215 716.819   1
  -2  -7 -10 1180.06 745.484   1
  -7   9  -7 2087.95 412.712   2
   7   2  -7 2994.80 621.643   1
   9  -2  -7 2818.18 872.619   3
  -9   7  -7 1878.29 660.141   1
  -7   9  -7 2196.45 723.202   1
  -2  -7  -7 3724.20 795.092   3
   2  -9  -7 2470.84 536.852   1
  -2  -7  -7 2499.86 609.575   4
  -9   7  -7 1282.32 531.645   2
   2  -9  -7 3098.91 806.317   3
   9  -2  -7 2223.51 428.430   1
   7   2  -7 2816.83 769.133   4
   7   2  -7 1982.10 763.848   3
   2  -9  -7 1561.97 386.445   1
  -7   9  -7 2007.94 477.052   2
  -2  -7  -7 2211.49 893.945   2
   7   2  -4 718.606 349.480   1
  -9   7  -4 1785.30 635.570   1
  -9   7  -4 66.7765 355.018   3
  -2  -7  -4 1707.46 422.859   3
   2  -9  -4 815.758 427.551   3
   9  -2  -4 156.476 397.652   4
  -7   9  -4 564.397 491.825   1
   2  -9  -4 570.219 251.403   1
  -2  -7  -4 1428.59 511.720   4
   7   2  -4 843.092 513.903   2
  -9   7  -4 1521.13 364.822   2
  -2  -7  -4 1027.57 381.207   1
   7   2  -4 529.480 451.466   4
   9  -2  -4 575.694 275.302   1
   9  -2  -4 456.738 465.127   3
   7   2  -4 917.169 486.449   3
  -2  -7  -4 1281.70 724.932   2
   9  -2  -4 1677.86 625.768   2
  -9   7  -1 6570.27 597.394   4
   7   2  -1 5658.72 671.383   4
  -9   7  -1 5924.88 602.216   3
   7   2  -1 5912.74 534.852   3
   7   2  -1 6668.15 642.575   1
  -7   9  -1 6534.41 636.692   3
   2  -9  -1 6368.57 591.621   3
   9  -2  -1 6088.67 585.269   3
  -2  -7  -1 6955.43 451.955   3
  -2  -7  -1 5724.12 680.015   4
   9  -2  -1 5561.05 705.737   4
  -7   9  -1 6166.47 668.086   1
   9  -2  -1 5103.77 715.235   2
  -9   7  -1 6341.30 543.913   2
   2  -9  -1 5799.56 732.344   2
   7   2  -1 6125.32 757.161   2
  -2  -7  -1 5908.56 619.936   1
  -2  -7  -1 6764.48 850.172   2
  -9   7  -1 5403.84 690.030   1
   2  -9  -1 6140.82 613.025   1
   9  -2   2 5208.18 698.281   2
  -7   9   2 4273.68 617.527   3
   7   2   2 6022.07 833.447   2
  -7   9   2 5294.60 417.482   1
  -2  -7   2 5426.20 613.709   2
  -9   7   2 4385.79 637.575   3
  -2  -7   2 5446.76 711.569   1
  -9   7   2 5487.50 434.557   1
   2  -9   2 4763.76 603.056   4
  -2  -7   2 4582.85 605.505   4
   7   2   2 6058.87 676.945   4
   9  -2   2 5129.00 587.077   4
   2  -9   2 6021.43 717.810   1
   2  -9   2 5377.59 480.072   2
   2  -9   5 7681.16 599.852   4
  -2  -7   5 8524.50 943.206   1
   2  -9   5 8125.58 992.409   1
   9  -2   5 8353.62 605.955   4
  -2  -7   5 8006.75 807.549   2
  -2  -7   5 6974.56 689.097   4
  -2  -7   8 1327.49 424.383   4
  -8   9  -8 4642.46 745.482   2
  -8   9  -8 3356.27 562.110   2
  -1  -8  -8 4737.96 816.372   4
   8   1  -8 6526.03 804.481   1
   1  -9  -8 3896.29 610.528   1
   1  -9  -8 5542.21 968.417   3
  -1  -8  -8 5285.98 990.734   3
  -9   8  -8 6416.78 1133.94   1
   8   1  -8 6036.83 1139.91   3
   1  -9  -8 4659.19 733.067   1
  -8   9  -8 5588.79 1100.81   1
  -9   8  -8 4813.88 791.897   2
   1  -9  -8 6260.38 918.191   4
   9  -1  -8 5685.50 648.808   1
   9  -1  -8 5865.23 1145.15   3
  -1  -8  -8 5495.21 841.071   1
   8   1  -5 6232.21 901.656   3
   1  -9  -5 7244.73 898.498   3
  -1  -8  -5 6486.39 651.298   1
   8   1  -5 7109.90 890.734   4
  -9   8  -5 6965.75 610.231   2
   9  -1  -5 7022.61 1015.21   3
   8   1  -5 7070.28 704.682   1
  -8   9  -5 4935.68 414.348   2
   1  -9  -5 5898.60 574.471   1
  -1  -8  -5 6966.52 826.576   4
  -9   8  -5 5961.85 892.680   1
   9  -1  -5 7456.92 624.934   1
   9  -1  -5 7574.12 911.814   4
   8   1  -5 5400.58 897.214   2
  -8   9  -5 6668.90 913.753   1
  -1  -8  -5 8598.52 916.997   3
   8   1  -2 2847.84 525.798   3
   1  -9  -2 3130.49 468.415   3
   9  -1  -2 2646.66 620.350   2
   1  -9  -2 2987.87 713.651   2
  -1  -8  -2 2754.91 446.459   1
  -1  -8  -2 2547.84 680.564   2
   9  -1  -2 2751.66 559.219   4
   1  -9  -2 2099.11 545.596   4
   9  -1  -2 2888.28 519.741   3
   8   1  -2 2134.51 420.895   1
   8   1  -2 2610.61 574.727   4
  -9   8  -2 3523.60 608.801   1
  -9   8  -2 2206.89 479.459   3
  -8   9  -2 1920.89 445.455   3
  -9   8  -2 2768.03 333.963   2
   8   1  -2 2853.91 633.750   2
   1  -9  -2 2734.46 426.536   1
  -1  -8  -2 3184.23 446.026   3
  -8   9  -2 2301.52 568.588   1
  -1  -8  -2 1676.86 450.155   4
   1  -9   1 18485.4 1123.40   1
   1  -9   1 18119.3 1069.81   4
   8   1   1 17599.2 1090.73   4
  -1  -8   1 17341.3 1031.20   2
  -1  -8   1 15311.2 1011.90   1
  -8   9   1 17633.1 837.268   1
  -1  -8   1 19075.3 1102.72   4
   1  -9   1 15693.4 945.079   2
   9  -1   1 20344.1 1139.21   4
   9  -1   1 17333.5 1146.21   2
   9  -1   1 19163.8 664.548   3
   8   1   1 17894.0 1233.21   2
  -9   8   1 18463.7 880.406   1
  -9   8   1 17710.0 1066.14   3
  -8   9   1 16628.2 1027.97   3
  -9   8   4 2708.87 678.147   3
  -8   9   4 1171.21 574.435   3
   1  -9   4 3078.49 405.100   2
   9  -1   4 2150.55 423.147   4
  -1  -8   4 2282.60 566.757   1
  -1  -8   4 2402.53 496.145   4
   8   1   4 2940.55 515.393   4
   1  -9   4 1779.53 548.875   1
   1  -9   4 2510.26 443.441   4
  -1  -8   4 2640.42 465.859   2
   9  -1   4 2359.78 704.317   2
   1  -9   7 9716.90 641.659   4
  -1  -8   7 10730.2 790.898   4
   9   0  -9 643.806 499.296   1
   9   0  -9-396.848 735.745   3
  -9   9  -9 363.110 754.502   1
   0  -9  -9 371.479 615.794   3
   0  -9  -9 319.735 576.807   1
   0  -9  -9 615.621 578.890   4
  -9   9  -9-313.923 585.735   2
   0  -9  -6 2429.55 611.177   3
  -9   9  -6 3088.80 764.654   1
   0  -9  -6 2626.32 455.007   1
   9   0  -6 3160.29 519.377   1
   9   0  -6 2585.35 672.961   4
   0  -9  -6 3314.27 644.174   4
   9   0  -6 2591.34 734.505   3
  -9   9  -6 3457.07 491.569   2
  -9   9  -3 206.721 404.822   1
   9   0  -3 136.715 474.483   2
   9   0  -3 57.0076 292.073   1
   0  -9  -3 236.854 266.865   1
   0  -9  -3 51.6344 332.544   3
   0  -9  -3-63.3511 559.646   2
   0  -9  -3 782.429 452.288   4
  -9   9  -3-152.604 359.497   3
   9   0  -3 244.242 395.898   4
  -9   9  -3 246.145 146.691   2
   9   0  -3 796.688 481.717   3
   0  -9   0 9153.68 859.125   4
   9   0   0 8942.81 875.454   2
   0  -9   0 8543.84 919.868   2
   9   0   0 9233.80 860.956   4
  -9   9   0 9195.52 761.469   1
   0  -9   0 8250.59 742.608   1
  -9   9   0 6963.83 702.344   3
   9   0   0 8903.05 542.868   3
   0  -9   0 7575.67 613.789   3
   9   0   3 139.677 367.072   4
  -9   9   3 201.956 118.332   1
   0  -9   3-192.228 290.196   2
   0  -9   3-463.358 450.547   1
   0  -9   3 433.760 370.674   4
  -9   9   3-406.411 445.591   3
   9   0   3-922.237 544.004   2
   0  -9   6 3609.37 521.173   4
 -10   0 -10 5124.87 1096.48   1
  10 -10 -10 4843.70 1281.43   3
   0  10 -10 4945.40 1430.79   3
   0  10 -10 5659.83 1097.51   1
 -10   0 -10 6239.79 1207.51   3
 -10   0 -10 5750.65 1354.97   2
 -10   0  -7-256.260 622.056   2
   0  10  -7 286.664 568.861   1
 -10   0  -7 1224.69 785.396   1
   0  10  -7-266.270 422.278   4
 -10   0  -7 129.511 357.742   4
   0  10  -7 561.870 502.079   2
  10 -10  -7 719.014 728.033   3
 -10   0  -7-272.087 447.227   3
   0  10  -4 20299.4 1156.10   2
  10 -10  -4 21246.5 1513.99   3
  10 -10  -4 20879.6 1412.62   4
   0  10  -4 21103.6 1420.07   1
   0  10  -4 21251.3 1256.99   4
 -10   0  -4 21773.2 1204.17   4
 -10   0  -4 19470.7 1479.47   2
 -10   0  -1 350.063 417.836   2
   0  10  -1 234.178 404.573   4
   0  10  -1-166.171 365.043   1
  10 -10  -1-383.193 361.596   3
 -10   0  -1 252.035 199.806   3
  10 -10  -1-308.070 415.018   4
   0  10  -1-493.630 454.736   2
   0  10  -1 102.543 278.056   3
 -10   0  -1 419.400 419.793   4
  10 -10  -1 107.717 308.638   1
  10 -10  -1-134.908 330.307   2
 -10   0   2 17465.8 1108.21   3
  10 -10   2 16834.2 1102.05   3
  10 -10   2 17894.9 976.205   4
 -10   0   2 16416.3 1234.27   2
 -10   0   2 16407.2 959.229   1
   0  10   2 16283.8 937.956   3
   0  10   2 16693.2 1032.04   1
  10 -10   2 16620.5 742.091   2
 -10   0   2 16033.5 1185.69   4
  10 -10   2 15619.4 1228.46   1
   0  10   5 433.191 489.764   3
 -10   0   5 388.035 378.555   1
  10 -10   5 350.798 179.695   4
 -10   0   5 18.6180 468.706   2
 -10   0   5 467.712 493.833   4
 -10   0   8 13050.8 1246.10   4
 -10   0   8 10067.6 952.573   1
  -1  10  -8 721.521 665.951   1
 -10   1  -8 436.796 517.775   3
   1   9  -8 207.480 626.558   1
   9 -10  -8-570.862 647.617   3
  -9  -1  -8 1291.04 669.330   1
 -10   1  -8 1035.46 769.477   2
   1   9  -8 141.386 535.997   2
   1   9  -8 318.933 486.376   4
 -10   1  -8 730.994 279.374   4
  -9  -1  -8 335.924 333.147   4
  -9  -1  -8-373.789 716.130   2
 -10   1  -8 785.485 639.524   1
  -9  -1  -8 678.343 515.616   3
  10  -9  -8 354.313 601.297   3
  -1  10  -8 903.375 563.602   2
  -1  10  -5 2977.52 509.976   2
   1   9  -5 3538.81 601.266   2
  -9  -1  -5 2976.97 543.126   4
  10  -9  -5 2872.45 726.062   3
   1   9  -5 2503.60 534.683   4
  -9  -1  -5 4014.59 585.648   3
   9 -10  -5 2734.86 679.050   3
  -1  10  -5 1769.97 539.850   1
 -10   1  -5 3026.33 702.564   2
   1   9  -5 4254.10 710.319   1
 -10   1  -5 3296.52 517.009   4
  -1  10  -5 3347.31 580.839   4
  -9  -1  -5 3818.86 825.145   2
   1   9  -2 3843.53 602.328   2
  10  -9  -2 3740.06 644.840   2
   9 -10  -2 3225.62 594.947   4
   9 -10  -2 3191.73 618.615   2
  -9  -1  -2 3336.72 265.086   3
  10  -9  -2 4189.94 624.103   3
  -1  10  -2 3440.43 531.133   2
  -1  10  -2 3351.57 623.811   1
   1   9  -2 4125.21 658.058   4
 -10   1  -2 3988.89 587.410   4
   9 -10  -2 4416.22 642.983   3
 -10   1  -2 4075.71 379.140   3
  -9  -1  -2 4630.58 757.392   2
   1   9  -2 3228.82 582.896   1
  -9  -1  -2 2853.70 537.559   4
 -10   1  -2 3285.57 630.639   2
   9 -10  -2 3744.29 437.931   1
  -1  10  -2 3146.81 531.414   3
  10  -9  -2 3170.93 570.883   4
  -1  10  -2 3621.90 585.139   4
   1   9   1 615.970 288.719   3
  10  -9   1 794.953 364.144   4
 -10   1   1 403.258 341.896   3
  10  -9   1 1071.92 338.631   2
  -1  10   1 526.563 344.120   1
  -9  -1   1 961.625 445.795   2
   9 -10   1 616.133 282.671   2
  10  -9   1 547.391 364.698   1
  -9  -1   1 1120.27 358.226   3
 -10   1   1 496.487 404.165   2
  -9  -1   1 377.739 284.136   1
  10  -9   1 212.150 331.969   3
   9 -10   1 300.245 390.515   3
  -9  -1   1 52.3789 403.530   4
 -10   1   1 472.314 317.837   1
   1   9   1-93.0307 333.511   1
   1   9   1 851.314 498.661   2
 -10   1   1 388.517 398.862   4
   9 -10   1 227.445 400.831   1
  -1  10   1 965.606 328.883   3
  -9  -1   4 2761.07 592.889   4
 -10   1   4 2012.80 599.661   3
 -10   1   4 1796.45 406.452   1
  -9  -1   4 2390.54 583.264   2
  10  -9   4 2532.17 359.990   4
   9 -10   4 2507.32 354.274   4
  -1  10   4 3010.39 598.666   3
 -10   1   4 2109.03 597.184   4
   1   9   4 2110.84 515.567   3
 -10   1   4 2119.92 640.270   2
  -9  -1   4 2139.47 467.350   1
  -9  -1   7 1554.34 571.246   1
 -10   1   7 1396.22 472.815   1
 -10   1   7 861.333 499.777   4
  -9  -1   7 747.953 500.714   4
   8 -10  -9 2782.72 965.009   3
  -8  -2  -9 1410.40 700.318   3
  -8  -2  -9 1318.65 668.980   1
 -10   2  -9 1621.55 789.318   1
   2   8  -9 1761.88 701.240   1
 -10   2  -9 604.842 660.076   3
   2   8  -9 1388.69 974.069   3
  -8  -2  -9 2725.31 1017.53   2
 -10   2  -9 1521.63 872.517   2
  -2  10  -9 1023.68 593.751   1
  10  -8  -9 824.479 793.118   3
  -8  -2  -9 1121.65 385.187   4
  -2  10  -6 4052.97 771.878   1
  10  -8  -6 5032.88 924.296   3
   8 -10  -6 4700.95 934.331   3
 -10   2  -6 3774.24 471.182   4
  -8  -2  -6 3354.96 629.787   3
 -10   2  -6 4342.29 830.744   2
   2   8  -6 4877.80 794.076   2
  -8  -2  -6 5470.25 1095.16   2
   2   8  -6 3553.82 629.009   4
 -10   2  -6 5224.50 1001.78   1
  -8  -2  -6 3934.77 622.705   4
  -2  10  -6 3832.96 540.230   2
   2   8  -6 4017.22 733.972   1
  10  -8  -3 6595.86 823.878   2
   8 -10  -3 7058.20 855.978   3
  -8  -2  -3 6773.50 741.875   4
  -8  -2  -3 6964.24 962.466   2
 -10   2  -3 6933.30 546.380   3
  -2  10  -3 7855.60 869.060   1
   2   8  -3 6658.95 737.762   2
 -10   2  -3 7736.91 693.117   4
 -10   2  -3 7034.10 850.539   2
   2   8  -3 7601.82 811.348   4
   8 -10  -3 5178.41 377.357   1
  10  -8  -3 8016.02 913.920   3
  -8  -2  -3 6661.66 480.526   3
  -2  10  -3 5591.39 543.340   2
   2   8  -3 7563.63 798.122   1
  10  -8  -3 6174.68 769.707   4
   2   8   0 10172.1 587.722   3
  -8  -2   0 10901.8 978.533   2
 -10   2   0 10877.0 692.055   3
   2   8   0 10914.8 943.347   4
  10  -8   0 12455.6 867.536   3
  -8  -2   0 10670.8 810.458   1
 -10   2   0 11030.4 929.791   2
  -8  -2   0 12525.9 983.190   4
   8 -10   0 11675.3 768.716   2
  -2  10   0 11065.4 841.872   1
   2   8   0 11120.3 1043.38   2
  10  -8   0 12404.6 902.311   4
  -2  10   0 11297.7 755.008   3
  10  -8   0 11589.6 824.525   2
 -10   2   0 10506.4 876.496   4
   2   8   0 12547.9 877.647   1
   8 -10   0 11755.8 870.054   1
   8 -10   0 10577.3 811.806   3
 -10   2   3 7360.41 904.899   3
 -10   2   3 9252.06 937.951   2
  -2  10   3 9743.79 863.353   3
  -8  -2   3 9256.93 921.819   2
 -10   2   3 9671.76 948.542   4
  10  -8   3 8854.25 668.695   2
  -8  -2   3 10047.0 957.025   4
  -8  -2   3 10479.4 832.992   1
 -10   2   3 10751.6 705.306   1
  10  -8   3 9272.34 646.082   4
   2   8   3 9599.36 713.743   3
   8 -10   3 10827.8 1068.66   1
  -8  -2   6 196.642 479.365   2
 -10   2   6 171.221 292.576   1
  -8  -2   6 1078.69 481.663   1
 -10   2   6 1658.34 590.954   4
  -8  -2   6 2000.21 591.368   4
  -3  10 -10 8264.01 1749.44   3
  -7  -3 -10 7121.21 1219.04   3
 -10   3 -10 6216.75 1260.49   1
  10  -7 -10 5480.71 1313.08   3
  -3  10 -10 5430.27 1077.59   1
   7 -10 -10 7492.03 1367.91   3
  -7  -3 -10 5024.03 971.100   1
   3   7 -10 7206.03 1117.46   1
 -10   3 -10 4844.05 1148.95   2
 -10   3 -10 7027.66 1339.43   3
   3   7 -10 5082.26 1340.27   3
  -7  -3 -10 4530.12 1243.05   2
   3   7  -7 1098.80 825.990   3
  -3  10  -7 174.105 379.074   2
   3   7  -7 1095.58 662.299   2
 -10   3  -7-638.452 557.009   2
   3   7  -7-354.403 497.576   4
   3   7  -7 185.390 454.217   1
  -7  -3  -7 607.248 476.138   3
  10  -7  -7 865.031 690.464   3
 -10   3  -7 231.312 681.032   1
  -7  -3  -7-144.073 438.576   1
  -3  10  -7 282.842 525.813   1
  -7  -3  -7 795.486 750.590   2
  -7  -3  -7 218.632 409.943   4
 -10   3  -7 146.315 155.962   4
   7 -10  -7-351.803 673.228   3
  -7  -3  -4 20358.6 997.106   3
  -3  10  -4 19658.3 1357.02   1
  -7  -3  -4 18108.1 1526.51   2
 -10   3  -4 20918.1 992.857   4
  10  -7  -4 21935.4 1523.84   3
 -10   3  -4 20262.4 1319.98   2
   3   7  -4 20070.6 1247.48   4
   3   7  -4 19785.8 1242.86   1
  10  -7  -4 18972.1 1246.07   4
  10  -7  -4 18737.4 1403.43   2
   3   7  -4 18438.1 1247.99   2
  -7  -3  -4 19435.4 1162.41   4
  -3  10  -4 16241.9 728.267   2
   7 -10  -4 18794.7 1322.75   3
   7 -10  -1 4791.93 635.208   3
   3   7  -1 5426.01 642.278   1
  -3  10  -1 5911.99 676.840   1
   3   7  -1 6544.66 780.711   4
  -3  10  -1 5767.83 590.500   3
  -7  -3  -1 5834.77 663.997   1
  10  -7  -1 5643.64 676.783   2
  -7  -3  -1 6026.56 718.524   4
 -10   3  -1 4305.96 611.541   2
   3   7  -1 4909.99 729.239   2
  10  -7  -1 5479.77 664.785   4
  10  -7  -1 5284.78 650.802   3
  -7  -3  -1 5541.85 827.452   2
 -10   3  -1 5746.12 630.869   4
   7 -10  -1 5912.91 569.218   1
 -10   3  -1 5663.81 504.847   3
   3   7   2 13745.4 656.387   3
   3   7   2 14491.5 1083.24   4
  10  -7   2 14148.8 906.243   3
  -3  10   2 14479.8 963.610   3
 -10   3   2 14043.2 998.224   3
  10  -7   2 14542.0 851.711   4
 -10   3   2 14220.0 759.747   1
 -10   3   2 14015.4 1045.57   2
 -10   3   2 13056.8 1012.81   4
   3   7   2 13943.6 1259.55   2
   7 -10   2 13328.9 1055.53   1
  -7  -3   2 15218.8 949.873   1
  -3  10   2 13597.3 788.852   1
  -7  -3   2 15807.6 1102.36   4
  -7  -3   2 14040.9 1034.43   2
  10  -7   2 14665.2 845.347   2
   7 -10   5 730.099 173.198   4
  10  -7   5 373.261 148.063   4
  -7  -3   5 1117.23 406.334   1
  -7  -3   5 1675.13 512.045   2
 -10   3   5 1305.57 594.932   2
 -10   3   5 1210.29 327.674   1
   7 -10   5 707.392 192.673   4
  -3  10   5 875.945 502.550   3
  -7  -3   5 1574.52 499.873   4
 -10   3   5 1638.08 532.312   4
  -7  -3   8 11065.7 1185.96   1
 -10   3   8 8131.44 698.207   1
  -7  -3   8 11425.7 1067.73   4
 -10   4  -8 1152.11 735.774   1
  -4  10  -8 1973.62 521.426   2
  -6  -4  -8 2264.20 760.939   1
   4   6  -8 1240.80 576.090   1
 -10   4  -8 2473.56 807.511   2
   6 -10  -8 621.472 161.353   1
  -4  10  -8 808.070 627.635   1
   4   6  -8 1911.72 618.055   4
   6 -10  -8 851.921 156.844   1
  -6  -4  -8 1276.56 492.727   4
   4   6  -8 1668.07 915.410   3
  10  -6  -8 1583.39 823.596   3
  -6  -4  -8 1946.21 636.141   3
  -6  -4  -8 2346.73 909.276   2
   6 -10  -8 1377.00 757.384   3
   4   6  -5 5193.01 698.034   1
  -4  10  -5 4861.64 766.213   1
   6 -10  -5 5186.83 868.270   3
   6 -10  -5 3200.35 290.399   1
 -10   4  -5 5901.90 801.856   2
 -10   4  -5 5061.55 461.925   4
  -6  -4  -5 5153.47 971.789   2
  -6  -4  -5 4961.25 680.032   4
  10  -6  -5 4795.35 864.896   3
  -4  10  -5 4516.45 397.698   2
   4   6  -5 5916.80 767.712   4
   4   6  -5 5607.47 824.896   2
  -6  -4  -5 5973.24 702.414   3
  10  -6  -5 5289.55 780.853   4
 -10   4  -5 5689.66 976.309   1
  -4  10  -2 6757.11 701.047   3
   6 -10  -2 6393.53 718.786   3
   4   6  -2 7525.23 737.852   1
  -4  10  -2 5696.11 700.862   1
   6 -10  -2 6411.58 519.989   1
 -10   4  -2 6554.53 695.059   2
  -6  -4  -2 6234.15 861.242   2
  -6  -4  -2 6817.17 745.283   4
   4   6  -2 7233.09 767.190   4
 -10   4  -2 6312.00 586.725   4
 -10   4  -2 6439.83 552.141   3
  10  -6  -2 6441.07 716.316   4
  10  -6  -2 6713.00 793.180   2
  10  -6  -2 7492.49 753.289   3
   4   6  -2 6471.73 797.986   2
 -10   4   1 516.978 375.057   4
   4   6   1 244.535 159.142   3
 -10   4   1 178.143 328.911   3
   6 -10   1 1275.94 466.930   1
  -6  -4   1 1114.85 436.472   2
   4   6   1 651.736 475.786   2
  -4  10   1 887.637 373.496   3
   4   6   1 1023.94 450.850   4
  -6  -4   1 874.375 344.012   1
  10  -6   1 165.566 296.982   2
  10  -6   1 782.977 359.262   3
 -10   4   1 230.101 345.769   2
   6 -10   1 425.975 366.394   3
  -4  10   1 677.232 319.404   1
  -6  -4   1 1116.89 473.677   4
   4   6   1 555.306 348.700   1
  10  -6   1 692.736 364.739   4
  -4  10   4 8701.03 962.686   3
  10  -6   4 8286.55 572.129   4
  -6  -4   4 10089.6 879.931   1
 -10   4   4 8919.95 515.457   1
 -10   4   4 8761.51 959.022   4
  -6  -4   4 7598.52 813.336   4
 -10   4   4 7766.50 990.745   3
   6 -10   4 8452.79 595.473   4
   6 -10   4 8989.41 1057.56   1
  10  -6   4 9430.09 874.780   2
 -10   4   4 8624.64 1036.03   2
  -6  -4   4 7246.90 797.633   2
 -10   4   7 182.324 215.595   1
  -6  -4   7-258.067 401.370   4
   5 -10  -9 3297.51 977.085   3
  -5  10  -9 3888.82 914.665   1
  -5  -5  -9 4046.14 1183.51   2
 -10   5  -9 4402.98 1158.54   3
  10  -5  -9 2993.19 1046.97   3
   5   5  -9 3673.14 806.858   1
  -5  -5  -9 2605.41 662.260   4
   5   5  -9 4913.79 1220.90   3
  -5  -5  -9 3313.00 902.248   3
 -10   5  -9 4294.54 1063.45   1
 -10   5  -9 3417.18 949.382   2
  -5  -5  -9 2800.12 829.031   1
   5 -10  -9 1659.53 342.321   1
  -5  -5  -6 4067.26 681.631   3
 -10   5  -6 4860.77 959.284   1
  10  -5  -6 4254.96 963.262   3
  -5  -5  -6 4574.81 698.295   4
 -10   5  -6 2897.92 605.162   2
   5   5  -6 3008.47 655.507   4
   5 -10  -6 4348.86 842.459   3
   5 -10  -6 2571.41 378.271   1
   5   5  -6 4488.89 930.291   3
   5   5  -6 4185.27 692.276   1
  -5  -5  -6 3824.89 898.566   2
   5 -10  -6 2721.03 311.216   1
  -5  10  -6 3398.56 386.158   2
   5   5  -6 2376.03 683.537   2
  -5  10  -6 3563.58 777.211   1
 -10   5  -3 12597.9 879.147   2
  -5  -5  -3 13575.8 689.847   3
  10  -5  -3 14356.6 1118.19   3
  -5  -5  -3 13558.5 1273.54   2
   5 -10  -3 13620.7 700.038   1
  -5  -5  -3 13280.2 993.887   4
  -5  10  -3 14666.5 1072.17   3
  10  -5  -3 13273.9 1022.57   4
   5   5  -3 14216.8 1121.21   2
   5   5  -3 13021.0 938.457   1
   5 -10  -3 14364.3 1061.63   3
 -10   5  -3 13406.2 858.524   3
 -10   5  -3 13574.5 770.505   4
  -5  10  -3 12698.9 1053.35   1
 -10   5  -3 15128.8 1314.08   1
  10  -5  -3 13869.3 1194.59   2
   5   5  -3 13936.2 1027.64   4
   5   5   0 1819.98 576.916   2
  10  -5   0 1757.83 454.124   2
   5 -10   0 2491.85 446.348   1
 -10   5   0 1261.83 384.443   3
  -5  10   0 2315.93 433.107   3
  10  -5   0 2327.35 409.713   3
   5 -10   0 1693.54 441.382   3
  -5  -5   0 2302.49 569.905   4
  -5  -5   0 1643.43 481.765   2
  -5  -5   0 2674.60 477.878   1
 -10   5   0 1885.73 471.041   4
 -10   5   0 1487.91 416.837   2
   5   5   0 2040.72 526.407   4
  10  -5   0 1350.23 448.890   4
  -5  10   0 1934.44 427.557   1
   5   5   0 2097.84 469.103   1
 -10   5   3 12871.5 1086.14   3
  -5  -5   3 14672.0 998.808   1
   5 -10   3 13291.4 1105.21   1
  -5  -5   3 11839.0 934.990   2
 -10   5   3 17371.8 1193.63   4
  -5  -5   3 14513.2 1067.07   4
   5 -10   3 13319.9 831.379   4
  -5  10   3 13506.0 1045.27   3
 -10   5   3 14781.9 623.000   1
   5   5   3 14510.0 1050.80   4
  10  -5   3 12659.1 964.533   2
  -5  10   3 15960.6 726.359   1
  10  -5   3 15111.3 844.846   4
 -10   5   3 15500.6 1222.54   2
  -5  -5   6 3516.59 634.094   4
 -10   5   6 1958.20 220.916   1
  -5  -5   6 3443.92 713.938   2
  -5  -5   6 3094.09 664.850   1
  -6  10 -10 4087.09 1014.15   1
  -4  -6 -10 2060.12 644.377   4
  -4  -6 -10 5167.89 1154.61   3
 -10   6 -10 2291.42 950.953   1
  -4  -6 -10 2842.44 857.060   1
   4 -10 -10 3264.66 1033.48   3
  -6  10 -10 3526.42 874.617   2
   6   4 -10 3570.92 1195.24   3
  -4  -6 -10 163.525 929.245   2
   6   4 -10 2870.90 700.561   1
  10  -4 -10 4432.89 1270.30   3
 -10   6 -10 3088.80 974.891   2
 -10   6 -10 2423.38 926.491   3
   6   4  -7 137.591 665.610   3
  -6  10  -7 725.778 378.476   2
  -4  -6  -7-190.895 714.413   2
 -10   6  -7 195.062 595.996   1
   6   4  -7 1369.35 594.447   1
   4 -10  -7 811.717 290.894   1
   6   4  -7 714.876 571.422   4
   4 -10  -7 1653.31 685.746   3
  -6  10  -7 1075.20 580.673   1
  10  -4  -7 704.755 224.665   1
  -6  10  -7 804.861 296.848   2
  -4  -6  -7 1430.92 606.291   4
   4 -10  -7 415.391 300.806   1
 -10   6  -7 314.441 546.221   2
  -4  -6  -7 1848.69 629.332   3
  10  -4  -7 354.220 584.988   3
   4 -10  -4 7575.19 864.706   3
   6   4  -4 8332.02 852.611   4
 -10   6  -4 7600.84 770.604   3
  10  -4  -4 8765.50 990.987   2
  -6  10  -4 9897.44 1023.72   1
 -10   6  -4 9328.54 787.269   2
  -4  -6  -4 8412.16 842.855   4
 -10   6  -4 10432.2 1171.10   1
  -4  -6  -4 10450.5 1265.03   2
  10  -4  -4 8645.02 914.828   4
  -4  -6  -4 9228.26 746.620   3
   6   4  -4 7935.36 957.172   2
 -10   6  -4 9668.52 591.460   4
   6   4  -4 9326.58 988.393   3
   6   4  -4 8411.16 813.460   1
   4 -10  -4 9138.35 607.752   1
  10  -4  -4 8331.46 1004.38   3
  -6  10  -1 74.3760 330.641   3
 -10   6  -1 1062.21 492.495   1
  -4  -6  -1 481.386 163.574   3
  -4  -6  -1 520.740 319.118   1
  10  -4  -1 943.168 400.377   3
  10  -4  -1 422.200 448.364   2
   6   4  -1 802.337 403.977   2
 -10   6  -1 292.419 292.299   3
  -4  -6  -1 365.835 508.558   2
   4 -10  -1 224.552 297.894   1
 -10   6  -1 639.915 348.670   4
   6   4  -1 240.944 330.326   1
  10  -4  -1 567.042 417.269   4
 -10   6  -1 513.492 326.900   2
   4 -10  -1 859.400 385.131   3
  -4  -6  -1 85.0860 414.012   4
   6   4  -1 521.278 264.314   3
   6   4  -1 333.277 388.526   4
  -6  10  -1 567.934 390.637   1
   6   4   2 6982.63 943.738   2
 -10   6   2 7457.16 785.664   3
  -6  10   2 7459.76 762.245   3
   6   4   2 7219.99 758.314   4
  -4  -6   2 6857.10 739.567   1
  10  -4   2 6905.11 763.168   2
   4 -10   2 6568.90 680.689   4
  -6  10   2 6834.27 500.509   1
  -4  -6   2 6548.33 680.071   2
  -4  -6   2 7521.42 768.669   4
 -10   6   2 7925.34 860.477   2
   4 -10   2 6562.26 770.291   1
  10  -4   2 7231.12 666.649   4
 -10   6   2 7097.57 791.919   4
   4 -10   2 6550.10 431.354   2
  -4  -6   5 4608.27 713.494   2
  -4  -6   5 5182.72 742.116   1
  -4  -6   5 5096.10 686.052   4
   4 -10   5 4269.56 436.967   4
  10  -4   5 5173.79 464.008   4
  -4  -6   8 1025.55 416.223   4
   3 -10  -8 10184.1 746.576   1
  -7  10  -8 16177.8 1529.83   1
  -7  10  -8 12548.0 970.025   2
   3 -10  -8 13665.6 1462.93   3
  -3  -7  -8 11157.8 1110.83   4
  -3  -7  -8 11967.5 1704.78   2
 -10   7  -8 12537.3 1213.14   2
  -7  10  -8 8933.76 702.276   2
   7   3  -8 12737.1 1599.96   3
   3 -10  -8 13193.1 1016.92   1
   7   3  -8 9647.18 1210.06   4
  -3  -7  -8 9726.72 1068.07   1
  10  -3  -8 12700.7 1565.84   3
  -3  -7  -8 11528.7 1309.13   3
   7   3  -8 12575.9 1136.58   1
 -10   7  -8 15418.3 1622.26   1
  10  -3  -8 11138.9 688.891   1
  -7  10  -5 2880.87 711.855   1
   3 -10  -5 1297.02 311.464   1
   7   3  -5 639.336 500.978   3
  10  -3  -5 1725.90 607.723   3
  10  -3  -5 888.177 436.939   4
 -10   7  -5 2682.71 539.866   2
  -3  -7  -5 1381.25 440.764   3
   7   3  -5 624.143 445.335   2
   7   3  -5 1606.30 443.629   1
   3 -10  -5 684.532 469.488   3
   7   3  -5 1505.45 566.618   4
 -10   7  -5 890.224 541.000   1
  -3  -7  -5 1373.45 506.484   4
  -3  -7  -5 2066.65 907.722   2
  -3  -7  -2 13139.0 885.716   1
   7   3  -2 14536.8 941.638   3
  10  -3  -2 15594.6 1025.39   3
 -10   7  -2 13297.7 883.269   3
   7   3  -2 14422.0 1086.76   4
   3 -10  -2 13434.1 835.733   1
  -3  -7  -2 14924.7 674.550   3
  -7  10  -2 14089.3 1079.79   1
 -10   7  -2 15650.9 1169.88   1
  10  -3  -2 13393.5 1051.39   4
 -10   7  -2 15887.4 835.276   2
   7   3  -2 14606.3 939.668   1
   7   3  -2 12645.5 1092.86   2
 -10   7  -2 15185.7 848.059   4
  -3  -7  -2 12786.3 1219.03   2
  10  -3  -2 11695.2 1045.62   2
  -7  10  -2 12661.8 934.504   3
   3 -10  -2 14404.5 939.668   3
  -3  -7  -2 12804.0 996.983   4
  -7  10   1 5519.72 542.707   1
  -7  10   1 5327.65 638.061   3
 -10   7   1 4660.05 626.776   3
  10  -3   1 5483.78 698.417   2
  10  -3   1 5656.45 706.069   4
 -10   7   1 6422.90 573.877   1
   7   3   1 5210.55 763.240   2
 -10   7   1 6115.12 711.821   4
   3 -10   1 5984.14 651.650   3
  -3  -7   1 5729.29 690.694   2
  -3  -7   1 5374.22 657.132   1
   3 -10   1 5662.48 613.100   2
   3 -10   1 4665.71 635.507   4
 -10   7   1 5107.54 642.991   2
   7   3   1 5068.40 688.911   4
  10  -3   1 5664.98 482.990   3
  -3  -7   1 6030.69 727.113   4
   3 -10   1 6545.97 737.497   1
  -7  10   4 19496.4 1395.84   3
   3 -10   4 16265.9 661.216   2
  10  -3   4 19027.0 1350.03   2
   7   3   4 18237.1 1134.11   4
  10  -3   4 18866.2 956.279   4
  -3  -7   4 18098.6 1128.33   4
   3 -10   4 19483.9 1434.91   1
   3 -10   4 18822.4 974.288   4
 -10   7   4 18173.8 1413.13   3
  -3  -7   4 18530.5 1094.80   2
  -3  -7   4 20303.0 1320.68   1
  -3  -7   7 580.676 432.762   4
   3 -10   7-20.7254 170.893   4
   2 -10  -9 7563.50 1265.80   3
  -2  -8  -9 6844.19 978.406   4
  10  -2  -9 5377.58 1263.85   3
  -2  -8  -9 4833.68 1010.04   3
 -10   8  -9 5761.80 982.472   2
  -8  10  -9 5598.27 832.217   2
 -10   8  -9 5470.85 1162.85   1
   8   2  -9 6636.04 1290.50   3
   2 -10  -9 3684.29 918.650   4
  -8  10  -9 4540.01 1048.79   1
   2 -10  -9 5148.59 822.756   1
  -2  -8  -9 5672.21 889.721   1
  10  -2  -9 5196.44 611.680   1
   8   2  -9 5381.92 795.159   1
  -2  -8  -9 8245.65 1656.97   2
  10  -2  -6 1189.47 358.017   1
  -8  10  -6 886.357 253.764   2
  -2  -8  -6 648.421 402.721   1
 -10   8  -6 1826.85 722.445   1
  -2  -8  -6 1266.01 562.749   4
  -2  -8  -6 571.439 471.052   3
  -8  10  -6 2354.06 725.811   1
   2 -10  -6 1305.83 600.786   3
  -8  10  -6 557.794 174.155   2
  10  -2  -6 823.593 561.589   3
   8   2  -6 1228.53 445.278   1
  -2  -8  -6 1214.89 750.105   2
 -10   8  -6 1037.44 411.016   2
   8   2  -6 1680.64 660.289   3
   2 -10  -6 875.823 337.785   1
   8   2  -6 494.853 501.835   4
   2 -10  -3 8311.26 797.559   3
   8   2  -3 8737.26 898.374   3
   8   2  -3 7949.06 938.552   2
 -10   8  -3 9033.99 601.347   2
  10  -2  -3 10181.4 968.376   3
  10  -2  -3 9496.62 1060.04   2
  -8  10  -3 8677.94 923.874   1
  -2  -8  -3 9580.65 1190.73   2
  -2  -8  -3 8557.11 688.715   3
   8   2  -3 9487.18 779.415   1
  -8  10  -3 8814.72 885.594   3
 -10   8  -3 8463.67 962.396   1
 -10   8  -3 8780.99 806.799   3
  -2  -8  -3 8463.90 877.500   4
   8   2  -3 8803.26 905.916   4
   2 -10  -3 8210.89 663.468   1
  10  -2  -3 8441.42 905.339   4
  -2  -8  -3 9022.76 754.691   1
   8   2   0 9250.25 467.008   3
 -10   8   0 9883.52 788.585   2
  10  -2   0 10826.6 651.649   3
 -10   8   0 9084.19 766.254   3
   8   2   0 9512.03 941.790   2
   2 -10   0 9541.85 804.500   1
  10  -2   0 9957.72 915.651   2
   2 -10   0 11143.7 783.214   3
  -2  -8   0 11603.7 943.544   4
  -2  -8   0 11290.8 1016.43   2
  10  -2   0 11019.9 911.295   4
   2 -10   0 10325.0 986.069   2
 -10   8   0 9676.64 796.958   1
  -2  -8   0 10195.3 816.211   1
  -8  10   0 9181.06 809.916   3
  -8  10   0 9740.38 772.899   1
   8   2   0 10180.6 892.157   4
   2 -10   0 9714.57 865.154   4
  -8  10   3 5914.71 795.796   3
  -2  -8   3 6960.84 688.318   2
   8   2   3 6810.81 753.546   4
 -10   8   3 6620.50 832.930   3
   8   2   3 7368.46 993.781   2
  10  -2   3 5951.71 832.280   2
 -10   8   3 4554.95 316.590   1
  -2  -8   3 5319.35 663.087   4
  10  -2   3 6489.13 670.809   4
   2 -10   3 6002.30 782.857   1
  -2  -8   3 5692.24 745.129   1
   2 -10   3 6679.46 700.763   4
   2 -10   3 6470.27 501.923   2
  -8  10   3 6436.16 375.677   1
  -2  -8   6 4970.65 659.885   4
   2 -10   6 3024.09 450.342   4
  -2  -8   9 954.271 377.343   4
  -1  -9 -10 1645.86 759.631   4
   9   1 -10 827.044 497.884   1
  -9  10 -10 1349.04 861.671   1
  -1  -9 -10 1120.07 885.801   3
   1 -10 -10 682.367 778.751   3
  -1  -9 -10 712.635 1155.73   2
  10  -1 -10 1586.24 989.453   3
 -10   9 -10 1746.08 849.101   1
  10  -1 -10 1169.19 460.499   1
  -9  10 -10 790.302 623.522   2
   1 -10 -10-125.191 671.629   4
  -1  -9 -10 1523.61 693.464   1
 -10   9 -10-818.346 749.210   2
   1 -10 -10 558.563 540.410   1
   9   1 -10 1243.39 1048.94   3
   1 -10  -7 1186.01 574.705   3
  10  -1  -7 1533.81 451.107   1
  -1  -9  -7 956.711 564.270   3
  -1  -9  -7 937.849 816.796   2
  10  -1  -7 471.028 621.286   3
   1 -10  -7 504.618 373.519   1
   9   1  -7 398.564 654.690   3
  -9  10  -7-54.9488 234.661   2
   1 -10  -7 1172.48 570.833   4
 -10   9  -7 727.021 666.003   1
  -1  -9  -7 611.076 524.213   4
 -10   9  -7 1025.00 462.487   2
  -1  -9  -7 294.970 359.970   1
   9   1  -7 705.780 420.930   1
  -9  10  -7 335.449 307.730   2
  -9  10  -7 1003.72 589.442   1
   9   1  -4 3186.86 527.797   1
  -1  -9  -4 2935.12 608.827   4
 -10   9  -4 2298.29 642.796   1
   9   1  -4 2227.76 602.951   3
  10  -1  -4 2166.69 603.433   3
  -1  -9  -4 2229.88 504.198   3
  10  -1  -4 1893.72 388.928   1
   1 -10  -4 2019.88 417.661   1
   1 -10  -4 2943.17 631.524   3
   9   1  -4 2522.68 694.814   2
  -9  10  -4 2827.91 697.668   1
 -10   9  -4 2262.47 590.105   3
  -9  10  -4 1466.92 511.703   3
   9   1  -4 1891.67 537.157   4
  10  -1  -4 2411.27 719.939   2
  -1  -9  -4 1609.99 392.229   1
 -10   9  -4 2104.84 294.933   2
  -1  -9  -4 3619.95 905.975   2
  10  -1  -4 2385.96 610.264   4
 -10   9  -1 1837.47 519.732   1
   9   1  -1 1171.10 501.947   4
  10  -1  -1 356.050 407.618   2
   9   1  -1 1265.30 351.001   3
 -10   9  -1 315.755 285.622   2
 -10   9  -1 812.891 343.141   3
   1 -10  -1 1571.87 410.355   3
  -1  -9  -1 826.407 299.602   3
   1 -10  -1 781.890 354.463   1
   1 -10  -1 2078.87 558.100   4
  10  -1  -1 956.158 356.392   3
  -1  -9  -1 1529.24 515.675   4
   1 -10  -1 859.453 517.542   2
   9   1  -1 861.576 467.767   2
  -1  -9  -1 1171.16 417.295   1
  10  -1  -1 883.966 417.098   4
  -9  10  -1 689.984 363.884   3
  -1  -9  -1 877.946 586.257   2
  -9  10  -1 1191.29 456.338   1
   9   1   2 3437.75 617.241   4
   1 -10   2 3536.34 505.121   2
 -10   9   2 2837.45 578.058   3
  10  -1   2 2901.78 546.313   4
  -9  10   2 4049.83 417.154   1
  -1  -9   2 2638.35 545.479   4
  -1  -9   2 3677.45 533.504   2
  10  -1   2 3293.28 624.230   2
 -10   9   2 3697.58 403.785   1
  -9  10   2 3328.96 613.762   3
  -1  -9   2 2777.49 566.009   1
   1 -10   2 2719.12 526.439   4
   1 -10   2 3396.11 628.632   1
   9   1   2 3725.04 733.879   2
   1 -10   5 3727.64 500.837   2
  -1  -9   5 3834.21 569.214   4
  10  -1   5 3900.49 556.790   4
  -1  -9   5 2779.46 536.344   2
   9   1   5 3768.17 571.701   4
   1 -10   5 3205.69 500.537   4
   1 -10   8 438.623 264.944   4
  -1  -9   8 465.468 357.686   4
  10   0  -8 14502.1 1641.95   3
   0 -10  -8 13809.7 1431.94   3
 -10  10  -8 9087.25 755.205   2
 -10  10  -8 16630.9 1719.24   1
 -10  10  -8 12664.8 1013.39   2
   0 -10  -8 9172.94 869.695   1
   0 -10  -8 13927.8 1357.77   4
  10   0  -8 14444.1 1025.61   1
   0 -10  -8 9623.58 965.617   1
  10   0  -5-41.1898 313.025   1
   0 -10  -5-99.8080 331.589   1
   0 -10  -5-325.759 458.725   4
   0 -10  -5 337.253 443.255   3
 -10  10  -5 111.313 143.099   2
 -10  10  -5 488.567 559.968   1
  10   0  -5-524.017 484.811   4
  10   0  -5 441.483 529.605   3
 -10  10  -2 15039.9 1045.52   3
  10   0  -2 15174.1 1197.05   4
 -10  10  -2 15090.8 657.129   2
   0 -10  -2 17580.6 944.552   3
   0 -10  -2 14313.7 1128.61   4
   0 -10  -2 16433.5 1394.81   2
 -10  10  -2 17032.9 1222.65   1
  10   0  -2 16976.6 1066.70   3
   0 -10  -2 15870.4 981.583   1
  10   0  -2 16582.6 1309.63   2
  10   0   1 21.2236 165.430   3
 -10  10   1 265.601 409.362   3
   0 -10   1-794.319 442.500   1
   0 -10   1 215.057 450.257   4
   0 -10   1 375.538 453.504   2
  10   0   1 492.217 438.164   4
 -10  10   1 2.70909 287.102   1
  10   0   1 137.168 423.348   2
  10   0   4 21985.4 1221.72   4
   0 -10   4 23118.1 1090.96   2
   0 -10   4 20304.9 1189.06   4
   0 -10   4 21789.7 1476.99   1
  10   0   4 19232.5 1561.93   2
   0 -10   7 461.751 355.024   4
  11 -11  -8 1779.03 690.923   3
 -11   0  -8 1257.96 626.442   1
   0  11  -8 569.785 627.223   1
 -11   0  -8 1421.00 468.775   4
   0  11  -8-142.840 593.296   2
 -11   0  -8 796.089 730.322   2
 -11   0  -8 992.915 635.069   3
  11 -11  -5 640.376 592.521   3
   0  11  -5 257.157 452.184   4
   0  11  -5 49.9522 416.203   2
 -11   0  -5-476.277 578.253   2
   0  11  -5 440.739 522.970   1
 -11   0  -2 1978.86 686.897   2
   0  11  -2 1444.62 539.534   2
   0  11  -2 795.730 443.841   4
  11 -11  -2 961.945 468.863   2
   0  11  -2 697.063 407.675   3
  11 -11  -2 2200.74 589.178   4
   0  11  -2 352.457 456.191   1
 -11   0  -2 1041.82 430.538   4
 -11   0  -2 767.763 232.938   3
  11 -11  -2 804.057 489.557   3
   0  11   1-49.4310 289.115   3
 -11   0   1 0.72752 346.727   3
 -11   0   1-129.010 404.130   4
  11 -11   1-206.242 304.186   4
  11 -11   1-775.992 469.629   1
  11 -11   1-565.815 380.913   3
  11 -11   1 157.600 300.185   2
   0  11   1 399.656 419.678   1
 -11   0   1 146.785 308.866   1
 -11   0   1 48.3674 414.724   2
 -11   0   4 3304.66 760.031   4
 -11   0   4 4259.20 754.737   2
   0  11   4 3613.17 692.121   3
  11 -11   4 4464.99 499.512   4
 -11   0   4 4602.79 616.037   1
 -11   0   7 185.699 433.758   1
 -11   0   7 602.879 524.370   4
  11 -10  -9 3676.11 1013.28   3
 -10  -1  -9 2078.57 822.895   1
 -11   1  -9 3689.99 909.691   3
   1  10  -9 2546.92 866.862   1
   1  10  -9 1552.89 1175.63   3
 -11   1  -9 2379.44 892.962   2
 -11   1  -9 2948.11 952.879   1
 -10  -1  -9 2934.41 829.739   3
 -10  -1  -9 1520.98 424.955   4
  -1  11  -9 2350.36 849.992   1
  10 -11  -9 2627.31 953.394   3
 -10  -1  -9 3264.41 1093.67   2
 -10  -1  -6 243.178 402.599   3
  -1  11  -6 334.436 482.795   1
  -1  11  -6 195.247 396.884   4
  11 -10  -6 118.714 531.155   3
  10 -11  -6-24.0717 545.999   3
   1  10  -6 233.601 591.762   1
   1  10  -6 1064.16 564.930   4
 -11   1  -6 201.550 649.049   2
   1  10  -6 206.735 420.574   2
 -10  -1  -6 450.406 399.711   4
 -11   1  -6-80.5496 630.755   1
 -11   1  -6 553.468 370.194   4
 -10  -1  -6-337.119 736.477   2
  -1  11  -6 352.307 416.112   2
  -1  11  -3 3850.08 598.845   2
  11 -10  -3 3491.99 703.157   2
 -10  -1  -3 4394.71 630.187   4
  10 -11  -3 3714.63 708.997   2
  10 -11  -3 4535.93 730.431   3
  -1  11  -3 4794.75 755.372   1
 -10  -1  -3 5036.11 400.128   3
 -11   1  -3 4578.67 786.926   2
 -10  -1  -3 6173.72 953.976   2
 -11   1  -3 5033.33 467.563   3
  11 -10  -3 4748.90 782.265   3
 -11   1  -3 5139.20 641.537   4
  11 -10  -3 4416.42 710.079   4
   1  10  -3 3989.94 636.384   2
  -1  11  -3 4281.10 629.452   4
  10 -11  -3 4319.54 718.104   4
   1  10  -3 4676.66 725.444   1
   1  10  -3 4917.02 725.218   4
  10 -11   0 455.747 398.033   4
  10 -11   0 661.868 424.464   3
   1  10   0 1409.32 523.178   4
  11 -10   0 199.484 347.340   4
 -10  -1   0 628.442 484.683   2
 -11   1   0 630.361 444.848   2
 -11   1   0 1051.39 334.860   3
   1  10   0 716.671 393.862   1
   1  10   0-6.64189 550.037   2
  11 -10   0 356.889 330.655   2
  -1  11   0 274.811 348.292   1
 -10  -1   0 1165.62 288.323   3
 -10  -1   0 872.436 379.711   1
  10 -11   0 554.094 345.856   2
 -11   1   0 1121.56 467.800   4
  11 -10   0 459.905 391.205   1
  -1  11   0 844.587 349.094   3
  11 -10   0 497.653 371.972   3
  10 -11   0 773.828 429.984   1
   1  10   0 650.216 300.247   3
 -10  -1   0 1440.11 487.013   4
 -11   1   3 5127.13 757.834   3
  11 -10   3 4610.05 467.828   2
 -11   1   3 5788.54 796.320   4
  -1  11   3 7009.84 715.241   1
  10 -11   3 5481.58 873.918   1
 -10  -1   3 5824.14 843.344   2
  11 -10   3 5390.96 876.872   1
  10 -11   3 5311.83 536.864   4
 -10  -1   3 7420.82 751.952   1
  11 -10   3 5025.05 550.140   4
 -10  -1   3 5016.74 754.860   4
 -11   1   3 5237.80 602.186   1
   1  10   3 5253.80 621.510   3
  -1  11   3 5829.87 688.868   3
 -11   1   3 6001.59 794.828   2
 -10  -1   6 577.909 550.430   2
 -11   1   6 432.680 392.307   1
 -11   1   6 607.685 578.188   2
 -10  -1   6 337.783 508.140   4
 -10  -1   6 348.803 421.881   1
 -11   1   6 429.695 457.031   4
   1  10   6 593.145 547.871   3
 -10  -1   9 1464.44 681.552   4
  -2  11 -10 1355.96 838.145   1
  -2  11 -10 641.640 1014.47   3
 -11   2 -10 1327.24 780.403   1
  -9  -2 -10 1543.34 817.467   3
 -11   2 -10 1707.02 897.580   3
  -9  -2 -10-176.722 1052.99   2
   9 -11 -10 553.209 811.544   3
   2   9 -10 2916.21 939.240   1
  11  -9 -10 2508.56 1062.67   3
 -11   2 -10 974.893 931.836   2
  -9  -2 -10 2037.68 847.152   1
   2   9 -10 1487.89 1159.25   3
  11  -9  -7 7315.62 1199.77   3
 -11   2  -7 6841.68 599.777   4
  -9  -2  -7 6086.68 765.588   4
 -11   2  -7 7049.44 1129.35   2
  -2  11  -7 7669.98 1108.35   1
  -9  -2  -7 6158.77 992.510   1
  -2  11  -7 6137.82 715.504   2
   2   9  -7 7043.56 969.300   2
  -9  -2  -7 6829.74 1223.83   2
   2   9  -7 6826.76 917.568   4
  -9  -2  -7 7718.37 974.450   3
 -11   2  -7 7928.21 1246.26   1
   2   9  -7 5300.54 872.167   1
   9 -11  -7 6520.28 1169.13   3
  -2  11  -4 9825.89 1007.86   1
  11  -9  -4 7976.34 987.517   3
   2   9  -4 8951.68 920.839   4
   2   9  -4 8220.17 852.745   2
   9 -11  -4 9071.54 983.212   3
   9 -11  -4 11047.0 1070.09   4
  -9  -2  -4 10415.0 1223.89   2
 -11   2  -4 8302.76 685.373   3
 -11   2  -4 9617.21 1050.30   2
   2   9  -4 10234.3 995.511   1
  -2  11  -4 10114.3 721.641   2
  -9  -2  -4 11175.9 969.038   4
 -11   2  -4 10182.4 817.221   4
  11  -9  -4 8688.72 956.300   4
  -9  -2  -4 9296.07 676.755   3
  11  -9  -1 13541.5 1060.01   4
   9 -11  -1 14756.4 916.995   1
   2   9  -1 14310.8 830.593   3
  11  -9  -1 14179.5 975.315   3
  -2  11  -1 13623.0 889.759   3
  -9  -2  -1 14601.9 1065.78   4
  -9  -2  -1 11445.5 1092.57   2
  -2  11  -1 12283.6 937.899   2
 -11   2  -1 14940.2 1111.98   2
   2   9  -1 13352.1 1089.01   4
   9 -11  -1 13840.9 978.226   3
   2   9  -1 14840.2 1032.40   1
 -11   2  -1 14177.5 1013.74   4
   2   9  -1 14329.2 1146.68   2
 -11   2  -1 13849.4 750.981   3
   9 -11  -1 13644.4 986.458   2
  -2  11  -1 14175.3 1043.36   1
  11  -9  -1 13207.8 1029.51   2
  -2  11   2 4490.75 553.526   1
   9 -11   2 4874.94 729.441   3
   2   9   2 5829.22 542.805   3
  11  -9   2 5658.85 607.931   4
 -11   2   2 5393.11 714.716   3
  11  -9   2 6454.71 750.331   3
  -9  -2   2 5947.72 655.030   1
 -11   2   2 5168.15 741.046   4
   2   9   2 6294.96 730.079   1
  11  -9   2 5346.94 767.300   1
   9 -11   2 5245.97 780.597   1
  -9  -2   2 5618.17 778.061   4
   9 -11   2 4960.96 361.853   2
  11  -9   2 4624.94 497.212   2
  -9  -2   2 5471.50 744.954   2
  -2  11   2 5076.88 633.464   3
 -11   2   2 3964.00 667.288   2
 -11   2   2 4911.81 529.304   1
  -9  -2   5 7772.22 841.426   1
 -11   2   5 10114.0 758.880   1
 -11   2   5 10645.8 1236.87   2
  11  -9   5 7300.14 462.615   4
   9 -11   5 7498.06 515.074   4
   2   9   5 10128.9 992.986   3
  -9  -2   5 8940.98 967.730   4
  -2  11   5 8117.38 982.174   3
   9 -11   5 8010.74 493.469   4
  -9  -2   5 10037.8 1107.61   2
 -11   2   5 10289.8 1056.20   4
  -9  -2   8 1379.21 659.461   1
  -9  -2   8 2489.54 709.552   4
 -11   2   8 951.713 445.036   1
   3   8  -8 1114.28 888.893   3
   8 -11  -8 1547.86 696.939   3
  -8  -3  -8 1265.90 500.159   4
  -3  11  -8 2777.26 822.490   1
  -8  -3  -8 1053.70 682.249   1
 -11   3  -8 671.635 754.212   2
  -8  -3  -8 604.207 860.502   2
 -11   3  -8 1035.39 728.628   1
   3   8  -8 737.268 564.390   4
 -11   3  -8 2008.54 724.015   3
  -8  -3  -8 1731.98 677.799   3
  11  -8  -8 992.689 702.054   3
   3   8  -8 28.9187 575.510   1
  -3  11  -8 1423.67 530.878   2
  11  -8  -5 1791.31 707.678   3
   3   8  -5 2411.62 593.731   4
 -11   3  -5 3741.78 882.333   1
   8 -11  -5 2237.55 731.166   3
  -8  -3  -5 961.721 651.030   2
 -11   3  -5 2520.74 448.950   4
 -11   3  -5 2441.42 627.870   2
  -8  -3  -5 1956.22 515.266   4
  -8  -3  -5 2773.82 516.664   3
  -3  11  -5 3176.16 713.156   1
  -3  11  -5 1879.54 353.501   2
   3   8  -5 1587.60 581.827   2
   3   8  -5 2007.89 512.408   1
  11  -8  -2 9471.67 917.482   2
   3   8  -2 11105.1 998.740   2
  11  -8  -2 9555.17 863.156   3
  -3  11  -2 10879.1 948.706   1
  -8  -3  -2 9159.18 867.557   4
 -11   3  -2 10989.1 680.191   3
   8 -11  -2 10872.1 910.309   3
  -3  11  -2 10635.7 882.158   3
   3   8  -2 11746.0 1005.82   4
 -11   3  -2 11583.1 862.735   4
  -3  11  -2 9064.39 658.620   2
  11  -8  -2 9649.17 901.267   4
   3   8  -2 11907.9 946.501   1
   8 -11  -2 10440.8 669.432   1
  -8  -3  -2 11134.9 1139.32   2
 -11   3  -2 9958.43 913.503   2
   3   8   1 3133.29 760.822   2
   3   8   1 2259.38 478.417   1
   8 -11   1 2968.73 570.355   3
  -3  11   1 3701.23 551.741   3
  11  -8   1 3316.87 534.116   4
 -11   3   1 3333.80 623.667   2
   8 -11   1 3195.95 608.151   1
  11  -8   1 3033.19 492.010   3
   8 -11   1 3665.77 408.751   2
 -11   3   1 3573.87 618.969   4
  -8  -3   1 3180.00 493.586   1
 -11   3   1 3501.07 551.079   3
  -8  -3   1 3142.32 623.012   4
   3   8   1 4000.10 680.455   4
  -3  11   1 4043.92 544.458   1
  -8  -3   1 2672.93 608.701   2
  11  -8   1 3035.18 497.139   2
   3   8   1 2684.06 354.636   3
  11  -8   4 2156.89 504.821   2
   3   8   4 1667.96 476.336   3
  11  -8   4 1500.51 350.813   4
  -8  -3   4 2119.27 544.313   1
  -8  -3   4 1646.45 509.716   2
  -3  11   4 2440.97 542.930   3
 -11   3   4 1004.19 487.961   2
 -11   3   4 1786.83 674.375   3
  -8  -3   4 1793.41 535.412   4
 -11   3   4 1643.27 350.508   1
 -11   3   4 2520.39 638.129   4
 -11   3   7 949.444 567.575   4
  -8  -3   7 1094.01 492.504   4
  -8  -3   7 1350.06 581.844   1
 -11   3   7 1109.87 361.864   1
  -7  -4  -9 3266.95 1191.03   2
  -7  -4  -9 3346.20 915.664   3
  11  -7  -9 2483.03 968.759   3
   7 -11  -9 2803.47 994.861   3
  -4  11  -9 1892.35 759.492   1
   4   7  -9 5942.10 1413.87   3
  -7  -4  -9 2763.48 754.084   1
 -11   4  -9 1379.13 881.250   3
 -11   4  -9 4724.05 1055.80   1
 -11   4  -9 3064.53 982.491   2
  -7  -4  -9 2534.26 639.437   4
   4   7  -9 2924.22 777.715   1
  11  -7  -6 106.540 596.646   3
   4   7  -6 94.9978 561.719   3
  -4  11  -6 733.812 283.509   2
  -7  -4  -6 1177.13 490.633   3
 -11   4  -6 327.856 259.197   4
  -7  -4  -6 366.403 709.305   2
   4   7  -6 1192.35 536.417   1
 -11   4  -6-272.703 633.706   1
   4   7  -6 304.660 496.616   4
  -4  11  -6-41.9544 458.900   1
   4   7  -6 114.147 474.873   2
   7 -11  -6 276.556 510.578   3
  -7  -4  -6 245.564 385.279   4
 -11   4  -6 625.957 519.394   2
   4   7  -3 2784.80 605.028   2
 -11   4  -3 3157.48 513.060   4
  11  -7  -3 2888.73 611.454   3
   4   7  -3 3609.16 657.414   4
   7 -11  -3 3686.34 641.017   3
   7 -11  -3 3282.61 384.420   1
  11  -7  -3 2253.20 544.712   4
   4   7  -3 3111.47 567.277   1
  -7  -4  -3 1833.47 626.224   2
  -4  11  -3 3340.89 605.550   3
  -4  11  -3 2008.41 297.039   2
 -11   4  -3 3844.78 642.655   2
  -7  -4  -3 2784.33 559.727   4
  11  -7  -3 2975.52 630.068   2
  -4  11  -3 2388.97 562.001   1
  -7  -4  -3 2906.24 334.017   3
 -11   4  -3 3394.81 477.116   3
  -4  11   0 3329.32 514.493   3
  11  -7   0 3416.57 491.104   3
  -7  -4   0 3781.91 553.045   1
 -11   4   0 3947.32 538.082   3
   4   7   0 3384.34 559.798   1
  -7  -4   0 3947.57 663.612   2
   4   7   0 3989.37 711.466   4
 -11   4   0 2542.36 561.909   2
   4   7   0 3402.33 338.628   3
   7 -11   0 3103.17 527.268   1
  -4  11   0 2842.73 498.747   1
  -7  -4   0 3509.61 650.289   4
   7 -11   0 2349.59 463.208   3
  11  -7   0 2705.13 511.565   2
  11  -7   0 3726.34 577.578   4
   4   7   0 3671.46 751.172   2
 -11   4   0 4020.24 592.570   4
 -11   4   3 4818.11 749.155   3
  -7  -4   3 4970.75 717.663   2
  11  -7   3 3821.73 556.170   2
  11  -7   3 5378.21 573.629   4
  -7  -4   3 5387.29 677.342   1
 -11   4   3 5570.51 761.295   4
   7 -11   3 5181.60 842.431   1
   4   7   3 5523.47 514.289   3
  -7  -4   3 5472.34 767.086   4
  -4  11   3 5680.50 758.379   3
 -11   4   3 5314.06 476.236   1
  -4  11   3 6060.08 547.072   1
 -11   4   3 6146.52 850.756   2
 -11   4   6 1189.10 569.635   4
 -11   4   6 985.996 288.574   1
  -7  -4   6 1099.71 503.421   4
  -7  -4   6-365.282 481.855   1
  -7  -4   6 42.4864 456.348   2
  -7  -4   9 4516.56 772.263   4
 -11   5 -10 4501.90 1137.28   1
   5   6 -10 2377.15 792.394   1
 -11   5 -10 735.859 879.717   3
   5   6 -10 4738.29 1387.38   3
  -6  -5 -10 3275.11 948.927   3
  -6  -5 -10 1914.97 614.935   4
  11  -6 -10 1287.90 925.518   3
  -6  -5 -10 2169.25 1182.77   2
   6 -11 -10 3921.08 1107.15   3
  -5  11 -10 1984.41 836.651   1
 -11   5 -10 1846.72 934.326   2
  -6  -5 -10 2189.18 790.014   1
  -6  -5  -7 7385.46 977.352   3
  -6  -5  -7 7713.59 897.647   4
   5   6  -7 7274.92 1209.66   3
   5   6  -7 7454.70 972.188   4
 -11   5  -7 7471.59 1217.28   1
   6 -11  -7 9224.57 1230.28   3
  -5  11  -7 6159.92 576.117   2
   5   6  -7 6698.14 896.275   1
 -11   5  -7 6275.81 973.654   2
  11  -6  -7 6102.11 1131.32   3
  -6  -5  -7 10176.7 1407.73   2
  -5  11  -7 5672.18 955.070   1
  11  -6  -4 9620.95 987.109   4
   6 -11  -4 8148.44 544.616   1
   6 -11  -4 8569.19 992.242   3
 -11   5  -4 9065.92 675.883   4
   5   6  -4 9903.72 1045.50   2
  -6  -5  -4 8008.95 865.466   4
  -6  -5  -4 9640.62 1249.87   2
 -11   5  -4 7970.55 755.310   3
   5   6  -4 9834.26 905.789   1
  11  -6  -4 9516.96 1023.52   3
  -6  -5  -4 9165.67 699.995   3
 -11   5  -4 8798.71 855.416   2
   5   6  -4 8744.76 897.481   4
 -11   5  -4 10083.5 1233.58   1
  -5  11  -4 9305.20 1016.34   1
  11  -6  -1 11363.5 847.661   3
 -11   5  -1 11449.8 908.556   2
  11  -6  -1 10780.2 933.678   4
   6 -11  -1 10205.3 810.975   3
  -5  11  -1 9777.14 788.942   3
 -11   5  -1 11986.8 860.337   4
   5   6  -1 12373.1 936.950   1
   5   6  -1 13087.6 1057.78   4
  -6  -5  -1 9724.44 1019.41   2
  -6  -5  -1 11045.8 961.544   4
  11  -6  -1 10921.7 968.882   2
   5   6  -1 10333.1 972.921   2
 -11   5  -1 11020.8 765.966   3
   6 -11  -1 10110.1 776.034   1
  -5  11  -1 11212.8 936.015   1
  -6  -5  -1 11002.6 856.824   1
   5   6   2 8134.49 414.534   3
  -5  11   2 10376.1 906.727   3
  11  -6   2 11579.4 831.457   4
   5   6   2 12622.1 1263.94   2
 -11   5   2 11433.6 967.033   3
 -11   5   2 11299.3 1008.50   2
  -6  -5   2 12655.1 954.060   1
  11  -6   2 11443.2 815.365   3
   6 -11   2 10060.1 968.103   1
 -11   5   2 12284.0 1002.01   4
  -6  -5   2 10793.0 973.343   2
  -6  -5   2 12314.3 1011.48   4
   5   6   2 10569.4 988.662   4
   6 -11   2 9575.42 517.583   2
  -5  11   2 11068.1 696.642   1
  11  -6   2 11680.9 883.744   2
 -11   5   5 9257.10 1043.37   4
  -6  -5   5 8413.96 910.092   2
 -11   5   5 6432.85 427.546   1
  -6  -5   5 7451.95 877.950   1
   6 -11   5 6456.04 508.918   4
  -6  -5   5 6711.64 798.820   4
  11  -6   5 6877.18 488.935   4
  -6  -5   8 7101.64 868.238   4
   6   5  -8 9621.00 1454.51   3
   5 -11  -8 9732.43 1316.85   3
   5 -11  -8 6228.00 576.042   1
 -11   6  -8 9807.76 1177.13   2
  11  -5  -8 7056.76 1306.89   3
 -11   6  -8 9163.53 1332.40   1
   5 -11  -8 4755.30 432.940   1
  -5  -6  -8 9206.62 1014.36   4
   6   5  -8 7312.56 936.249   1
  -5  -6  -8 7516.60 1094.21   3
  -5  -6  -8 11906.9 1689.18   2
  -6  11  -8 7943.54 770.961   2
  -6  11  -8 6407.16 625.357   2
  -6  11  -8 8212.05 1213.03   1
   6   5  -8 6374.69 1009.04   4
  -5  -6  -8 7221.82 1033.07   1
   6   5  -5 6711.44 952.973   3
  -6  11  -5 8462.12 1023.46   1
  -5  -6  -5 6289.54 780.249   4
   5 -11  -5 7769.63 975.023   3
  11  -5  -5 7426.71 1008.94   3
   5 -11  -5 6464.30 505.514   1
  -5  -6  -5 8147.92 811.474   3
   6   5  -5 6658.03 961.004   2
   6   5  -5 6999.76 809.326   1
  -5  -6  -5 6759.45 1137.47   2
 -11   6  -5 7453.70 1153.49   1
 -11   6  -5 5269.52 713.833   2
   6   5  -5 5946.31 834.297   4
 -11   6  -5 6809.20 499.103   4
   5 -11  -2 11790.8 795.128   1
  11  -5  -2 10213.8 901.522   3
  -5  -6  -2 11269.7 1181.54   2
 -11   6  -2 11448.4 795.715   3
  -5  -6  -2 10764.0 452.755   3
  -6  11  -2 10201.3 850.208   3
  11  -5  -2 11143.0 976.235   4
   6   5  -2 10621.8 872.354   1
  -5  -6  -2 11610.1 985.207   4
 -11   6  -2 14719.2 1247.06   1
   6   5  -2 11055.0 989.424   4
 -11   6  -2 11231.2 793.405   4
   5 -11  -2 10378.4 850.274   3
 -11   6  -2 10340.6 797.738   2
  -5  -6  -2 9652.66 828.843   1
  11  -5  -2 10021.4 979.109   2
  -6  11  -2 12535.9 1044.45   1
   6   5  -2 8289.95 927.627   2
  -6  11   1 10822.2 898.981   3
  11  -5   1 10670.1 738.747   3
  -5  -6   1 11011.1 957.527   2
 -11   6   1 10870.6 915.963   4
   6   5   1 10526.1 1106.65   2
   6   5   1 10916.7 979.613   4
   5 -11   1 9673.92 849.983   3
  -6  11   1 10247.4 736.503   1
  -5  -6   1 11638.8 906.827   1
  11  -5   1 10997.8 901.426   4
  -5  -6   1 9161.31 889.213   4
  11  -5   1 11077.3 926.479   2
 -11   6   1 11172.9 931.357   2
 -11   6   1 10377.3 856.457   3
   5 -11   1 11528.6 791.576   2
   5 -11   1 10830.6 912.914   1
   6   5   4 8143.10 876.311   4
  -5  -6   4 6755.81 768.893   4
 -11   6   4 9915.46 1031.61   4
 -11   6   4 7470.11 404.801   1
  11  -5   4 6261.60 794.789   2
   5 -11   4 8746.75 693.925   4
  11  -5   4 7420.19 614.802   4
  -5  -6   4 7597.63 821.887   2
  -5  -6   4 8285.11 865.573   1
  -6  11   4 7444.49 922.395   3
  -5  -6   7 7357.36 790.564   4
  11  -4  -9 4685.25 1139.35   3
  -4  -7  -9 6335.57 931.662   4
  -4  -7  -9 3233.32 937.941   3
   4 -11  -9 5425.32 1096.36   3
  -4  -7  -9 3810.57 777.598   1
   7   4  -9 4873.95 1249.18   3
 -11   7  -9 3897.72 1118.35   1
   4 -11  -9 3553.36 599.829   1
  -7  11  -9 4432.25 1066.90   1
  -4  -7  -9 3768.17 1245.11   2
   7   4  -9 3949.27 781.800   1
 -11   7  -9 4315.55 908.655   2
  -7  11  -9 3936.67 697.862   2
 -11   7  -6 754.162 652.241   1
   7   4  -6-386.985 506.594   4
  11  -4  -6-488.886 595.741   3
  -4  -7  -6 1071.93 514.974   3
  -7  11  -6 211.180 133.194   2
  -7  11  -6 302.086 122.040   2
  -7  11  -6 576.098 603.714   1
  -4  -7  -6 219.277 662.965   2
   7   4  -6 246.071 400.950   1
   4 -11  -6 877.661 617.420   3
 -11   7  -6 935.171 502.001   2
  -4  -7  -6 310.383 455.350   4
   4 -11  -6 1174.01 299.520   1
   4 -11  -3 3904.91 498.305   1
  11  -4  -3 4836.77 721.361   3
   7   4  -3 3962.14 669.356   3
  -4  -7  -3 5306.68 497.228   3
 -11   7  -3 5913.82 896.301   1
  -4  -7  -3 5071.63 943.506   2
 -11   7  -3 5474.40 647.895   3
  11  -4  -3 3642.40 735.705   2
  11  -4  -3 5159.15 763.857   4
  -4  -7  -3 3822.52 607.746   1
  -7  11  -3 3743.33 692.915   1
  -7  11  -3 4435.84 662.542   3
 -11   7  -3 4919.03 571.736   2
   7   4  -3 3617.97 643.858   4
   7   4  -3 4827.11 798.669   2
   7   4  -3 4320.97 626.522   1
   4 -11  -3 4958.17 710.188   3
  -4  -7  -3 4567.73 718.398   4
 -11   7  -3 5013.33 535.400   4
   7   4   0 3862.24 737.327   2
 -11   7   0 3033.73 547.345   4
   7   4   0 2964.78 292.930   3
  11  -4   0 2246.78 547.355   2
 -11   7   0 2547.20 508.789   3
  11  -4   0 2759.48 428.944   3
   4 -11   0 2199.02 519.189   2
  -7  11   0 2902.85 537.711   1
  11  -4   0 2924.23 626.404   4
   4 -11   0 2496.48 517.118   3
 -11   7   0 3387.18 580.270   1
   4 -11   0 3792.72 593.332   1
   7   4   0 2682.06 590.907   4
  -7  11   0 3080.88 524.343   3
 -11   7   0 2681.60 514.367   2
  -4  -7   0 3409.63 670.835   2
  -4  -7   0 3023.39 583.826   4
  -4  -7   0 3326.38 554.262   1
 -11   7   3 2891.43 615.079   4
  -7  11   3 2816.09 603.366   3
 -11   7   3 3147.40 686.727   3
  -4  -7   3 2953.75 605.707   1
  -4  -7   3 2677.07 538.734   2
   4 -11   3 1737.65 532.379   1
   7   4   3 1799.89 532.348   4
   4 -11   3 1866.63 236.255   2
  -7  11   3 2512.48 332.876   1
 -11   7   3 2849.02 712.029   2
   4 -11   3 2270.97 461.243   4
  11  -4   3 3160.35 503.862   4
   7   4   3 2721.82 771.410   2
  11  -4   3 1406.13 550.252   2
  -4  -7   3 2665.20 577.224   4
  -4  -7   6-260.104 363.683   4
   4 -11   6 346.506 219.530   4
  -4  -7   6 396.464 420.733   2
  -4  -7   9 1506.32 494.219   4
   8   3 -10 4990.12 1469.35   3
  -8  11 -10 5128.61 1243.22   1
   3 -11 -10 4275.79 1117.15   3
 -11   8 -10 4053.86 1183.69   1
  -3  -8 -10 4860.04 1124.71   3
  -3  -8 -10 4591.53 891.626   4
  -3  -8 -10 3161.42 1391.31   2
 -11   8 -10 5624.94 1094.23   2
   8   3 -10 3365.46 761.079   1
  -3  -8 -10 3099.56 784.721   1
   3 -11 -10 4357.22 1042.72   4
  11  -3 -10 4386.37 1270.05   3
   8   3  -7 779.028 427.187   1
  -3  -8  -7 2251.96 654.846   4
  -3  -8  -7 3072.47 774.589   3
  11  -3  -7 1591.52 353.818   1
  11  -3  -7 940.800 719.665   3
  -3  -8  -7 3033.49 1064.77   2
  -8  11  -7 920.675 230.958   2
   8   3  -7 672.240 653.935   3
  -8  11  -7 1308.67 730.559   1
   3 -11  -7 1821.51 411.739   1
 -11   8  -7 1143.84 468.158   2
  -8  11  -7 1037.84 310.398   2
   3 -11  -7 2137.53 814.686   3
 -11   8  -7 2806.52 774.084   1
 -11   8  -4 1380.49 604.473   1
 -11   8  -4 1532.00 366.804   2
   8   3  -4 1508.60 619.749   2
  11  -3  -4 1319.87 501.254   3
   3 -11  -4 1530.11 501.992   3
   8   3  -4 1797.08 611.609   3
  -3  -8  -4 1566.09 485.251   4
  -3  -8  -4 2283.43 745.487   2
  -8  11  -4 1628.86 574.247   1
   8   3  -4 1056.65 459.605   4
   8   3  -4 1571.38 456.235   1
  -3  -8  -4 1480.78 459.455   1
   3 -11  -4 1371.42 349.432   1
  -3  -8  -4 1871.67 455.623   3
  11  -3  -4 1688.90 546.363   4
 -11   8  -4 782.908 394.743   3
   8   3  -1 3067.63 440.893   3
 -11   8  -1 3364.65 496.295   2
  11  -3  -1 3396.54 657.674   2
   3 -11  -1 3228.41 515.936   1
 -11   8  -1 3213.48 513.533   3
   3 -11  -1 3128.49 520.646   3
  11  -3  -1 3443.16 519.348   3
 -11   8  -1 2670.77 510.991   4
   8   3  -1 3223.64 550.652   1
  -8  11  -1 1944.51 466.195   3
   8   3  -1 3034.95 627.135   4
   8   3  -1 3787.25 687.241   2
  -8  11  -1 3024.81 555.131   1
  -3  -8  -1 3350.01 657.356   4
 -11   8  -1 2460.91 556.468   1
  11  -3  -1 4079.70 649.900   4
  -3  -8  -1 2670.01 503.079   1
  -3  -8  -1 2549.01 737.621   2
  -3  -8  -1 3350.28 358.637   3
  -8  11   2 10840.5 655.826   1
 -11   8   2 11901.9 1059.37   2
  -8  11   2 11263.9 949.536   3
 -11   8   2 9200.62 922.741   3
  11  -3   2 10921.8 1004.34   2
   8   3   2 10699.8 953.991   4
  11  -3   2 12206.7 923.886   4
 -11   8   2 11522.8 690.063   1
  -3  -8   2 11396.8 955.572   1
  -3  -8   2 10673.0 904.523   2
   8   3   2 8812.92 1025.45   2
   3 -11   2 12403.6 958.593   4
  -3  -8   2 10307.8 926.875   4
   3 -11   2 10756.7 687.765   2
 -11   8   2 11440.8 1004.98   4
   3 -11   2 11008.8 1019.74   1
  -3  -8   5 2363.67 549.760   2
   3 -11   5 1780.08 410.344   4
  11  -3   5 1564.86 401.755   4
  -3  -8   5 2608.80 571.314   4
  -3  -8   8 1178.01 484.226   4
   2 -11  -8 2111.71 688.839   4
   2 -11  -8 1277.29 469.659   1
   9   2  -8 2018.26 560.327   1
 -11   9  -8 2774.42 884.266   1
  -9  11  -8 1401.35 325.658   2
  11  -2  -8 3423.31 976.818   3
  -9  11  -8 2768.14 806.550   1
  -2  -9  -8 1870.33 965.090   2
  11  -2  -8 1793.16 407.664   1
   2 -11  -8 2068.38 511.497   1
   9   2  -8 2514.91 1001.42   3
   2 -11  -8 2705.21 748.808   3
  -2  -9  -8 3752.76 921.036   3
 -11   9  -8 2205.42 625.779   2
  -9  11  -8 2241.01 483.208   2
  -2  -9  -8 2988.46 727.079   4
 -11   9  -5 8033.90 638.899   2
   9   2  -5 8730.44 1105.88   3
  11  -2  -5 10752.9 1221.57   3
  -2  -9  -5 8893.67 1278.09   2
  -2  -9  -5 8719.90 825.680   1
   9   2  -5 9289.43 856.647   1
   9   2  -5 8497.86 1017.01   4
  -2  -9  -5 10256.8 1030.26   4
  -9  11  -5 7557.45 994.958   1
 -11   9  -5 10156.2 1228.57   1
   2 -11  -5 8087.27 685.167   1
   2 -11  -5 9621.35 1045.39   3
  -2  -9  -5 9117.33 909.975   3
   9   2  -2 4585.53 599.972   3
  11  -2  -2 5444.17 655.388   3
   9   2  -2 5275.20 859.425   2
  -2  -9  -2 5103.60 926.274   2
   2 -11  -2 5037.60 596.800   3
 -11   9  -2 4094.44 580.705   3
  -9  11  -2 3729.12 566.097   3
  -2  -9  -2 4936.22 714.176   4
   9   2  -2 5169.05 650.332   1
  -9  11  -2 5137.09 762.363   1
   2 -11  -2 5223.09 620.265   1
   9   2  -2 5289.21 773.407   4
   2 -11  -2 5971.80 924.280   2
  -2  -9  -2 5197.01 620.431   1
  -2  -9  -2 4899.33 497.068   3
  11  -2  -2 4732.56 797.071   2
 -11   9  -2 5047.81 727.423   1
  11  -2  -2 4342.57 723.085   4
 -11   9  -2 4746.92 502.347   2
  -9  11   1 13240.4 1032.96   3
   2 -11   1 12358.5 1028.22   1
   9   2   1 12925.5 1018.08   4
   9   2   1 12208.7 1156.44   2
  11  -2   1 12694.4 996.189   4
  11  -2   1 13612.0 695.377   3
 -11   9   1 12163.2 978.189   3
  -2  -9   1 14595.8 1095.94   4
  -2  -9   1 12574.9 984.876   2
 -11   9   1 13625.1 1061.56   2
 -11   9   1 14059.0 896.664   1
  11  -2   1 10544.5 995.764   2
  -9  11   1 13628.1 838.536   1
  -2  -9   1 12047.2 981.588   1
   2 -11   1 12979.5 961.056   2
   2 -11   1 12346.0 1013.63   4
   2 -11   4 8681.52 572.791   2
   9   2   4 8518.04 855.269   4
   9   2   4 6445.80 1046.17   2
   2 -11   4 8980.04 792.218   4
  -2  -9   4 9115.99 814.722   2
  -2  -9   4 8633.74 966.201   1
  -2  -9   4 8541.60 850.414   4
  11  -2   4 7712.65 971.281   2
  11  -2   4 11126.1 876.324   4
   2 -11   7 6709.01 578.133   4
  -2  -9   7 6318.68 707.301   4
  11  -1  -9 1605.95 499.187   1
 -10  11  -9 2395.87 905.797   1
  10   1  -9 922.301 773.751   3
  11  -1  -9 200.784 803.925   3
   1 -11  -9 199.905 456.795   1
  -1 -10  -9 3203.39 984.312   3
 -11  10  -9 2912.80 1071.86   1
  -1 -10  -9 1207.96 565.848   1
  10   1  -9 1363.94 574.403   1
  -1 -10  -9 2133.71 748.592   4
  -1 -10  -9 3548.24 1276.10   2
   1 -11  -9 1639.09 849.877   3
 -10  11  -9 1781.28 531.427   2
 -11  10  -9 1057.08 546.635   2
   1 -11  -9 2133.70 803.730   4
 -10  11  -6 321.911 142.505   2
  10   1  -6 257.187 369.586   1
  10   1  -6 1602.37 710.404   3
  -1 -10  -6 851.961 529.875   3
 -10  11  -6 164.724 609.924   1
   1 -11  -6 684.940 572.649   3
  -1 -10  -6 350.806 486.613   4
 -10  11  -6 412.348 129.898   2
  -1 -10  -6 672.162 397.148   1
  11  -1  -6 1433.47 749.332   3
  -1 -10  -6 760.597 756.046   2
  11  -1  -6 675.065 368.890   1
 -11  10  -6 1159.96 579.405   1
   1 -11  -6 229.472 298.276   1
   1 -11  -6 274.869 467.711   4
 -11  10  -6 673.666 292.897   2
   1 -11  -3 4470.78 571.662   1
  10   1  -3 5083.78 718.352   3
  11  -1  -3 5309.61 764.021   3
 -11  10  -3 4769.86 414.436   2
  11  -1  -3 5678.98 822.180   4
   1 -11  -3 5152.90 658.329   3
 -10  11  -3 5762.84 777.401   3
  -1 -10  -3 6115.38 1032.78   2
  10   1  -3 5399.56 653.343   1
  10   1  -3 5564.17 800.114   4
  10   1  -3 6129.88 919.766   2
 -10  11  -3 5294.46 827.771   1
   1 -11  -3 4264.44 948.880   2
  -1 -10  -3 5516.60 807.332   4
  11  -1  -3 5264.17 920.718   2
 -11  10  -3 5881.31 865.768   1
   1 -11  -3 4362.68 761.417   4
  -1 -10  -3 4416.25 567.639   1
  -1 -10  -3 6269.51 657.871   3
 -11  10  -3 5314.54 708.486   3
  10   1   0 465.492 241.712   3
   1 -11   0 254.242 389.126   1
 -10  11   0 642.362 386.055   1
  11  -1   0 398.657 423.740   2
 -11  10   0 604.622 411.070   3
 -10  11   0 488.093 350.903   3
 -11  10   0 586.339 402.058   1
  -1 -10   0 1311.15 590.219   2
  -1 -10   0 761.035 461.007   1
   1 -11   0 915.029 353.600   3
  11  -1   0 1090.44 333.189   3
   1 -11   0 273.495 398.998   4
   1 -11   0 1182.59 507.737   2
  11  -1   0 1113.94 489.027   4
 -11  10   0 370.265 357.469   2
  10   1   0 773.817 466.281   4
  10   1   0 1403.56 573.292   2
  -1 -10   0 773.211 497.670   4
   1 -11   3 4818.88 663.499   4
 -10  11   3 4051.03 709.203   3
 -10  11   3 4495.64 368.231   1
 -11  10   3 3410.36 706.959   3
  11  -1   3 3766.82 767.455   2
  -1 -10   3 6054.65 833.682   1
  11  -1   3 3945.97 627.325   4
  10   1   3 4108.64 639.612   4
  10   1   3 4875.29 869.404   2
 -11  10   3 4366.44 352.335   1
   1 -11   3 4796.58 564.961   2
  -1 -10   3 4202.69 637.138   4
   1 -11   3 4093.33 767.422   1
  -1 -10   3 4198.67 576.685   2
  -1 -10   6 184.243 391.794   4
  -1 -10   6 87.0758 396.792   2
   1 -11   6 316.413 336.860   4
  11  -1   6 647.268 394.405   4
  -1 -10   9 1560.23 421.539   4
   0 -11 -10-290.910 693.388   4
 -11  11 -10 1004.98 863.734   1
  11   0 -10 758.271 1013.40   3
   0 -11 -10 447.893 761.281   3
   0 -11 -10-27.7039 1157.60   2
   0 -11 -10 782.116 619.840   1
  11   0  -7-63.0208 682.725   3
   0 -11  -7 222.052 388.312   1
   0 -11  -7 1467.81 666.876   3
 -11  11  -7 343.500 604.793   1
 -11  11  -7 431.998 239.976   2
   0 -11  -7 359.425 789.551   2
   0 -11  -7-27.5215 494.733   4
  11   0  -7 70.8914 349.848   1
 -11  11  -7-54.3073 263.765   2
  11   0  -4 4100.23 806.201   3
   0 -11  -4 4039.00 650.699   3
 -11  11  -4 3245.75 750.956   1
  11   0  -4 3801.44 555.436   1
   0 -11  -4 3137.14 675.851   4
  11   0  -4 4136.04 747.930   4
   0 -11  -4 2905.44 511.088   1
   0 -11  -4 3877.63 971.633   2
  11   0  -1-207.149 470.676   2
  11   0  -1 60.7789 278.458   3
   0 -11  -1 588.381 576.757   2
   0 -11  -1 139.771 325.398   3
   0 -11  -1-85.6797 403.701   1
 -11  11  -1-217.664 349.097   3
 -11  11  -1 252.596 421.082   1
  11   0  -1-354.917 416.013   4
   0 -11  -1-265.102 482.008   4
   0 -11   2 357.591 427.521   4
   0 -11   2 1036.12 539.049   1
 -11  11   2 440.529 277.267   1
  11   0   2 553.430 437.402   4
  11   0   2-477.747 597.828   2
 -11  11   2 624.474 439.994   3
   0 -11   2 528.414 404.980   2
   0 -11   5 770.091 402.246   4
   0 -11   5-310.335 313.074   2
  11   0   5 69.5554 377.784   4
   0 -11   8 343.957 371.556   4
 -12   0  -9-215.715 640.583   1
  12 -12  -9 1028.03 882.840   3
   0  12  -9-946.481 766.023   1
 -12   0  -9 199.238 346.637   4
 -12   0  -9 875.733 689.365   3
 -12   0  -9 232.891 749.193   2
 -12   0  -6 2753.81 811.898   2
   0  12  -6 1789.46 577.135   2
   0  12  -6 3353.52 812.429   1
  12 -12  -6 2628.48 781.046   3
   0  12  -6 1725.76 612.411   4
 -12   0  -6 2947.22 605.710   4
 -12   0  -6 2650.88 621.530   3
  12 -12  -3-184.687 456.583   3
   0  12  -3 826.965 501.520   2
 -12   0  -3-371.016 388.584   4
 -12   0  -3-155.433 221.536   3
   0  12  -3 245.817 422.705   1
   0  12  -3 265.650 428.876   4
 -12   0  -3 1007.74 604.163   2
   0  12   0-75.0068 453.971   2
   0  12   0 676.183 342.894   3
 -12   0   0 558.472 291.812   3
  12 -12   0 114.950 344.626   2
 -12   0   0 122.568 494.775   2
  12 -12   0-586.586 448.836   3
 -12   0   0 513.801 458.192   4
  12 -12   0 470.963 401.076   1
   0  12   0 296.827 395.691   1
  12 -12   0 355.309 364.328   4
 -12   0   3 395.251 496.644   3
 -12   0   3-148.460 428.993   2
 -12   0   3 166.840 464.645   4
 -12   0   3 72.1019 343.936   1
   0  12   3 282.515 406.274   3
  12 -12   3 358.742 235.056   2
  12 -12   3 290.872 307.434   4
 -12   0   6 4959.01 911.284   2
 -12   0   6 3925.78 831.723   4
 -12   0   6 3330.90 663.067   1
 -12   0   9-56.4933 573.447   4
   1  11 -10 2855.31 1313.24   3
  -1  12 -10 3348.47 948.534   1
 -12   1 -10 2870.54 943.873   3
 -11  -1 -10 3117.46 968.285   3
 -12   1 -10 3533.97 1039.23   1
  12 -11 -10 3966.39 1175.17   3
   1  11 -10 2127.05 844.808   1
 -11  -1 -10 2570.17 913.689   1
 -11  -1 -10 2883.23 1087.74   2
 -12   1 -10 4320.16 1254.01   2
  -1  12 -10 2347.86 1298.35   3
  11 -12 -10 4152.61 1220.29   3
 -12   1  -7 10634.3 1428.93   1
 -11  -1  -7 6886.93 1248.83   2
  -1  12  -7 9766.52 1181.00   1
   1  11  -7 6748.54 1022.96   1
  -1  12  -7 4698.93 705.127   2
 -12   1  -7 5746.40 1072.14   2
 -12   1  -7 6896.66 980.279   3
 -12   1  -7 7527.40 760.721   4
 -11  -1  -7 8138.77 1007.77   3
   1  11  -7 5470.68 855.927   4
 -11  -1  -7 7655.90 1167.48   1
 -11  -1  -7 7228.97 852.274   4
  11 -12  -7 7683.89 1228.69   3
   1  11  -7 5201.03 840.959   2
  12 -11  -7 6492.33 1148.86   3
 -11  -1  -4 4604.31 704.481   4
  -1  12  -4 4551.38 745.609   1
 -12   1  -4 4806.44 669.996   4
  11 -12  -4 3840.70 759.161   3
   1  11  -4 5502.70 828.747   1
   1  11  -4 4451.08 705.669   2
  -1  12  -4 4021.96 587.155   2
 -12   1  -4 3679.92 804.321   2
 -12   1  -4 4490.48 501.708   3
  -1  12  -4 5036.30 750.806   4
  12 -11  -4 4438.56 830.892   3
   1  11  -4 5482.01 806.353   4
 -11  -1  -4 4478.78 969.154   2
 -11  -1  -4 4436.70 463.180   3
  -1  12  -1 19352.7 1058.69   3
  11 -12  -1 19383.3 1225.60   2
  -1  12  -1 16928.3 1215.97   2
  12 -11  -1 17642.7 1185.37   3
   1  11  -1 19272.5 1014.42   3
  11 -12  -1 19980.2 1113.15   1
   1  11  -1 19244.9 1329.74   4
  12 -11  -1 18683.3 1206.22   2
 -11  -1  -1 19542.6 1457.39   2
   1  11  -1 18091.4 1214.30   1
   1  11  -1 18181.5 1333.75   2
  -1  12  -1 20259.5 1275.17   1
 -12   1  -1 19978.3 1395.81   2
  12 -11  -1 20103.8 1274.74   4
  11 -12  -1 21228.2 1329.08   4
 -11  -1  -1 22084.9 1369.12   4
  11 -12  -1 18426.7 1223.20   3
 -12   1  -1 21941.3 1323.95   4
 -12   1  -1 18846.8 824.691   3
   1  11   2 7873.45 695.369   3
  -1  12   2 6768.48 737.212   3
  -1  12   2 8193.87 794.765   1
 -11  -1   2 5983.07 686.878   1
   1  11   2 7536.69 800.954   1
  11 -12   2 7331.52 724.592   4
  11 -12   2 7515.23 566.869   2
  11 -12   2 5948.37 870.774   1
 -12   1   2 7560.41 701.047   1
 -11  -1   2 7585.25 760.160   3
  11 -12   2 6434.13 846.932   3
 -12   1   2 6622.47 884.926   2
  12 -11   2 7742.19 628.689   2
 -12   1   2 7318.60 900.177   4
 -11  -1   2 7895.61 896.662   4
 -12   1   2 6789.63 797.362   3
  12 -11   2 5007.58 775.706   3
  12 -11   2 6835.65 712.568   4
 -11  -1   2 7795.26 909.668   2
  12 -11   2 6118.74 853.525   1
   1  11   5 6417.38 882.279   3
  12 -11   5 5108.19 478.949   4
  -1  12   5 5218.30 853.408   3
 -12   1   5 6679.24 1004.19   2
 -11  -1   5 4896.02 726.058   1
 -12   1   5 5137.67 661.326   1
  11 -12   5 4325.13 443.755   4
 -12   1   5 7617.74 1006.18   4
 -11  -1   5 4688.62 791.815   4
 -11  -1   5 4715.50 806.078   2
 -12   1   8 1505.28 550.699   1
 -11  -1   8 1001.23 605.204   1
 -12   1   8 2833.27 832.630   4
 -11  -1   8 2808.54 745.342   4
  -2  12  -8-140.287 571.360   1
  -2  12  -8 641.412 465.778   2
   2  10  -8 77.7863 548.487   4
  12 -10  -8 140.479 669.991   3
  10 -12  -8 635.423 703.083   3
 -12   2  -8 590.195 649.105   2
 -12   2  -8 889.897 630.459   3
 -12   2  -8 1391.62 826.617   1
 -10  -2  -8 584.515 645.289   1
 -10  -2  -8 832.835 650.245   3
 -12   2  -8 403.985 322.791   4
 -10  -2  -8 718.211 802.752   2
   2  10  -8 285.002 836.266   3
 -10  -2  -8 648.023 475.910   4
   2  10  -8 475.036 735.916   1
 -10  -2  -5 2301.63 562.359   4
  -2  12  -5 2642.48 692.205   1
 -10  -2  -5 2326.33 481.215   3
   2  10  -5 2763.47 654.302   4
   2  10  -5 2335.01 563.655   2
  10 -12  -5 2214.90 663.547   3
   2  10  -5 3808.79 785.484   1
 -10  -2  -5 2631.38 862.577   2
 -12   2  -5 3052.58 561.749   4
 -12   2  -5 2471.00 681.462   2
  -2  12  -5 1596.18 429.518   2
  12 -10  -5 1758.42 654.947   3
  12 -10  -2 286.034 439.593   3
  12 -10  -2 1060.93 512.617   4
 -12   2  -2 1213.57 500.501   2
  -2  12  -2 1053.01 514.769   1
  10 -12  -2 1701.70 527.955   3
  -2  12  -2 563.861 363.594   2
  12 -10  -2 632.794 395.523   2
  -2  12  -2 809.968 369.479   3
  10 -12  -2-200.925 423.492   2
 -12   2  -2 871.889 294.051   3
 -10  -2  -2 1357.38 535.849   4
   2  10  -2 612.939 462.610   2
   2  10  -2 1873.69 544.857   1
   2  10  -2 619.357 497.047   4
 -12   2  -2 697.209 425.638   4
  10 -12  -2 1067.74 352.518   1
 -10  -2  -2 1709.95 609.991   2
  10 -12   1 366.417 423.973   1
  -2  12   1 632.563 352.542   3
  12 -10   1 325.429 355.549   4
 -10  -2   1 956.588 346.443   1
 -12   2   1-69.5686 435.987   4
 -12   2   1 30.5281 319.887   3
  12 -10   1 869.873 371.340   2
 -12   2   1 1791.11 622.825   2
   2  10   1 1168.49 401.189   1
   2  10   1 300.329 287.726   3
   2  10   1-387.989 567.260   2
  -2  12   1 1326.44 424.868   1
  12 -10   1 757.102 404.361   3
  10 -12   1 420.844 404.950   3
  10 -12   1 90.0268 243.767   2
 -10  -2   1 410.624 448.953   2
 -10  -2   1 495.163 443.187   4
   2  10   1 149.072 411.775   4
  12 -10   4-69.5305 342.283   2
 -10  -2   4 444.716 436.881   1
 -10  -2   4 11.9462 470.328   2
   2  10   4 754.929 409.988   3
 -10  -2   4 368.380 457.255   4
 -12   2   4 1133.90 595.704   2
  12 -10   4 732.621 328.760   4
  -2  12   4 1249.15 492.785   3
 -12   2   4 728.854 383.567   1
 -12   2   4 102.011 427.390   4
  10 -12   4 1099.25 336.571   4
 -12   2   7 1716.49 696.924   4
 -10  -2   7 747.103 491.417   1
 -10  -2   7 1427.84 726.962   2
 -12   2   7 1282.62 461.825   1
 -10  -2   7 116.138 480.514   4
   9 -12  -9 1445.38 998.163   3
 -12   3  -9-903.527 817.340   1
  12  -9  -9 819.797 880.041   3
  -9  -3  -9 247.081 417.132   4
  -9  -3  -9 494.062 611.288   3
   3   9  -9 951.883 657.966   1
   3   9  -9-324.510 880.137   3
  -9  -3  -9 442.993 840.448   2
 -12   3  -9 588.031 814.686   2
  -3  12  -9-440.067 616.732   1
  -9  -3  -9 697.542 665.671   1
 -12   3  -9 1105.83 772.587   3
   9 -12  -6 5340.87 992.893   3
  -3  12  -6 3597.10 832.536   1
   3   9  -6 2838.24 686.917   2
  12  -9  -6 3254.09 812.428   3
   3   9  -6 4011.75 776.604   4
  -3  12  -6 3024.55 458.842   2
   3   9  -6 2316.83 669.640   1
  -9  -3  -6 3988.20 687.005   4
  -9  -3  -6 4720.81 1031.03   2
 -12   3  -6 4006.07 813.315   2
  -9  -3  -6 6085.45 752.108   3
 -12   3  -6 4804.58 979.370   1
 -12   3  -6 3959.24 531.073   4
 -12   3  -3 665.916 504.256   2
  -9  -3  -3 1377.62 229.510   3
  -3  12  -3 991.410 446.888   1
   3   9  -3 1177.65 469.941   4
  12  -9  -3 1103.64 518.990   4
  12  -9  -3 279.480 482.025   3
  -3  12  -3 1177.62 357.499   2
  12  -9  -3 713.630 493.145   2
   3   9  -3 1001.15 489.201   1
   9 -12  -3 1266.78 306.420   1
 -12   3  -3 1447.23 339.880   3
  -9  -3  -3 1427.36 497.348   4
  -3  12  -3 568.270 457.000   3
 -12   3  -3 1501.22 465.276   4
  -9  -3  -3 2308.96 689.285   2
   9 -12  -3 1477.40 530.511   3
   3   9  -3 1787.30 564.716   2
 -12   3   0 1181.16 382.955   3
   9 -12   0 1294.88 466.782   1
  -9  -3   0 2480.37 523.895   1
   9 -12   0 1190.24 472.620   3
   3   9   0 2706.31 755.438   2
   3   9   0 876.538 437.886   1
  12  -9   0 1096.68 414.677   2
  -3  12   0 930.733 330.240   3
  12  -9   0 1431.50 439.834   3
 -12   3   0 986.810 457.362   4
   3   9   0 1279.04 297.217   3
   9 -12   0 1340.20 392.223   2
 -12   3   0 2090.80 546.727   2
   3   9   0 1727.88 548.704   4
  -9  -3   0 1583.41 535.434   2
  -9  -3   0 1806.59 540.544   4
  -3  12   0 2049.23 483.135   1
  12  -9   0 1823.10 499.047   4
   9 -12   3 928.612 553.778   1
 -12   3   3 24.0362 490.305   3
   3   9   3 548.351 380.917   3
  -9  -3   3-603.770 401.850   1
  -9  -3   3 802.410 477.615   2
  12  -9   3 541.695 341.264   4
 -12   3   3 799.697 468.866   2
 -12   3   3 507.346 450.450   4
 -12   3   3 298.000 299.327   1
  -9  -3   3 110.889 422.889   4
  12  -9   3-132.124 321.375   2
  -3  12   3-31.8616 398.417   3
  -3  12   3-305.417 321.398   1
  -9  -3   6 2000.37 584.937   1
 -12   3   6 2380.58 682.182   4
 -12   3   6 1888.63 416.020   1
  -9  -3   6 3645.26 797.695   2
  -9  -3   6 2046.26 600.722   4
   9 -12   6 1306.73 164.246   4
  -9  -3   9 535.453 529.402   4
   4   8 -10 1091.22 1092.73   3
 -12   4 -10 1414.33 841.572   1
  -8  -4 -10 953.638 751.708   3
 -12   4 -10 829.511 948.067   2
   8 -12 -10 78.3573 827.468   3
 -12   4 -10-2.71626 723.260   3
   4   8 -10 1458.29 736.926   1
  -8  -4 -10 977.534 649.996   1
  -8  -4 -10 2130.66 1157.27   2
  -4  12 -10 128.483 768.307   1
  12  -8 -10 1200.07 1001.53   3
  -8  -4  -7 6582.27 900.832   3
 -12   4  -7 6002.87 1042.93   2
  -4  12  -7 6702.11 1012.88   1
   4   8  -7 4503.65 828.511   4
   4   8  -7 5412.18 1166.99   3
   8 -12  -7 6484.96 1147.59   3
   4   8  -7 5432.44 865.214   1
  -8  -4  -7 4818.05 1119.45   2
  -8  -4  -7 6273.44 843.049   4
  12  -8  -7 6827.63 1181.88   3
  -4  12  -7 4364.39 514.011   2
 -12   4  -7 4903.46 463.473   4
 -12   4  -7 6451.53 1233.05   1
   8 -12  -4 6048.86 862.920   3
  -4  12  -4 6523.41 884.321   1
  12  -8  -4 6524.19 927.103   3
  -8  -4  -4 4861.64 1022.51   2
 -12   4  -4 5048.75 764.042   2
 -12   4  -4 5481.52 631.599   3
 -12   4  -4 6809.46 671.887   4
   4   8  -4 5764.96 798.241   1
 -12   4  -4 6070.29 1043.78   1
  -8  -4  -4 5733.16 786.074   4
  -8  -4  -4 5754.23 535.117   3
   4   8  -4 6134.89 887.492   2
   8 -12  -4 4246.19 357.764   1
  -4  12  -4 3831.46 369.371   2
   4   8  -4 7065.56 871.469   4
   4   8  -1 27961.8 1632.85   2
  12  -8  -1 29534.7 1520.28   4
 -12   4  -1 29483.6 1519.03   2
   8 -12  -1 25582.9 1326.21   3
  -4  12  -1 28970.9 1452.06   1
  -4  12  -1 24475.3 1209.27   3
  -8  -4  -1 29118.6 1727.20   2
  12  -8  -1 28747.7 1387.23   3
   4   8  -1 28672.1 1574.69   4
  -8  -4  -1 29392.5 1445.34   1
  -8  -4  -1 29804.9 1544.52   4
 -12   4  -1 30288.5 1420.10   4
  12  -8  -1 30589.0 1552.90   2
   8 -12  -1 26138.8 1226.47   1
 -12   4  -1 29627.7 1223.04   3
   4   8  -1 30019.4 1459.15   1
   8 -12   2 1058.16 198.986   2
   4   8   2 1298.09 655.344   2
 -12   4   2 1410.06 347.105   1
 -12   4   2 1403.14 524.937   3
  12  -8   2 811.275 364.474   2
  12  -8   2 1336.88 469.723   3
  -8  -4   2 1194.88 529.330   2
  -8  -4   2 1169.55 531.960   4
 -12   4   2 1955.81 587.409   2
   4   8   2 686.651 466.554   4
  -4  12   2 1735.64 434.651   1
  -4  12   2 1786.24 539.721   3
   8 -12   2 1295.14 522.835   1
   8 -12   2 1469.77 476.550   3
  12  -8   2 1379.17 405.888   4
 -12   4   2 857.483 478.189   4
   4   8   2 1652.62 308.359   3
  -8  -4   2 1083.81 392.983   1
  -8  -4   5 13061.4 1092.99   1
  -8  -4   5 14513.3 1212.79   2
 -12   4   5 14716.4 1410.84   2
  -8  -4   5 14096.4 1169.44   4
   8 -12   5 12017.7 703.626   4
  12  -8   5 12101.4 662.852   4
 -12   4   5 16295.7 1347.26   4
 -12   4   5 12933.1 704.017   1
  -8  -4   8 515.507 502.148   4
 -12   4   8-95.1444 268.062   1
 -12   5  -8-59.9408 748.369   1
  -7  -5  -8 82.1523 486.303   4
   5   7  -8 1591.19 978.183   3
  12  -7  -8-578.742 684.612   3
   7 -12  -8-765.993 640.737   3
   5   7  -8 385.242 541.301   1
  -7  -5  -8 555.444 880.141   2
   5   7  -8-84.4460 649.471   4
  -7  -5  -8 274.294 497.685   1
  -5  12  -8 63.6242 307.708   2
  -5  12  -8 293.738 640.655   1
 -12   5  -8 1216.93 803.068   2
  -7  -5  -8 360.839 552.416   3
  -7  -5  -5 13924.1 968.529   3
   5   7  -5 15017.7 1177.25   1
  12  -7  -5 15813.6 1433.79   3
 -12   5  -5 13390.4 832.311   4
  -5  12  -5 13618.3 1283.94   1
   7 -12  -5 13927.6 1305.33   3
 -12   5  -5 13292.5 1050.33   3
   5   7  -5 12073.4 1227.22   2
 -12   5  -5 13304.8 1156.29   2
  -7  -5  -5 13681.7 1529.01   2
 -12   5  -5 15623.2 1614.21   1
  -7  -5  -5 13789.7 1141.91   4
   5   7  -5 14118.8 1208.21   4
  12  -7  -2 1878.14 508.823   3
 -12   5  -2 853.512 410.728   2
  -7  -5  -2 1156.49 498.984   4
   5   7  -2 1853.60 580.723   4
  -7  -5  -2 1055.09 426.210   1
  12  -7  -2 1493.13 588.473   2
   5   7  -2 1483.27 453.027   1
   7 -12  -2 960.165 502.530   3
   7 -12  -2 1648.65 401.473   1
  -5  12  -2 1629.02 438.053   3
   5   7  -2 1683.93 597.736   2
  12  -7  -2 1276.52 453.328   4
  -5  12  -2 1444.04 511.635   1
 -12   5  -2 999.282 389.546   4
  -7  -5  -2 1796.12 707.078   2
 -12   5  -2 1272.86 349.658   3
   5   7   1 4193.09 682.909   4
  -7  -5   1 4021.13 600.296   1
   5   7   1 3176.65 280.348   3
 -12   5   1 3182.92 560.592   3
  -7  -5   1 3076.90 634.544   2
  -5  12   1 3753.99 597.878   3
   7 -12   1 4372.97 640.822   3
   5   7   1 4349.63 827.604   2
  -5  12   1 4414.27 574.444   1
   5   7   1 4007.64 634.514   1
  12  -7   1 3759.12 583.704   4
  12  -7   1 3106.20 575.459   2
  -7  -5   1 4529.11 721.980   4
 -12   5   1 3892.59 668.525   4
   7 -12   1 3228.48 621.383   1
  12  -7   1 3411.85 542.544   3
 -12   5   1 3813.28 641.768   2
  -7  -5   4 2220.78 577.192   1
 -12   5   4 3743.22 810.390   2
  12  -7   4 2944.28 624.413   2
  -7  -5   4 2882.35 611.714   4
  -7  -5   4 2962.05 604.653   2
   7 -12   4 2760.53 494.745   4
 -12   5   4 2330.88 350.251   1
  12  -7   4 2077.06 412.373   4
  -5  12   4 2046.26 647.912   3
 -12   5   4 2294.36 608.039   4
 -12   5   7 2689.99 306.247   1
  -7  -5   7 6308.12 868.805   4
   6   6  -9 209.171 533.902   1
  -6  12  -9 311.201 659.314   1
   6   6  -9 1328.10 990.027   3
 -12   6  -9 1199.27 903.651   1
  12  -6  -9 954.911 807.819   3
   6 -12  -9 1198.02 838.442   3
  -6  12  -9 932.688 504.417   2
  -6  -6  -9 962.148 602.418   4
 -12   6  -9 516.031 678.225   2
  -6  -6  -9 420.059 991.302   2
  -6  -6  -9 1019.46 668.811   1
  -6  -6  -9 549.600 656.920   3
  -6  -6  -6 3666.41 704.679   4
  12  -6  -6 3021.90 849.951   3
 -12   6  -6 5022.11 1097.82   1
   6 -12  -6 2547.80 344.058   1
   6 -12  -6 3812.20 839.380   3
  -6  -6  -6 5031.25 720.907   3
   6   6  -6 3395.30 659.578   1
  -6  -6  -6 2436.76 866.367   2
 -12   6  -6 3979.81 751.294   2
   6   6  -6 3424.84 774.105   4
 -12   6  -6 2879.49 326.692   4
  -6  12  -6 4664.03 914.591   1
   6   6  -6 4856.11 1002.60   3
  -6  12  -3 289.448 480.358   1
 -12   6  -3 89.8720 372.807   2
  -6  -6  -3 717.102 429.308   4
  12  -6  -3 945.870 549.889   3
  -6  -6  -3 971.085 239.941   3
   6 -12  -3-95.1673 434.005   3
  12  -6  -3 624.925 537.084   2
  12  -6  -3 103.877 382.965   4
 -12   6  -3 766.031 412.257   3
  -6  12  -3 1171.41 513.479   3
 -12   6  -3 508.853 331.022   4
   6 -12  -3 762.862 339.652   1
  -6  -6  -3 685.230 710.598   2
   6   6  -3 405.665 449.792   4
  -6  -6  -3-7.50464 351.607   1
   6   6  -3 242.481 368.688   1
 -12   6  -3 802.574 591.542   1
   6   6  -3 475.534 456.885   2
  12  -6   0 18264.5 1186.13   4
  -6  -6   0 17984.8 1273.92   2
  -6  12   0 18841.2 1108.95   1
   6   6   0 16345.7 1210.21   4
  -6  12   0 16011.2 1041.77   3
   6 -12   0 17056.9 1073.54   1
   6   6   0 18353.0 1173.95   1
  12  -6   0 19317.6 1032.74   3
   6   6   0 19356.9 650.184   3
 -12   6   0 18295.4 1096.05   3
   6 -12   0 18219.8 1136.71   3
  -6  -6   0 18064.4 1251.15   4
   6   6   0 16431.5 1331.48   2
 -12   6   0 18215.7 1138.89   4
 -12   6   0 19132.1 1209.28   2
  -6  -6   0 17201.3 1064.73   1
  12  -6   0 16640.2 1182.85   2
  12  -6   3 14.7050 391.108   2
   6 -12   3 74.4867 333.883   4
 -12   6   3 567.696 538.320   3
  12  -6   3 616.298 379.231   4
  -6  12   3 530.958 474.225   3
   6 -12   3-313.508 466.892   1
 -12   6   3-16.5985 208.891   1
   6   6   3 590.591 620.721   2
  -6  -6   3 460.413 439.440   1
 -12   6   3 696.304 512.268   2
   6   6   3 94.7061 407.120   4
  -6  -6   3-98.4612 374.923   2
  -6  12   3-60.7148 254.243   1
 -12   6   3 105.270 447.050   4
  -6  -6   3 733.887 440.289   4
  -6  -6   6 4658.02 782.162   2
   6 -12   6 2738.53 338.918   4
  -6  -6   6 4006.57 666.510   4
  12  -6   6 2309.83 303.680   4
  -6  -6   9 863.263 539.741   4
  -7  12 -10 58.6222 731.962   1
 -12   7 -10 1484.90 1064.93   3
   7   5 -10 275.269 936.952   3
  -5  -7 -10 520.308 981.078   2
  -5  -7 -10 2684.22 888.097   3
  12  -5 -10 522.401 871.301   3
   7   5 -10 638.873 640.219   1
 -12   7 -10 2112.37 994.216   2
  -5  -7 -10-151.553 567.589   1
 -12   7 -10 483.444 770.726   1
  -5  -7 -10 386.746 611.743   4
   5 -12 -10 1279.01 871.052   3
  -5  -7  -7 6408.84 900.222   3
   5 -12  -7 5962.93 1049.00   3
   7   5  -7 6134.96 1160.55   3
   5 -12  -7 4687.26 467.154   1
   5 -12  -7 4643.95 499.541   1
 -12   7  -7 5858.44 880.006   2
  -7  12  -7 4532.47 926.882   1
  -5  -7  -7 5357.26 860.291   4
   7   5  -7 6006.97 855.135   1
  -5  -7  -7 5767.38 1240.69   2
   7   5  -7 4308.73 902.045   4
  12  -5  -7 7559.44 1298.43   3
 -12   7  -7 5878.48 1154.27   1
 -12   7  -4 1929.32 465.468   2
  -5  -7  -4 2618.02 444.602   3
   7   5  -4 1835.19 696.173   2
  12  -5  -4 1911.65 626.164   3
   7   5  -4 2873.16 580.265   1
   5 -12  -4 3000.06 671.191   3
   5 -12  -4 2134.87 418.597   1
   7   5  -4 2412.74 617.859   4
 -12   7  -4 2975.37 786.458   1
 -12   7  -4 2133.01 527.272   3
  -7  12  -4 1402.62 622.240   1
  12  -5  -4 3373.70 688.302   4
  -5  -7  -4 3195.68 640.085   4
  -5  -7  -4 2340.87 551.174   1
 -12   7  -4 1637.03 375.824   4
  -5  -7  -4 1291.47 622.111   2
   7   5  -4 2550.04 636.103   3
   7   5  -1 4038.94 471.011   3
   5 -12  -1 4815.21 630.856   1
 -12   7  -1 6348.23 706.265   4
  12  -5  -1 5757.37 657.765   3
 -12   7  -1 4404.27 591.341   3
  -7  12  -1 3640.79 566.309   3
   7   5  -1 5121.41 692.493   1
  -7  12  -1 5553.04 721.691   1
  -5  -7  -1 4689.91 643.486   1
   5 -12  -1 4885.71 623.319   3
 -12   7  -1 5426.29 771.845   1
  -5  -7  -1 4988.52 739.214   4
   7   5  -1 4056.92 690.651   4
   7   5  -1 4233.49 749.519   2
  12  -5  -1 5067.27 724.404   4
  12  -5  -1 5413.66 780.765   2
  -5  -7  -1 4275.24 819.733   2
 -12   7  -1 5771.15 677.256   2
   5 -12   2 1757.39 342.145   2
 -12   7   2 2359.88 606.495   4
   5 -12   2 1522.98 481.758   4
  -5  -7   2 1107.16 478.301   2
 -12   7   2 1521.16 562.650   3
   7   5   2 789.772 453.763   4
  -7  12   2 887.237 443.166   3
 -12   7   2 1870.84 543.937   2
   5 -12   2 1881.84 522.448   1
  -5  -7   2 1735.04 567.474   4
  -5  -7   2 2435.98 552.706   1
  -7  12   2 1492.96 377.730   1
  12  -5   2 1708.41 412.788   3
   7   5   2 1760.03 652.966   2
  12  -5   2 2116.70 578.097   2
  12  -5   2 1853.38 494.498   4
  -5  -7   5 13740.7 1111.46   2
  -5  -7   5 13476.4 1175.15   1
  12  -5   5 12927.8 786.247   4
  -5  -7   5 12631.6 1053.81   4
   5 -12   5 12398.3 813.127   4
  -5  -7   8 311.505 503.615   4
   8   4  -8 1446.97 1010.88   3
 -12   8  -8 67.0150 499.424   2
  -4  -8  -8 798.376 561.759   3
   4 -12  -8 506.216 645.602   3
  -8  12  -8 510.261 234.667   2
  -8  12  -8 896.904 733.397   1
  12  -4  -8 880.091 737.939   3
  -4  -8  -8 771.680 877.003   2
   4 -12  -8 551.313 420.108   1
  -8  12  -8 674.381 284.105   2
 -12   8  -8 1186.44 811.098   1
  -4  -8  -8 69.8361 515.540   4
   8   4  -8 445.398 480.850   1
   4 -12  -8 196.665 329.264   1
   4 -12  -5 15098.2 1282.99   3
   8   4  -5 12262.6 1284.35   3
  12  -4  -5 15613.4 1439.39   3
   8   4  -5 13102.4 1232.11   4
   4 -12  -5 12556.8 821.146   1
 -12   8  -5 15249.7 1509.99   1
  -4  -8  -5 12814.3 990.668   3
 -12   8  -5 12453.5 927.785   2
  -4  -8  -5 13283.1 1160.86   4
  -4  -8  -5 11788.9 1007.05   1
   8   4  -5 14853.8 1109.07   1
  -4  -8  -5 14753.4 1615.36   2
  -8  12  -5 14852.2 1344.58   1
  -4  -8  -2 1112.48 427.478   1
   8   4  -2 1260.24 567.127   2
   4 -12  -2 1755.41 446.744   1
   8   4  -2 1594.59 458.228   1
 -12   8  -2 1847.17 458.129   2
  -4  -8  -2 1158.58 586.733   2
 -12   8  -2 1023.68 351.979   4
  12  -4  -2 946.895 563.363   2
   4 -12  -2 1394.57 481.422   3
  12  -4  -2 1483.32 544.349   4
 -12   8  -2 432.420 460.917   1
  -4  -8  -2 2004.09 296.892   3
 -12   8  -2 1228.00 424.012   3
  -8  12  -2 1235.89 395.598   3
  -8  12  -2 2007.17 567.818   1
   8   4  -2 1668.25 535.943   4
   8   4  -2 1249.79 410.189   3
  -4  -8  -2 1122.30 475.779   4
  12  -4  -2 1291.79 456.078   3
   4 -12   1 29803.8 1409.70   2
 -12   8   1 28139.7 1500.01   2
  -8  12   1 29342.8 1242.03   1
  12  -4   1 30600.0 1194.63   3
  -8  12   1 25745.9 1381.91   3
  -4  -8   1 29056.0 1552.80   4
   4 -12   1 30289.0 1453.23   3
 -12   8   1 30473.4 1517.51   4
  12  -4   1 27560.9 1520.21   2
 -12   8   1 27337.4 1424.83   3
   8   4   1 27506.1 1726.22   2
   4 -12   1 28448.9 1465.46   4
 -12   8   1 27316.2 1240.49   1
   8   4   1 30525.4 1617.74   4
  -4  -8   1 27541.1 1472.41   2
  12  -4   1 31798.5 1546.18   4
  -4  -8   1 29160.1 1460.48   1
   4 -12   1 28386.7 1530.42   1
  -4  -8   4 6455.58 869.572   1
   4 -12   4 6741.31 706.785   4
  -4  -8   4 6279.03 734.573   2
  -4  -8   4 5519.58 751.237   4
  12  -4   4 6240.27 970.063   2
 -12   8   4 4679.81 279.242   1
   4 -12   4 4121.72 329.190   2
   8   4   4 6598.05 806.239   4
  12  -4   4 6550.46 663.612   4
   4 -12   7 3953.74 410.824   4
  -4  -8   7 6542.33 789.990   4
  -3  -9  -9 706.937 576.769   1
   9   3  -9 266.646 841.044   3
  12  -3  -9-1755.53 964.101   3
  -3  -9  -9 114.329 637.221   3
 -12   9  -9-505.480 741.046   1
  -3  -9  -9-75.4981 859.401   2
   9   3  -9 54.8500 525.636   1
   3 -12  -9-1426.76 880.492   3
   3 -12  -9 308.203 459.221   1
  -9  12  -9 572.025 694.003   1
   3 -12  -9 498.096 762.373   4
  -3  -9  -9-428.471 622.400   4
  -9  12  -9 616.650 380.619   2
 -12   9  -9 684.657 628.562   2
   3 -12  -6 1933.42 419.446   1
 -12   9  -6 3826.87 870.499   1
  -3  -9  -6 2044.23 513.773   1
  12  -3  -6 2461.71 796.439   3
  -3  -9  -6 2624.02 656.607   4
 -12   9  -6 2962.93 543.743   2
   3 -12  -6 2787.00 730.574   3
   9   3  -6 2554.22 617.736   1
  -3  -9  -6 3118.88 1052.21   2
  -9  12  -6 3058.48 778.545   1
  -3  -9  -6 2654.99 629.230   3
   9   3  -6 3976.50 945.992   3
  -3  -9  -3-261.491 400.280   1
 -12   9  -3 128.380 377.873   3
  12  -3  -3 746.219 465.659   3
 -12   9  -3 66.5984 292.121   2
  -3  -9  -3 498.312 313.504   3
   3 -12  -3 420.784 435.807   3
  -9  12  -3-300.613 470.035   1
   9   3  -3 419.154 430.068   1
  -9  12  -3 357.134 433.483   3
   3 -12  -3-117.541 342.168   1
   9   3  -3-556.594 543.948   2
  12  -3  -3-182.563 542.523   2
  12  -3  -3-532.409 478.188   4
  -3  -9  -3 157.035 406.850   4
   9   3  -3 74.2567 407.262   3
  -3  -9  -3 24.0919 675.547   2
   9   3  -3 728.957 492.456   4
 -12   9  -3 826.270 575.799   1
 -12   9   0 1119.91 447.324   4
 -12   9   0 1082.27 442.852   1
   9   3   0 1630.02 254.174   3
  12  -3   0 330.414 427.566   2
  -3  -9   0 1268.62 631.174   2
 -12   9   0 965.040 422.245   3
  12  -3   0 1503.67 393.144   3
  -9  12   0 1317.65 470.562   3
   3 -12   0 1474.89 465.158   1
 -12   9   0 1467.60 467.709   2
  -3  -9   0 1511.69 517.140   1
   3 -12   0 1340.40 450.386   3
  -9  12   0 1360.79 455.008   1
   9   3   0 2289.97 547.985   4
  -3  -9   0 410.565 446.311   4
   3 -12   0 1594.80 541.028   4
  12  -3   0 1167.69 512.603   4
   3 -12   0 1629.79 570.678   2
   9   3   0 1303.80 561.779   2
 -12   9   3 1396.13 291.597   1
  -3  -9   3 1500.36 517.838   4
   3 -12   3 1225.79 317.386   2
  -9  12   3 2418.79 681.025   3
 -12   9   3 1796.57 586.446   3
   3 -12   3 1410.32 533.365   1
  -9  12   3 1726.84 320.607   1
   9   3   3 839.664 466.214   4
  12  -3   3 1408.48 590.594   2
  -3  -9   3 1777.23 566.902   1
  -3  -9   3 1159.90 446.510   2
   9   3   3 648.126 653.162   2
   3 -12   3 1544.11 510.553   4
  12  -3   3 1890.38 479.954   4
  -3  -9   6 3518.16 674.683   2
   3 -12   6 2014.42 429.402   4
  12  -3   6 3372.79 511.792   4
  -3  -9   6 2979.04 562.164   4
  -3  -9   9-176.570 413.480   4
   2 -12 -10 1400.48 899.643   3
  10   2 -10 3003.11 1266.64   3
  12  -2 -10 282.133 909.441   3
  -2 -10 -10 1102.89 717.044   3
  -2 -10 -10 73.5964 1016.62   2
  10   2 -10 298.626 496.097   1
 -10  12 -10 820.965 875.549   1
  -2 -10 -10 1300.64 823.424   4
   2 -12 -10 287.727 759.388   4
 -12  10 -10 585.015 889.750   1
  -2 -10 -10 419.484 575.573   1
  12  -2  -7 1209.27 377.230   1
  12  -2  -7 63.7290 659.043   3
   2 -12  -7 2543.35 747.044   4
  10   2  -7 113.613 427.106   1
   2 -12  -7 1033.04 587.747   3
   2 -12  -7 905.220 410.490   1
 -10  12  -7 2172.87 759.687   1
  -2 -10  -7 1712.63 609.563   3
  -2 -10  -7 334.678 563.911   4
  -2 -10  -7 606.097 790.047   2
 -12  10  -7 1400.62 698.697   1
  10   2  -7 867.271 726.842   3
 -12  10  -7 1481.62 477.300   2
  10   2  -4 419.727 455.461   3
  -2 -10  -4 1302.31 454.531   3
  12  -2  -4 704.203 556.258   3
 -12  10  -4 271.391 228.377   2
 -10  12  -4 821.663 580.533   1
  -2 -10  -4 438.851 602.677   2
   2 -12  -4 630.247 443.430   3
  -2 -10  -4 934.223 510.147   4
  10   2  -4 310.670 347.964   1
  10   2  -4 696.243 501.321   4
   2 -12  -4-14.1309 306.647   1
  -2 -10  -4 1243.52 457.204   1
 -12  10  -4 202.735 549.132   1
 -12  10  -1-368.929 410.370   1
  10   2  -1 524.632 309.713   3
   2 -12  -1 554.224 426.766   1
 -10  12  -1-111.371 389.643   1
  -2 -10  -1-114.558 369.866   1
  10   2  -1 826.018 531.641   4
 -12  10  -1 686.701 401.225   3
  12  -2  -1 576.302 296.991   3
  12  -2  -1 542.486 461.579   4
 -10  12  -1 663.489 393.101   3
 -12  10  -1 184.481 311.140   2
  10   2  -1-507.804 520.700   2
   2 -12  -1 559.041 410.291   3
  -2 -10  -1 289.665 297.162   3
   2 -12  -1 712.568 448.820   4
  -2 -10  -1 1194.78 551.843   4
   2 -12  -1-508.542 614.669   2
  12  -2  -1 382.606 510.529   2
  -2 -10  -1 165.259 544.670   2
 -12  10   2 672.428 305.221   1
  12  -2   2 1150.87 464.605   4
 -12  10   2 1121.52 501.945   3
 -10  12   2 647.919 496.780   3
 -10  12   2 983.565 344.124   1
  12  -2   2 103.314 508.007   2
   2 -12   2 827.307 452.479   4
   2 -12   2 929.939 533.427   1
  -2 -10   2 885.751 499.496   4
  10   2   2 1156.70 650.728   2
  -2 -10   2 911.369 502.036   1
  10   2   2 1318.81 539.465   4
  -2 -10   2 1155.70 384.813   2
   2 -12   2-91.3913 347.967   2
   2 -12   5 2315.63 411.593   2
  12  -2   5 2701.17 800.438   2
  10   2   5 3445.85 645.735   4
  -2 -10   5 3715.09 601.414   4
  -2 -10   5 2711.63 558.546   2
   2 -12   5 2774.97 512.440   4
  12  -2   5 2624.34 487.757   4
  -2 -10   8-55.7993 419.119   4
   2 -12   8 94.1214 247.847   4
  -1 -11  -8 1927.84 630.268   4
  11   1  -8 2179.46 862.930   3
   1 -12  -8 1164.16 454.353   1
  -1 -11  -8 3237.20 873.389   3
   1 -12  -8 2926.57 893.037   3
 -11  12  -8 890.101 225.240   2
   1 -12  -8 2345.34 812.628   4
  12  -1  -8 1881.02 494.370   1
 -12  11  -8 3146.36 1014.03   1
 -12  11  -8 994.993 423.748   2
 -12  11  -8 921.826 333.944   2
  12  -1  -8 1777.31 852.109   3
  -1 -11  -8 3049.83 1279.72   2
  11   1  -8 3204.98 662.663   1
 -11  12  -8 1626.88 837.891   1
 -11  12  -8 985.492 252.661   2
  11   1  -5 6551.28 987.803   3
  12  -1  -5 5537.45 902.574   3
  -1 -11  -5 6317.92 823.920   3
   1 -12  -5 6270.01 856.249   3
   1 -12  -5 5369.79 885.673   4
  -1 -11  -5 6914.67 937.261   4
  -1 -11  -5 5746.63 732.508   1
   1 -12  -5 4843.72 636.737   1
 -12  11  -5 3622.27 340.949   2
  -1 -11  -5 4699.05 1053.74   2
  11   1  -5 7293.99 772.927   1
 -12  11  -5 7178.29 1084.90   1
 -11  12  -5 5454.75 965.280   1
  12  -1  -2 7400.06 789.718   3
 -12  11  -2 6722.99 560.912   2
  12  -1  -2 6597.68 970.649   2
  -1 -11  -2 7128.68 753.172   1
   1 -12  -2 6902.22 726.356   3
  -1 -11  -2 8169.44 704.253   3
  11   1  -2 8907.69 1091.15   2
 -12  11  -2 6687.79 778.159   3
  -1 -11  -2 7958.84 1123.69   2
   1 -12  -2 7373.61 806.647   1
  11   1  -2 7512.56 784.227   3
 -12  11  -2 5964.57 883.782   1
   1 -12  -2 7605.90 938.927   4
   1 -12  -2 7101.26 1050.28   2
  11   1  -2 8729.66 999.339   4
 -11  12  -2 6687.46 877.365   1
  12  -1  -2 8766.75 985.314   4
  -1 -11  -2 6616.09 921.876   4
 -11  12  -2 5118.72 687.427   3
   1 -12   1 21532.3 1384.54   1
  12  -1   1 21630.8 818.379   3
  -1 -11   1 18646.9 1279.96   1
 -11  12   1 17294.9 1241.21   3
 -11  12   1 20291.4 1082.37   1
  -1 -11   1 19718.5 1343.85   4
   1 -12   1 18838.3 1320.67   4
  11   1   1 19464.4 1360.53   4
  11   1   1 18514.3 1434.02   2
  -1 -11   1 17465.2 1243.65   2
  12  -1   1 16594.1 1341.60   2
  12  -1   1 19288.0 1322.86   4
 -12  11   1 18595.3 1283.32   3
 -12  11   1 20428.5 1123.92   1
   1 -12   1 20394.0 1282.16   2
  11   1   1 18726.2 589.459   3
  12  -1   4 4294.32 647.086   4
  12  -1   4 3863.54 871.429   2
   1 -12   4 4996.63 591.498   2
  -1 -11   4 4407.17 688.783   4
  11   1   4 5379.88 750.487   4
   1 -12   4 4653.72 681.501   4
  -1 -11   4 4797.82 614.927   2
  -1 -11   7 6112.25 739.391   4
   1 -12   7 5851.65 624.540   4
  12   0  -9 943.255 489.705   1
   0 -12  -9-647.656 707.351   3
 -12  12  -9 712.043 901.666   1
  12   0  -9 65.2710 760.375   3
   0 -12  -9 343.853 1074.00   2
   0 -12  -9 467.806 513.856   1
   0 -12  -9 1649.18 688.797   4
  12   0  -6 4034.03 913.147   3
   0 -12  -6 5217.12 856.338   3
   0 -12  -6 3023.29 754.469   4
   0 -12  -6 3981.50 658.366   1
  12   0  -6 4939.18 659.575   1
 -12  12  -6 4742.15 981.724   1
   0 -12  -6 5490.31 1247.39   2
   0 -12  -3 591.932 348.261   3
  12   0  -3-8.22295 409.191   3
   0 -12  -3 748.444 449.844   1
 -12  12  -3-225.420 189.173   2
 -12  12  -3 138.739 495.141   1
   0 -12  -3 0.93705 507.328   4
  12   0   0 659.057 561.961   2
 -12  12   0-770.367 437.731   1
   0 -12   0 376.198 460.363   1
  12   0   0 648.543 521.339   4
   0 -12   0 428.460 376.297   3
  12   0   0 664.738 274.269   3
   0 -12   0-205.364 464.352   4
   0 -12   0-339.562 518.984   2
 -12  12   0 211.785 380.788   3
  12   0   3 325.695 589.716   2
   0 -12   3 72.2952 382.601   2
   0 -12   3 357.002 388.369   4
  12   0   3 848.140 491.386   4
 -12  12   3 332.930 239.206   1
  12   0   6 1975.12 554.860   4
   0 -12   6 1371.07 446.218   2
   0 -12   6 909.319 438.747   4
   0 -12   9-86.9110 320.902   4
   0  13  -7 416.753 529.184   2
 -13   0  -7 959.410 593.606   3
  13 -13  -7-258.050 652.848   3
   0  13  -7 758.387 653.659   1
 -13   0  -7 375.635 469.548   4
   0  13  -7 304.999 541.170   4
 -13   0  -7 1507.41 943.071   1
 -13   0  -7 116.903 729.398   2
  13 -13  -4 14113.5 1309.96   3
 -13   0  -4 15633.5 792.354   3
   0  13  -4 14641.8 1319.69   1
   0  13  -4 16300.0 1313.27   4
   0  13  -4 15196.2 1156.60   2
 -13   0  -4 17654.5 1274.81   4
 -13   0  -4 18001.8 1582.23   2
 -13   0  -1 339.173 240.079   3
 -13   0  -1 731.645 524.527   2
  13 -13  -1-659.596 461.949   3
   0  13  -1 55.5821 447.246   1
  13 -13  -1 536.563 390.036   2
   0  13  -1 128.612 500.485   2
   0  13  -1 624.469 361.552   3
  13 -13  -1 14.1529 357.086   1
 -13   0  -1 353.273 494.150   4
  13 -13  -1-74.5323 407.654   4
 -13   0   2 28126.9 1492.57   3
 -13   0   2 29946.3 1772.44   2
 -13   0   2 29589.3 1743.80   4
   0  13   2 27287.1 1419.26   3
   0  13   2 28089.2 1498.34   1
 -13   0   2 26522.1 1376.61   1
  13 -13   2 29632.8 1214.15   2
  13 -13   2 25059.8 1554.58   3
  13 -13   2 27479.7 1402.99   4
 -13   0   5 401.096 481.876   1
   0  13   5-676.419 587.537   3
 -13   0   5 640.457 595.574   2
 -13   0   5 273.699 537.323   4
  13 -13   5 439.607 307.431   4
 -13   0   8 11429.4 1307.57   4
 -13   1  -8 845.489 600.052   3
 -12  -1  -8 289.263 536.756   3
  12 -13  -8 355.510 777.151   3
  -1  13  -8 1837.15 788.969   1
 -12  -1  -8 361.717 441.770   4
   1  12  -8 410.335 687.458   1
 -13   1  -8 787.424 717.341   2
 -13   1  -8 811.480 477.609   4
  13 -12  -8-329.481 681.029   3
 -12  -1  -8 1127.71 750.448   1
 -12  -1  -8-27.1512 804.119   2
 -13   1  -8 1327.79 796.243   1
 -12  -1  -5-63.1606 593.180   2
 -12  -1  -5 241.383 337.365   3
  -1  13  -5 849.633 589.409   1
  13 -12  -5-111.302 557.449   3
  -1  13  -5 418.426 398.174   2
 -12  -1  -5 40.3109 414.464   4
   1  12  -5 344.694 534.700   1
   1  12  -5 588.388 557.303   4
 -13   1  -5 275.676 307.470   3
  12 -13  -5 152.125 519.896   3
 -13   1  -5 895.638 479.534   4
 -13   1  -5-258.077 575.506   2
   1  12  -5 72.5880 482.513   2
 -13   1  -2 89.7323 235.479   3
 -12  -1  -2-370.991 568.305   2
 -13   1  -2 476.791 536.548   2
   1  12  -2 544.465 512.330   4
   1  12  -2 981.578 485.016   1
 -12  -1  -2 264.167 143.352   3
  12 -13  -2-353.514 437.825   3
 -12  -1  -2-578.359 422.489   4
  12 -13  -2 806.564 500.299   2
  -1  13  -2 428.814 386.599   3
  -1  13  -2-428.492 446.451   1
   1  12  -2 4.63859 355.596   3
  12 -13  -2 370.075 322.051   1
  -1  13  -2-93.2930 404.763   2
  13 -12  -2-150.162 467.168   2
   1  12  -2-542.809 567.763   2
 -13   1  -2 240.917 431.603   4
  13 -12  -2 297.972 438.530   3
 -12  -1   1 2960.53 486.287   3
 -13   1   1 2227.17 498.393   1
 -13   1   1 3056.79 688.001   2
  13 -12   1 1989.11 482.144   4
 -13   1   1 2763.88 491.888   3
  -1  13   1 3683.77 640.346   1
 -12  -1   1 2956.22 572.943   1
 -12  -1   1 3599.08 762.217   2
   1  12   1 3479.08 621.555   1
  13 -12   1 3554.73 557.916   2
   1  12   1 2341.51 473.537   3
  -1  13   1 2321.24 510.692   3
  12 -13   1 2459.95 622.156   1
  13 -12   1 2965.53 641.782   3
  12 -13   1 2077.90 568.088   3
  12 -13   1 2124.32 546.394   4
 -12  -1   1 3232.04 698.709   4
  13 -12   1 2406.93 647.505   1
 -13   1   1 2864.64 656.903   4
  12 -13   1 3388.31 489.454   2
  12 -13   4 949.889 362.204   4
 -13   1   4 944.528 607.780   4
 -12  -1   4 1311.64 540.541   2
 -13   1   4 1608.64 560.314   2
  13 -12   4 830.316 353.864   4
 -12  -1   4 600.189 449.267   1
  13 -12   4 539.940 264.595   2
  -1  13   4 482.186 424.909   3
 -13   1   4 648.492 395.924   1
   1  12   4 1258.86 502.353   3
 -12  -1   4 322.619 480.515   4
 -13   1   7 42.5496 437.226   1
 -12  -1   7-85.8176 719.825   2
 -13   1   7 2280.31 904.166   2
 -12  -1   7 964.970 595.355   4
 -12  -1   7-50.8930 582.978   1
 -13   1   7 855.959 612.378   4
   2  11  -9 1552.52 1107.17   3
 -13   2  -9 3088.23 943.727   3
 -11  -2  -9 3590.55 887.842   3
  -2  13  -9 3141.99 905.495   1
  13 -11  -9 1719.88 950.544   3
   2  11  -9 2870.56 867.168   1
  11 -13  -9 2089.43 903.646   3
 -13   2  -9 2092.60 834.445   1
 -11  -2  -9 2544.90 998.423   2
 -13   2  -9 1563.84 833.900   2
 -11  -2  -9 2551.28 594.392   4
 -11  -2  -9 1634.21 735.840   1
 -13   2  -6 3968.34 895.662   2
  -2  13  -6 2123.47 684.071   1
  -2  13  -6 2766.51 527.837   2
 -11  -2  -6 4804.93 715.591   3
  13 -11  -6 4170.30 878.604   3
   2  11  -6 3627.71 758.741   1
  11 -13  -6 4096.69 940.686   3
   2  11  -6 2730.55 720.164   4
 -11  -2  -6 3901.78 678.442   4
 -13   2  -6 5387.29 704.398   4
 -13   2  -6 5043.72 1068.67   1
   2  11  -6 2689.31 691.351   2
 -11  -2  -6 3924.19 1013.03   2
 -13   2  -3 1282.73 556.416   2
 -11  -2  -3 952.486 193.512   3
  11 -13  -3 1103.98 321.725   1
  -2  13  -3 1457.07 586.935   1
  13 -11  -3 2003.69 635.923   3
  11 -13  -3 1342.88 546.951   3
 -13   2  -3 1608.84 378.814   3
 -11  -2  -3 2052.66 773.123   2
  -2  13  -3 592.936 444.989   2
   2  11  -3 3047.70 681.368   1
 -11  -2  -3 1138.26 198.020   3
  -2  13  -3 1216.07 513.306   3
   2  11  -3 2640.25 694.511   4
 -11  -2  -3 282.203 424.105   4
 -13   2  -3 1571.48 468.663   4
   2  11  -3 1264.52 561.381   2
 -11  -2   0 707.741 452.691   2
 -13   2   0 88.2107 316.050   3
  13 -11   0-402.533 359.362   2
  -2  13   0 503.379 372.526   3
  13 -11   0-202.739 380.726   3
   2  11   0 159.660 267.607   3
  11 -13   0 293.450 402.309   3
  11 -13   0 198.629 366.091   2
 -11  -2   0 598.542 412.758   1
   2  11   0 679.950 440.758   1
   2  11   0 113.475 437.800   4
 -11  -2   0 532.895 477.104   4
 -13   2   0 523.025 497.914   2
  -2  13   0 208.305 402.199   1
   2  11   0 57.9249 540.588   2
 -13   2   0 643.094 482.747   4
  13 -11   0-5.85479 369.659   4
  11 -13   0-200.376 365.140   1
 -11  -2   3-684.355 468.669   4
 -13   2   3 932.263 530.007   3
 -11  -2   3-233.340 465.075   2
  -2  13   3 843.486 502.407   3
  11 -13   3 432.738 344.701   4
 -13   2   3-279.189 464.851   2
 -13   2   3 635.191 480.838   4
 -13   2   3 512.009 363.463   1
   2  11   3 396.403 424.985   3
  -2  13   3 582.434 401.040   1
 -11  -2   3 549.878 410.323   1
  13 -11   3 196.816 319.377   2
  13 -11   3 632.763 363.305   4
 -11  -2   6 1954.99 728.571   2
 -11  -2   6 1744.01 587.174   1
 -13   2   6 1356.68 688.583   2
  11 -13   6 1095.76 234.459   4
  13 -11   6 1304.77 220.713   4
   2  11   6 2187.69 675.438   3
  11 -13   6 747.788 200.466   4
 -13   2   6 1963.21 679.415   4
 -11  -2   6 2367.18 707.243   4
 -13   2   6 1283.36 487.137   1
 -11  -2   9 1305.33 679.831   4
 -10  -3 -10 5731.31 1149.17   3
 -13   3 -10 5905.49 1239.93   1
   3  10 -10 7358.46 1731.00   3
 -13   3 -10 5296.34 1193.05   3
  -3  13 -10 6771.73 1248.29   1
 -13   3 -10 2700.11 1067.46   2
  13 -10 -10 3886.78 1203.23   3
   3  10 -10 6047.80 1132.13   1
 -10  -3 -10 5718.45 1392.15   2
 -10  -3 -10 3961.87 1031.64   1
  10 -13 -10 4624.71 1205.58   3
   3  10  -7 201.282 576.933   2
   3  10  -7 588.185 636.402   4
 -10  -3  -7 209.517 449.963   3
  -3  13  -7-27.0936 554.180   1
  13 -10  -7-131.011 669.046   3
  10 -13  -7 1044.84 790.378   3
  -3  13  -7 519.329 370.719   2
   3  10  -7 397.823 558.014   1
 -10  -3  -7 155.703 484.728   4
 -10  -3  -7 825.738 851.650   2
 -13   3  -7 2061.62 932.080   1
 -13   3  -7 72.1039 614.990   2
 -13   3  -7 483.288 328.564   4
 -10  -3  -4 18042.6 846.026   3
 -13   3  -4 19571.1 1456.76   2
  10 -13  -4 18402.0 1413.61   3
  -3  13  -4 19871.7 1451.17   1
 -13   3  -4 18485.3 1020.02   3
  -3  13  -4 15425.1 884.748   2
   3  10  -4 17125.3 1310.61   1
   3  10  -4 20114.8 1436.03   4
 -10  -3  -4 17992.0 1287.66   4
   3  10  -4 16250.7 1269.09   2
 -10  -3  -4 17502.0 1604.01   2
 -13   3  -4 19569.8 1183.58   4
  13 -10  -4 19873.9 1530.43   3
 -10  -3  -1 2624.18 723.437   2
  10 -13  -1 1976.12 456.070   1
 -13   3  -1 2190.97 571.315   2
   3  10  -1 2558.40 428.426   3
  13 -10  -1 2869.85 602.284   2
 -10  -3  -1 4170.03 765.973   1
   3  10  -1 1786.04 523.148   1
  13 -10  -1 2482.29 572.486   3
  10 -13  -1 1888.35 524.448   3
 -13   3  -1 1850.18 520.712   4
  -3  13  -1 1415.35 520.877   1
  -3  13  -1 2742.04 516.843   3
  10 -13  -1 2263.25 554.913   2
   3  10  -1 2522.22 656.670   4
 -10  -3  -1 3632.01 667.336   4
   3  10  -1 3053.74 735.377   2
  13 -10  -1 2434.27 568.225   4
 -13   3  -1 2899.74 463.914   3
   3  10   2 22756.5 1008.93   3
  -3  13   2 19810.5 1291.35   3
  13 -10   2 23067.5 1355.15   3
  10 -13   2 25213.7 1492.41   3
 -13   3   2 22438.8 1151.54   1
  13 -10   2 24026.3 1277.33   4
   3  10   2 25881.6 1447.22   1
 -13   3   2 24479.5 1530.16   4
  10 -13   2 24927.7 836.676   2
   3  10   2 23780.5 1579.24   4
 -10  -3   2 24257.7 1539.76   4
 -13   3   2 22234.7 1381.43   3
 -10  -3   2 22466.4 1472.39   2
 -13   3   2 24235.5 1539.67   2
  -3  13   2 24305.1 1220.52   1
  10 -13   2 24203.5 1590.99   1
 -10  -3   2 23946.2 1304.33   1
  13 -10   2 24646.1 1208.51   2
 -10  -3   5 2307.46 617.208   1
   3  10   5 2019.94 546.587   3
 -13   3   5 1507.78 423.190   1
 -10  -3   5 2132.28 603.855   4
  10 -13   5 1605.58 339.393   4
 -10  -3   5 1184.50 595.537   2
  10 -13   5 1710.57 410.198   4
 -13   3   5 1901.84 712.639   2
  13 -10   5 1685.58 362.014   4
 -13   3   5 1208.29 572.904   4
 -10  -3   8 5026.08 895.813   4
 -13   3   8 3561.53 541.085   1
 -13   3   8 5446.42 1031.77   4
  -4  13  -8 614.936 375.757   2
   4   9  -8 1414.58 958.310   3
  -9  -4  -8 1095.55 622.615   3
  13  -9  -8-829.138 753.192   3
  -9  -4  -8 2013.92 687.289   4
 -13   4  -8 103.028 640.502   2
  -9  -4  -8 119.303 473.939   1
   4   9  -8 1701.31 726.226   1
   4   9  -8 556.308 633.824   4
 -13   4  -8 619.637 166.491   4
  -9  -4  -8-91.7828 842.224   2
 -13   4  -8 2159.36 908.943   1
  -4  13  -8 1146.13 751.912   1
   9 -13  -8 1859.52 825.357   3
  -4  13  -5 379.199 227.006   2
   4   9  -5 922.800 557.288   2
  -9  -4  -5-255.743 306.202   3
  -9  -4  -5 591.538 462.482   4
  -4  13  -5 62.4653 484.605   1
   4   9  -5-394.049 503.340   4
 -13   4  -5 331.078 409.088   3
 -13   4  -5 227.245 325.996   4
   9 -13  -5 1815.88 714.401   3
 -13   4  -5-707.328 690.850   1
  -9  -4  -5 1696.81 793.735   2
 -13   4  -5 252.781 460.977   2
   4   9  -5 81.0266 448.059   1
  13  -9  -5 132.785 523.765   3
  -4  13  -2 6830.42 771.483   3
  13  -9  -2 7990.79 887.036   3
   4   9  -2 8379.14 1014.52   2
   4   9  -2 7461.17 918.961   4
   9 -13  -2 8948.04 943.976   3
  -9  -4  -2 9730.79 1147.78   2
  13  -9  -2 7364.62 878.927   4
  -4  13  -2 9240.30 976.575   1
 -13   4  -2 8409.48 686.985   3
  -9  -4  -2 7625.45 885.757   4
  -9  -4  -2 8956.70 923.917   1
   9 -13  -2 7446.61 669.743   1
 -13   4  -2 8917.67 835.163   4
   4   9  -2 8346.25 880.331   1
 -13   4  -2 7660.09 886.305   2
  13  -9  -2 8198.06 930.664   2
  -9  -4   1 1716.36 566.282   2
  -4  13   1 1187.69 429.889   3
 -13   4   1 2342.05 534.696   3
   4   9   1 1989.68 740.480   2
 -13   4   1 1558.03 595.811   2
  13  -9   1 312.011 344.363   2
   9 -13   1 1510.61 525.335   1
   4   9   1 1597.34 578.415   4
  13  -9   1 2225.47 522.227   3
   9 -13   1 1273.95 538.604   3
   9 -13   1 1471.05 336.902   2
  -9  -4   1 1338.83 420.185   1
   4   9   1 1101.17 477.737   1
  -9  -4   1 1840.44 611.811   4
  -4  13   1 748.620 384.833   1
  13  -9   1 1566.41 451.689   4
   4   9   1 1505.32 313.560   3
 -13   4   1 1356.79 523.360   4
   4   9   4 4320.45 591.333   3
  -4  13   4 4511.00 788.821   3
  -9  -4   4 3836.13 690.281   1
 -13   4   4 3915.09 788.844   4
 -13   4   4 3849.04 780.884   2
  13  -9   4 3904.65 645.705   2
 -13   4   4 4939.82 564.520   1
  -9  -4   4 4652.42 802.286   4
  -9  -4   4 4138.42 757.609   2
  13  -9   4 4543.57 559.504   4
 -13   4   7 1340.19 581.675   4
 -13   4   7 853.241 339.626   1
  -9  -4   7 34.7046 575.846   2
  -9  -4   7-97.2517 461.742   4
 -13   5  -9-758.540 840.006   1
   5   8  -9-9.62531 968.848   3
  -8  -5  -9 1048.69 659.534   3
  13  -8  -9 886.480 823.581   3
   8 -13  -9 660.208 831.171   3
  -8  -5  -9 654.153 578.021   1
  -8  -5  -9 1099.72 919.884   2
   5   8  -9 334.556 681.462   1
 -13   5  -9 1365.27 926.321   2
  -8  -5  -9 577.260 562.321   4
  -5  13  -9 1909.86 886.775   1
   5   8  -6 2914.16 792.401   2
  -8  -5  -6 2250.86 597.838   4
  13  -8  -6 2932.80 851.008   3
 -13   5  -6 1952.25 415.072   4
  -8  -5  -6 3467.59 1022.80   2
   5   8  -6 2536.33 748.700   3
  -8  -5  -6 3133.02 584.665   3
 -13   5  -6 3469.06 1030.55   1
   5   8  -6 2038.97 652.024   1
   5   8  -6 1592.60 664.299   4
  -5  13  -6 2286.21 708.551   1
   8 -13  -6 3689.42 903.183   3
 -13   5  -6 2296.58 623.763   2
  -5  13  -3 6247.35 848.162   1
  -8  -5  -3 5820.44 359.654   3
   8 -13  -3 6462.27 829.517   3
 -13   5  -3 6843.94 678.970   3
  -8  -5  -3 7302.21 886.123   4
  -8  -5  -3 6914.01 1089.78   2
   8 -13  -3 6315.49 583.545   1
   5   8  -3 9343.98 943.108   1
 -13   5  -3 6364.23 692.680   4
   5   8  -3 7318.68 919.737   2
  13  -8  -3 6238.57 859.271   3
   5   8  -3 6956.06 893.033   4
 -13   5  -3 7293.51 855.823   2
  -8  -5   0 13561.4 1003.28   1
   5   8   0 14513.3 1331.94   2
 -13   5   0 14765.4 1109.50   4
 -13   5   0 11893.7 929.452   3
   5   8   0 14726.4 1090.18   1
  -5  13   0 12369.2 933.157   3
  13  -8   0 14452.8 978.162   3
   8 -13   0 14203.9 1051.43   3
   5   8   0 13242.8 626.733   3
  -5  13   0 14030.9 1018.13   1
  -8  -5   0 14368.5 1146.91   4
  -8  -5   0 14014.2 1206.26   2
   5   8   0 13853.3 1149.16   4
  13  -8   0 14488.9 1093.10   4
 -13   5   0 14340.0 1125.75   2
  13  -8   0 14129.3 1084.47   2
   8 -13   0 13473.2 1017.91   1
   5   8   3 2407.21 370.692   3
  -8  -5   3 1614.33 576.495   2
  -8  -5   3 2580.19 612.811   4
 -13   5   3 2158.80 558.875   3
  -5  13   3 2655.56 610.068   3
 -13   5   3 1700.09 373.707   1
 -13   5   3 930.677 549.775   2
  -8  -5   3 1985.72 601.308   1
   5   8   3 1937.92 603.608   4
  13  -8   3 1691.56 447.897   4
  13  -8   3 1912.52 532.960   2
 -13   5   3 2550.68 637.484   4
  -5  13   3 1946.83 401.553   1
 -13   5   6 3123.14 818.132   4
  -8  -5   6 2265.11 600.393   4
 -13   5   6 1414.49 274.266   1
  -8  -5   6 2854.01 683.867   2
  13  -8   6 1555.41 276.711   4
   8 -13   6 1487.02 284.763   4
  -8  -5   9 3214.75 701.571   4
 -13   6 -10 2626.34 1059.15   1
  13  -7 -10 2618.88 1178.47   3
 -13   6 -10 2086.35 979.749   3
  -7  -6 -10-51.4215 1008.29   2
   6   7 -10 1968.62 1202.03   3
  -7  -6 -10 2312.02 872.371   3
   7 -13 -10 1351.47 917.663   3
   6   7 -10 3694.46 910.404   1
  -7  -6 -10 1889.64 668.937   4
  -6  13 -10 2692.44 1056.47   1
 -13   6 -10 1586.47 814.398   2
  -7  -6 -10 1825.06 752.182   1
   6   7  -7 1182.92 770.602   3
  13  -7  -7 438.570 712.794   3
   7 -13  -7 229.355 642.004   3
   6   7  -7 139.109 591.313   4
 -13   6  -7 629.186 513.523   2
  -6  13  -7-719.347 614.693   1
  -7  -6  -7 397.801 522.898   4
  -6  13  -7 214.071 138.084   2
  -7  -6  -7 2622.03 1006.90   2
   6   7  -7 272.724 492.900   1
  -6  13  -7 438.915 148.565   2
  -7  -6  -7 416.717 550.760   3
   7 -13  -7 227.174 139.604   1
   7 -13  -7 34.6760 153.846   1
 -13   6  -7 1762.48 889.420   1
  13  -7  -4 16561.8 1406.97   3
   7 -13  -4 15353.9 1287.54   3
   6   7  -4 15661.5 1192.46   1
  -7  -6  -4 14308.7 1523.70   2
 -13   6  -4 13406.6 971.028   3
  -7  -6  -4 16941.3 858.734   3
  -7  -6  -4 14018.5 1195.58   4
 -13   6  -4 14526.6 1105.04   2
   6   7  -4 14334.6 1291.16   2
   6   7  -4 13894.4 1200.87   4
 -13   6  -4 19739.0 1711.19   1
 -13   6  -4 17951.7 1035.91   4
   7 -13  -4 15882.6 832.498   1
  -6  13  -4 15359.9 1328.86   1
   6   7  -1 786.148 483.394   4
  13  -7  -1 1877.27 574.968   2
  -7  -6  -1 1794.03 495.175   1
 -13   6  -1 2442.83 593.720   2
   6   7  -1 1376.11 517.772   1
  13  -7  -1 2174.82 471.201   3
 -13   6  -1 1675.22 417.115   3
  -7  -6  -1 2058.84 661.387   2
   7 -13  -1 1535.22 465.641   3
  -6  13  -1 1822.75 513.901   3
   7 -13  -1 2176.42 484.169   1
  13  -7  -1 1470.70 535.237   4
 -13   6  -1 2472.08 548.873   4
  -7  -6  -1 1570.10 596.613   4
  -6  13  -1 2031.78 578.888   1
   6   7  -1 2366.58 647.019   2
  13  -7   2 11330.1 905.001   3
   7 -13   2 9632.89 642.338   2
  -6  13   2 10717.7 972.967   3
 -13   6   2 9225.23 955.372   3
  -7  -6   2 11125.2 1018.04   4
  -7  -6   2 9421.62 960.835   2
  -7  -6   2 10721.7 951.220   1
  -6  13   2 9465.33 724.897   1
   6   7   2 10180.0 1029.07   4
   6   7   2 7822.17 1127.02   2
  13  -7   2 8303.31 830.441   2
  13  -7   2 10940.5 918.287   4
   7 -13   2 11066.5 1107.66   1
 -13   6   2 11047.9 1061.72   4
 -13   6   2 9231.84 984.013   2
   7 -13   5 4488.18 548.037   4
 -13   6   5 3731.63 363.696   1
 -13   6   5 6003.81 943.059   4
  -7  -6   5 3969.72 692.308   2
  13  -7   5 4268.72 518.251   4
  -7  -6   5 5191.52 789.112   4
  -7  -6   5 4457.61 806.664   1
  -7  -6   8 3757.97 763.275   4
   7   6  -8 6992.46 1381.52   3
  -6  -7  -8 6883.03 1025.90   3
  13  -6  -8 5642.82 1246.93   3
   6 -13  -8 7904.19 1312.54   3
  -6  -7  -8 7086.74 1468.97   2
   7   6  -8 7800.34 1033.71   1
 -13   7  -8 5407.09 964.664   2
  -7  13  -8 4979.97 1071.22   1
 -13   7  -8 8532.17 1405.24   1
  -6  -7  -8 6317.80 944.808   4
   7   6  -5 4515.39 921.692   3
  -6  -7  -5 4987.60 801.311   4
  13  -6  -5 5416.18 934.572   3
   6 -13  -5 3883.23 467.890   1
   7   6  -5 4663.35 850.615   4
 -13   7  -5 6442.60 1119.65   1
  -6  -7  -5 4957.95 643.266   3
   6 -13  -5 4440.29 802.453   3
   7   6  -5 3345.89 823.294   2
 -13   7  -5 4252.47 701.438   3
  -6  -7  -5 4929.08 1037.06   2
  -7  13  -5 4680.52 854.770   1
 -13   7  -5 4283.71 681.586   2
   7   6  -5 6245.59 831.744   1
 -13   7  -5 4533.25 524.168   4
  13  -6  -2 9241.68 894.143   3
   7   6  -2 10651.3 1134.15   2
   6 -13  -2 8584.48 872.657   3
 -13   7  -2 8595.65 769.070   3
  -7  13  -2 7874.18 834.410   3
  13  -6  -2 10365.4 1015.50   4
 -13   7  -2 10927.0 875.734   4
   7   6  -2 9900.08 922.113   1
   6 -13  -2 9152.97 776.732   1
  -6  -7  -2 9953.57 1207.95   2
  -6  -7  -2 9900.17 900.652   1
 -13   7  -2 11686.6 1182.27   1
  -6  -7  -2 8535.08 974.939   4
  -6  -7  -2 7303.46 328.262   3
   7   6  -2 9785.36 1002.51   4
 -13   7  -2 9723.31 854.789   2
  13  -6  -2 9384.91 1049.43   2
  -7  13  -2 10328.6 1036.76   1
  13  -6   1 1536.14 535.507   2
  -6  -7   1 1026.26 427.775   2
  -7  13   1 1922.40 439.992   1
  -7  13   1 1754.13 488.700   3
 -13   7   1 1555.25 477.333   2
   6 -13   1 1333.09 523.545   1
  13  -6   1 803.771 360.073   3
   7   6   1 2809.26 622.779   4
   6 -13   1 1373.04 466.442   3
   6 -13   1 2018.51 502.071   2
   7   6   1 1928.60 670.148   2
  -6  -7   1 1385.65 511.170   4
  13  -6   1 1898.90 542.047   4
 -13   7   1 1346.33 491.575   3
  -6  -7   1 2331.95 567.924   1
 -13   7   1 1670.96 558.067   4
  13  -6   4 14408.8 1206.03   2
   6 -13   4 14973.1 1026.66   4
  13  -6   4 15706.1 973.697   4
 -13   7   4 17813.0 1519.04   2
  -6  -7   4 16823.6 1290.30   1
  -6  -7   4 16234.7 1233.30   2
   7   6   4 14799.5 1183.39   4
 -13   7   4 16095.1 686.753   1
  -6  -7   4 14697.0 1188.50   4
 -13   7   4 17068.8 1352.87   4
  -6  -7   7-238.722 555.948   2
   6 -13   7-115.269 143.525   4
  -6  -7   7-117.690 432.499   4
  -6  -7  10 1674.24 631.295   4
   8   5  -9 3116.70 777.118   1
   5 -13  -9 1306.45 396.435   1
   8   5  -9 3654.68 1225.74   3
 -13   8  -9 1840.95 950.182   1
  13  -5  -9 2575.05 1045.11   3
  -5  -8  -9 2122.24 748.450   3
   5 -13  -9 2251.67 880.329   3
  -5  -8  -9 4853.35 1462.48   2
  -5  -8  -9 3055.75 787.080   4
  -8  13  -9 1983.09 903.650   1
  -5  -8  -9 2542.07 717.435   1
 -13   8  -9 2945.62 896.861   2
 -13   8  -6 2553.68 889.078   1
   8   5  -6 1752.80 693.775   3
  13  -5  -6 3273.59 895.120   3
  -5  -8  -6 2019.59 593.088   3
  -5  -8  -6 1563.15 861.950   2
   5 -13  -6 1714.44 671.913   3
   8   5  -6 2330.09 610.048   1
   5 -13  -6 2264.08 422.348   1
  -8  13  -6 1783.90 686.896   1
  -5  -8  -6 2486.16 687.762   4
 -13   8  -6 2301.56 590.520   2
 -13   8  -3 2498.26 468.733   4
  13  -5  -3 1859.02 538.521   4
   8   5  -3 2133.40 536.120   1
   8   5  -3 1563.80 528.310   4
   5 -13  -3 2469.15 519.975   1
  13  -5  -3 1858.68 536.404   3
 -13   8  -3 3742.36 847.721   1
   5 -13  -3 1926.16 558.677   3
  -5  -8  -3 2604.44 593.565   4
   8   5  -3 2460.68 601.665   3
 -13   8  -3 1906.76 445.082   3
  -5  -8  -3 1588.71 487.285   1
  -8  13  -3 2042.50 646.804   1
  -5  -8  -3 2509.19 367.993   3
  -5  -8  -3 2105.97 878.412   2
 -13   8  -3 2626.53 522.405   2
   8   5  -3 1586.39 541.228   2
 -13   8   0 14416.3 1061.14   2
   8   5   0 13376.5 587.637   3
  -8  13   0 15521.3 1052.02   1
  13  -5   0 17250.3 995.542   3
  -5  -8   0 13890.3 1110.94   4
  -5  -8   0 14846.5 1257.25   2
  13  -5   0 11942.4 1062.33   2
 -13   8   0 14891.5 1092.02   1
   5 -13   0 13538.4 1092.93   2
   5 -13   0 13999.3 1068.89   1
   8   5   0 13278.3 1251.10   2
  -8  13   0 12109.8 971.405   3
 -13   8   0 14353.9 1085.06   4
  -5  -8   0 15111.4 1059.20   1
  13  -5   0 13740.5 1128.13   4
 -13   8   0 14206.5 1067.40   3
   8   5   0 14676.5 1204.33   4
   5 -13   0 14148.8 1016.54   3
  13  -5   3 5522.57 849.695   2
  -5  -8   3 5827.25 810.005   4
   8   5   3 6523.85 863.062   4
 -13   8   3 6331.42 905.182   3
  -8  13   3 6905.89 913.047   3
 -13   8   3 7748.93 1013.51   2
  -5  -8   3 7010.02 878.940   1
   8   5   3 6487.13 1068.79   2
   5 -13   3 6291.54 447.505   2
  -8  13   3 6353.30 535.093   1
  13  -5   3 7140.26 767.802   4
  -5  -8   3 7111.26 879.941   2
 -13   8   3 6690.78 914.590   4
   5 -13   3 7745.25 813.588   4
   5 -13   6 1457.28 421.446   4
  13  -5   6 2079.31 416.872   4
  -5  -8   6 1283.21 534.892   4
  -5  -8   6 1681.80 566.234   2
  -5  -8   9-12.7946 477.854   4
  -4  -9 -10 1882.12 711.382   1
  -4  -9 -10 2742.05 1306.55   2
  13  -4 -10 4008.30 1261.33   3
   9   4 -10 1494.12 648.628   1
  -4  -9 -10 3792.26 1049.91   3
  -9  13 -10 4381.49 1120.12   1
   4 -13 -10 1610.40 918.656   3
 -13   9 -10 3887.16 1107.11   1
   9   4 -10 5004.77 1481.95   3
   4 -13 -10 2180.31 932.646   4
  -4  -9 -10 2891.84 901.463   4
 -13   9 -10 2097.15 778.715   2
 -13   9  -7 858.136 676.676   1
   9   4  -7-369.924 636.795   3
  13  -4  -7 1798.48 914.121   3
  -4  -9  -7 945.132 497.988   3
   9   4  -7 373.722 465.065   1
   4 -13  -7 1196.88 696.245   3
  -4  -9  -7 1139.07 768.620   2
  -9  13  -7 536.310 653.551   1
  -4  -9  -7 656.720 531.057   4
 -13   9  -7 104.383 426.628   2
   4 -13  -7 766.766 364.118   1
   9   4  -4 4448.74 693.444   1
   9   4  -4 5593.85 891.315   3
  13  -4  -4 5070.11 800.455   3
  -4  -9  -4 3663.04 543.240   3
  -4  -9  -4 3776.75 628.043   1
 -13   9  -4 3802.23 687.959   3
 -13   9  -4 3571.69 521.233   2
   9   4  -4 4989.44 846.223   4
   4 -13  -4 3461.02 526.004   1
  -9  13  -4 4836.72 863.299   1
  -4  -9  -4 4580.56 768.237   4
  -4  -9  -4 4944.69 1052.35   2
 -13   9  -4 4760.02 925.725   1
   4 -13  -4 5353.00 767.438   3
   9   4  -1 2331.36 659.324   4
  13  -4  -1 719.094 386.269   3
   9   4  -1 805.756 305.933   3
  -4  -9  -1 1321.87 484.119   4
  -4  -9  -1 1062.99 441.849   1
 -13   9  -1 1180.23 423.916   2
 -13   9  -1 1408.61 458.473   4
  -9  13  -1 1228.68 418.598   3
   4 -13  -1 1403.37 483.889   3
  -9  13  -1 1078.26 496.560   1
   9   4  -1 695.645 554.135   2
   4 -13  -1 769.755 533.181   2
  13  -4  -1 2086.49 620.532   4
 -13   9  -1 195.307 354.047   3
   9   4  -1 1000.27 425.443   1
  13  -4  -1 1449.09 571.739   2
  -4  -9  -1 1131.55 637.128   2
 -13   9  -1 1367.48 544.849   1
   4 -13  -1 1646.46 507.146   1
 -13   9   2 9037.42 949.617   3
  -9  13   2 8707.06 676.005   1
 -13   9   2 10698.8 1101.73   2
   4 -13   2 9969.33 1053.00   1
 -13   9   2 8665.65 698.718   1
  13  -4   2 8450.15 672.466   3
  -4  -9   2 8325.27 889.245   2
   4 -13   2 8856.97 927.059   4
   9   4   2 8490.58 949.445   4
   9   4   2 8682.60 1139.03   2
  -4  -9   2 8589.18 938.335   4
  -4  -9   2 8868.47 946.430   1
   4 -13   2 7672.66 651.088   2
  13  -4   2 7474.66 936.305   2
  13  -4   2 10501.7 942.952   4
 -13   9   2 7363.29 912.859   4
  -9  13   2 7533.37 894.024   3
  -4  -9   5 149.862 409.944   4
  -4  -9   5 1134.01 513.001   2
   9   4   5 190.148 478.193   4
  13  -4   5 688.146 633.948   2
  13  -4   5 138.975 329.060   4
   4 -13   5 519.634 370.000   4
  -4  -9   8 1904.60 560.040   4
   4 -13   8 593.213 201.565   4
   3 -13  -8 2684.16 515.700   1
   3 -13  -8 6652.89 1240.62   3
  10   3  -8 4791.88 1157.75   3
  13  -3  -8 4706.83 1159.09   3
 -13  10  -8 3604.77 1096.94   1
  -3 -10  -8 4583.45 890.330   4
  10   3  -8 4181.10 732.846   1
 -10  13  -8 4536.82 1005.52   1
   3 -13  -8 5151.74 1012.22   4
 -13  10  -8 3748.07 708.038   2
  -3 -10  -8 5393.42 1416.60   2
  -3 -10  -8 3807.07 812.533   3
 -13  10  -5 1400.24 666.477   1
  -3 -10  -5 166.238 487.939   4
 -13  10  -5 1630.34 378.197   2
  13  -3  -5 1870.93 738.795   3
  -3 -10  -5 2588.44 558.214   3
   3 -13  -5 1825.19 710.598   3
 -10  13  -5 2757.07 758.882   1
  -3 -10  -5 1548.25 496.499   1
  10   3  -5 1116.92 571.264   3
   3 -13  -5 921.939 376.732   1
  -3 -10  -5 2852.56 921.019   2
  10   3  -5 1556.82 492.787   1
  10   3  -2 23406.4 1291.43   3
  13  -3  -2 23815.8 1327.56   3
  -3 -10  -2 21070.2 1252.48   1
   3 -13  -2 21413.5 1231.66   3
 -13  10  -2 20591.3 1245.12   3
  -3 -10  -2 23993.2 970.521   3
 -10  13  -2 21379.5 1318.26   3
 -10  13  -2 23107.0 1506.17   1
   3 -13  -2 19750.9 1599.86   2
  10   3  -2 23307.3 1332.56   1
  13  -3  -2 21063.8 1603.30   2
  10   3  -2 23634.2 1545.50   4
 -13  10  -2 23460.3 1537.05   1
  10   3  -2 19392.5 1465.78   2
   3 -13  -2 22943.6 1291.22   1
  13  -3  -2 22651.8 1537.81   4
  -3 -10  -2 20717.7 1439.66   4
  -3 -10  -2 22949.7 1808.19   2
 -13  10  -2 22478.6 1083.35   2
  -3 -10   1 2981.34 642.920   2
  13  -3   1 2280.18 584.793   4
  10   3   1 2677.14 758.926   2
 -10  13   1 1243.93 510.323   3
 -13  10   1 2218.13 501.058   1
  10   3   1 2379.48 606.366   4
 -13  10   1 2060.50 601.074   3
  -3 -10   1 1478.56 552.166   1
 -13  10   1 2650.15 604.882   2
   3 -13   1 3278.57 689.509   4
  13  -3   1 2580.89 426.825   3
  -3 -10   1 2831.00 659.400   4
   3 -13   1 2945.56 629.726   2
 -10  13   1 3050.92 528.009   1
   3 -13   1 1766.22 530.495   1
  13  -3   1 1614.85 546.178   2
 -10  13   4 18961.0 661.424   1
  10   3   4 20899.7 1372.90   4
  13  -3   4 16684.8 1438.55   2
  13  -3   4 19283.9 1177.41   4
  -3 -10   4 18201.1 1291.15   4
  -3 -10   4 19684.7 1253.30   2
   3 -13   4 17013.8 1148.72   4
   3 -13   4 17507.4 800.206   2
  -3 -10   7-832.597 449.135   4
   3 -13   7 509.984 341.865   4
  -2 -11  -9 1145.47 727.870   4
  -2 -11  -9 1275.39 612.461   1
  11   2  -9 1402.45 1011.24   3
  -2 -11  -9 156.196 1008.14   2
  -2 -11  -9-697.629 673.893   3
   2 -13  -9 415.086 744.082   3
 -13  11  -9 999.135 900.821   1
 -13  11  -9 437.809 465.297   2
 -11  13  -9 1074.17 854.887   1
   2 -13  -9 653.151 470.127   1
   2 -13  -9 1640.21 825.753   4
  13  -2  -9 690.903 925.526   3
  11   2  -9 1126.07 540.003   1
  11   2  -6 2622.72 569.863   1
 -13  11  -6 1729.63 351.847   2
  11   2  -6 1731.21 718.715   3
  -2 -11  -6 2396.58 620.004   1
  13  -2  -6 1481.52 738.764   3
   2 -13  -6 2596.94 547.663   1
  -2 -11  -6 2772.74 668.828   3
   2 -13  -6 3320.21 749.601   3
 -13  11  -6 2075.52 789.721   1
 -11  13  -6 1887.76 721.793   1
  -2 -11  -6 2979.05 747.363   4
   2 -13  -6 2689.62 700.344   4
  -2 -11  -6 2956.78 1078.49   2
 -11  13  -3 801.651 545.759   1
   2 -13  -3 938.794 586.521   2
  11   2  -3 573.663 428.904   3
   2 -13  -3 761.976 475.927   3
 -13  11  -3 623.595 281.852   2
  -2 -11  -3 528.830 398.410   1
  -2 -11  -3 980.776 383.668   3
 -13  11  -3 500.815 414.972   3
  11   2  -3 985.734 465.994   1
   2 -13  -3 735.256 464.684   1
   2 -13  -3 948.452 559.273   4
  -2 -11  -3 1169.65 555.357   4
  13  -2  -3 460.550 476.455   3
 -13  11  -3 624.755 501.140   1
  13  -2   0-61.7521 444.636   2
  11   2   0 178.884 230.900   3
 -13  11   0 416.871 356.703   1
 -13  11   0-417.374 407.084   3
  13  -2   0-196.218 293.021   3
 -11  13   0 128.536 404.771   3
 -11  13   0-127.990 348.775   1
 -13  11   0-182.180 383.893   2
   2 -13   0 187.215 370.191   3
  -2 -11   0-189.174 413.606   1
   2 -13   0 350.363 408.222   1
   2 -13   0-93.4157 488.143   4
  -2 -11   0 477.736 505.796   4
  11   2   0 1335.02 493.163   4
  -2 -11   0-326.752 542.179   2
  13  -2   0 337.655 431.366   4
   2 -13   0 303.838 515.249   2
  11   2   0-584.938 528.518   2
  13  -2   3 1457.72 625.525   2
   2 -13   3 1306.19 382.753   2
  13  -2   3 1787.43 546.750   4
   2 -13   3 1365.47 549.851   4
 -11  13   3 1492.20 312.803   1
  11   2   3 2741.32 644.921   4
  -2 -11   3 1357.94 578.480   4
  -2 -11   3 1495.81 506.136   2
 -13  11   3 1367.60 298.701   1
  -2 -11   6 3246.31 631.545   2
  13  -2   6 2849.23 590.738   4
  -2 -11   6 1834.70 538.424   4
   2 -13   6 2840.78 531.078   4
   2 -13   9 875.307 253.982   4
  -2 -11   9 1338.00 494.650   4
  12   1 -10 212.319 860.864   3
  13  -1 -10 3011.50 1254.74   3
  -1 -12 -10-553.305 579.808   1
  -1 -12 -10 502.793 763.009   3
   1 -13 -10 696.767 813.592   3
 -12  13 -10-400.830 809.508   1
 -13  12 -10 414.525 818.225   1
  -1 -12 -10-61.0397 741.390   4
   1 -13 -10 119.556 733.961   4
   1 -13 -10-770.224 1288.88   2
  -1 -12 -10 322.186 1127.54   2
 -13  12  -7 313.158 196.191   2
  12   1  -7 1059.11 794.112   3
  13  -1  -7 1906.91 812.045   3
 -13  12  -7 1538.55 827.129   1
  -1 -12  -7 366.706 519.595   3
  -1 -12  -7-66.3014 849.339   2
  12   1  -7 1114.85 555.935   1
   1 -13  -7 477.629 444.301   1
 -12  13  -7-273.130 671.243   1
  -1 -12  -7 1924.85 699.494   4
   1 -13  -7 1071.05 650.688   4
  13  -1  -7 1412.72 466.074   1
   1 -13  -7 1224.46 1034.94   2
   1 -13  -7 1129.51 677.304   3
   1 -13  -4 681.393 410.237   1
 -13  12  -4 1782.04 724.433   1
  -1 -12  -4 875.996 441.051   1
  12   1  -4 1434.89 595.891   3
  13  -1  -4 971.098 551.904   3
 -12  13  -4 973.471 555.329   1
  -1 -12  -4 1131.58 464.576   3
 -13  12  -4 521.089 194.283   2
  -1 -12  -4 192.495 493.658   4
  12   1  -4 1385.45 453.300   1
   1 -13  -4 535.287 509.808   4
  -1 -12  -4-2.22453 720.578   2
   1 -13  -4-59.9711 718.292   2
   1 -13  -4 595.860 466.543   3
  12   1  -1 2854.06 780.642   2
  12   1  -1 3125.82 436.833   3
  13  -1  -1 2252.38 653.039   2
  13  -1  -1 3242.48 524.228   3
  -1 -12  -1 3211.57 836.638   2
 -13  12  -1 2754.11 495.194   2
 -12  13  -1 2354.88 627.417   1
  -1 -12  -1 2371.02 490.650   3
   1 -13  -1 2457.81 751.795   2
  12   1  -1 2783.42 695.589   4
   1 -13  -1 2537.89 595.095   1
 -13  12  -1 2400.72 615.826   3
 -12  13  -1 1039.48 445.181   3
  -1 -12  -1 1683.30 537.587   1
   1 -13  -1 1384.18 613.652   4
  -1 -12  -1 2371.70 654.710   4
 -13  12  -1 3579.09 671.622   1
  13  -1  -1 2043.82 654.713   4
   1 -13  -1 3201.81 574.443   3
   1 -13   2 465.475 435.946   2
  -1 -12   2 64.6171 368.424   2
  12   1   2 842.565 616.272   2
  13  -1   2 945.783 623.328   2
   1 -13   2-65.7430 428.600   4
 -12  13   2 787.625 355.526   1
  12   1   2-626.431 446.473   4
  -1 -12   2-108.317 431.963   4
 -13  12   2 464.006 353.148   1
  13  -1   2-268.673 443.021   4
  12   1   5 425.020 430.471   4
   1 -13   5 548.777 380.450   4
  -1 -12   5 263.848 363.167   2
   1 -13   5 219.503 317.727   2
  13  -1   5 861.102 486.449   4
  -1 -12   5 277.044 391.707   4
   1 -13   8 14.1249 354.586   4
  -1 -12   8 162.646 399.883   4
  13   0  -8 12938.1 1682.11   3
  13   0  -8 9265.96 896.408   1
   0 -13  -8 10517.0 1888.42   2
   0 -13  -8 7907.00 1200.40   4
   0 -13  -8 10555.6 1364.47   3
 -13  13  -8 8597.91 1377.52   1
  13   0  -5 40.7198 528.821   3
 -13  13  -5 429.691 595.932   1
   0 -13  -5 538.914 467.084   3
   0 -13  -5-6.78060 731.120   2
   0 -13  -5 337.935 512.585   4
   0 -13  -5 77.2894 377.261   1
  13   0  -2 29026.1 1441.02   3
 -13  13  -2 28066.5 1713.16   1
   0 -13  -2 28974.3 1353.46   3
   0 -13  -2 27963.2 1518.98   1
   0 -13  -2 25683.7 1705.18   4
   0 -13  -2 27500.3 2001.20   2
  13   0   1 153.557 467.847   4
   0 -13   1 296.820 558.397   1
   0 -13   1 267.833 464.747   4
 -13  13   1 57.4267 430.221   3
   0 -13   1 502.675 514.097   2
  13   0   1-75.0391 224.365   3
 -13  13   1-609.524 403.303   1
  13   0   1-129.955 496.301   2
  13   0   4 17301.6 1302.57   4
   0 -13   4 16121.6 1245.56   4
   0 -13   4 19501.1 1180.83   2
   0 -13   7 630.246 476.307   4
 -14   0  -8-60.3472 550.497   3
 -14   0  -8 331.779 752.664   1
  14 -14  -8-701.463 678.950   3
   0  14  -8 1453.75 791.138   1
 -14   0  -8 15.1281 484.126   4
 -14   0  -8-805.228 743.955   2
  14 -14  -5 378.572 577.332   3
 -14   0  -5 782.326 684.953   2
   0  14  -5 1168.70 654.624   1
 -14   0  -5-599.901 529.153   4
 -14   0  -5-226.197 308.297   3
   0  14  -5 469.771 576.502   4
   0  14  -5 478.378 560.166   2
   0  14  -2-26.2824 515.512   4
 -14   0  -2-449.111 535.535   2
   0  14  -2 159.035 550.304   2
   0  14  -2 488.766 503.736   1
 -14   0  -2 37.7053 199.516   3
  14 -14  -2 35.3923 489.357   3
   0  14  -2 447.929 396.669   3
 -14   0  -2 719.201 526.494   4
 -14   0   1-541.071 404.290   3
 -14   0   1-139.264 497.977   2
   0  14   1 374.314 414.609   3
   0  14   1 703.403 507.133   1
  14 -14   1 1061.94 553.537   1
  14 -14   1 452.269 378.748   2
  14 -14   1-716.683 495.312   3
 -14   0   1-58.0924 415.770   1
 -14   0   1 58.7760 457.343   4
  14 -14   1 233.180 379.300   4
   0  14   4 771.779 518.382   3
 -14   0   4 1388.67 648.908   2
 -14   0   4 397.860 469.868   1
  14 -14   4 49.8298 184.573   2
 -14   0   4 682.799 585.126   4
  14 -14   4 390.662 388.888   4
 -14   0   7-386.116 686.597   2
 -14   0   7-98.1957 576.032   1
 -14   0   7 1150.29 638.290   4
 -14   1  -9 620.032 696.467   3
 -13  -1  -9 1834.94 769.278   3
 -13  -1  -9 1482.12 536.420   4
 -14   1  -9 898.545 779.489   2
  13 -14  -9 1325.58 908.235   3
   1  13  -9 1745.82 903.319   1
  -1  14  -9 2814.27 945.628   1
  14 -13  -9 1271.90 908.812   3
 -13  -1  -9 1583.53 845.077   1
 -13  -1  -9-191.703 815.005   2
 -14   1  -9 1911.91 952.841   1
   1  13  -6 569.334 605.964   1
 -13  -1  -6 792.538 445.521   3
  -1  14  -6-289.389 488.647   2
  14 -13  -6 623.027 709.686   3
  -1  14  -6 82.1048 544.903   1
   1  13  -6 678.068 592.393   4
 -14   1  -6 196.303 350.286   3
 -14   1  -6 622.804 660.277   2
  13 -14  -6 769.471 703.006   3
 -14   1  -6-177.160 432.438   4
 -13  -1  -6 1561.18 827.387   2
   1  13  -6-277.887 512.767   2
 -13  -1  -6-453.864 535.719   4
 -13  -1  -3 1382.59 696.478   2
  13 -14  -3 1909.52 622.103   3
   1  13  -3 1141.29 557.096   4
 -13  -1  -3 1994.36 272.319   3
  14 -13  -3 2920.41 739.944   3
 -14   1  -3 2155.91 363.715   3
  -1  14  -3 2133.12 667.723   1
   1  13  -3 1812.98 594.062   1
 -14   1  -3 2631.58 776.439   2
 -13  -1  -3 3099.80 677.115   4
 -14   1  -3 2108.93 575.147   4
  -1  14  -3 2396.38 599.709   2
   1  13  -3 2604.42 707.212   2
  13 -14   0 236.165 402.909   4
 -13  -1   0 725.559 297.335   3
  -1  14   0 612.711 457.573   1
 -14   1   0 506.286 312.022   3
 -13  -1   0-31.6812 479.158   2
 -14   1   0 783.838 551.717   2
  14 -13   0 1187.06 464.343   2
  13 -14   0-128.510 393.394   1
 -13  -1   0 832.685 453.290   1
  13 -14   0 422.685 365.216   2
  14 -13   0 573.922 441.148   3
  -1  14   0 372.974 332.954   3
   1  13   0 516.740 400.075   1
   1  13   0-184.592 305.253   3
  13 -14   0 1210.85 593.202   3
   1  13   0 559.487 645.120   2
 -13  -1   0 897.146 499.195   4
 -14   1   0 237.826 471.628   4
  14 -13   0 163.574 383.578   1
  14 -13   0 650.722 506.456   4
 -14   1   3 766.480 484.576   3
 -14   1   3 1164.32 582.938   4
  -1  14   3 634.148 452.060   3
 -14   1   3 419.425 472.106   2
 -13  -1   3 1640.94 645.348   2
 -14   1   3 742.880 377.004   1
  -1  14   3 63.8435 377.883   1
  13 -14   3 527.685 250.062   2
  14 -13   3 354.036 353.114   4
 -13  -1   3 1332.84 487.101   1
  14 -13   3 289.660 338.168   2
 -13  -1   3 893.288 556.992   4
   1  13   3 1288.86 423.390   3
  13 -14   3 408.431 380.328   4
 -13  -1   6 383.782 547.504   1
 -14   1   6 974.067 634.956   4
  14 -13   6 334.626 249.008   4
 -13  -1   6 1148.87 650.155   2
 -14   1   6-615.260 673.361   2
 -13  -1   6-337.658 529.078   4
  13 -14   6 15.5050 263.088   4
  13 -14   6 380.225 234.235   4
 -14   1   6 361.922 449.526   1
 -14   1   9 1091.52 801.615   4
 -13  -1   9-534.580 643.352   4
 -12  -2  -7 5579.19 864.856   3
   2  12  -7 2575.54 750.472   2
 -12  -2  -7 5136.75 1153.62   2
  -2  14  -7 4766.64 985.012   1
 -12  -2  -7 4985.58 818.868   4
  14 -12  -7 4553.56 1029.42   3
 -14   2  -7 3648.61 627.676   4
   2  12  -7 5218.50 1007.85   1
 -14   2  -7 4191.20 954.404   2
   2  12  -7 3227.27 861.522   4
 -14   2  -7 8021.10 1394.68   1
  12 -14  -7 5780.53 1169.74   3
  -2  14  -7 2799.41 565.167   2
 -14   2  -4 4175.74 841.854   2
   2  12  -4 3410.69 777.907   4
  14 -12  -4 4907.99 856.171   3
  12 -14  -4 3867.89 813.198   3
  -2  14  -4 4036.98 760.441   1
 -12  -2  -4 3120.73 355.548   3
 -12  -2  -4 2717.38 844.068   2
 -14   2  -4 2362.02 416.583   3
 -12  -2  -4 3376.86 407.268   3
 -12  -2  -4 2646.59 661.339   4
  -2  14  -4 2691.18 576.579   2
   2  12  -4 3026.06 668.936   1
   2  12  -4 3323.92 755.208   2
 -14   2  -4 4021.05 674.885   4
  14 -12  -1 7095.74 868.262   2
  14 -12  -1 6465.74 807.003   3
  12 -14  -1 6539.76 773.621   2
 -12  -2  -1 7793.67 928.719   1
  12 -14  -1 8325.66 896.162   3
  -2  14  -1 7609.38 767.237   3
  -2  14  -1 7042.08 872.549   1
   2  12  -1 7930.51 1055.05   4
   2  12  -1 5724.50 964.877   2
   2  12  -1 7110.28 691.771   3
 -12  -2  -1 7623.80 975.675   2
 -12  -2  -1 7556.88 947.724   4
 -14   2  -1 9723.27 983.921   4
 -14   2  -1 7974.54 987.563   2
   2  12  -1 9420.98 977.079   1
  14 -12  -1 7212.38 907.999   4
 -14   2  -1 7560.52 620.097   3
  12 -14  -1 8225.62 828.198   1
 -14   2   2 6188.09 809.472   3
   2  12   2 5085.10 631.961   3
 -14   2   2 5652.63 683.114   1
  -2  14   2 6097.23 755.121   1
  12 -14   2 5717.36 536.735   2
 -14   2   2 6058.69 885.554   4
  14 -12   2 6154.81 812.827   3
   2  12   2 6693.98 879.224   1
  12 -14   2 6988.61 903.841   3
 -14   2   2 6680.31 930.851   2
  14 -12   2 7598.50 742.330   2
  14 -12   2 6385.28 773.996   4
 -12  -2   2 6505.78 917.608   2
  -2  14   2 4805.63 758.246   3
 -12  -2   2 7014.71 979.439   4
 -12  -2   2 5594.71 706.666   1
  12 -14   2 6690.41 760.070   4
 -12  -2   5 8972.21 1133.41   2
 -14   2   5 10119.5 1238.77   2
 -14   2   5 8807.38 853.255   1
   2  12   5 7913.02 937.804   3
 -12  -2   5 7425.04 918.973   1
  14 -12   5 8571.06 703.365   4
 -14   2   5 10054.5 1194.34   4
 -12  -2   5 10567.5 1188.97   4
  12 -14   5 9776.95 714.842   4
 -14   2   8 4326.13 958.678   4
 -12  -2   8 9283.45 1317.48   4
  -3  14  -8-61.5560 639.747   1
 -11  -3  -8 1037.61 600.330   3
  14 -11  -8 2156.06 901.969   3
   3  11  -8 746.747 958.532   3
 -14   3  -8 1440.06 929.166   1
 -11  -3  -8 606.363 513.800   4
   3  11  -8 2285.22 835.937   1
 -11  -3  -8 653.193 671.520   1
 -14   3  -8 865.476 641.984   3
 -11  -3  -8 1298.78 816.960   2
 -14   3  -8 1867.51 440.580   4
 -14   3  -8 362.609 678.551   2
  11 -14  -8 1174.78 870.677   3
   3  11  -5 1941.67 671.177   2
  -3  14  -5 1313.41 645.986   1
 -11  -3  -5 1290.25 385.589   3
  14 -11  -5 1572.74 733.466   3
  -3  14  -5 832.341 380.384   2
   3  11  -5 1475.65 636.285   1
 -14   3  -5 1090.67 413.021   3
   3  11  -5 1798.58 693.928   4
 -11  -3  -5 1074.56 623.586   2
 -11  -3  -5 1553.03 541.783   4
 -14   3  -5 545.519 433.424   4
  11 -14  -5 1743.36 692.846   3
 -14   3  -5 1198.72 560.642   2
  11 -14  -2 1883.85 423.977   1
 -14   3  -2 2393.08 645.604   2
  14 -11  -2 1429.51 514.021   3
 -14   3  -2 1817.32 416.056   3
  11 -14  -2 2037.61 626.615   3
  14 -11  -2 1630.96 563.327   2
   3  11  -2 1696.01 612.858   4
   3  11  -2 1596.95 533.122   1
  -3  14  -2 2375.85 574.717   3
   3  11  -2 1997.74 671.899   2
  -3  14  -2 989.467 558.498   1
 -14   3  -2 2785.73 621.908   4
  11 -14  -2 1544.08 597.137   2
 -11  -3  -2 1429.72 537.924   4
 -11  -3  -2 741.739 626.345   2
  11 -14   1 1218.13 550.625   1
   3  11   1 906.373 316.310   3
  -3  14   1 722.242 417.347   1
 -14   3   1 1680.47 547.051   3
 -11  -3   1 1207.27 581.851   2
  14 -11   1 688.392 390.841   2
 -14   3   1 298.732 542.374   2
  -3  14   1 957.539 424.928   3
  11 -14   1 1301.14 346.274   2
 -14   3   1 1255.12 533.392   4
   3  11   1 1616.59 589.205   4
  14 -11   1 968.172 447.884   3
  11 -14   1 1101.88 505.998   3
   3  11   1 1986.24 562.153   1
   3  11   1 2300.15 773.864   2
 -11  -3   1 536.916 506.031   4
 -11  -3   1 383.054 370.654   1
  14 -11   1 300.058 389.799   4
 -11  -3   4 1383.62 552.991   2
 -11  -3   4 1533.20 669.800   4
 -11  -3   4 670.709 507.082   1
 -14   3   4-88.3362 486.670   2
 -14   3   4 449.804 357.311   1
  -3  14   4 83.1360 496.394   3
   3  11   4 622.056 399.855   3
  14 -11   4 606.142 435.216   2
  11 -14   4 674.732 344.727   4
  14 -11   4 646.584 394.328   4
 -14   3   4 1359.68 611.391   4
 -11  -3   7 1170.49 694.832   2
 -14   3   7 2128.49 492.806   1
 -11  -3   7 1841.74 699.851   4
 -14   3   7 1494.39 714.550   4
  -4  14  -9 3497.05 966.050   1
 -14   4  -9 1008.73 746.658   3
 -10  -4  -9 3296.74 869.510   3
  14 -10  -9 3133.36 1044.13   3
  10 -14  -9 2734.05 989.647   3
 -10  -4  -9 1911.06 769.708   1
   4  10  -9 987.030 625.807   1
 -10  -4  -9 4335.33 1275.68   2
   4  10  -9 1305.00 965.646   3
 -14   4  -9 2233.00 862.961   2
 -10  -4  -9 2175.54 740.308   4
 -14   4  -9 723.054 790.203   1
   4  10  -6 191.035 626.754   2
 -14   4  -6 837.498 793.283   1
 -10  -4  -6 15.8528 374.217   3
  14 -10  -6 840.417 741.806   3
  10 -14  -6-277.569 623.388   3
   4  10  -6 510.986 591.028   1
   4  10  -6 385.356 630.112   4
 -10  -4  -6 698.720 509.305   4
  -4  14  -6 180.593 271.160   2
 -14   4  -6 516.771 414.177   4
 -10  -4  -6 1292.95 815.747   2
  -4  14  -6 847.038 621.547   1
 -14   4  -6-406.092 521.906   2
  -4  14  -3 6519.28 888.437   1
  10 -14  -3 4854.72 801.661   3
   4  10  -3 6287.38 862.268   1
 -10  -4  -3 5667.66 1009.23   2
   4  10  -3 6371.54 905.142   2
 -10  -4  -3 5718.41 822.141   4
  10 -14  -3 5303.39 564.378   1
 -14   4  -3 5315.90 817.993   2
 -14   4  -3 7033.42 779.988   4
   4  10  -3 5512.13 861.933   4
  14 -10  -3 6429.75 887.574   3
 -14   4  -3 6458.61 636.845   3
 -10  -4   0 1525.95 637.276   2
  10 -14   0 334.254 385.046   1
 -14   4   0 818.560 386.404   3
  14 -10   0 278.947 404.482   2
 -14   4   0 1172.74 549.303   2
 -10  -4   0 587.648 403.246   1
   4  10   0 811.078 472.576   1
  -4  14   0 713.346 364.776   3
  14 -10   0 1531.52 498.298   3
   4  10   0 469.608 252.255   3
  10 -14   0 805.963 479.639   3
  10 -14   0-306.823 333.815   2
  -4  14   0 1043.44 499.223   1
   4  10   0 707.871 480.199   4
 -14   4   0 1591.34 534.697   4
   4  10   0 190.697 522.037   2
 -10  -4   0 803.973 509.367   4
  14 -10   0 690.453 468.470   4
 -14   4   3 3299.01 722.408   2
   4  10   3 2844.53 458.956   3
  -4  14   3 3678.17 720.355   3
  -4  14   3 2668.35 510.569   1
 -14   4   3 2266.38 622.268   3
 -10  -4   3 2950.20 678.788   2
  14 -10   3 2677.78 537.516   4
 -10  -4   3 2880.60 606.988   1
 -14   4   3 3104.49 766.434   4
 -10  -4   3 2842.46 735.554   4
  14 -10   3 1767.62 534.148   2
 -14   4   3 2319.96 434.560   1
 -10  -4   6 639.384 570.785   2
 -14   4   6-79.3599 625.545   2
  10 -14   6-137.373 222.798   4
  14 -10   6-68.6037 196.709   4
 -14   4   6 170.312 359.089   1
 -10  -4   6-287.855 487.962   4
  10 -14   6 494.761 238.957   4
 -14   4   6 793.371 673.340   4
 -10  -4   9 1623.60 702.923   4
 -14   5 -10 392.170 812.531   3
 -14   5 -10 889.172 900.735   1
   5   9 -10 2378.05 1216.78   3
  -9  -5 -10 1341.22 780.594   3
  14  -9 -10 1950.03 1028.57   3
   9 -14 -10 642.752 875.667   3
  -9  -5 -10 982.812 703.901   1
  -5  14 -10 1983.29 930.265   1
   5   9 -10 846.483 775.136   1
  -9  -5 -10 858.197 1150.82   2
 -14   5 -10 1683.76 968.160   2
  -9  -5  -7 4569.72 740.826   3
   5   9  -7 2763.60 939.809   3
  14  -9  -7 5159.31 1112.78   3
  -9  -5  -7 4319.82 804.866   4
  -5  14  -7 2163.00 300.511   2
 -14   5  -7 5938.64 1221.58   1
   5   9  -7 3713.89 798.667   1
  -9  -5  -7 4224.32 1094.31   2
 -14   5  -7 4119.76 531.509   4
   9 -14  -7 4719.10 1068.18   3
 -14   5  -7 3121.97 798.546   2
  -5  14  -7 3600.49 898.116   1
  -9  -5  -4 1943.31 339.299   3
   5   9  -4 1336.47 628.689   4
  14  -9  -4 1494.52 617.749   3
 -14   5  -4 2023.99 576.531   2
   9 -14  -4 2451.29 666.361   3
   9 -14  -4 1987.56 354.944   1
   5   9  -4 1415.79 570.652   2
 -14   5  -4 855.482 411.399   4
 -14   5  -4 1546.46 431.670   3
  -9  -5  -4 1851.92 573.992   4
 -14   5  -4 1616.96 689.387   1
  -9  -5  -4 1848.13 849.843   2
  -5  14  -4 784.840 533.103   1
   5   9  -4 1051.91 543.676   1
   5   9  -1 13940.4 1085.32   1
 -14   5  -1 13886.4 957.851   3
  14  -9  -1 13330.1 1039.74   3
  -9  -5  -1 14481.5 1110.10   1
   9 -14  -1 12900.6 1044.45   3
   9 -14  -1 14028.8 1023.39   1
  -5  14  -1 11510.9 947.303   3
  -5  14  -1 13213.1 1099.27   1
 -14   5  -1 13374.8 1150.34   2
   5   9  -1 14581.0 1321.13   2
   5   9  -1 13347.6 1178.12   4
  -9  -5  -1 11626.2 1228.12   2
 -14   5  -1 15080.0 1104.37   4
  14  -9  -1 13125.5 1138.96   4
  14  -9  -1 14580.3 1186.59   2
  -9  -5  -1 13537.3 1189.15   4
 -14   5   2 9881.22 1088.47   2
 -14   5   2 10200.0 1032.93   3
   9 -14   2 9578.19 537.348   2
  14  -9   2 11011.4 954.121   4
  -5  14   2 8577.52 956.444   3
  -9  -5   2 9930.08 1062.42   4
  14  -9   2 10801.7 962.395   3
   9 -14   2 10223.1 1024.03   3
  -9  -5   2 10729.7 991.511   1
  14  -9   2 11432.2 967.681   2
   5   9   2 10940.6 1128.13   4
  -9  -5   2 9801.54 1058.46   2
 -14   5   2 11946.8 1171.83   4
   5   9   2 7966.64 515.696   3
   9 -14   2 11641.4 1162.64   1
   5   9   2 9066.29 1177.69   2
  -5  14   2 9498.03 792.498   1
  -9  -5   5 5050.15 819.106   2
 -14   5   5 6753.55 1088.59   2
 -14   5   5 5083.07 550.759   1
 -14   5   5 6275.76 964.453   4
   9 -14   5 5793.29 654.561   4
  14  -9   5 5856.82 576.017   4
  -9  -5   5 6271.47 911.915   4
  -9  -5   8 3223.33 727.632   4
 -14   5   8 1677.55 313.262   1
 -14   6  -8 3152.72 1071.59   1
  -8  -6  -8 3331.56 769.213   3
   6   8  -8 1537.01 993.286   3
  14  -8  -8 1428.08 894.281   3
   8 -14  -8 2103.63 876.226   3
   6   8  -8 1324.86 744.821   1
  -8  -6  -8 1610.12 851.505   2
  -8  -6  -8 2403.31 860.186   4
  -6  14  -8 2394.97 859.572   1
 -14   6  -8 2169.29 718.427   2
   6   8  -5 6730.27 1016.68   3
  -6  14  -5 6461.34 992.168   1
 -14   6  -5 4636.65 731.214   2
   8 -14  -5 5500.40 883.453   3
  14  -8  -5 3892.59 835.353   3
  -8  -6  -5 5399.21 862.660   4
 -14   6  -5 4750.47 728.647   3
   6   8  -5 4970.87 876.649   4
 -14   6  -5 8489.80 1318.20   1
  -8  -6  -5 6169.84 675.170   3
   8 -14  -5 4461.81 436.037   1
   6   8  -5 6082.55 977.585   2
   6   8  -5 5147.83 792.858   1
 -14   6  -5 5590.66 649.863   4
  -8  -6  -5 4968.12 1087.20   2
   6   8  -2 1916.20 545.259   1
  -8  -6  -2 1029.59 474.736   1
 -14   6  -2 1313.09 497.060   2
   8 -14  -2 278.510 428.173   3
   8 -14  -2 1021.10 396.643   1
  -8  -6  -2 1601.26 674.894   2
 -14   6  -2 921.577 422.892   3
  -6  14  -2 868.668 456.663   3
  14  -8  -2 1048.01 527.194   2
   6   8  -2 1474.86 581.104   4
  -8  -6  -2 761.111 451.597   4
  14  -8  -2 1014.64 489.909   3
 -14   6  -2 1527.85 516.478   4
  14  -8  -2 711.691 425.407   4
  -6  14  -2 787.483 511.639   1
   6   8  -2 133.500 517.287   2
   6   8   1 11492.4 534.276   3
  14  -8   1 13082.9 972.322   3
   8 -14   1 12821.6 1089.68   3
  -6  14   1 13250.5 973.018   1
  -6  14   1 13184.0 1066.38   3
  -8  -6   1 13583.1 1061.84   1
   6   8   1 14077.1 1257.25   4
   6   8   1 12346.7 1364.05   2
   6   8   1 13695.5 1104.04   1
  14  -8   1 13690.5 1101.28   2
   8 -14   1 14930.0 1204.06   1
  -8  -6   1 12299.4 1153.62   2
  14  -8   1 14218.5 1100.62   4
 -14   6   1 15012.4 1213.64   4
  -8  -6   1 14741.7 1245.78   4
 -14   6   1 13295.6 1130.34   2
 -14   6   1 13483.5 1087.54   3
  -8  -6   4 4848.84 783.980   2
  -8  -6   4 2799.64 683.020   1
  -6  14   4 3501.37 497.209   1
 -14   6   4 4672.40 870.240   4
  -8  -6   4 3086.34 699.304   4
 -14   6   4 3533.27 778.005   2
  14  -8   4 2775.13 658.382   2
   8 -14   4 3536.71 575.382   4
  14  -8   4 3993.71 587.934   4
 -14   6   4 3376.65 427.555   1
  -8  -6   7 2303.75 724.797   2
  -8  -6   7 3014.52 709.305   4
  -8  -6  10 464.200 588.341   4
  -7  -7  -9 921.853 1024.41   2
 -14   7  -9 2251.71 1006.44   1
   7   7  -9 2512.07 1078.78   3
 -14   7  -9 2231.60 924.447   2
   7   7  -9 1820.95 750.678   1
  14  -7  -9 2888.05 1058.47   3
   7 -14  -9 2232.61 884.335   3
  -7  -7  -9 2131.80 752.759   4
  -7  -7  -9 1409.43 725.683   3
  -7  -7  -9 805.023 621.176   1
  -7  14  -9 2486.02 901.827   1
   7   7  -6 773.422 508.293   1
   7   7  -6 554.457 621.909   3
  -7  -7  -6 80.9575 394.161   3
   7 -14  -6 223.744 533.893   3
  14  -7  -6-780.067 720.998   3
  -7  -7  -6-342.402 504.304   4
  -7  14  -6 9.27310 556.985   1
 -14   7  -6 667.986 502.545   2
  -7  -7  -6 1194.21 825.071   2
 -14   7  -6 623.284 746.470   1
   7 -14  -6-248.733 240.879   1
 -14   7  -6 116.491 303.564   4
  14  -7  -3 11298.6 1101.10   3
  -7  -7  -3 9399.93 1259.78   2
  -7  -7  -3 8791.30 461.453   3
   7   7  -3 8512.97 1049.67   2
  -7  -7  -3 9184.82 935.524   1
   7 -14  -3 9644.63 998.999   3
 -14   7  -3 12200.6 1344.41   1
   7   7  -3 8870.79 1039.99   4
  -7  -7  -3 8988.41 1019.29   4
 -14   7  -3 8949.51 885.258   2
 -14   7  -3 10387.5 903.976   4
   7   7  -3 9988.96 990.603   1
   7 -14  -3 10191.0 811.864   1
 -14   7  -3 9686.00 823.693   3
  -7  14  -3 7911.44 997.452   1
  -7  14   0 2046.58 507.376   1
  14  -7   0 872.806 494.982   2
 -14   7   0 461.493 418.818   3
 -14   7   0 691.985 427.532   2
  -7  14   0 421.518 394.592   3
  14  -7   0-443.818 378.474   3
  -7  -7   0-340.888 385.307   1
   7   7   0 231.251 459.511   1
   7 -14   0 408.693 414.411   1
   7 -14   0 408.315 395.590   3
   7   7   0 439.072 199.708   3
  14  -7   0 537.200 387.921   4
   7   7   0 1047.79 572.291   4
  -7  -7   0-23.1870 538.453   2
  -7  -7   0 1341.17 530.737   4
 -14   7   0 96.3011 375.499   4
   7   7   0 477.646 644.685   2
  -7  14   3 9558.74 1021.80   3
 -14   7   3 10211.1 1198.77   2
  -7  14   3 8828.40 696.046   1
  -7  -7   3 8520.71 943.971   2
   7 -14   3 10911.5 986.135   4
   7   7   3 7944.98 996.842   4
  14  -7   3 7533.49 923.561   2
  -7  -7   3 10245.5 1057.01   4
  14  -7   3 10281.0 908.952   4
  -7  -7   3 9225.13 1006.59   1
 -14   7   3 10702.9 1137.13   4
 -14   7   3 8343.28 624.159   1
  -7  -7   6-29.2913 473.321   4
  -7  -7   6-283.115 512.043   2
  14  -7   6-69.3736 274.804   4
   7 -14   6 155.397 277.804   4
  -7  -7   9 409.914 544.083   4
  -8  14 -10-366.843 791.838   1
   8   6 -10 1081.32 651.948   1
   8   6 -10-948.790 1013.44   3
 -14   8 -10-500.229 846.893   1
  -6  -8 -10-340.139 680.290   3
  14  -6 -10 1158.12 951.999   3
   6 -14 -10-1024.71 840.021   3
 -14   8 -10 174.167 752.790   2
  -6  -8 -10 389.414 634.011   4
  -6  -8 -10 1749.49 1138.23   2
  -6  -8 -10 173.681 614.086   1
 -14   8  -7 3622.85 1067.12   1
   8   6  -7 1834.47 640.975   1
  14  -6  -7 2075.31 856.232   3
   6 -14  -7 1484.32 358.025   1
  -6  -8  -7 2185.76 576.510   3
   6 -14  -7 2616.09 821.519   3
  -6  -8  -7 1675.95 658.633   4
  -6  -8  -7 2186.28 923.212   2
  -8  14  -7 2465.49 843.270   1
 -14   8  -7 2581.34 693.218   2
   8   6  -7 1962.63 811.522   3
   8   6  -4 3572.15 774.250   3
   8   6  -4 2982.80 777.014   2
  -6  -8  -4 3621.76 486.364   3
 -14   8  -4 5905.60 1081.52   1
  14  -6  -4 3277.45 744.556   3
  -8  14  -4 4774.50 878.395   1
 -14   8  -4 2920.51 606.720   3
   6 -14  -4 3083.34 693.132   3
 -14   8  -4 3337.49 591.052   2
  -6  -8  -4 2791.06 647.694   4
   8   6  -4 3712.65 712.387   1
  -6  -8  -4 3262.88 923.465   2
 -14   8  -4 3498.90 560.094   4
   6 -14  -4 2892.43 486.507   1
   8   6  -1 13460.2 827.392   3
  -8  14  -1 14908.2 1140.65   1
   8   6  -1 14080.7 1111.95   1
  14  -6  -1 13631.9 1012.12   3
 -14   8  -1 11587.2 939.101   3
  -8  14  -1 12189.9 1011.96   3
   6 -14  -1 13054.9 1040.43   3
  -6  -8  -1 12810.1 1147.25   4
   6 -14  -1 13927.7 1081.06   1
  14  -6  -1 12537.4 1131.49   4
 -14   8  -1 14863.3 1277.96   1
   8   6  -1 13163.2 1189.81   4
  -6  -8  -1 13519.6 1346.78   2
   8   6  -1 12415.9 1279.38   2
  14  -6  -1 13836.3 1209.39   2
 -14   8  -1 14056.5 1050.40   4
 -14   8  -1 14880.5 1094.64   2
  -6  -8  -1 14522.8 1105.51   1
  14  -6   2 547.254 472.151   2
  -6  -8   2 1840.61 603.463   2
 -14   8   2 941.161 517.172   3
  -8  14   2 1075.89 545.229   3
   6 -14   2 1223.45 526.589   1
 -14   8   2 2410.11 664.168   2
   8   6   2 2109.47 653.461   4
  -8  14   2 1470.26 414.076   1
  -6  -8   2 1752.51 599.634   1
  14  -6   2 1965.65 477.085   3
   6 -14   2 2175.91 554.688   4
   6 -14   2 1141.25 374.896   2
  -6  -8   2 1826.24 574.235   4
  14  -6   2 1535.30 508.898   4
   8   6   2 1917.25 767.248   2
 -14   8   2 1453.37 573.841   4
   6 -14   5 5068.42 641.217   4
  14  -6   5 4415.49 577.629   4
  -6  -8   5 4027.05 736.219   4
  14  -6   5 2956.21 819.879   2
  -6  -8   5 4844.19 774.805   2
  -6  -8   8 1092.30 541.956   4
  -5  -9  -8 4920.41 1368.41   2
 -14   9  -8 2982.85 1026.90   1
  14  -5  -8 3863.30 1107.12   3
  -5  -9  -8 3235.34 777.758   3
  -5  -9  -8 3233.05 800.832   4
  -9  14  -8 4405.13 1065.56   1
   5 -14  -8 2590.62 930.655   3
   9   5  -8 4764.78 1189.98   3
 -14   9  -8 2673.06 716.153   2
   9   5  -8 3976.80 833.358   1
   5 -14  -8 1182.92 397.357   1
   9   5  -5 5175.21 953.173   3
  -9  14  -5 4689.22 871.894   1
  14  -5  -5 4164.52 839.232   3
   5 -14  -5 5575.05 648.459   1
  -5  -9  -5 5191.47 837.038   4
  -5  -9  -5 6340.52 1238.63   2
   5 -14  -5 5201.13 857.470   3
 -14   9  -5 4920.69 640.010   2
 -14   9  -5 5218.22 1095.26   1
  -5  -9  -5 6660.21 716.495   3
   9   5  -5 6166.14 848.103   1
   9   5  -2 9784.04 871.696   3
   5 -14  -2 8894.85 821.588   1
  14  -5  -2 8930.41 934.780   3
 -14   9  -2 8791.28 1105.94   1
   5 -14  -2 10046.1 926.257   3
 -14   9  -2 7949.39 821.385   3
   9   5  -2 10652.3 986.460   1
  -9  14  -2 6820.95 828.346   3
  -9  14  -2 8452.29 958.175   1
  -5  -9  -2 9069.82 509.929   3
  -5  -9  -2 10352.8 1261.53   2
   9   5  -2 11391.8 1154.98   4
   9   5  -2 8033.70 1080.24   2
 -14   9  -2 11845.9 958.402   4
  14  -5  -2 9156.02 1061.98   4
  14  -5  -2 10062.2 1146.44   2
  -5  -9  -2 10437.7 1103.56   4
 -14   9  -2 10418.8 869.334   2
  -5  -9  -2 8099.51 858.612   1
 -14   9   1 12501.8 1097.79   2
 -14   9   1 11474.6 1055.53   3
  -9  14   1 13614.6 965.443   1
  -9  14   1 10663.1 1021.58   3
  14  -5   1 12813.0 889.647   3
   5 -14   1 15165.2 1159.41   3
   9   5   1 10306.5 1230.03   2
  -5  -9   1 12063.2 1044.54   1
   5 -14   1 13313.5 1150.50   4
 -14   9   1 13950.2 999.859   1
   5 -14   1 14313.0 1138.94   2
   9   5   1 13227.1 1215.61   4
  -5  -9   1 12324.4 1142.26   4
  14  -5   1 10317.6 1068.17   2
  -5  -9   1 12422.5 1137.34   2
  14  -5   1 14310.5 1159.17   4
 -14   9   1 14733.2 1171.46   4
   5 -14   1 14532.3 1201.87   1
   5 -14   4 1014.63 176.826   2
  -9  14   4 1841.67 320.536   1
 -14   9   4 1561.78 268.758   1
  -5  -9   4 1680.17 539.976   2
   9   5   4 1909.09 664.278   4
 -14   9   4 1204.44 235.549   1
   5 -14   4 1609.69 498.251   4
  14  -5   4 1920.37 501.890   4
  14  -5   4 792.462 531.171   2
  -5  -9   4 894.079 511.378   4
  -5  -9   7 4217.84 854.173   2
  -5  -9   7 4058.59 718.737   4
   5 -14   7 2418.53 411.931   4
  -5  -9  10 722.186 572.446   4
  -4 -10  -9 4037.25 1298.30   2
  10   4  -9 2606.17 1136.77   3
  14  -4  -9 2733.17 1071.29   3
 -14  10  -9 4333.66 1242.23   1
  -4 -10  -9 2740.66 884.084   3
   4 -14  -9 3603.49 980.304   4
  10   4  -9 3079.11 732.238   1
 -10  14  -9 2500.16 1019.57   1
   4 -14  -9 2448.32 577.171   1
  -4 -10  -9 2424.63 795.431   4
   4 -14  -9 1152.38 826.293   3
 -14  10  -9 3276.41 725.922   2
 -14  10  -6 385.107 358.658   2
 -14  10  -6 420.760 672.770   1
  14  -4  -6-319.389 564.182   3
  10   4  -6 1054.13 735.281   3
  -4 -10  -6 407.259 431.054   3
   4 -14  -6 547.570 598.763   3
 -10  14  -6 133.690 601.268   1
   4 -14  -6-66.1081 366.960   1
  -4 -10  -6-257.657 486.594   4
  10   4  -6-436.595 444.441   1
  -4 -10  -6 792.631 805.045   2
  10   4  -3 3478.18 691.638   3
  14  -4  -3 4126.35 723.921   3
 -14  10  -3 3048.41 600.930   3
   4 -14  -3 3472.95 619.411   1
   4 -14  -3 3687.13 636.898   3
 -10  14  -3 3630.32 733.577   1
  -4 -10  -3 2339.51 848.331   2
  10   4  -3 2718.83 605.265   1
  -4 -10  -3 3142.85 713.206   4
  -4 -10  -3 3973.80 485.459   3
 -14  10  -3 3493.45 538.621   2
  -4 -10  -3 4044.29 664.562   1
 -14  10  -3 3549.48 825.089   1
 -14  10   0 704.006 453.708   4
  10   4   0 886.674 209.054   3
   4 -14   0 1140.06 529.176   4
 -10  14   0 725.418 428.256   1
 -14  10   0 822.023 442.538   3
 -10  14   0 73.9913 368.583   3
  14  -4   0 1309.17 376.846   3
 -14  10   0 353.255 383.303   2
   4 -14   0 420.935 431.650   3
   4 -14   0 795.681 555.932   2
  -4 -10   0 325.621 501.671   4
  10   4   0 19.0440 436.540   4
   4 -14   0 411.161 420.142   1
 -14  10   0 467.191 448.653   1
  14  -4   0 1359.30 562.440   4
  -4 -10   0 355.384 402.077   1
  10   4   0 1074.97 550.648   2
  -4 -10   0 1194.93 589.098   2
  14  -4   0 907.231 600.336   2
  14  -4   3 7191.23 856.671   4
 -10  14   3 6671.84 556.309   1
  14  -4   3 6776.85 986.571   2
   4 -14   3 5481.60 782.094   4
  10   4   3 6148.82 838.007   4
  -4 -10   3 6366.99 864.859   4
 -14  10   3 7053.62 591.631   1
   4 -14   3 5964.94 565.372   2
  -4 -10   3 5095.70 747.970   2
  -4 -10   6 303.038 464.576   2
  14  -4   6 790.408 413.530   4
   4 -14   6 16.8841 340.007   4
  -4 -10   6-181.113 458.823   4
  -4 -10   9 588.126 503.322   4
 -14  11 -10 1362.29 965.896   1
 -11  14 -10 1414.67 943.490   1
  -3 -11 -10 1483.45 1288.44   2
  -3 -11 -10 479.244 611.576   1
 -14  11  -7 1606.07 422.474   2
  11   3  -7 1541.48 810.339   3
 -14  11  -7 3534.89 952.577   1
  14  -3  -7 1607.91 873.086   3
  -3 -11  -7 1743.62 668.498   3
   3 -14  -7 3364.03 874.418   3
  -3 -11  -7 1300.03 676.402   4
 -11  14  -7 2445.50 814.919   1
   3 -14  -7 1812.88 814.372   4
  -3 -11  -7 285.625 962.415   2
  11   3  -7 1681.75 601.351   1
   3 -14  -7 1996.05 510.727   1
  11   3  -4 1909.71 690.564   3
  14  -3  -4 557.881 550.730   3
  11   3  -4 573.664 396.096   1
 -14  11  -4 1120.03 671.002   1
 -14  11  -4 6.58354 279.240   2
   3 -14  -4 865.961 477.260   3
 -11  14  -4 1248.42 569.416   1
  -3 -11  -4 753.156 425.935   3
   3 -14  -4 1516.42 475.468   1
  -3 -11  -4 447.019 530.997   4
  -3 -11  -4 908.052 752.360   2
  -3 -11  -4 505.020 443.901   1
  11   3  -1 1209.51 703.334   2
 -14  11  -1 1489.79 549.236   1
  11   3  -1 1935.55 413.171   3
   3 -14  -1 2132.75 582.811   1
  14  -3  -1 370.540 560.757   2
  -3 -11  -1 2108.02 866.537   2
  14  -3  -1 1046.54 411.885   3
 -14  11  -1 1501.15 527.886   3
  11   3  -1 749.170 560.934   4
 -11  14  -1 708.363 470.880   3
 -11  14  -1 929.567 458.078   1
   3 -14  -1 2614.84 510.834   3
  -3 -11  -1 1041.76 355.663   3
 -14  11  -1 745.793 376.674   2
   3 -14  -1 1408.36 639.687   4
  14  -3  -1 1717.14 621.316   4
   3 -14  -1 1489.99 646.936   2
  -3 -11  -1 1877.59 600.892   4
  -3 -11  -1 907.564 518.931   1
 -14  11   2 1615.66 452.395   1
  -3 -11   2 1569.79 546.041   2
  -3 -11   2 1402.75 509.031   4
  11   3   2 1434.71 601.333   4
  14  -3   2 980.145 326.389   3
  14  -3   2 3420.31 682.688   4
   3 -14   2 927.440 462.871   2
 -11  14   2 1405.31 390.103   1
  14  -3   2 1625.09 614.444   2
   3 -14   2 929.997 528.128   4
  -3 -11   5 1311.13 499.844   2
   3 -14   5 661.886 268.043   2
  11   3   5 93.4115 488.439   4
  14  -3   5 715.391 442.533   4
   3 -14   5 1066.93 443.685   4
  -3 -11   5 984.613 488.385   4
   3 -14   8 468.946 322.822   4
  -3 -11   8 1487.70 573.285   4
  12   2  -8 4893.75 792.407   1
 -14  12  -8 1639.23 377.159   2
  12   2  -8 3783.01 1079.76   3
   2 -14  -8 4824.32 1054.28   4
  14  -2  -8 2462.86 1054.40   3
 -14  12  -8 2106.21 925.374   1
  -2 -12  -8 3643.84 956.397   3
   2 -14  -8 3611.00 904.526   3
  -2 -12  -8 3563.21 1356.14   2
 -12  14  -8 5107.36 1213.71   1
  -2 -12  -8 4185.19 905.198   4
  -2 -12  -5 9041.02 955.778   3
  12   2  -5 8386.73 1151.87   3
  14  -2  -5 8611.67 1209.11   3
   2 -14  -5 7623.78 982.366   3
 -14  12  -5 9973.04 1336.63   1
  12   2  -5 8774.14 932.457   1
   2 -14  -5 6376.59 741.512   1
   2 -14  -5 8621.42 1459.46   2
   2 -14  -5 8530.96 1095.07   4
  -2 -12  -5 8907.88 1109.22   4
  -2 -12  -5 8966.39 1468.74   2
 -12  14  -5 8965.07 1221.64   1
 -14  12  -5 5612.20 468.857   2
  12   2  -2 6500.52 744.570   3
  14  -2  -2 5221.41 726.872   3
   2 -14  -2 5038.99 732.220   3
   2 -14  -2 6719.47 847.609   1
   2 -14  -2 5771.14 906.822   4
   2 -14  -2 5727.60 1059.58   2
  -2 -12  -2 6930.60 999.315   4
  -2 -12  -2 5633.66 736.940   1
 -14  12  -2 7035.94 929.163   1
  -2 -12  -2 6517.42 629.280   3
 -12  14  -2 6863.24 926.841   1
  -2 -12  -2 5686.18 1036.01   2
 -14  12  -2 6294.65 615.422   2
 -14  12  -2 4581.85 671.694   3
   2 -14   1 8602.83 995.703   1
 -14  12   1 6138.73 863.375   3
  14  -2   1 9016.07 651.739   3
 -12  14   1 9028.21 825.369   1
   2 -14   1 8944.55 1004.46   4
  12   2   1 7833.18 968.938   4
  12   2   1 7833.13 1124.94   2
  -2 -12   1 8151.76 978.994   2
  14  -2   1 6422.50 952.945   2
  14  -2   1 9090.48 1044.07   4
  -2 -12   1 9484.65 1073.10   4
   2 -14   1 8648.21 977.048   2
 -14  12   1 8449.84 848.978   1
 -14  12   4 2150.17 242.899   1
  12   2   4 1942.55 631.383   4
  -2 -12   4 2396.48 589.480   2
 -12  14   4 2435.97 291.176   1
  14  -2   4 2595.22 599.873   4
   2 -14   4 2752.47 636.082   4
  -2 -12   4 1464.13 596.616   4
   2 -14   4 2319.40 451.339   2
  -2 -12   7 4308.30 720.310   4
   2 -14   7 3671.45 602.299   4
  13   1  -9 2030.74 1068.63   3
  -1 -13  -9 573.937 1167.26   2
  -1 -13  -9 1275.12 803.830   3
   1 -14  -9 1612.60 834.774   3
 -13  14  -9 573.048 783.868   1
   1 -14  -9 1573.58 1163.74   2
  13   1  -9 898.125 533.189   1
  -1 -13  -9 1163.64 837.422   4
   1 -14  -9 1055.61 724.044   4
 -14  13  -9 1912.17 977.289   1
  14  -1  -9 1242.75 1003.95   3
   1 -14  -6 321.732 398.528   1
  13   1  -6 395.626 654.196   3
  14  -1  -6 439.365 665.470   3
 -14  13  -6 726.222 680.074   1
  13   1  -6 155.122 408.035   1
  -1 -13  -6-19.9704 467.415   3
   1 -14  -6 885.167 624.798   3
 -13  14  -6-37.5726 591.808   1
 -14  13  -6 129.743 109.893   2
  -1 -13  -6 73.3301 534.312   4
   1 -14  -6-1182.91 931.144   2
  -1 -13  -6 576.674 1008.93   2
   1 -14  -6 863.495 701.719   4
   1 -14  -3 827.628 454.825   1
 -14  13  -3 1339.49 623.278   1
  13   1  -3 780.566 440.361   3
 -13  14  -3 880.749 597.356   1
   1 -14  -3 1044.40 420.920   3
  -1 -13  -3 861.671 397.435   3
 -14  13  -3 768.146 299.951   2
   1 -14  -3 1758.49 702.366   4
  -1 -13  -3 114.018 501.091   4
   1 -14  -3 20.1078 641.006   2
  14  -1  -3 1623.90 575.357   3
  -1 -13  -3 235.242 606.915   2
  -1 -13  -3 715.520 405.522   1
   1 -14   0 237.920 497.205   1
 -14  13   0 655.460 390.409   1
  13   1   0-277.043 277.530   3
 -13  14   0-104.264 381.281   1
 -14  13   0 697.533 505.697   3
  14  -1   0 39.5585 304.157   3
  -1 -13   0 150.487 458.521   1
   1 -14   0 342.488 401.149   3
   1 -14   0 434.851 529.080   4
  -1 -13   0 396.918 560.700   2
  -1 -13   0 843.055 572.530   4
   1 -14   0 391.844 646.964   2
   1 -14   3 2587.89 596.145   4
   1 -14   3 2215.87 517.637   2
  -1 -13   3 2205.30 579.858   2
  14  -1   3 2820.50 680.223   4
 -13  14   3 2184.06 401.596   1
  -1 -13   3 2393.69 642.478   4
 -14  13   3 2623.00 406.819   1
  13   1   3 2718.62 694.746   4
  -1 -13   6 279.530 423.447   2
   1 -14   6 627.814 422.920   2
  13   1   6 59.7857 484.387   4
  14  -1   6 611.445 518.592   4
  -1 -13   6 59.3699 455.047   4
   1 -14   6 515.081 471.585   4
   1 -14   9 1290.18 428.394   4
  -1 -13   9 1844.34 554.849   4
  14   0  -7-618.788 729.724   3
   0 -14  -7 423.702 608.436   3
  14   0  -7-168.438 413.160   1
   0 -14  -7 1917.03 1125.61   2
   0 -14  -7-541.378 631.621   4
 -14  14  -7 826.272 813.049   1
  14   0  -4-215.047 511.081   3
 -14  14  -4 1693.04 724.048   1
   0 -14  -4 373.145 385.710   3
   0 -14  -4 549.437 464.263   1
   0 -14  -4 339.526 523.571   4
   0 -14  -4 681.139 857.637   2
 -14  14  -1 487.453 452.450   1
  14   0  -1 101.209 313.234   3
   0 -14  -1-88.4752 473.509   1
   0 -14  -1 0.31859 388.802   3
   0 -14  -1-452.614 529.855   4
   0 -14  -1 931.179 742.970   2
   0 -14   2 485.149 462.410   2
 -14  14   2 662.108 344.511   1
   0 -14   2 433.727 560.063   4
  14   0   2 609.911 485.214   4
   0 -14   5 114.105 410.358   4
   0 -14   5 448.270 424.902   2
  14   0   5-695.845 533.410   4
   0 -14   8 5.43708 436.454   4
 -15   0  -9 407.542 625.986   3
  15 -15  -9-644.137 883.982   3
 -15   0  -9-568.334 775.347   1
   0  15  -9 1185.35 829.811   1
 -15   0  -9 538.551 829.122   2
  15 -15  -6 1473.08 704.929   3
 -15   0  -6 1253.67 589.611   4
   0  15  -6 1043.49 603.205   1
 -15   0  -6 835.631 410.407   3
   0  15  -6 1654.10 649.332   2
 -15   0  -6 1315.62 463.353   3
 -15   0  -6 588.101 722.107   2
 -15   0  -3 549.577 552.481   2
 -15   0  -3-226.990 210.168   3
  15 -15  -3-286.857 473.268   3
 -15   0  -3 609.491 543.699   4
   0  15  -3-266.819 532.966   1
   0  15  -3 21.8547 513.530   2
 -15   0   0 1856.20 403.601   3
 -15   0   0 1984.86 682.045   2
   0  15   0 2063.54 583.786   1
  15 -15   0 2896.43 593.852   2
   0  15   0 2613.38 540.699   3
  15 -15   0 2650.89 658.236   3
  15 -15   0 1998.47 582.513   1
 -15   0   0 2580.45 659.625   4
 -15   0   3 687.843 509.143   3
   0  15   3-278.252 455.919   3
 -15   0   3 473.418 427.289   1
 -15   0   3 451.923 516.306   2
   0  15   3 201.247 426.643   1
 -15   0   3-73.9125 533.664   4
  15 -15   3 197.536 416.877   4
  15 -15   3 321.870 335.499   2
  15 -15   6 466.888 309.708   4
 -15   0   6 998.376 676.059   2
 -15   0   6 807.489 637.108   1
 -15   0   6 124.761 592.870   4
 -15   0   9 100.798 693.979   4
 -14  -1  -7 5252.64 1223.81   2
 -15   1  -7 5540.38 844.832   3
 -14  -1  -7 6335.99 899.768   3
  15 -14  -7 4365.94 1058.83   3
  14 -15  -7 4647.88 1069.38   3
  -1  15  -7 4736.59 1078.48   1
   1  14  -7 5585.28 1025.27   1
 -15   1  -7 6380.72 1229.45   1
  -1  15  -7 2844.30 671.256   2
 -14  -1  -7 4494.24 876.742   4
 -15   1  -7 5483.30 812.179   4
   1  14  -7 1959.91 693.706   2
 -15   1  -7 4932.32 1161.54   2
 -14  -1  -4 6404.16 1090.31   2
  15 -14  -4 6456.19 1001.77   3
  14 -15  -4 5636.73 925.795   3
 -15   1  -4 5444.41 1043.18   2
  -1  15  -4 6665.41 966.309   1
   1  14  -4 7853.12 1050.72   1
   1  14  -4 5188.83 873.923   2
 -14  -1  -4 6023.17 888.254   4
 -15   1  -4 7270.71 915.983   4
 -14  -1  -4 5656.16 454.439   3
 -15   1  -4 5076.85 514.262   3
  -1  15  -4 4015.32 745.252   2
 -14  -1  -1 6436.06 433.926   3
  14 -15  -1 6709.27 857.866   2
  15 -14  -1 8393.12 975.638   3
  14 -15  -1 7093.54 943.648   3
 -15   1  -1 9594.72 1064.70   4
  -1  15  -1 6456.60 724.726   3
   1  14  -1 6262.82 672.252   3
  -1  15  -1 7799.28 1034.01   2
   1  14  -1 6437.34 980.317   2
  -1  15  -1 7554.94 915.985   1
  14 -15  -1 6854.81 829.221   1
   1  14  -1 7748.74 934.785   1
 -15   1  -1 6704.56 980.077   2
 -14  -1  -1 9825.87 1061.91   4
 -14  -1  -1 7611.13 1074.22   2
 -15   1  -1 7846.30 605.237   3
  15 -14  -1 7836.30 942.682   2
 -15   1   2 4183.99 727.958   3
 -15   1   2 4430.56 687.968   1
  -1  15   2 2672.75 646.133   3
   1  14   2 5099.17 765.610   1
 -14  -1   2 4295.99 834.152   4
  15 -14   2 3009.48 706.648   3
  14 -15   2 3124.37 656.962   3
   1  14   2 3199.10 628.406   3
 -15   1   2 4358.36 813.026   2
  15 -14   2 3974.72 604.073   2
 -15   1   2 4480.68 819.854   4
  14 -15   2 3812.07 533.483   2
  -1  15   2 4235.79 674.540   1
 -14  -1   2 4515.75 858.523   2
  14 -15   2 3403.87 640.181   4
 -14  -1   2 3819.54 666.572   1
  15 -14   2 3231.77 632.325   4
 -14  -1   5 10890.4 1256.49   2
 -15   1   5 12691.5 1443.93   2
 -14  -1   5 10610.4 1065.25   1
 -15   1   5 9938.76 1021.50   1
 -15   1   5 13845.9 1392.10   4
   1  14   5 9243.62 1072.99   3
  15 -14   5 10620.8 850.434   4
 -14  -1   5 12305.5 1289.02   4
  14 -15   5 9989.42 824.544   4
 -14  -1   8 617.993 646.859   4
 -15   1   8 2120.87 866.242   4
 -15   2  -8 124.826 616.669   3
 -13  -2  -8 497.140 616.917   3
  -2  15  -8 272.964 626.616   1
 -13  -2  -8 599.138 881.042   2
  15 -13  -8-388.792 811.876   3
  13 -15  -8-1305.27 834.828   3
 -15   2  -8 535.819 813.677   2
   2  13  -8 581.746 609.947   1
 -13  -2  -8-134.691 705.998   1
 -15   2  -8 771.788 507.834   4
 -13  -2  -8 1123.63 622.799   4
 -15   2  -8 572.839 791.862   1
 -13  -2  -5 603.958 333.129   3
  -2  15  -5 1131.78 675.878   1
  15 -13  -5 1224.04 634.163   3
  13 -15  -5 72.2778 555.129   3
  -2  15  -5 36.7300 442.373   2
 -13  -2  -5 259.488 492.211   4
 -15   2  -5 371.374 337.249   3
 -13  -2  -5 498.909 306.742   3
   2  13  -5 166.461 601.473   1
 -15   2  -5 779.805 450.259   4
 -13  -2  -5 1369.16 881.726   2
   2  13  -5 451.534 615.011   2
 -15   2  -5 1165.83 737.667   2
 -13  -2  -2 3092.96 853.720   2
   2  13  -2 2146.57 590.013   1
 -15   2  -2 662.762 598.364   2
 -15   2  -2 2146.75 403.408   3
 -13  -2  -2 1053.37 566.004   4
  15 -13  -2 1598.15 522.070   3
  13 -15  -2 1711.66 550.507   3
  -2  15  -2 1838.94 544.440   3
  13 -15  -2 1528.61 612.714   2
  -2  15  -2 1669.09 568.519   2
   2  13  -2 1633.90 516.924   3
  -2  15  -2 2046.97 666.286   1
   2  13  -2 1987.85 639.097   2
  13 -15  -2 1239.24 454.199   1
 -15   2  -2 1254.83 499.534   4
  13 -15   1 1687.39 514.953   4
 -15   2   1 1057.73 429.827   3
 -15   2   1 1928.89 572.019   1
 -13  -2   1 1321.72 610.290   2
 -13  -2   1 2366.52 576.357   1
  15 -13   1 1511.02 503.138   2
   2  13   1 437.866 394.581   1
 -15   2   1 1294.11 646.581   2
  -2  15   1 2002.40 533.526   1
  13 -15   1 2025.41 442.006   2
   2  13   1 1248.29 416.788   3
  -2  15   1 1718.24 547.487   3
 -13  -2   1 2150.02 631.115   4
  15 -13   1 2151.81 586.001   3
  13 -15   1 2143.96 612.213   3
 -15   2   1 1828.59 603.458   4
  13 -15   1 2452.43 669.452   1
  15 -13   1 1692.59 527.824   4
   2  13   4 108.435 414.011   3
  -2  15   4 428.176 575.996   3
 -13  -2   4 1035.58 636.279   2
 -15   2   4 158.291 496.069   2
  15 -13   4-54.4684 350.518   4
 -13  -2   4 849.311 579.588   1
  15 -13   4 484.171 318.001   2
 -15   2   4 176.985 405.991   1
 -13  -2   4-52.4664 523.166   4
 -15   2   4 470.142 600.693   4
  13 -15   4 277.442 346.287   4
 -13  -2   7 755.884 677.716   2
 -15   2   7 1816.33 586.426   1
 -15   2   7 2919.11 954.256   2
 -15   2   7 1452.13 749.631   4
 -13  -2   7 2078.55 732.981   4
 -12  -3  -9-71.2641 860.104   2
   3  12  -9 328.716 1024.16   3
 -15   3  -9 24.7552 677.543   3
 -12  -3  -9 86.3350 588.855   3
  -3  15  -9 1113.13 841.942   1
   3  12  -9-750.298 693.942   1
  15 -12  -9 684.652 907.252   3
  12 -15  -9 1625.12 895.262   3
 -15   3  -9 397.349 736.439   2
 -12  -3  -9 425.731 525.421   4
 -12  -3  -9 1443.45 762.549   1
 -15   3  -9 221.755 757.820   1
   3  12  -6 590.714 650.270   2
 -12  -3  -6 1443.87 480.021   3
  -3  15  -6-172.975 553.165   1
  15 -12  -6 215.408 633.520   3
  12 -15  -6 763.181 708.545   3
 -12  -3  -6 551.221 547.880   4
  -3  15  -6 935.143 402.078   2
 -15   3  -6 849.956 472.065   3
   3  12  -6 1711.12 675.576   1
 -15   3  -6 711.604 751.560   1
 -15   3  -6 2039.86 570.798   4
 -15   3  -6 538.818 636.690   2
 -15   3  -3 2354.89 676.773   2
 -12  -3  -3 1226.47 540.180   4
  -3  15  -3 1157.66 573.576   1
  15 -12  -3 1218.02 599.933   3
  12 -15  -3 1829.57 599.716   3
 -15   3  -3 940.337 347.538   3
   3  12  -3 1649.23 580.281   1
  -3  15  -3 2897.88 556.948   2
   3  12  -3 1989.27 681.827   2
 -15   3  -3 1009.73 444.201   4
  12 -15  -3 1325.19 392.250   1
 -12  -3  -3 1109.97 674.733   2
  12 -15   0 1378.90 526.953   1
 -15   3   0 544.144 508.646   2
 -12  -3   0 288.839 538.996   2
   3  12   0-998.557 720.788   2
 -15   3   0 1605.13 470.374   3
  -3  15   0 1157.78 513.251   1
  15 -12   0 566.251 490.647   2
  -3  15   0 1092.15 427.833   3
  15 -12   0 601.226 448.517   3
   3  12   0 1162.16 356.777   3
  12 -15   0 695.732 483.470   3
  12 -15   0 981.443 404.491   2
  15 -12   0 1587.45 558.810   4
 -12  -3   0 1300.62 558.230   4
   3  12   0 1550.77 522.653   1
 -15   3   0 1755.57 603.141   4
  15 -12   3 799.575 404.445   2
 -15   3   3 1195.79 630.374   3
   3  12   3 779.044 398.609   3
  -3  15   3 2220.03 662.356   3
 -12  -3   3 23.2423 485.713   2
 -15   3   3-401.093 487.039   2
 -15   3   3 929.449 403.786   1
  -3  15   3 1384.92 439.230   1
 -12  -3   3 1756.27 628.931   4
 -12  -3   3 242.086 427.163   1
  15 -12   3 240.635 408.230   4
  12 -15   3 136.947 364.059   4
 -15   3   3 656.478 571.939   4
  12 -15   3 751.237 172.205   2
   3  12   6 292.824 535.539   3
 -12  -3   6 1729.37 642.581   4
 -12  -3   6 1704.09 753.242   2
 -15   3   6 1426.78 659.312   2
  12 -15   6 1382.96 387.155   4
 -15   3   6 2131.05 587.288   1
 -15   3   6 1747.74 722.408   4
  15 -12   6 1405.92 323.912   4
  12 -15   6 1505.44 329.319   4
 -12  -3   9 167.171 633.585   4
  -4  15  -7 4663.10 994.607   1
 -11  -4  -7 6860.40 898.162   3
  15 -11  -7 4595.93 1042.61   3
  11 -15  -7 3812.63 997.205   3
 -15   4  -7 5927.39 1083.32   2
   4  11  -7 4848.51 958.453   1
  -4  15  -7 2880.36 413.691   2
 -11  -4  -7 6765.77 1003.41   4
 -15   4  -7 5247.34 670.968   4
 -15   4  -7 7925.79 1435.91   1
 -11  -4  -7 5487.08 1300.13   2
 -11  -4  -4 5618.46 430.438   3
  15 -11  -4 6342.07 954.079   3
  11 -15  -4 6586.06 979.665   3
  -4  15  -4 7253.33 1022.73   1
 -15   4  -4 6419.50 687.247   3
 -11  -4  -4 5082.98 383.006   3
 -11  -4  -4 8061.50 1006.18   4
 -15   4  -4 7240.64 963.454   2
  -4  15  -4 4502.76 533.735   2
   4  11  -4 7210.23 953.773   1
 -11  -4  -4 7824.85 1244.72   2
  11 -15  -4 6367.46 549.986   1
   4  11  -4 6612.25 992.055   2
 -15   4  -4 8025.12 886.548   4
   4  11  -1 11065.8 1069.99   1
 -15   4  -1 10118.7 839.293   3
  11 -15  -1 7627.82 896.443   3
  -4  15  -1 7813.38 824.902   3
   4  11  -1 8177.92 689.168   3
  -4  15  -1 10432.6 1050.86   1
  11 -15  -1 10147.2 980.563   2
   4  11  -1 8377.84 1137.26   2
  15 -11  -1 9443.90 1029.67   2
 -11  -4  -1 9856.55 1063.36   4
 -11  -4  -1 9951.32 1204.49   2
  11 -15  -1 9765.95 934.746   1
 -15   4  -1 9726.10 994.910   4
 -15   4  -1 8955.51 1051.30   2
  15 -11  -1 11225.0 1035.87   3
 -11  -4   2 2111.72 614.875   2
   4  11   2 3432.97 443.139   3
  -4  15   2 1326.68 572.027   3
  15 -11   2 2398.92 575.547   4
  -4  15   2 1980.41 465.292   1
 -11  -4   2 2157.11 539.428   1
  15 -11   2 1263.12 541.023   3
  11 -15   2 2504.94 692.648   3
 -15   4   2 3366.14 696.320   3
 -15   4   2 3742.87 768.024   4
 -11  -4   2 2654.55 719.201   4
  15 -11   2 2025.66 527.542   2
  11 -15   2 3187.64 401.394   2
 -15   4   2 3473.87 742.842   2
 -15   4   2 2041.73 459.867   1
   4  11   5 13777.1 1075.41   3
 -11  -4   5 13482.4 1340.04   2
 -15   4   5 11077.8 1342.93   2
 -15   4   5 11160.0 885.978   1
  11 -15   5 11820.4 826.334   4
  11 -15   5 12043.7 958.096   4
 -11  -4   5 12304.0 1262.88   4
 -15   4   5 13551.7 1399.44   4
  15 -11   5 10803.9 820.046   4
 -15   4   8 237.181 632.415   4
 -11  -4   8 357.626 593.554   4
 -15   5  -8-184.349 215.764   4
   5  10  -8 1944.88 1104.21   3
 -10  -5  -8 192.103 526.683   3
  15 -10  -8 738.369 794.850   3
  10 -15  -8 1017.18 773.479   3
   5  10  -8 112.499 682.517   1
 -10  -5  -8 228.830 541.843   4
 -10  -5  -8-2086.52 1165.48   2
 -15   5  -8 31.8251 589.945   2
 -15   5  -8 744.741 762.097   1
  -5  15  -8 39.8950 616.164   1
 -15   5  -5 1996.20 655.515   2
   5  10  -5 2762.55 769.912   2
  -5  15  -5 2483.74 750.098   1
 -10  -5  -5 2402.51 447.727   3
  15 -10  -5 2333.03 710.739   3
  10 -15  -5 1324.31 612.437   3
 -10  -5  -5 2129.56 862.128   2
 -15   5  -5 2463.42 527.997   3
   5  10  -5 4191.35 783.408   1
 -10  -5  -5 2242.88 632.447   4
 -15   5  -5 2928.08 600.911   4
 -15   5  -5 3894.00 1029.94   1
  10 -15  -5 1439.59 256.205   1
 -10  -5  -2 4342.53 782.903   4
  10 -15  -2 4241.64 611.671   1
  15 -10  -2 3690.48 716.000   3
 -15   5  -2 4307.87 631.322   3
  10 -15  -2 4031.41 709.248   3
  -5  15  -2 4514.60 812.677   1
 -15   5  -2 5645.57 859.630   2
   5  10  -2 5330.75 774.116   1
   5  10  -2 4396.99 797.201   4
   5  10  -2 4691.43 922.539   2
 -15   5  -2 4990.43 712.327   4
 -10  -5  -2 4697.19 931.830   2
 -15   5   1 7821.78 860.058   3
  10 -15   1 7673.64 665.251   2
  -5  15   1 6702.70 840.672   3
  10 -15   1 8098.51 966.262   1
  15 -10   1 6773.80 803.631   3
  10 -15   1 4201.02 751.834   3
   5  10   1 7615.74 916.519   1
 -15   5   1 8505.02 1020.44   2
 -10  -5   1 7630.25 1023.34   2
  -5  15   1 7109.66 771.503   1
   5  10   1 6142.55 1069.92   2
  15 -10   1 8092.19 905.269   2
 -10  -5   1 7855.68 985.332   4
  15 -10   1 7436.22 867.638   4
 -15   5   1 9056.58 1004.24   4
 -10  -5   1 5740.46 756.082   1
   5  10   1 6777.99 540.070   3
   5  10   4 2572.54 455.498   3
  -5  15   4 2790.18 514.404   1
 -10  -5   4 2380.14 738.428   2
 -15   5   4 2503.87 744.487   2
 -15   5   4 2389.87 481.405   1
  15 -10   4 1752.87 559.123   2
 -10  -5   4 2751.24 695.847   4
  15 -10   4 1034.12 431.099   4
 -15   5   4 3868.19 784.757   4
 -15   5   7 2290.69 789.697   4
 -15   5   7 740.415 294.165   1
 -10  -5   7 1566.10 747.959   2
 -10  -5   7 591.870 533.346   4
 -15   6  -9 1156.03 930.395   1
   6   9  -9 409.616 976.786   3
  -9  -6  -9 862.370 638.032   3
  15  -9  -9 441.781 814.726   3
   9 -15  -9 34.5652 745.957   3
  -9  -6  -9 962.406 684.865   1
  -9  -6  -9 1164.08 731.832   4
  -6  15  -9 1841.92 830.024   1
   6   9  -9 1293.85 796.612   1
 -15   6  -9-237.563 651.699   2
  -9  -6  -9 442.907 947.416   2
  -9  -6  -6 2597.24 973.988   2
  -9  -6  -6 2691.19 615.169   3
   6   9  -6 1662.78 788.791   3
  15  -9  -6 2173.82 841.998   3
   9 -15  -6 1765.55 835.115   3
 -15   6  -6 2835.24 721.868   2
  -9  -6  -6 2070.46 601.086   4
 -15   6  -6 3942.21 1088.53   1
  -6  15  -6 2007.55 718.496   1
   6   9  -6 2985.23 754.413   1
 -15   6  -6 3333.91 527.935   4
 -15   6  -3 1831.16 563.411   2
 -15   6  -3 2322.96 543.603   4
  15  -9  -3 1905.20 573.364   3
   9 -15  -3 2149.17 461.942   1
   6   9  -3 2388.20 657.008   1
   9 -15  -3 1806.48 640.686   3
 -15   6  -3 1666.10 442.606   3
  -9  -6  -3 1423.77 670.417   2
  -6  15  -3 1914.38 660.536   1
   6   9  -3 351.715 604.455   2
  -9  -6  -3 2194.14 621.316   4
  -9  -6   0 2576.66 644.943   2
   6   9   0 2158.28 608.215   1
  15  -9   0 2754.02 665.528   2
   6   9   0 1975.17 319.796   3
 -15   6   0 2374.39 552.663   3
   9 -15   0 2270.93 575.120   1
 -15   6   0 1490.77 545.602   2
  -6  15   0 2528.73 580.121   1
  -6  15   0 2431.65 522.256   3
  15  -9   0 2474.49 573.581   3
   9 -15   0 2003.06 592.404   3
   6   9   0 2872.28 811.641   2
   6   9   0 2801.12 739.381   4
  -9  -6   0 2951.71 595.463   1
  15  -9   0 3015.28 671.046   4
  -9  -6   0 2240.04 628.006   4
 -15   6   0 2902.86 642.452   4
   6   9   3 2665.01 350.332   3
  -6  15   3 1920.23 622.897   3
  -9  -6   3 1359.64 589.818   2
  15  -9   3 2551.72 630.601   2
 -15   6   3 3349.87 726.286   2
  -6  15   3 1442.91 421.028   1
  -9  -6   3 3935.77 769.090   4
 -15   6   3 1899.08 398.838   1
  15  -9   3 2600.69 543.702   4
 -15   6   3 3051.59 735.039   4
 -15   6   6 1177.56 665.147   4
  -9  -6   6 975.593 505.759   2
 -15   6   6 799.114 264.435   1
   9 -15   6 963.646 370.323   4
  15  -9   6 1410.17 354.710   4
  -9  -6   6 925.656 547.649   4
  -9  -6   9-63.7312 542.202   4
 -15   7  -7 3279.95 792.317   2
   7   8  -7 2062.63 859.419   3
  -8  -7  -7 2899.00 676.417   3
   7   8  -7 2743.20 797.089   1
  15  -8  -7 4634.23 1085.27   3
   8 -15  -7 3304.22 924.631   3
 -15   7  -7 5638.72 1372.18   1
  -8  -7  -7 2828.63 775.656   4
  -8  -7  -7 1980.32 768.874   2
  -7  15  -7 2904.67 833.457   1
   7   8  -4 4947.07 844.876   3
  -7  15  -4 4542.34 857.902   1
  -8  -7  -4 3563.62 960.518   2
  15  -8  -4 4294.12 851.774   3
  -8  -7  -4 4003.87 419.738   3
 -15   7  -4 3266.55 586.243   3
   8 -15  -4 3982.47 734.019   3
  -8  -7  -4 2728.10 705.999   4
 -15   7  -4 6394.34 1143.80   1
 -15   7  -4 3640.89 667.241   2
 -15   7  -4 4530.69 639.267   4
   8 -15  -4 3889.17 522.026   1
   7   8  -4 4907.36 798.435   1
   7   8  -4 3941.85 845.502   2
  -8  -7  -1 10749.0 998.806   1
  -7  15  -1 10779.0 1018.22   1
 -15   7  -1 10661.2 940.841   3
   7   8  -1 12454.5 1105.82   1
  15  -8  -1 10311.5 946.228   3
  -7  15  -1 9568.17 896.710   3
   8 -15  -1 12148.1 1080.48   3
  15  -8  -1 12144.0 1177.17   2
   7   8  -1 12145.2 1212.82   4
  -8  -7  -1 12677.1 1183.53   4
   7   8  -1 11839.2 1303.52   2
  -8  -7  -1 12646.0 1322.41   2
  15  -8  -1 11191.1 1105.15   4
 -15   7  -1 11891.5 1043.33   4
 -15   7  -1 12172.0 1081.35   2
   8 -15  -1 11809.0 1010.53   1
  -8  -7   2 1435.33 556.163   2
 -15   7   2 787.872 503.947   3
  -7  15   2 758.269 505.963   3
 -15   7   2 2015.61 636.292   2
   8 -15   2 1944.63 455.896   2
  15  -8   2 1754.84 614.274   2
  15  -8   2 1133.75 502.781   3
  -8  -7   2 1597.95 584.787   1
   7   8   2 1357.66 659.954   4
  -7  15   2 1949.32 432.295   1
  -8  -7   2 2155.73 680.189   4
  15  -8   2 2220.79 576.449   4
 -15   7   2 610.941 534.112   4
 -15   7   5 6511.44 517.189   1
  -8  -7   5 8761.17 1027.51   4
 -15   7   5 8113.25 1241.18   2
  15  -8   5 5142.71 889.824   2
   8 -15   5 6311.95 733.771   4
  15  -8   5 8001.69 742.372   4
 -15   7   5 10212.6 1229.03   4
  -8  -7   5 7635.72 1021.19   2
  -8  -7   8 235.104 548.481   4
   8   7  -8-338.639 589.953   1
   8   7  -8 407.660 804.377   3
   7 -15  -8 236.411 209.817   1
  -7  -8  -8 1101.50 614.633   3
  15  -7  -8 574.874 701.104   3
  -7  -8  -8 203.554 607.466   4
   7 -15  -8 1127.93 760.691   3
  -7  -8  -8 497.821 966.951   2
  -8  15  -8-256.847 718.155   1
 -15   8  -8-200.942 549.500   2
 -15   8  -8-57.4402 823.376   1
   8   7  -5 6660.82 1040.93   3
   7 -15  -5 7032.80 660.530   1
  15  -7  -5 7011.24 1042.85   3
  -7  -8  -5 7693.27 722.596   3
   7 -15  -5 6849.94 972.670   3
  -7  -8  -5 7206.67 999.857   4
  -7  -8  -5 8998.29 1421.91   2
 -15   8  -5 9920.58 1401.99   1
 -15   8  -5 6319.32 800.986   2
  -8  15  -5 8208.81 1143.81   1
   8   7  -5 7375.60 924.742   1
 -15   8  -5 8073.87 774.839   4
   8   7  -2 2104.90 709.741   2
  15  -7  -2 2488.04 624.222   3
 -15   8  -2 1864.47 569.662   2
   8   7  -2 2597.66 624.295   1
   8   7  -2 1267.84 457.408   3
 -15   8  -2 2010.26 521.520   3
   7 -15  -2 1317.87 532.625   3
   7 -15  -2 1513.76 459.816   1
  -7  -8  -2 1512.42 594.514   4
 -15   8  -2 3980.21 851.816   1
  -8  15  -2 1871.02 566.321   1
  -7  -8  -2 1009.02 714.762   2
 -15   8  -2 1975.26 529.161   4
 -15   8   1 14702.7 1241.58   4
 -15   8   1 13905.4 1186.42   2
 -15   8   1 12357.7 1119.10   3
  -7  -8   1 13077.1 1217.40   2
  -8  15   1 10325.4 1017.10   3
   7 -15   1 13939.8 1224.47   1
  -8  15   1 12022.4 953.543   1
   7 -15   1 11972.5 1095.64   3
  15  -7   1 10846.8 919.506   3
   7 -15   1 12972.4 1059.98   2
   8   7   1 12707.1 1256.74   4
   8   7   1 10814.3 1335.85   2
  -7  -8   1 11051.8 1034.74   1
  -7  -8   1 12767.2 1221.65   4
  15  -7   1 12064.4 1116.90   2
  15  -7   1 12560.6 1114.04   4
 -15   8   4 4880.15 831.026   4
  -8  15   4 4963.90 560.722   1
  15  -7   4 2733.51 742.518   2
  -7  -8   4 4271.12 797.222   2
 -15   8   4 3807.86 873.667   2
   7 -15   4 3238.35 637.095   4
  15  -7   4 3909.05 618.131   4
 -15   8   4 4099.36 432.067   1
  -7  -8   4 3312.45 727.962   4
  -7  -8   7 2379.82 822.396   2
  15  -7   7 1746.39 331.264   4
   7 -15   7 1417.29 312.444   4
   9   6  -9 507.262 968.693   3
 -15   9  -9 258.988 859.849   1
 -15   9  -9 421.736 613.198   2
  15  -6  -9 398.004 922.058   3
  -6  -9  -9 297.308 604.882   3
   6 -15  -9 236.237 738.713   3
   9   6  -9 258.033 568.314   1
  -9  15  -9 2346.23 922.428   1
  -6  -9  -9 218.502 647.392   4
  -6  -9  -9 1687.51 1038.69   2
  -6  -9  -6 1688.96 500.669   3
   6 -15  -6 1033.37 386.214   1
   6 -15  -6 1768.41 744.974   3
  15  -6  -6 1382.97 755.378   3
  -6  -9  -6 674.497 573.396   4
   9   6  -6 1530.36 602.113   1
 -15   9  -6 2229.30 887.620   1
  -9  15  -6 997.264 729.955   1
 -15   9  -6 613.315 381.841   2
  -6  -9  -6 214.506 766.635   2
   9   6  -6 677.109 672.250   3
   9   6  -3 3422.89 680.049   3
  -9  15  -3 3750.82 834.559   1
 -15   9  -3 3416.81 861.223   1
  -6  -9  -3 2517.40 326.599   3
   9   6  -3 2599.05 611.544   1
 -15   9  -3 2705.72 540.748   2
  15  -6  -3 2394.50 619.945   3
   6 -15  -3 2284.84 611.830   3
 -15   9  -3 2816.32 575.340   3
  -6  -9  -3 3762.42 749.062   4
  -6  -9  -3 2051.20 835.406   2
   6 -15  -3 2596.54 554.093   1
 -15   9  -3 4152.86 634.970   4
   9   6   0 1427.92 272.586   3
  -6  -9   0 2694.44 610.765   1
  15  -6   0 1695.51 611.092   2
  -6  -9   0 1167.68 515.779   4
  15  -6   0 2494.31 555.467   3
 -15   9   0 2259.95 581.605   1
 -15   9   0 2281.40 585.386   3
  -9  15   0 1960.40 562.552   3
 -15   9   0 2485.41 584.795   2
  15  -6   0 2375.61 631.929   4
   6 -15   0 2440.68 589.992   3
   6 -15   0 1499.56 545.790   1
 -15   9   0 1644.40 565.684   4
   9   6   0 2642.35 693.081   4
   6 -15   0 1448.38 535.634   2
   9   6   0 1293.60 608.977   2
  -9  15   0 1595.40 524.448   1
  -6  -9   0 1356.78 578.885   2
  -6  -9   3 2497.95 590.122   2
  -9  15   3 1507.73 350.325   1
  -6  -9   3 2190.83 601.580   4
 -15   9   3 2006.23 666.964   2
 -15   9   3 2969.83 458.546   1
   6 -15   3 2020.69 559.828   4
   9   6   3 2530.07 700.019   4
   6 -15   3 1463.54 283.036   2
  15  -6   3 2312.24 583.857   4
 -15   9   3 3467.72 782.583   4
  15  -6   3 2046.64 643.649   2
   6 -15   6 1575.80 442.839   4
  -6  -9   6 3108.16 773.344   2
  15  -6   6 2234.80 500.484   4
  -6  -9   6 1372.87 529.410   4
  -6  -9   9 308.555 552.186   4
 -15  10  -7 1578.61 533.297   2
 -15  10  -7 2491.34 991.158   1
  10   5  -7 1646.50 899.702   3
  15  -5  -7 2265.37 895.692   3
  -5 -10  -7 1660.81 630.301   3
   5 -15  -7 2668.70 832.454   3
   5 -15  -7 543.675 427.139   1
  -5 -10  -7 1206.20 907.809   2
  -5 -10  -7 1319.57 702.969   4
  10   5  -7 1080.86 530.223   1
 -10  15  -7 1817.31 780.076   1
  15  -5  -4 3280.47 752.597   3
  10   5  -4 3186.67 754.662   3
  10   5  -4 2697.08 590.231   1
   5 -15  -4 2848.90 582.468   1
  -5 -10  -4 1817.05 423.933   3
   5 -15  -4 3054.02 724.447   3
 -10  15  -4 2276.50 749.960   1
 -15  10  -4 1699.10 465.730   2
  -5 -10  -4 2345.66 669.749   4
  -5 -10  -4 2335.16 946.579   2
 -15  10  -4 2817.19 819.007   1
  10   5  -1 7739.67 672.603   3
   5 -15  -1 7522.46 905.417   1
  15  -5  -1 7324.82 773.350   3
 -15  10  -1 4924.52 759.585   3
   5 -15  -1 6853.80 801.624   3
  -5 -10  -1 6276.80 811.479   1
 -15  10  -1 8079.20 842.874   2
   5 -15  -1 5323.66 920.409   2
  -5 -10  -1 5837.25 920.006   4
 -15  10  -1 7052.72 945.785   1
  -5 -10  -1 6592.66 1075.57   2
  10   5  -1 5577.70 976.364   2
  15  -5  -1 5762.17 894.988   2
 -15  10  -1 6866.63 829.273   4
 -10  15  -1 7427.68 900.720   1
 -10  15   2 5075.58 611.488   1
  15  -5   2 3811.28 535.313   3
 -15  10   2 3746.33 769.293   2
   5 -15   2 5333.76 826.743   4
 -15  10   2 3800.51 570.781   1
  -5 -10   2 5924.09 876.190   4
   5 -15   2 4557.80 650.347   2
  15  -5   2 4206.91 861.878   2
  15  -5   2 4206.84 749.846   4
  10   5   2 3850.02 764.927   4
  -5 -10   2 4587.07 765.078   2
 -15  10   2 3582.98 752.909   4
  15  -5   5 1562.05 484.987   4
  -5 -10   5 2659.72 623.554   2
  -5 -10   5 1670.92 580.543   4
  15  -5   5 2939.23 806.960   2
   5 -15   5 2050.45 515.075   4
   5 -15   8 348.208 242.652   4
  -5 -10   8-434.582 506.870   4
 -15  11  -8 163.164 426.092   2
  11   4  -8 132.689 746.342   3
  -4 -11  -8-758.545 1026.29   2
 -15  11  -8 1345.50 867.192   1
  15  -4  -8 801.752 845.838   3
   4 -15  -8 872.386 792.060   3
  -4 -11  -8 2072.59 781.134   3
  11   4  -8 1281.88 607.033   1
 -11  15  -8 1880.44 937.257   1
  -4 -11  -8 1630.76 820.588   4
   4 -15  -8-60.4451 727.822   4
  11   4  -5 14465.6 1504.18   3
  15  -4  -5 13404.9 1442.11   3
  11   4  -5 12785.5 1140.35   1
  -4 -11  -5 13337.7 1052.00   3
   4 -15  -5 12258.7 1250.87   3
   4 -15  -5 10354.9 900.917   1
 -15  11  -5 9783.70 771.502   2
 -15  11  -5 15017.2 1637.50   1
  -4 -11  -5 10933.4 1557.28   2
 -11  15  -5 12640.4 1374.63   1
  -4 -11  -5 12765.8 1255.36   4
  11   4  -2 3056.83 543.682   3
  -4 -11  -2 3614.94 988.477   2
   4 -15  -2 3572.00 654.041   1
  11   4  -2 3327.55 627.390   1
  -4 -11  -2 4379.78 471.967   3
  15  -4  -2 2587.84 570.491   3
  -4 -11  -2 2714.70 723.536   4
 -15  11  -2 2719.04 597.673   3
   4 -15  -2 3316.25 622.695   3
 -15  11  -2 3202.93 566.522   2
 -11  15  -2 3284.95 669.467   1
 -15  11  -2 3651.35 806.900   1
   4 -15  -2 2731.92 857.470   2
 -11  15   1 9555.25 876.139   1
 -15  11   1 8746.28 1030.39   3
 -15  11   1 8988.09 991.046   2
  15  -4   1 8795.09 746.089   3
   4 -15   1 9853.36 977.556   3
   4 -15   1 10036.6 1069.79   4
  11   4   1 8471.06 1055.35   4
  -4 -11   1 8978.72 1037.66   4
   4 -15   1 9416.54 1042.41   2
  15  -4   1 9552.54 1117.57   2
  15  -4   1 7762.81 956.282   4
  -4 -11   1 8873.84 1031.81   2
 -15  11   1 10340.8 938.577   1
 -15  11   4 5761.42 397.835   1
  11   4   4 7818.23 969.036   4
   4 -15   4 6786.79 855.527   4
  15  -4   4 5873.39 1053.19   2
  15  -4   4 8595.36 912.886   4
  -4 -11   4 7597.92 963.292   4
 -15  11   4 6150.50 439.107   1
   4 -15   4 6179.37 525.342   2
 -11  15   4 8035.32 553.093   1
  -4 -11   4 7249.44 888.036   2
  -4 -11   7 4738.69 910.643   2
  15  -4   7 2928.49 563.060   4
   4 -15   7 3940.06 570.717   4
  -4 -11   7 4622.64 841.919   4
  12   3  -9 945.175 628.875   1
  12   3  -9 461.479 872.084   3
  15  -3  -9 1049.90 987.526   3
  -3 -12  -9-939.987 720.061   3
 -15  12  -9 877.088 971.605   1
   3 -15  -9 1063.46 815.294   3
 -12  15  -9 459.343 756.843   1
   3 -15  -9 1108.57 842.839   4
  -3 -12  -9-99.8532 1087.64   2
   3 -15  -9 958.545 527.193   1
  -3 -12  -9 563.040 752.325   4
  -3 -12  -6 358.734 539.578   4
  12   3  -6 1263.90 671.962   3
  15  -3  -6 1787.60 763.229   3
 -15  12  -6 1364.53 361.641   2
   3 -15  -6 2840.72 765.761   3
  -3 -12  -6 2792.66 613.868   3
 -15  12  -6 2107.52 899.462   1
  12   3  -6 1307.55 490.063   1
 -12  15  -6 1740.86 817.968   1
   3 -15  -6 2239.50 793.481   4
   3 -15  -6 1184.32 470.528   1
  -3 -12  -6 1731.11 857.950   2
 -15  12  -3 72.4054 499.118   1
  12   3  -3 226.355 456.411   3
  15  -3  -3 1670.85 598.344   3
 -15  12  -3 846.578 355.817   2
   3 -15  -3 16.3502 665.225   2
   3 -15  -3 766.481 455.045   3
   3 -15  -3 1459.06 504.878   1
 -12  15  -3 1181.30 647.255   1
  -3 -12  -3 822.921 390.090   3
  12   3  -3 881.721 477.147   1
  -3 -12  -3 656.202 583.768   4
  -3 -12  -3 844.864 759.232   2
   3 -15  -3 1267.39 682.818   4
 -15  12   0 1611.61 547.591   1
   3 -15   0 1088.94 552.651   1
  12   3   0 1218.33 272.699   3
   3 -15   0 1753.64 619.431   4
 -15  12   0 902.392 493.213   3
 -12  15   0 800.013 416.980   1
 -15  12   0 1611.83 547.302   2
   3 -15   0 1155.33 548.373   3
  -3 -12   0 787.145 593.618   4
   3 -15   0 1003.11 664.039   2
  15  -3   0 696.271 336.341   3
  -3 -12   0 882.603 615.785   2
   3 -15   3 1620.98 443.230   2
  15  -3   3 1122.16 697.902   2
 -15  12   3 1719.31 379.433   1
 -12  15   3 2197.69 414.695   1
   3 -15   3 1971.48 601.432   4
  12   3   3 895.385 546.445   4
  -3 -12   3 1374.13 604.325   4
  15  -3   3 1647.40 559.446   4
  -3 -12   3 345.136 419.229   2
  -3 -12   6 1566.18 585.778   2
  12   3   6 901.505 562.157   4
  15  -3   6 599.204 444.038   4
   3 -15   6 767.753 464.140   4
  -3 -12   6 1698.14 512.168   4
  -3 -12   9 338.857 523.789   4
  13   2  -7 313.577 754.252   3
  15  -2  -7 423.894 766.061   3
 -15  13  -7 1383.72 953.400   1
 -15  13  -7 713.476 223.816   2
  -2 -13  -7 1675.61 686.398   3
   2 -15  -7 1611.83 755.687   3
   2 -15  -7 1476.26 540.192   1
 -13  15  -7 2162.95 903.655   1
  -2 -13  -7 1398.83 735.490   4
   2 -15  -7 3045.46 882.560   4
   2 -15  -7 503.803 1002.51   2
  13   2  -7 2234.10 604.604   1
  -2 -13  -7 3273.92 1249.42   2
 -15  13  -4 230.811 593.561   1
  13   2  -4 766.829 572.164   3
  15  -2  -4 1179.16 604.477   3
  -2 -13  -4 1323.84 852.331   2
 -13  15  -4-4.73705 492.936   1
   2 -15  -4 139.358 467.128   3
  -2 -13  -4 394.483 375.015   3
 -15  13  -4 466.828 257.621   2
   2 -15  -4 348.903 447.733   1
   2 -15  -4 697.010 656.529   4
  -2 -13  -4 1116.59 668.700   4
   2 -15  -4-554.346 758.490   2
  13   2  -4 455.999 452.949   1
   2 -15  -1-248.124 634.394   2
  13   2  -1 2343.19 456.985   3
 -15  13  -1 1317.83 559.442   1
   2 -15  -1 942.526 500.062   1
  15  -2  -1 2270.72 518.385   3
  -2 -13  -1 2321.15 509.392   3
 -13  15  -1 2200.95 567.990   1
   2 -15  -1 1268.69 547.136   3
 -15  13  -1 130.808 356.182   2
   2 -15  -1 2111.89 651.228   4
  -2 -13  -1 2227.47 683.135   4
  -2 -13  -1 812.687 707.424   2
  -2 -13   2 1978.35 604.280   2
 -15  13   2 2208.69 470.478   1
 -13  15   2 2171.60 468.161   1
   2 -15   2 1671.16 621.836   4
  -2 -13   2 2246.55 651.767   4
  15  -2   2 2023.24 662.611   4
   2 -15   2 1327.86 527.475   2
  -2 -13   5 728.831 441.584   2
   2 -15   5 88.0364 300.583   2
   2 -15   5 135.555 464.720   4
  13   2   5 122.919 563.730   4
  15  -2   5 1099.79 569.016   4
  -2 -13   5 828.002 541.597   4
  -2 -13   8-131.009 500.463   4
   2 -15   8 9.77909 395.423   4
   1 -15  -8 1125.24 1022.19   2
  14   1  -8 1790.09 987.558   3
  15  -1  -8 1468.65 1002.93   3
  -1 -14  -8 1067.21 729.297   3
   1 -15  -8 2980.20 910.614   3
 -15  14  -8 2501.91 1016.79   1
 -14  15  -8 1479.39 892.981   1
  -1 -14  -8 2289.11 852.764   4
   1 -15  -8-178.530 684.813   4
  -1 -14  -8 1.23398 1019.27   2
  14   1  -8 1012.94 575.670   1
  14   1  -5 13141.6 1455.07   3
  15  -1  -5 15590.7 1559.14   3
  -1 -14  -5 9818.07 1026.70   3
   1 -15  -5 11890.3 1169.10   3
   1 -15  -5 10480.1 1566.51   2
   1 -15  -5 11317.3 1331.18   4
  -1 -14  -5 10203.0 1258.25   4
  -1 -14  -5 15026.5 1837.45   2
   1 -15  -5 9459.26 974.554   1
 -15  14  -5 14126.6 1575.40   1
 -14  15  -5 12359.1 1426.20   1
  14   1  -2 5087.04 674.517   3
  15  -1  -2 5070.87 711.436   3
 -15  14  -2 3803.57 533.982   2
  -1 -14  -2 4564.76 640.464   3
   1 -15  -2 3352.39 805.517   4
   1 -15  -2 5220.16 806.000   1
  -1 -14  -2 4033.59 833.888   4
   1 -15  -2 4949.88 1044.16   2
 -15  14  -2 4222.55 844.372   1
 -14  15  -2 4210.16 847.481   1
  -1 -14  -2 2947.07 921.324   2
   1 -15  -2 4028.14 633.310   3
 -15  14   1 8837.25 895.785   1
  15  -1   1 9413.82 655.435   3
 -14  15   1 9612.47 909.424   1
  14   1   1 7783.07 466.400   3
  -1 -14   1 7545.74 1008.05   2
   1 -15   1 8341.80 1024.59   4
  -1 -14   1 9148.42 1098.10   4
   1 -15   1 7743.17 1033.51   2
 -15  14   4 5317.62 408.343   1
 -14  15   4 5282.28 421.950   1
  15  -1   4 4807.78 846.225   4
   1 -15   4 5574.94 879.162   4
  -1 -14   4 5356.41 873.688   4
   1 -15   4 5366.27 721.456   2
  -1 -14   4 6319.69 819.692   2
  -1 -14   7 4326.01 747.322   2
  15  -1   7 4081.84 778.293   4
   1 -15   7 3106.42 700.155   4
  -1 -14   7 4599.92 805.711   4
  15   0  -9 106.304 841.870   3
   0 -15  -9 77.9993 752.635   4
   0 -15  -9 1655.55 842.733   3
 -15  15  -9-2554.94 1142.55   1
   0 -15  -9-2396.96 1489.89   2
  15   0  -6 578.872 673.918   3
 -15  15  -6 911.082 671.090   1
   0 -15  -6 423.227 554.945   3
   0 -15  -6 110.762 638.147   4
   0 -15  -6-312.032 889.235   2
 -15  15  -3 899.747 577.011   1
  15   0  -3 41.4106 446.811   3
   0 -15  -3 50.0805 527.207   4
   0 -15  -3 67.7224 383.757   3
   0 -15  -3 318.825 721.978   2
  15   0   0 2556.07 416.740   3
 -15  15   0 3360.60 691.406   1
   0 -15   0 1500.85 601.184   4
   0 -15   0 2492.78 897.535   2
   0 -15   3 255.702 443.776   2
 -15  15   3-278.071 310.251   1
   0 -15   3 323.035 493.948   4
   0 -15   6 1507.62 634.638   4
   0 -15   6 1651.92 532.017   2
  15   0   6 1496.26 660.550   4
   0 -15   9-880.352 529.755   4
 -16   0  -7-83.4978 476.923   3
 -16   0  -7 69.4066 763.956   2
  16 -16  -7 772.525 890.344   3
   0  16  -7 848.097 710.495   1
 -16   0  -7 7.12140 546.083   4
  16 -16  -4 7599.71 1091.24   3
 -16   0  -4 6588.91 530.729   3
   0  16  -4 8878.93 1105.58   1
   0  16  -4 6223.87 932.842   2
 -16   0  -4 9379.85 1101.02   4
 -16   0  -4 7523.47 1217.50   2
   0  16  -1-148.346 456.055   1
 -16   0  -1 405.422 283.311   3
 -16   0  -1-160.130 526.122   4
  16 -16  -1 767.681 515.922   2
  16 -16  -1 467.338 487.255   3
   0  16  -1-423.378 397.875   3
 -16   0  -1-199.647 545.534   2
   0  16  -1 1531.87 712.462   2
  16 -16  -1 742.642 527.335   1
 -16   0   2 19826.0 1359.42   3
   0  16   2 20744.6 1453.77   1
   0  16   2 18603.1 1380.97   3
  16 -16   2 18422.4 1468.35   3
  16 -16   2 19141.5 1180.84   2
 -16   0   2 21839.4 1732.45   4
 -16   0   2 22018.0 1707.01   2
 -16   0   5 75.2136 552.077   4
 -16   0   5-535.162 645.896   2
  16 -16   5 711.618 451.041   4
 -16   0   8 3659.35 1170.98   2
 -16   0   8 3398.15 948.374   4
 -16   1  -8 445.327 680.339   3
 -15  -1  -8 933.899 580.303   3
  16 -15  -8 918.411 859.058   3
  15 -16  -8 732.641 746.828   3
 -16   1  -8 565.827 827.244   2
  -1  16  -8 476.472 768.097   1
 -15  -1  -8-212.690 825.858   2
   1  15  -8 473.745 721.607   1
 -15  -1  -8-1192.14 851.768   1
 -16   1  -8-217.228 710.523   1
 -15  -1  -8 514.064 611.661   4
 -16   1  -8 545.111 569.615   4
 -15  -1  -5 895.079 376.974   3
  16 -15  -5 1071.36 681.464   3
  15 -16  -5 604.789 653.675   3
   1  15  -5 58.0319 552.346   2
 -16   1  -5-391.138 319.205   3
  -1  16  -5 72.0547 587.112   1
 -15  -1  -5 270.432 301.453   3
   1  15  -5-379.071 598.826   1
  -1  16  -5 122.161 541.208   2
 -15  -1  -5-876.484 619.963   4
 -16   1  -5-534.139 543.414   4
 -15  -1  -5 1182.30 795.051   2
 -16   1  -5 1009.80 768.152   2
   1  15  -2 1387.69 579.084   1
 -15  -1  -2 731.556 626.049   2
 -16   1  -2 398.936 566.663   2
 -15  -1  -2 152.797 125.313   3
   1  15  -2 809.197 625.802   2
 -16   1  -2 297.418 294.905   3
  16 -15  -2 717.629 538.532   3
  15 -16  -2 813.787 590.209   3
   1  15  -2 206.117 448.702   3
  -1  16  -2 319.043 575.229   2
 -16   1  -2 1349.33 661.023   4
  -1  16  -2 1146.69 645.363   1
  15 -16  -2 117.677 400.849   1
 -15  -1  -2 108.870 524.214   4
   1  15   1 129.413 472.492   1
 -15  -1   1 431.243 381.402   3
 -16   1   1 705.367 422.456   3
 -15  -1   1 1080.25 608.636   2
  16 -15   1 2159.12 561.198   2
 -16   1   1 1376.27 697.182   2
  15 -16   1 2151.81 495.566   2
   1  15   1 461.611 438.105   3
  -1  16   1 1075.83 512.058   3
  16 -15   1 1675.52 612.824   3
  15 -16   1 338.791 516.236   3
  -1  16   1 1125.55 537.510   1
 -15  -1   1 658.333 531.327   4
 -16   1   1 996.314 609.450   4
   1  15   4 394.262 513.175   3
  -1  16   4-14.4916 510.092   3
 -16   1   4-163.825 589.097   4
 -16   1   4-200.832 448.886   1
 -15  -1   4-234.639 642.385   2
 -16   1   4 138.004 532.590   2
  16 -15   4-20.2332 266.899   2
 -15  -1   4-641.388 667.763   4
  16 -15   4 119.421 396.206   4
  15 -16   4 33.4131 402.671   4
 -15  -1   7 108.631 689.510   4
  15 -16   7 374.432 173.702   4
 -15  -1   7-688.214 879.089   2
 -16   1   7 383.680 680.084   2
  16 -15   7 100.210 144.072   4
 -16   1   7-486.303 642.315   4
   2  14  -9 177.793 1058.13   3
 -14  -2  -9 366.797 652.483   3
  16 -14  -9 1680.37 982.153   3
 -16   2  -9 544.322 724.341   3
  14 -16  -9 289.815 861.866   3
  -2  16  -9 705.276 821.436   1
 -14  -2  -9 2107.92 1110.83   2
   2  14  -9-20.3706 751.381   1
 -14  -2  -9 1783.65 964.276   1
 -14  -2  -9 880.956 611.985   4
 -16   2  -9 806.655 892.494   1
 -16   2  -9 1420.96 831.991   2
 -14  -2  -6 302.843 403.877   3
  16 -14  -6 1766.47 771.192   3
  -2  16  -6 1222.44 761.494   1
  14 -16  -6-847.104 627.635   3
   2  14  -6 1421.08 718.849   2
 -16   2  -6 156.750 420.913   3
 -14  -2  -6 768.803 371.778   3
   2  14  -6-275.649 563.323   1
  -2  16  -6 757.578 501.795   2
 -14  -2  -6 1402.35 666.819   4
 -16   2  -6 1478.40 586.271   4
 -14  -2  -6-99.7574 709.447   2
 -16   2  -6 760.499 625.383   2
 -14  -2  -3 1034.12 759.323   2
 -16   2  -3 1146.87 670.511   2
  16 -14  -3 1204.02 614.375   3
 -16   2  -3 328.932 287.862   3
  14 -16  -3 1359.32 551.695   3
  -2  16  -3 2117.56 732.619   1
  -2  16  -3 266.599 498.542   2
  14 -16  -3 121.585 347.177   1
   2  14  -3 1359.47 717.224   2
 -14  -2  -3 967.693 539.643   4
 -16   2  -3 903.759 545.755   4
   2  14  -3 1533.23 631.846   1
  -2  16   0 1318.91 558.137   1
 -14  -2   0 1843.65 639.649   2
   2  14   0 1738.42 591.778   1
 -16   2   0 2325.48 478.046   3
 -16   2   0 1789.64 628.337   2
  16 -14   0 1957.23 575.100   2
  -2  16   0 620.799 441.395   3
  14 -16   0 909.639 423.240   2
   2  14   0 1730.02 454.415   3
  16 -14   0 1405.58 530.447   3
  14 -16   0 1535.84 587.348   3
   2  14   0 1047.11 714.051   2
 -14  -2   0 1663.81 656.818   4
  14 -16   0 2377.34 645.092   1
 -16   2   0 2065.00 672.458   4
  14 -16   3 1481.75 331.284   2
  -2  16   3 1659.42 536.102   1
   2  14   3 1509.09 523.279   3
  -2  16   3 1008.47 507.369   3
  16 -14   3 1330.73 519.293   4
 -14  -2   3 2226.16 729.693   2
 -16   2   3 1677.77 651.453   2
 -16   2   3 1043.29 485.308   1
  14 -16   3 1088.74 475.549   4
 -14  -2   3 1905.44 726.245   4
 -16   2   3 1029.32 569.701   4
  16 -14   3 1631.74 511.815   2
 -16   2   6 1414.67 597.134   1
 -16   2   6 1332.57 783.834   4
 -14  -2   6 2335.53 814.444   2
 -16   2   6 57.6445 656.333   2
  14 -16   6 1519.33 469.011   4
  16 -14   6 1246.61 392.638   4
  14 -16   6 881.782 334.360   4
 -14  -2   6 2120.33 758.443   4
 -16   2   9 642.733 707.610   4
 -14  -2   9 1277.18 845.920   4
 -13  -3  -7 280.475 439.597   3
  -3  16  -7 214.264 661.696   1
  13 -16  -7 970.140 840.378   3
   3  13  -7-763.413 615.209   1
  -3  16  -7 601.702 406.912   2
 -16   3  -7 1401.87 1039.38   1
 -13  -3  -7 762.796 631.088   4
  16 -13  -7-133.110 728.609   3
 -13  -3  -7 155.109 836.506   2
 -16   3  -7 755.407 523.534   4
 -16   3  -7 545.864 683.993   2
 -16   3  -4 15708.2 1240.18   4
   3  13  -4 13240.7 1331.72   2
  16 -13  -4 15102.6 1451.55   3
  13 -16  -4 16711.6 1488.93   3
 -16   3  -4 14401.5 915.477   3
 -13  -3  -4 14992.3 1625.89   2
  -3  16  -4 18380.4 1560.68   1
 -16   3  -4 13130.3 1394.51   2
  13 -16  -4 13776.5 793.370   1
  -3  16  -4 11975.0 929.737   2
   3  13  -4 14720.1 1338.67   1
 -13  -3  -4 15161.1 1360.72   4
 -13  -3  -1 259.319 583.685   2
 -13  -3  -1 891.926 493.001   4
 -16   3  -1 632.915 628.316   2
 -16   3  -1 653.310 370.783   3
  16 -13  -1 1063.64 596.079   2
  16 -13  -1 403.089 435.846   3
  13 -16  -1 856.697 571.345   3
  -3  16  -1 386.499 387.645   3
   3  13  -1 370.911 451.417   1
   3  13  -1 82.5097 324.236   3
  13 -16  -1 241.593 400.966   2
  -3  16  -1 67.5302 445.259   1
   3  13  -1 1764.91 757.660   2
 -16   3  -1 1128.86 561.740   4
  13 -16  -1-365.327 454.990   1
 -16   3   2 11928.7 1148.40   3
 -16   3   2 12089.3 1255.56   2
   3  13   2 10516.7 833.934   3
  -3  16   2 10621.7 1083.75   3
 -16   3   2 10417.5 936.725   1
  16 -13   2 8641.05 1006.27   3
  13 -16   2 7105.45 957.060   3
 -13  -3   2 10655.1 1204.01   2
   3  13   2 12570.0 1140.85   1
 -16   3   2 10982.9 1222.56   4
  16 -13   2 11451.1 974.149   2
  16 -13   2 10978.8 1055.31   4
 -13  -3   2 11681.2 1271.97   4
  13 -16   2 10710.5 730.114   2
  -3  16   2 9508.43 925.747   1
   3  13   5 863.167 525.693   3
 -13  -3   5 699.670 623.729   2
 -16   3   5 467.481 457.078   1
 -16   3   5 1218.53 666.347   2
  16 -13   5 739.003 405.750   4
 -13  -3   5 787.244 628.129   4
 -16   3   5 47.1797 572.669   4
  13 -16   5 984.077 428.009   4
 -13  -3   8 10915.3 1563.09   2
 -13  -3   8 10035.3 1271.65   4
 -16   3   8 11527.5 1550.61   4
   4  12  -8 2101.45 1094.72   3
 -12  -4  -8 830.140 563.130   3
  16 -12  -8 644.251 791.603   3
  12 -16  -8 296.430 792.436   3
  -4  16  -8 799.678 742.790   1
   4  12  -8-816.617 713.060   1
 -16   4  -8 248.955 441.739   4
 -12  -4  -8-116.174 559.777   4
 -12  -4  -8 3159.08 1192.34   2
 -16   4  -8 1356.85 860.251   1
 -16   4  -8 116.005 711.841   2
 -16   4  -5 553.370 543.373   2
  -4  16  -5 66.8337 590.594   1
 -12  -4  -5-14.0290 282.888   3
 -12  -4  -5-436.468 565.672   4
  12 -16  -5 903.546 654.915   3
 -16   4  -5 696.201 399.875   3
 -12  -4  -5-229.895 678.085   2
   4  12  -5-1.09341 516.894   1
 -16   4  -5 10.3546 428.489   4
  16 -12  -5-1085.60 640.507   3
  -4  16  -5 187.094 286.889   2
 -12  -4  -2 1834.39 702.349   2
 -16   4  -2 1434.95 567.589   2
   4  12  -2 1307.07 543.157   1
 -16   4  -2 1038.79 397.597   3
  16 -12  -2 1010.29 522.256   3
  -4  16  -2 1718.78 611.167   1
  12 -16  -2 459.652 468.014   3
  12 -16  -2 935.059 469.343   1
   4  12  -2 1516.74 703.721   2
   4  12  -2 2063.23 499.369   3
 -12  -4  -2 1387.19 570.526   4
 -16   4  -2 1928.60 570.225   4
  -4  16   1 774.696 507.228   1
   4  12   1 1174.11 509.486   1
 -12  -4   1 163.506 475.530   2
 -16   4   1 1640.90 507.675   3
   4  12   1 580.643 327.246   3
  -4  16   1 126.907 481.203   3
  12 -16   1 1375.83 392.998   2
  16 -12   1 293.158 451.348   3
  12 -16   1-451.218 537.877   3
 -12  -4   1 1686.01 639.665   4
 -16   4   1 351.737 455.304   4
  16 -12   1 1164.17 522.761   4
 -16   4   1 352.483 557.349   2
  16 -12   1 514.026 432.844   2
 -16   4   4 1537.96 450.348   1
   4  12   4 667.998 383.472   3
 -12  -4   4 470.669 550.073   2
 -16   4   4 354.250 603.064   2
  16 -12   4 1387.29 495.071   2
  -4  16   4 1025.47 470.981   1
  16 -12   4 1409.19 479.227   4
 -12  -4   4 1997.10 683.694   4
 -16   4   4 1227.71 610.006   4
 -16   4   7 1608.68 489.833   1
 -12  -4   7 3567.73 978.106   2
 -12  -4   7 2188.08 754.955   4
 -16   4   7 2735.37 834.045   4
  -5  16  -9-347.602 724.201   1
 -16   5  -9 115.458 669.950   3
   5  11  -9 129.147 978.905   3
 -11  -5  -9 2310.53 779.652   3
  16 -11  -9-1.01287 811.506   3
  11 -16  -9 994.905 791.312   3
 -11  -5  -9 174.759 670.177   1
 -11  -5  -9-26.6296 614.459   4
 -11  -5  -9 287.232 961.333   2
   5  11  -9-183.976 664.650   1
 -16   5  -9 1026.56 863.915   2
 -16   5  -9 608.352 863.682   1
 -16   5  -6 2873.89 817.999   2
  -5  16  -6 4239.41 867.313   1
 -11  -5  -6 3852.42 609.899   3
   5  11  -6 3507.53 842.866   1
  16 -11  -6 3907.06 972.056   3
  11 -16  -6 3681.54 911.856   3
 -16   5  -6 4922.05 1257.03   1
 -11  -5  -6 4301.15 859.095   4
 -16   5  -6 4584.18 698.448   4
 -11  -5  -6 4782.08 1007.94   2
 -16   5  -3 370.237 479.644   2
  11 -16  -3 122.225 336.258   1
   5  11  -3 205.964 455.299   1
  16 -11  -3 894.494 528.324   3
  11 -16  -3 490.223 495.662   3
   5  11  -3 238.118 542.659   2
 -16   5  -3-317.486 369.875   3
  -5  16  -3-15.2312 466.323   1
 -11  -5  -3-747.945 709.240   2
 -11  -5  -3 760.481 589.896   4
 -16   5  -3-97.4110 385.301   4
 -16   5   0 4088.28 692.690   3
   5  11   0 5669.25 811.966   1
  11 -16   0 5891.86 751.877   2
  -5  16   0 3154.97 633.397   3
  16 -11   0 4721.22 700.753   3
   5  11   0 4298.60 475.884   3
  11 -16   0 4428.28 744.885   3
  11 -16   0 4579.47 752.859   1
  -5  16   0 4512.89 708.228   1
   5  11   0 5850.29 1070.79   2
 -11  -5   0 3535.86 822.115   4
 -11  -5   0 4991.88 875.330   2
 -16   5   0 6272.77 860.708   4
  16 -11   0 5464.69 842.648   2
 -16   5   0 4565.63 827.130   2
   5  11   3 642.943 296.263   3
  -5  16   3-113.616 580.440   3
 -11  -5   3 854.267 541.792   2
 -16   5   3 790.862 390.837   1
 -16   5   3-260.668 562.316   2
  16 -11   3 347.630 477.904   2
 -11  -5   3 1470.00 684.447   4
  16 -11   3 1583.63 542.040   4
 -16   5   3 684.357 478.253   4
  -5  16   3 1233.03 447.627   1
 -11  -5   6-11.0727 617.089   2
  11 -16   6 119.207 300.459   4
 -16   5   6 639.172 640.811   2
  11 -16   6-229.521 342.841   4
  16 -11   6 510.648 331.119   4
 -16   5   6 275.579 413.239   1
 -11  -5   6 812.084 557.383   4
 -16   5   6 374.864 673.269   4
 -11  -5   9 1204.32 750.451   4
  -6  16  -7 1031.72 740.652   1
 -10  -6  -7 229.587 563.098   4
   6  10  -7 241.137 740.259   3
 -10  -6  -7 381.406 493.960   3
  16 -10  -7 1145.52 734.132   3
  10 -16  -7 1012.06 732.319   3
   6  10  -7 1448.93 670.259   1
 -10  -6  -7-871.474 771.497   2
 -16   6  -7 1098.40 443.024   4
 -16   6  -7 1598.38 915.588   1
 -16   6  -7 1222.12 657.554   2
  -6  16  -4 11733.8 1278.94   1
  16 -10  -4 12286.7 1271.96   3
 -10  -6  -4 8213.48 462.403   3
 -16   6  -4 13017.8 1085.89   4
  10 -16  -4 11849.8 1255.28   3
 -16   6  -4 12161.9 992.523   3
   6  10  -4 11680.7 1191.95   1
 -16   6  -4 16416.7 1838.86   1
 -10  -6  -4 11087.5 1187.27   4
 -10  -6  -4 10578.3 1447.48   2
   6  10  -4 9175.56 1198.89   2
  10 -16  -4 9810.34 730.775   1
 -16   6  -4 9784.62 1074.78   2
 -10  -6  -1 1676.34 696.987   2
   6  10  -1 3268.07 701.399   1
 -16   6  -1 3505.14 617.266   3
  -6  16  -1 2888.64 652.836   1
 -16   6  -1 3356.78 726.344   2
  10 -16  -1 3272.42 617.548   1
  16 -10  -1 2030.35 679.150   2
   6  10  -1 2987.03 470.989   3
  16 -10  -1 1910.08 505.475   3
  10 -16  -1 3365.60 635.996   3
 -10  -6  -1 2735.54 703.588   4
 -16   6  -1 4357.17 724.289   4
   6  10  -1 3695.23 842.185   2
 -16   6   2 14806.0 1323.58   2
 -16   6   2 12691.8 1194.93   3
   6  10   2 9862.85 549.505   3
  10 -16   2 13919.0 731.286   2
  -6  16   2 12305.6 1190.75   3
  16 -10   2 16045.7 1233.88   3
  10 -16   2 13301.3 1213.60   3
  10 -16   2 16350.2 970.867   2
  16 -10   2 13583.7 1164.70   2
 -10  -6   2 17091.7 1419.66   4
  -6  16   2 14395.6 1004.66   1
  16 -10   2 14077.5 1162.60   4
 -10  -6   2 13000.4 1245.59   2
 -16   6   2 14170.8 1295.84   4
  16 -10   5 371.009 351.463   4
 -10  -6   5 855.946 535.586   2
 -16   6   5-20.2299 352.483   1
 -16   6   5 445.377 604.108   2
  10 -16   5 233.707 401.461   4
  16 -10   5 312.374 516.910   2
 -10  -6   5 698.800 549.937   4
 -16   6   5 774.112 646.738   4
 -10  -6   8 3892.68 861.468   4
 -10  -6   8 5373.45 1139.22   2
 -16   7  -8 1906.13 998.960   1
   7   9  -8 692.720 652.643   1
   7   9  -8-117.311 834.120   3
  -9  -7  -8 483.534 867.087   2
  -9  -7  -8 1157.83 626.179   3
  16  -9  -8 1403.70 799.465   3
   9 -16  -8 1533.33 801.390   3
  -9  -7  -8 1179.72 663.573   4
  -7  16  -8 1430.42 902.410   1
 -16   7  -8 632.291 666.439   2
   7   9  -5 2420.07 803.658   3
 -16   7  -5 2523.98 694.151   2
  -9  -7  -5 2744.05 454.164   3
   7   9  -5 1421.11 617.436   1
   9 -16  -5 976.635 602.566   3
   9 -16  -5 2025.24 395.491   1
  16  -9  -5 1256.52 700.034   3
  -9  -7  -5 2082.64 844.921   2
 -16   7  -5 3261.63 1003.56   1
  -9  -7  -5 2416.44 703.120   4
  -7  16  -5 1659.41 814.745   1
 -16   7  -5 3045.42 586.634   4
   7   9  -2 4922.93 788.355   1
  -7  16  -2 5060.50 869.848   1
  16  -9  -2 4957.74 797.089   3
  -9  -7  -2 5540.46 1081.75   2
 -16   7  -2 4565.21 658.215   3
   9 -16  -2 5131.76 805.840   3
 -16   7  -2 4725.95 734.136   4
  -9  -7  -2 4693.12 836.196   4
   7   9  -2 4974.09 968.679   2
 -16   7  -2 5344.14 817.189   2
   9 -16  -2 4924.15 694.145   1
 -16   7   1 3712.98 695.272   3
  -9  -7   1 2107.11 663.464   2
   7   9   1 2653.16 294.176   3
 -16   7   1 4800.40 823.846   2
  -7  16   1 2263.72 646.177   3
   9 -16   1 4020.78 770.992   1
  16  -9   1 3508.29 642.008   3
  16  -9   1 3766.97 719.416   2
  -7  16   1 2657.82 553.218   1
   9 -16   1 3097.37 708.131   3
  -9  -7   1 4375.05 809.375   4
 -16   7   1 3753.36 771.476   4
  16  -9   1 3832.79 714.940   4
 -16   7   4 7420.00 1115.26   2
  -7  16   4 8748.94 787.051   1
   9 -16   4 8187.07 914.677   4
  16  -9   4 6292.13 751.613   4
  -9  -7   4 7791.71 1027.05   4
 -16   7   4 7015.34 612.741   1
 -16   7   4 9410.94 1165.09   4
  -9  -7   4 6734.43 959.153   2
  -9  -7   7 1060.77 662.911   2
  16  -9   7 276.108 223.949   4
   9 -16   7-196.001 254.054   4
  -9  -7   7 763.175 536.188   4
   9 -16   7 137.503 246.893   4
   8   8  -9-95.1462 986.196   3
   8   8  -9 243.470 612.956   1
  -8  -8  -9 1016.90 744.832   4
  -8  -8  -9 1285.65 651.110   3
  16  -8  -9-1075.59 911.520   3
   8 -16  -9-450.628 772.709   3
  -8  16  -9-1122.26 836.912   1
  -8  -8  -9-1368.29 1227.63   2
 -16   8  -9 1259.25 972.849   1
 -16   8  -9 221.196 640.465   2
 -16   8  -6 2495.68 668.059   2
   8   8  -6 2228.39 918.254   3
  -8  -8  -6 4238.91 651.068   3
   8   8  -6 3303.40 811.293   1
  16  -8  -6 2614.67 870.972   3
   8 -16  -6 1851.20 726.313   3
  -8  -8  -6 3029.14 819.024   4
   8 -16  -6 1980.17 404.531   1
  -8  -8  -6 599.164 806.361   2
  -8  16  -6 2917.06 852.100   1
 -16   8  -6 4323.79 1104.04   1
 -16   8  -6 2637.47 532.510   4
   8   8  -3-172.635 404.443   3
 -16   8  -3-174.686 454.781   2
  16  -8  -3-99.0648 468.446   3
   8   8  -3-28.5516 435.977   1
   8 -16  -3-627.459 426.367   3
 -16   8  -3 205.126 378.266   3
  -8  16  -3 247.074 475.090   1
   8 -16  -3 692.228 403.589   1
  -8  -8  -3 420.832 456.522   4
 -16   8  -3 118.920 639.518   1
  -8  -8  -3 437.505 691.639   2
 -16   8  -3 740.143 427.473   4
  -8  -8   0 524.639 544.709   2
  -8  16   0 186.355 431.605   1
  16  -8   0 428.073 459.051   2
 -16   8   0 175.791 451.409   3
 -16   8   0-1112.71 555.571   2
   8 -16   0 602.692 457.400   1
   8   8   0-711.490 485.708   1
  16  -8   0-34.7232 368.945   3
   8 -16   0 870.182 511.430   3
   8   8   0 75.6768 180.719   3
  -8  -8   0 330.313 500.070   4
  16  -8   0 1121.38 552.293   4
 -16   8   0 316.531 467.226   4
   8 -16   3 619.081 188.027   2
  16  -8   3-73.9723 499.829   2
  -8  16   3-69.1672 309.876   1
   8 -16   3 129.903 451.361   4
  -8  -8   3-593.291 518.260   2
 -16   8   3-221.470 498.561   2
  -8  -8   3 1138.61 564.284   4
  16  -8   3 532.572 482.287   4
 -16   8   3 402.205 548.271   4
  -8  -8   6 2872.15 764.501   2
  16  -8   6 2922.01 535.791   4
   8 -16   6 3014.89 555.489   4
  -8  -8   6 1661.58 676.998   4
  -8  -8   9 639.472 614.154   4
 -16   9  -7-583.466 529.458   2
   9   7  -7-169.780 692.960   3
  16  -7  -7 785.570 802.147   3
  -7  -9  -7 1259.07 551.556   3
   7 -16  -7 446.561 642.546   3
   9   7  -7 121.564 552.962   1
 -16   9  -7 1764.96 928.539   1
  -9  16  -7 819.054 730.441   1
  -7  -9  -7 719.962 678.154   4
  -7  -9  -7 1619.10 994.703   2
   7 -16  -7 226.240 330.418   1
   9   7  -4 7446.96 1022.21   3
   7 -16  -4 7138.25 774.355   1
  16  -7  -4 8748.80 1095.45   3
  -7  -9  -4 6817.83 539.187   3
   7 -16  -4 6449.88 930.489   3
  -7  -9  -4 5447.42 906.145   4
  -7  -9  -4 7657.62 1286.83   2
 -16   9  -4 9468.06 1359.01   1
  -9  16  -4 6221.09 1049.81   1
 -16   9  -4 5874.08 789.597   2
 -16   9  -4 7444.28 815.446   4
   9   7  -4 8353.10 1000.06   1
   9   7  -1 3342.47 498.936   3
  -7  -9  -1 2695.51 671.058   4
   9   7  -1 3480.11 715.509   1
 -16   9  -1 2526.17 576.955   3
  16  -7  -1 3061.70 583.211   3
   7 -16  -1 2665.13 629.580   3
  -7  -9  -1 3430.09 868.268   2
 -16   9  -1 3117.37 655.203   2
 -16   9  -1 4047.05 846.321   1
 -16   9  -1 4092.04 736.142   4
  -9  16  -1 2681.08 623.529   1
   7 -16  -1 3387.29 698.108   1
 -16   9   2 6327.39 964.840   2
  16  -7   2 5191.25 681.919   3
  -9  16   2 5131.73 661.698   1
   7 -16   2 5116.73 823.300   4
   7 -16   2 5216.35 691.549   2
  -7  -9   2 5454.08 882.145   4
  16  -7   2 5324.65 816.387   4
  -7  -9   2 4895.05 805.700   2
  16  -7   2 6442.31 937.278   2
 -16   9   2 6307.74 942.141   4
 -16   9   5 2367.81 834.642   4
  -7  -9   5 2817.18 770.318   2
  -7  -9   5 1804.86 643.971   4
 -16   9   5 1354.81 267.102   1
  16  -7   5 2123.65 791.128   2
   7 -16   5 2254.89 587.459   4
  16  -7   5 1991.15 526.297   4
 -16   9   5 1055.37 235.849   1
  -7  -9   8 507.445 563.711   4
  16  -6  -8 6187.35 1371.52   3
  -6 -10  -8 6324.68 1018.37   3
  10   6  -8 6013.29 1294.66   3
  10   6  -8 5773.29 981.824   1
   6 -16  -8 5363.54 1112.98   3
  -6 -10  -8 4184.43 954.964   4
 -16  10  -8 4957.60 805.873   2
  -6 -10  -8 8722.40 1606.72   2
 -16  10  -8 7755.09 1497.63   1
 -10  16  -8 6690.36 1246.48   1
   6 -16  -5 287.350 426.533   1
  10   6  -5 389.816 613.831   3
 -16  10  -5 580.524 406.095   2
  16  -6  -5 309.006 573.139   3
   6 -16  -5 70.1467 554.140   3
 -10  16  -5 962.883 697.239   1
  -6 -10  -5 749.082 370.547   3
  -6 -10  -5 523.157 594.772   4
  -6 -10  -5 1800.46 983.075   2
  10   6  -5-230.975 498.963   1
 -16  10  -5 2361.62 890.378   1
  10   6  -2 16798.2 1134.44   3
   6 -16  -2 14526.4 1151.37   1
  16  -6  -2 14330.3 1155.70   3
 -16  10  -2 11185.5 1015.27   3
   6 -16  -2 16324.1 1265.31   3
  10   6  -2 15380.0 1272.70   1
 -16  10  -2 14849.1 1092.76   2
  -6 -10  -2 13807.6 1273.66   4
 -16  10  -2 16785.8 1550.08   1
  -6 -10  -2 12724.6 1546.28   2
 -16  10  -2 18635.1 1266.26   4
 -10  16  -2 15942.5 1364.60   1
  16  -6   1 3572.37 774.071   2
  -6 -10   1 1845.88 600.569   2
 -16  10   1 3850.95 733.592   2
  16  -6   1 2303.00 674.381   4
 -10  16   1 3319.11 621.500   1
 -16  10   1 2302.65 589.362   1
   6 -16   1 3740.20 692.256   2
  16  -6   1 2859.22 574.929   3
   6 -16   1 2487.94 660.032   3
   6 -16   1 3646.87 754.063   4
  -6 -10   1 3359.73 724.541   4
 -16  10   1 3834.69 741.744   4
 -16  10   1 3302.46 732.950   3
 -16  10   4 10069.2 597.969   1
   6 -16   4 11172.7 1064.21   4
  16  -6   4 9053.82 1181.69   2
 -16  10   4 11272.6 713.462   1
  16  -6   4 13051.4 1097.17   4
  -6 -10   4 12824.1 1243.29   4
  -6 -10   4 12670.5 1254.42   2
 -10  16   4 13027.3 808.602   1
  -6 -10   7 553.064 569.324   2
  16  -6   7 471.752 396.694   4
  -6 -10   7-154.733 516.370   4
   6 -16   7 526.794 376.790   4
 -16  11  -9 830.732 554.503   2
  -5 -11  -9 1211.89 777.762   4
  11   5  -9 296.685 826.772   3
 -16  11  -9 91.3731 816.912   1
  16  -5  -9-971.321 931.953   3
  11   5  -9 997.221 629.295   1
  -5 -11  -9 811.835 702.534   3
   5 -16  -9 392.670 812.761   3
 -11  16  -9-433.875 813.290   1
  -5 -11  -9 997.370 1174.54   2
   5 -16  -9-402.070 737.588   4
  -5 -11  -6-666.301 789.030   2
  -5 -11  -6 755.483 556.725   4
 -16  11  -6-197.970 779.505   1
  11   5  -6 1696.77 849.566   3
 -16  11  -6 799.025 419.302   2
  16  -5  -6 300.749 653.679   3
  -5 -11  -6 716.288 464.185   3
   5 -16  -6 477.839 452.215   1
 -11  16  -6 1659.15 697.597   1
   5 -16  -6 1737.80 703.861   3
  11   5  -6 1368.17 586.476   1
   5 -16  -3 1158.94 489.966   1
  11   5  -3 1487.68 519.513   3
  16  -5  -3 1653.34 599.166   3
  11   5  -3 1499.01 552.031   1
 -16  11  -3 875.633 428.935   2
   5 -16  -3 589.696 477.766   3
  -5 -11  -3 1445.08 359.266   3
 -11  16  -3 853.468 548.587   1
  -5 -11  -3 899.477 537.699   4
  -5 -11  -3 1018.34 658.476   2
 -16  11  -3-440.864 599.576   1
  11   5   0 3906.68 350.709   3
 -16  11   0 4364.91 699.807   2
 -16  11   0 3759.77 754.648   3
  16  -5   0 4479.68 607.575   3
 -11  16   0 4974.03 765.019   1
   5 -16   0 4402.28 761.098   3
   5 -16   0 4517.24 855.597   4
   5 -16   0 4306.19 851.549   2
 -16  11   0 4456.33 743.522   1
  -5 -11   0 4012.13 862.062   2
  -5 -11   0 2819.83 722.427   4
 -16  11   0 4066.72 758.554   4
   5 -16   0 5174.52 837.901   1
   5 -16   3 718.358 372.505   2
  -5 -11   3 375.567 497.213   2
   5 -16   3 581.396 449.580   4
 -11  16   3 235.074 293.077   1
 -16  11   3 717.557 587.829   2
  16  -5   3 278.226 452.924   4
  16  -5   3 222.222 584.044   2
 -16  11   3 578.270 342.882   1
  -5 -11   3-249.013 452.124   4
  -5 -11   6 4189.83 781.078   2
  16  -5   6 2991.31 626.725   4
  -5 -11   6 4745.85 842.818   4
   5 -16   6 2758.32 584.814   4
  -5 -11   9 629.541 605.930   4
  12   4  -7 2173.12 633.544   1
  12   4  -7 2456.92 987.313   3
  -4 -12  -7 1312.55 693.887   4
 -16  12  -7 1030.08 349.854   2
  16  -4  -7 3031.68 1064.25   3
  -4 -12  -7 3266.44 781.270   3
   4 -16  -7 4458.54 1010.58   3
   4 -16  -7 2290.25 901.003   4
   4 -16  -7 1642.56 542.184   1
 -12  16  -7 3108.49 1016.42   1
 -16  12  -7 4853.83 1324.62   1
  -4 -12  -7 2210.34 1219.77   2
 -16  12  -4 2135.06 823.485   1
  12   4  -4 783.250 491.167   3
  16  -4  -4 1596.68 603.842   3
  12   4  -4 2110.57 557.822   1
 -16  12  -4 1304.49 377.953   2
   4 -16  -4 630.721 470.532   1
   4 -16  -4 420.683 476.796   3
  -4 -12  -4 1589.69 444.923   3
 -12  16  -4 1376.26 608.372   1
  -4 -12  -4 1712.86 624.715   4
  -4 -12  -4 190.220 748.483   2
   4 -16  -1 588.493 547.003   4
  12   4  -1 696.758 324.110   3
  16  -4  -1 611.886 426.994   3
 -16  12  -1 358.400 379.409   2
   4 -16  -1 1439.95 582.353   3
 -12  16  -1 1490.77 600.840   1
   4 -16  -1 1102.80 682.180   2
  -4 -12  -1 780.769 585.296   4
 -16  12  -1 1063.45 562.331   1
  -4 -12  -1 1228.31 725.833   2
   4 -16  -1 433.286 439.094   1
 -12  16   2 2072.24 488.005   1
  -4 -12   2 1868.46 621.014   2
 -16  12   2 1937.44 494.078   1
   4 -16   2 1250.65 508.018   2
  16  -4   2 1816.23 405.706   3
 -16  12   2 2790.92 746.042   2
   4 -16   2 2810.31 663.197   4
  -4 -12   2 2144.97 678.655   4
  16  -4   2 1764.00 627.850   4
  -4 -12   5-59.4131 495.795   2
   4 -16   5 347.212 223.475   2
   4 -16   5-333.015 459.958   4
  16  -4   5-362.173 462.950   4
  -4 -12   5-278.493 472.505   4
   4 -16   8 100.196 347.189   4
  -4 -12   8 982.713 525.731   4
  13   3  -8 10032.7 1574.71   3
  16  -3  -8 11245.4 1717.99   3
   3 -16  -8 10770.1 1464.56   3
  -3 -13  -8 11613.0 1318.02   3
  13   3  -8 8663.27 1071.85   1
   3 -16  -8 11672.7 2049.08   2
   3 -16  -8 12597.1 1555.37   4
  -3 -13  -8 9165.41 1816.81   2
  -3 -13  -8 9885.18 1333.65   4
 -16  13  -8 14256.7 1828.72   1
 -13  16  -8 11033.9 1629.99   1
 -16  13  -5 865.105 800.853   1
  13   3  -5 1237.99 700.938   3
  16  -3  -5-343.360 565.837   3
 -16  13  -5 869.409 309.473   2
  -3 -13  -5 1548.70 502.560   3
   3 -16  -5 630.342 544.905   3
 -13  16  -5 2025.17 703.296   1
  13   3  -5 2366.62 636.948   1
   3 -16  -5 203.358 469.221   1
   3 -16  -5 1760.10 1019.85   2
   3 -16  -5 708.008 690.762   4
  -3 -13  -5-13.8018 777.131   2
  -3 -13  -5 663.505 652.835   4
  13   3  -2 10922.7 947.290   3
 -16  13  -2 9675.42 833.027   2
  16  -3  -2 10861.8 1042.76   3
   3 -16  -2 9736.77 1010.59   1
   3 -16  -2 10288.4 1012.19   3
  -3 -13  -2 10645.0 782.732   3
   3 -16  -2 9999.32 1160.99   4
   3 -16  -2 9881.02 1362.81   2
  -3 -13  -2 10605.4 1429.16   2
 -16  13  -2 11036.4 1230.23   1
 -13  16  -2 12411.5 1258.13   1
  -3 -13  -2 9935.42 1180.70   4
 -16  13   1 803.044 475.452   1
  -3 -13   1-385.752 521.558   4
  16  -3   1-141.613 324.384   3
 -16  13   1 297.011 479.217   2
 -13  16   1 177.291 367.960   1
   3 -16   1-571.848 576.582   4
   3 -16   1 187.981 522.982   2
  -3 -13   1 649.307 610.501   2
  -3 -13   4 15508.3 1304.96   2
 -13  16   4 15443.8 754.730   1
   3 -16   4 15440.0 1304.14   4
  16  -3   4 14884.8 1246.70   4
  -3 -13   4 16044.0 1382.12   4
 -16  13   4 13095.2 642.906   1
   3 -16   4 15283.1 987.685   2
  -3 -13   7 4.49422 563.883   2
  16  -3   7-1098.50 598.682   4
   3 -16   7 248.054 432.305   4
  -3 -13   7-22.7563 483.674   4
  14   2  -9 1438.95 689.277   1
  14   2  -9 1806.00 1132.26   3
  16  -2  -9 1886.98 1106.42   3
   2 -16  -9-2861.43 1413.12   2
  -2 -14  -9 466.856 738.595   3
   2 -16  -9 1058.60 764.230   3
 -16  14  -9 503.164 984.401   1
 -14  16  -9 1443.85 853.985   1
   2 -16  -9 1499.23 861.600   4
  -2 -14  -9 260.975 730.288   4
  -2 -14  -9 515.033 1035.18   2
  14   2  -6 700.494 630.660   3
  16  -2  -6 186.795 672.931   3
 -16  14  -6 746.928 692.671   1
  -2 -14  -6 875.370 590.821   3
   2 -16  -6 1028.45 573.609   3
 -16  14  -6 20.5499 139.486   2
 -14  16  -6 1681.29 818.905   1
   2 -16  -6 1036.01 717.119   4
   2 -16  -6 153.765 944.781   2
  -2 -14  -6 1556.31 766.761   4
  -2 -14  -6 2145.72 1108.20   2
   2 -16  -6 613.405 499.658   1
  14   2  -6 979.817 521.016   1
 -16  14  -3 1675.24 726.874   1
  14   2  -3 1734.24 622.679   3
  16  -2  -3 3035.64 694.863   3
 -14  16  -3 1731.00 663.732   1
   2 -16  -3 2493.89 635.201   3
  -2 -14  -3 2853.17 547.821   3
   2 -16  -3 998.320 516.458   1
 -16  14  -3 1728.61 370.374   2
   2 -16  -3 1756.40 725.496   4
  -2 -14  -3 2109.48 717.511   4
   2 -16  -3 1375.47 787.130   2
  -2 -14  -3 1500.86 865.114   2
 -16  14   0 2316.24 647.218   1
  14   2   0 2105.28 384.693   3
  16  -2   0 1738.93 456.444   3
 -14  16   0 2274.06 629.938   1
   2 -16   0 2269.25 590.312   3
  -2 -14   0 2798.99 808.775   2
   2 -16   0 2496.20 690.891   4
   2 -16   0 2250.67 790.808   2
  -2 -14   0 3081.29 733.923   4
   2 -16   3 529.836 420.244   2
  -2 -14   3 858.124 516.499   2
   2 -16   3 636.939 500.429   4
 -16  14   3 1228.37 371.641   1
 -14  16   3 530.533 322.747   1
  -2 -14   3 854.604 549.092   4
  -2 -14   6 591.998 513.547   2
   2 -16   6 508.930 348.110   2
  16  -2   6 287.633 538.221   4
   2 -16   6-595.073 518.997   4
  -2 -14   6-35.1620 461.707   4
  -2 -14   9 999.989 595.200   4
   1 -16  -7 757.500 1027.38   2
  15   1  -7 1328.57 897.286   3
  16  -1  -7 1563.91 855.696   3
 -16  15  -7 1445.06 835.758   1
  -1 -15  -7 442.725 592.341   3
   1 -16  -7 623.053 648.140   3
 -15  16  -7 1075.38 787.291   1
   1 -16  -7 304.033 833.985   4
  -1 -15  -7 1789.54 829.490   4
  -1 -15  -7 585.020 952.337   2
  15   1  -4 1451.59 644.810   3
 -16  15  -4 562.299 615.144   1
  16  -1  -4-30.2391 491.962   3
   1 -16  -4-824.689 636.858   4
 -15  16  -4-20.6844 584.411   1
   1 -16  -4 164.738 448.645   3
  -1 -15  -4 130.465 402.115   3
  -1 -15  -4 649.036 722.203   2
  -1 -15  -4-485.878 576.475   4
   1 -16  -4 1518.44 1004.34   2
 -16  15  -1 981.144 578.695   1
  15   1  -1 743.758 420.288   3
  16  -1  -1 783.790 385.366   3
 -15  16  -1 529.053 541.806   1
   1 -16  -1 2070.52 525.133   3
  -1 -15  -1 910.676 445.892   3
  -1 -15  -1-376.114 565.041   4
   1 -16  -1 1901.20 657.442   4
   1 -16  -1 1277.68 853.011   2
  -1 -15  -1 1249.05 688.211   2
   1 -16   2 611.315 434.370   2
  -1 -15   2-88.4301 454.320   2
  -1 -15   2 134.253 511.970   4
 -16  15   2 663.638 393.769   1
 -15  16   2 325.956 363.783   1
   1 -16   2 489.392 555.255   4
  -1 -15   5-580.734 430.201   2
   1 -16   5 200.754 374.371   2
   1 -16   5 371.679 524.317   4
  -1 -15   5-176.880 504.993   4
  -1 -15   8-28.4324 493.641   4
   1 -16   8 646.159 538.130   4
  16   0  -8 3629.34 1173.04   3
   0 -16  -8 4747.23 1030.10   3
   0 -16  -8 1811.52 874.425   4
 -16  16  -8 4437.96 1096.79   1
   0 -16  -8 5180.42 1512.87   2
  16   0  -5 96.1009 636.212   3
 -16  16  -5 481.516 735.091   1
   0 -16  -5 141.489 466.236   3
   0 -16  -5 1118.75 741.031   4
   0 -16  -5-430.797 932.492   2
  16   0  -2 20692.4 1334.29   3
   0 -16  -2 19624.4 1266.09   3
   0 -16  -2 18436.5 1626.28   4
   0 -16  -2 19308.6 1861.60   2
 -16  16  -2 21270.4 1681.06   1
 -16  16   1-297.333 380.142   1
  16   0   1-138.202 246.587   3
   0 -16   1 623.485 539.260   4
   0 -16   1 476.860 580.201   2
 -16  16   4 9745.54 626.262   1
   0 -16   4 8703.91 982.966   2
   0 -16   4 8678.02 1088.55   4
   0 -16   7 629.532 480.690   2
   0 -16   7-337.322 532.757   4
 -17   0  -8 697.616 590.863   3
 -17   0  -8 2.05347 595.852   4
  17 -17  -8-47.6033 761.494   3
   0  17  -8-558.120 772.656   1
 -17   0  -8 1360.10 911.140   2
 -17   0  -8-51.3913 779.727   1
 -17   0  -5 1156.17 726.977   2
 -17   0  -5 319.774 373.761   3
  17 -17  -5 1238.03 754.392   3
 -17   0  -5-114.535 306.264   3
   0  17  -5 83.8161 581.800   2
 -17   0  -5-321.665 580.639   4
   0  17  -5 792.598 713.300   1
 -17   0  -2 1142.35 594.245   4
 -17   0  -2 1505.14 817.602   2
 -17   0  -2 1111.72 240.203   3
  17 -17  -2 1192.66 586.004   3
   0  17  -2-158.907 650.715   2
   0  17  -2 2413.17 757.419   1
 -17   0   1 305.935 446.297   3
 -17   0   1 601.495 577.021   4
 -17   0   1-259.593 583.827   2
  17 -17   1-226.158 406.324   2
   0  17   1 400.979 513.226   3
  17 -17   1 323.484 573.655   3
   0  17   1 613.395 469.922   1
  17 -17   4 361.089 254.265   2
   0  17   4-8.03612 622.526   3
 -17   0   4-225.250 613.648   2
 -17   0   4 1371.88 650.436   4
  17 -17   4 155.293 446.085   4
 -17   0   7 1128.68 752.292   4
  17 -17   7 264.646 303.494   4
 -17   1  -9 928.088 693.247   3
 -16  -1  -9 1331.39 716.996   3
  17 -16  -9-178.488 990.371   3
  16 -17  -9 547.069 896.284   3
  -1  17  -9 703.730 865.364   1
   1  16  -9 410.716 795.614   1
 -16  -1  -9 35.7728 775.432   1
 -17   1  -9 799.870 914.262   1
 -16  -1  -9 241.559 1005.42   2
 -17   1  -9 1239.98 1069.91   2
 -16  -1  -6 395.539 410.768   3
  17 -16  -6 142.278 652.005   3
  16 -17  -6-110.835 689.101   3
 -16  -1  -6 858.030 598.110   4
 -17   1  -6 133.473 360.712   3
  -1  17  -6 550.047 673.396   1
 -16  -1  -6 546.873 366.807   3
   1  16  -6 1208.96 683.663   1
 -17   1  -6 459.571 551.383   4
  -1  17  -6 867.956 570.316   2
   1  16  -6-549.759 618.626   2
 -16  -1  -6-123.013 810.413   2
 -17   1  -6 908.019 748.116   2
 -16  -1  -3 3285.60 923.048   2
 -17   1  -3 681.029 571.448   2
  17 -16  -3 3016.90 733.239   3
  16 -17  -3 688.818 616.811   3
 -17   1  -3 1610.13 342.131   3
  -1  17  -3 1453.05 658.332   1
  -1  17  -3 2545.50 789.896   2
   1  16  -3 2663.39 850.669   2
   1  16  -3 1716.55 691.704   1
 -17   1  -3 2568.72 673.744   4
 -16  -1  -3 1837.33 675.149   4
 -16  -1   0 764.829 326.676   3
 -17   1   0 584.060 378.442   3
 -16  -1   0 1067.68 622.939   2
 -17   1   0 1912.92 752.801   2
  -1  17   0-186.658 527.712   1
  17 -16   0 734.277 493.752   2
  16 -17   0 1256.93 508.110   2
  -1  17   0 486.543 401.875   3
   1  16   0 121.666 413.448   3
  17 -16   0 860.055 552.798   3
  16 -17   0 1237.49 604.492   3
   1  16   0 583.507 494.505   1
 -16  -1   0 1301.83 690.953   4
 -17   1   0 927.321 513.679   4
 -16  -1   3 2740.02 808.158   4
   1  16   3 1023.44 587.684   3
  -1  17   3 1965.65 657.923   3
 -16  -1   3 1539.56 658.869   2
 -17   1   3 2526.50 768.463   2
  16 -17   3 2091.04 598.687   4
  17 -16   3 1616.10 503.345   2
  -1  17   3 1957.98 619.030   1
  16 -17   3 4726.84 657.452   2
   1  16   3 1777.48 616.725   1
  17 -16   3 1750.27 709.050   3
 -17   1   3 3063.25 828.560   4
  17 -16   3 2129.83 608.528   4
 -17   1   6 386.351 658.268   4
 -16  -1   6 880.216 737.672   2
 -17   1   6 960.731 711.169   2
  17 -16   6 278.105 403.264   4
  16 -17   6 599.731 411.874   4
 -16  -1   6 1066.41 767.695   4
 -16  -1   9 121.520 746.794   4
 -17   1   9 527.213 696.668   4
 -15  -2  -7 5290.04 766.822   3
  17 -15  -7 5017.69 1154.25   3
  -2  17  -7 4899.01 1099.38   1
   2  15  -7 4737.44 1023.62   1
 -15  -2  -7 6041.21 984.857   4
 -17   2  -7 5122.50 873.771   4
 -17   2  -7 4585.60 1204.90   1
 -15  -2  -7 5523.57 1293.26   2
 -17   2  -7 6326.19 938.446   3
 -17   2  -7 4580.84 1071.60   2
  15 -17  -7 5631.96 1241.41   3
 -17   2  -4 2285.84 867.837   2
 -15  -2  -4 386.710 163.329   3
  17 -15  -4 845.655 691.833   3
 -15  -2  -4 349.909 151.618   3
  15 -17  -4-343.194 642.945   3
 -17   2  -4 944.423 612.257   4
 -17   2  -4 11.4164 329.823   3
  -2  17  -4 395.685 590.910   1
 -15  -2  -4 525.130 519.745   4
   2  15  -4 950.019 759.216   2
  -2  17  -4 563.130 559.745   2
   2  15  -4 1354.10 699.110   1
 -15  -2  -4 5.30020 740.429   2
  15 -17  -1 5086.21 811.955   2
 -15  -2  -1 4935.62 920.558   2
 -17   2  -1 4596.77 906.378   2
  17 -15  -1 5102.26 862.367   3
  15 -17  -1 4507.85 822.621   3
 -17   2  -1 4732.46 578.090   3
   2  15  -1 4185.72 606.837   3
   2  15  -1 4834.25 1043.82   2
  -2  17  -1 5437.08 896.662   1
  15 -17  -1 4061.71 721.308   1
 -15  -2  -1 6527.24 966.180   4
 -17   2  -1 6182.52 925.872   4
   2  15  -1 6387.22 914.635   1
  -2  17   2 5594.76 807.903   1
 -17   2   2 3488.97 716.356   3
   2  15   2 3608.70 684.157   3
  -2  17   2 4047.36 821.451   3
   2  15   2 5806.77 889.040   1
  17 -15   2 4445.85 824.857   3
  15 -17   2 3569.18 762.645   3
  17 -15   2 4682.52 728.422   2
 -17   2   2 5231.71 959.760   4
  15 -17   2 4877.83 615.325   2
 -15  -2   2 5963.84 973.741   2
 -15  -2   2 3779.17 869.354   4
 -17   2   2 5686.02 959.467   2
   2  15   5 3377.40 767.092   3
 -15  -2   5 4386.40 946.991   2
 -17   2   5 3234.35 873.302   2
 -17   2   5 4159.04 777.771   1
  17 -15   5 4086.95 674.889   4
  15 -17   5 3193.16 624.600   4
 -15  -2   5 4514.56 933.728   4
 -17   2   5 3637.35 932.948   4
 -15  -2   8 3927.02 1147.70   2
 -15  -2   8 3311.49 935.065   4
 -17   2   8 3455.73 1008.61   4
 -17   3  -8 1162.63 691.583   3
 -14  -3  -8 637.414 543.953   3
 -17   3  -8 446.669 780.074   2
  -3  17  -8 1062.08 887.336   1
  17 -14  -8 1564.77 977.943   3
  14 -17  -8 1532.67 975.449   3
 -17   3  -8 261.981 498.337   4
 -17   3  -8 2265.16 1102.40   1
   3  14  -8 316.587 646.997   1
 -14  -3  -8 115.369 609.529   4
 -14  -3  -8 1343.20 1007.92   2
 -17   3  -5-289.298 693.005   2
 -14  -3  -5 231.282 265.012   3
 -14  -3  -5-574.411 697.584   2
  -3  17  -5 549.412 584.699   1
  17 -14  -5 833.570 734.722   3
  14 -17  -5-49.0995 616.480   3
 -17   3  -5 580.956 381.601   3
 -14  -3  -5 203.738 219.622   3
  -3  17  -5 213.090 417.998   2
 -14  -3  -5 247.315 545.674   4
   3  14  -5 841.813 697.632   1
 -17   3  -5 1307.55 619.724   4
   3  14  -5-125.499 583.170   2
 -14  -3  -2 178.610 550.491   2
 -17   3  -2 575.943 628.553   2
   3  14  -2 520.053 533.531   1
 -17   3  -2 641.203 383.388   3
  17 -14  -2 1208.80 609.809   3
  14 -17  -2 514.709 536.384   3
   3  14  -2 532.044 399.108   3
  -3  17  -2 1534.57 603.447   1
   3  14  -2 1709.72 785.842   2
 -14  -3  -2 524.014 611.991   4
 -17   3  -2 198.356 446.670   4
  14 -17  -2 545.222 482.269   1
 -17   3   1 2560.93 611.749   3
 -14  -3   1 1761.95 666.500   2
  17 -14   1 1539.87 535.478   2
  -3  17   1 1906.00 570.080   1
 -17   3   1 2751.65 743.047   2
   3  14   1 1447.03 412.536   3
  -3  17   1 447.159 502.611   3
  14 -17   1 2127.36 478.694   2
  17 -14   1 1479.51 618.876   3
  14 -17   1 2737.04 718.531   3
   3  14   1 2204.57 580.369   1
 -14  -3   1 1104.43 538.859   4
 -17   3   1 2507.31 700.268   4
 -17   3   4 552.845 463.934   1
   3  14   4 902.160 448.184   3
 -14  -3   4 1272.71 605.591   2
 -17   3   4 601.250 642.994   2
  17 -14   4 268.457 423.667   2
 -14  -3   4 410.629 650.842   4
  17 -14   4 203.083 410.718   4
 -17   3   4 162.593 570.398   4
  14 -17   4 1403.38 526.027   4
  17 -14   7 45.1703 184.191   4
 -14  -3   7 538.408 725.075   2
 -17   3   7 256.365 671.277   2
 -17   3   7 282.964 503.144   1
  14 -17   7 149.388 205.784   4
  14 -17   7 150.173 204.397   4
 -14  -3   7 453.106 615.870   4
 -17   3   7-731.851 735.469   4
 -17   4  -9 711.085 756.203   3
   4  13  -9-1117.19 1159.98   3
 -13  -4  -9 1381.34 745.522   3
  -4  17  -9 1665.26 894.531   1
  17 -13  -9 1420.85 999.402   3
  13 -17  -9 649.915 844.641   3
 -13  -4  -9 542.361 641.818   4
 -17   4  -9 475.858 789.685   2
 -13  -4  -9 133.598 734.468   1
   4  13  -9 1323.18 738.502   1
 -13  -4  -9 315.182 1049.47   2
 -17   4  -9 1235.17 1012.98   1
 -17   4  -6 2429.36 875.832   2
 -13  -4  -6 2168.26 502.078   3
 -13  -4  -6 610.532 825.102   2
  -4  17  -6 2551.01 910.790   1
  17 -13  -6 952.976 622.645   3
  13 -17  -6 294.438 670.988   3
 -17   4  -6 2630.87 1106.26   1
 -17   4  -6 1043.10 535.731   3
 -13  -4  -6 1816.93 678.745   4
  -4  17  -6 358.042 325.838   2
 -17   4  -6 1624.25 611.010   4
   4  13  -6 1154.86 675.075   1
 -17   4  -3 961.638 636.981   2
   4  13  -3 1146.43 578.198   1
 -13  -4  -3 819.683 511.162   4
  -4  17  -3 1306.68 674.134   1
  17 -13  -3 1091.47 592.135   3
 -17   4  -3 615.820 377.179   3
  13 -17  -3 34.2569 503.618   3
   4  13  -3 507.143 705.172   2
 -17   4  -3 538.925 484.127   4
  13 -17  -3 711.824 413.832   1
 -13  -4  -3 998.297 706.494   2
  13 -17   0 1255.76 608.697   1
 -13  -4   0 2431.63 744.840   4
 -13  -4   0 1219.30 578.418   2
   4  13   0 395.034 467.778   1
 -17   4   0 869.928 493.596   3
  17 -13   0 526.044 487.597   2
 -17   4   0 1422.22 581.681   2
  -4  17   0 1371.20 562.369   3
   4  13   0 449.676 317.402   3
  17 -13   0 753.683 458.469   3
  13 -17   0 391.151 440.044   3
  13 -17   0 1020.75 441.287   2
 -17   4   0 1603.33 600.495   4
  -4  17   0 649.276 476.376   1
 -17   4   3 1411.45 477.297   1
  13 -17   3 1081.66 228.192   2
   4  13   3 1247.16 444.779   3
 -13  -4   3 3677.22 788.491   4
  -4  17   3 1869.94 501.804   1
 -13  -4   3 2199.54 721.440   2
 -17   4   3 1662.28 634.101   2
 -17   4   3 2073.79 665.973   4
  17 -13   3 1706.29 536.302   4
  17 -13   3 2531.05 639.373   2
 -17   4   6 297.155 481.201   1
 -13  -4   6-281.277 598.166   2
 -17   4   6 611.664 755.417   2
  13 -17   6 374.369 417.517   4
  17 -13   6-180.151 340.288   4
 -13  -4   6 1040.76 608.664   4
  13 -17   6 664.909 401.697   4
 -17   4   6 137.535 609.147   4
 -13  -4   9-0.66478 645.439   4
 -17   5  -7 3910.81 1000.39   2
   5  12  -7 3636.18 1153.14   3
   5  12  -7 2251.24 712.194   1
  -5  17  -7 1973.43 847.602   1
 -12  -5  -7 3528.71 672.535   3
  17 -12  -7 3683.50 1055.19   3
  12 -17  -7 3360.76 1013.78   3
 -12  -5  -7 3142.30 805.293   4
 -17   5  -7 3856.60 1080.09   1
 -12  -5  -7 4568.32 1195.81   2
 -17   5  -7 3356.36 654.069   4
  12 -17  -4 2273.30 471.401   1
 -17   5  -4 1997.39 709.978   2
   5  12  -4 3264.67 786.405   1
 -12  -5  -4 2382.21 913.189   2
  -5  17  -4 2173.69 712.766   1
  17 -12  -4 2135.71 771.714   3
  12 -17  -4 2737.78 687.872   3
 -17   5  -4 2009.45 513.928   3
 -12  -5  -4 1777.29 656.431   4
 -17   5  -4 1787.96 573.287   4
   5  12  -4 1082.08 728.365   2
   5  12  -1 5354.94 897.754   1
 -17   5  -1 5278.52 720.751   3
  17 -12  -1 4967.14 785.857   3
  12 -17  -1 4270.87 778.161   3
   5  12  -1 5394.32 615.147   3
  -5  17  -1 5348.71 849.918   1
  12 -17  -1 4985.92 795.170   2
 -12  -5  -1 7620.70 1045.74   4
  12 -17  -1 5364.65 774.303   1
 -17   5  -1 6040.89 865.767   4
 -17   5  -1 5524.11 927.543   2
 -12  -5  -1 4536.61 978.544   2
  17 -12   2 2026.21 606.055   2
 -17   5   2 3144.24 731.148   3
 -12  -5   2 1340.03 661.255   2
   5  12   2 1308.50 364.035   3
  -5  17   2 2887.15 574.034   1
  -5  17   2 1532.24 663.449   3
 -17   5   2 1565.13 676.079   2
  17 -12   2 1792.29 560.518   4
  17 -12   2 1634.20 641.032   3
  12 -17   2 842.472 529.605   3
 -12  -5   2 2788.56 722.376   4
 -17   5   2 1569.30 486.818   1
 -17   5   2 3070.81 754.605   4
  12 -17   2 2393.85 379.288   2
   5  12   5 8704.60 840.697   3
 -17   5   5 8816.06 1247.48   2
 -17   5   5 7850.01 818.886   1
  12 -17   5 10699.5 1019.87   4
  17 -12   5 8132.23 839.646   4
 -12  -5   5 9718.64 1211.45   4
 -17   5   5 10512.1 1352.22   4
  12 -17   5 8363.51 809.982   4
 -12  -5   5 9145.10 1174.68   2
 -17   5   8 3112.49 970.954   4
 -12  -5   8 1455.98 912.089   2
 -12  -5   8 2259.88 797.323   4
 -11  -6  -8-53.8094 524.568   3
  17 -11  -8 623.374 898.911   3
  11 -17  -8 442.958 819.468   3
 -11  -6  -8-190.737 877.496   2
 -17   6  -8-921.342 907.354   1
 -11  -6  -8 705.970 786.749   4
   6  11  -8 203.247 837.466   3
   6  11  -8 185.781 598.512   1
 -17   6  -8 237.799 318.117   4
 -17   6  -8-498.762 661.408   2
  -6  17  -8-272.196 680.302   1
  11 -17  -5 1112.86 347.072   1
 -17   6  -5 3550.15 766.366   2
 -11  -6  -5 2179.69 359.077   3
   6  11  -5 3133.66 772.459   1
  -6  17  -5 3451.90 912.771   1
 -17   6  -5 2284.02 623.561   4
  17 -11  -5 2667.93 853.779   3
  11 -17  -5 2413.29 821.233   3
 -11  -6  -5 2387.06 688.761   4
 -11  -6  -5 1417.02 804.819   2
 -17   6  -5 1717.67 569.958   3
 -17   6  -5 1272.30 870.649   1
  -6  17  -2-279.957 481.879   1
  11 -17  -2 408.044 434.656   1
 -17   6  -2 23.3077 486.724   2
 -17   6  -2 791.722 446.685   3
  17 -11  -2 608.058 491.640   3
  11 -17  -2 391.203 479.197   3
   6  11  -2-40.1833 447.697   1
 -11  -6  -2 423.082 553.137   4
 -17   6  -2 89.3009 442.507   4
 -11  -6  -2 97.8587 640.085   2
 -17   6   1 7818.01 955.512   3
   6  11   1 8801.96 611.308   3
  11 -17   1 9402.24 786.214   2
  17 -11   1 8207.06 948.343   3
  11 -17   1 7992.03 970.025   3
   6  11   1 8317.62 994.974   1
  -6  17   1 8056.37 907.367   1
  17 -11   1 6336.68 886.683   2
 -11  -6   1 11213.1 1223.69   4
 -11  -6   1 7325.71 1050.61   2
 -17   6   1 9897.84 1109.83   4
 -17   6   1 7534.75 1008.03   2
   6  11   4 1829.02 431.013   3
  -6  17   4 982.000 482.324   1
 -11  -6   4 1295.33 643.090   2
 -17   6   4 763.364 405.906   1
 -17   6   4 987.872 600.491   2
  17 -11   4 622.932 584.941   2
  17 -11   4 944.719 485.854   4
 -11  -6   4 1109.38 608.675   4
 -17   6   4 2187.04 736.198   4
 -17   6   7 248.872 647.293   4
  11 -17   7 791.321 285.005   4
 -11  -6   7 1338.20 652.994   4
 -17   6   7 510.460 293.577   1
 -11  -6   7 1814.05 851.634   2
  17 -11   7 636.865 241.938   4
  11 -17   7 654.529 286.424   4
 -17   7  -9-619.862 841.534   1
   7  10  -9 690.890 706.749   1
   7  10  -9 765.691 981.685   3
 -10  -7  -9 901.704 640.772   3
  17 -10  -9-132.274 925.756   3
  10 -17  -9 636.006 874.730   3
 -10  -7  -9 1279.81 782.990   4
 -10  -7  -9 553.677 967.023   2
  -7  17  -9 1752.14 960.439   1
 -17   7  -9 916.043 790.545   2
 -17   7  -6 977.431 594.669   2
   7  10  -6-461.762 714.976   3
   7  10  -6 602.017 616.447   1
 -10  -7  -6 936.561 619.343   4
  10 -17  -6 441.949 221.939   1
 -10  -7  -6 34.7857 344.616   3
 -10  -7  -6 2052.59 1035.37   2
  17 -10  -6 432.581 695.898   3
  10 -17  -6 1589.71 830.818   3
 -17   7  -6 405.860 735.647   1
  -7  17  -6 385.552 715.924   1
 -17   7  -6 931.796 467.270   4
  10 -17  -3 39.2239 372.974   1
  17 -10  -3 68.8999 485.290   3
 -17   7  -3 873.014 508.691   2
  10 -17  -3-276.680 580.370   3
 -17   7  -3 421.622 367.592   3
  -7  17  -3 69.3161 505.509   1
   7  10  -3 545.482 448.812   1
 -17   7  -3 1920.55 899.231   1
 -10  -7  -3 888.655 540.847   4
 -10  -7  -3 711.158 641.891   2
 -17   7  -3 1368.85 573.899   4
 -10  -7   0-118.172 545.914   2
  17 -10   0 1810.47 691.966   2
  10 -17   0 1001.43 557.738   1
 -17   7   0 856.869 580.470   3
 -17   7   0 349.946 493.284   2
  -7  17   0 1376.58 541.105   1
  17 -10   0 570.268 422.741   3
   7  10   0 107.933 232.375   3
  10 -17   0 757.615 494.323   3
   7  10   0 1130.82 535.795   1
 -17   7   0 1060.14 542.366   4
 -10  -7   0 1322.72 615.396   4
   7  10   3 1205.70 231.876   3
 -10  -7   3 1339.74 666.604   2
 -17   7   3 1868.11 427.843   1
 -17   7   3 1337.76 648.901   2
  -7  17   3 1472.33 440.585   1
  10 -17   3 1101.40 160.806   2
 -10  -7   3 2652.76 749.423   4
  17 -10   3 1826.11 588.644   4
  17 -10   3 612.969 555.766   2
 -17   7   3 2870.22 756.480   4
 -17   7   6-510.227 702.278   4
 -10  -7   6-44.3556 556.290   4
 -10  -7   6 541.337 670.737   2
  10 -17   6 1536.12 525.061   4
  17 -10   6 647.714 413.215   4
 -17   7   6 570.762 326.806   1
 -10  -7   9 1342.90 760.319   4
 -17   8  -7 2134.78 700.280   2
   8   9  -7 2595.28 996.928   3
   8   9  -7 2162.29 711.352   1
  -9  -8  -7 2777.86 630.835   3
  17  -9  -7 1182.59 751.497   3
   9 -17  -7 1047.68 217.038   1
   9 -17  -7 2980.94 933.787   3
  -9  -8  -7 2592.44 739.134   4
  -8  17  -7 3380.86 932.807   1
  -9  -8  -7 1602.13 903.495   2
 -17   8  -7 3616.56 1185.99   1
   8   9  -4 1225.04 619.097   3
 -17   8  -4 1113.73 534.541   2
  17  -9  -4 1397.53 664.872   3
   9 -17  -4 1054.18 627.603   3
  -9  -8  -4 719.937 192.945   3
 -17   8  -4 34.7359 407.718   3
   9 -17  -4 430.574 392.726   1
   8   9  -4 1064.46 558.716   1
  -9  -8  -4 1061.20 638.322   4
 -17   8  -4 1548.43 828.924   1
  -8  17  -4 1524.15 676.641   1
  -9  -8  -4 1101.43 820.803   2
 -17   8  -4 1416.24 510.996   4
 -17   8  -1 7571.54 923.613   3
  -8  17  -1 9332.84 1065.39   1
  17  -9  -1 7489.39 916.499   3
   9 -17  -1 9235.14 1087.41   3
   8   9  -1 8382.29 1012.63   1
  -9  -8  -1 7183.04 994.377   4
  -9  -8  -1 9596.29 1276.66   2
   9 -17  -1 7755.88 923.184   1
 -17   8  -1 9949.55 1046.38   4
 -17   8  -1 8376.33 1017.34   2
  -9  -8   2 1952.64 655.724   2
 -17   8   2 3176.71 760.135   2
  17  -9   2 3608.62 773.362   2
  17  -9   2 2527.13 612.968   3
   9 -17   2 3519.48 590.017   2
  -9  -8   2 4636.39 901.270   4
 -17   8   2 4490.72 858.823   4
  17  -9   2 2555.59 633.982   4
  -8  17   2 2176.05 490.199   1
 -17   8   5 8094.81 1279.92   2
 -17   8   5 6200.65 580.386   1
  17  -9   5 4633.46 964.002   2
   9 -17   5 8775.96 937.411   4
  17  -9   5 6624.56 755.606   4
  -9  -8   5 7706.71 1032.00   4
 -17   8   5 10438.6 1317.08   4
  -9  -8   5 9689.01 1216.37   2
  -9  -8   8-198.391 721.202   2
  -9  -8   8 46.7093 601.547   4
 -17   9  -8 1067.06 634.197   2
 -17   9  -8 1758.23 1074.95   1
   9   8  -8-295.473 862.274   3
  17  -8  -8 571.831 777.608   3
  -8  -9  -8 597.178 525.326   3
   9   8  -8 1105.23 777.317   1
   8 -17  -8-304.247 780.012   3
  -8  -9  -8 848.933 741.487   4
  -9  17  -8 767.670 869.013   1
  -8  -9  -8 302.088 911.718   2
   9   8  -5 10420.8 1281.34   3
  17  -8  -5 6789.71 1081.74   3
  -8  -9  -5 8140.77 656.841   3
   8 -17  -5 6007.16 1027.01   3
   9   8  -5 9312.20 1112.88   1
 -17   9  -5 9545.73 957.432   4
  -8  -9  -5 8357.01 1139.60   4
  -8  -9  -5 7383.90 1417.19   2
 -17   9  -5 11665.1 1677.57   1
 -17   9  -5 6564.35 851.578   2
   8 -17  -5 6199.85 680.743   1
  -9  17  -5 7651.70 1107.74   1
  -8  -9  -2 3165.75 934.444   2
   9   8  -2 3547.32 616.676   3
   9   8  -2 3046.62 671.521   1
 -17   9  -2 2898.89 620.093   2
  17  -8  -2 2333.12 602.128   3
 -17   9  -2 3413.84 628.636   3
   8 -17  -2 3742.43 669.787   3
   8 -17  -2 2858.97 621.493   1
  -8  -9  -2 2694.79 723.226   4
 -17   9  -2 3283.59 886.863   1
 -17   9  -2 3514.91 677.247   4
  -9  17  -2 3121.00 736.964   1
 -17   9   1 8582.80 1031.76   2
 -17   9   1 9455.78 1070.20   3
  17  -8   1 8089.41 892.589   3
  -9  17   1 8004.19 851.647   1
   8 -17   1 8923.04 1063.63   3
   8 -17   1 10115.7 1031.82   2
  -8  -9   1 10133.0 1163.34   4
  17  -8   1 7212.05 990.534   2
  -8  -9   1 8508.72 1043.48   2
 -17   9   1 8961.08 1046.75   4
 -17   9   4 825.614 572.203   4
  -8  -9   4 2819.24 754.899   2
 -17   9   4 1169.17 731.120   2
   8 -17   4 1421.71 559.324   4
  17  -8   4 1711.58 728.543   2
  17  -8   4 1639.05 565.091   4
  -8  -9   4 1619.78 640.290   4
 -17   9   4 486.431 290.156   1
  -9  17   4 566.720 337.504   1
  -8  -9   7 2225.91 855.345   2
   8 -17   7 1232.31 409.251   4
  17  -8   7 2097.81 445.952   4
  -8  -9   7 2944.10 783.075   4
 -17  10  -9 1714.31 714.220   2
  10   7  -9 501.751 1017.60   3
 -17  10  -9 680.481 1021.18   1
  17  -7  -9 871.726 948.307   3
 -10  17  -9 2195.95 1069.71   1
  -7 -10  -9 1365.17 651.714   3
   7 -17  -9 1609.90 864.661   3
  -7 -10  -9 2050.49 868.769   4
  10   7  -9-336.327 667.605   1
  -7 -10  -9 4498.97 1512.29   2
 -17  10  -6 2236.81 943.204   1
  10   7  -6 173.555 676.275   3
 -17  10  -6 270.376 430.918   2
  17  -7  -6 566.023 625.257   3
  -7 -10  -6 1203.95 464.740   3
  10   7  -6 637.853 544.676   1
   7 -17  -6 825.787 688.530   3
  -7 -10  -6 2181.01 784.464   4
  -7 -10  -6 21.5734 792.700   2
   7 -17  -6 196.475 413.061   1
 -10  17  -6 193.373 583.788   1
  10   7  -3 3095.16 719.780   3
 -17  10  -3 1069.32 441.878   2
  17  -7  -3 1493.56 629.284   3
   7 -17  -3 1976.86 682.281   3
 -17  10  -3 870.372 483.736   3
  -7 -10  -3 1128.70 196.895   3
 -17  10  -3 2156.69 542.624   4
  10   7  -3 2689.44 659.038   1
 -10  17  -3 2322.74 686.944   1
   7 -17  -3 1405.97 505.492   1
  -7 -10  -3 1138.04 804.623   2
 -17  10  -3 894.856 735.933   1
  -7 -10  -3 2358.46 705.576   4
  -7 -10   0 722.136 588.936   2
  10   7   0 843.887 243.343   3
 -17  10   0 552.414 498.245   3
 -17  10   0 800.903 528.700   2
  17  -7   0 1917.44 511.340   3
   7 -17   0 692.263 492.902   3
   7 -17   0 561.728 556.572   1
  10   7   0 504.890 186.766   3
   7 -17   0 1227.41 590.814   2
  -7 -10   0 1588.28 612.662   4
 -17  10   0 1636.64 623.526   1
 -10  17   0 557.395 482.525   1
 -17  10   0 1112.88 521.183   4
 -17  10   3 842.708 537.789   4
   7 -17   3 833.935 317.053   2
  -7 -10   3 1153.24 620.898   2
 -10  17   3 230.041 329.141   1
 -17  10   3 1221.53 438.987   1
 -17  10   3 1751.11 776.029   2
   7 -17   3 126.582 465.463   4
  -7 -10   3 675.605 486.138   4
  17  -7   3 560.922 482.752   4
  17  -7   3-548.274 632.242   2
  -7 -10   6 1199.74 593.058   4
  -7 -10   6 986.650 654.269   2
   7 -17   6 510.259 403.401   4
  17  -7   6 863.418 514.903   4
  -7 -10   9-886.319 680.745   4
   6 -17  -7 1228.59 513.484   1
 -17  11  -7 1013.03 838.682   1
 -17  11  -7 921.862 463.433   2
  11   6  -7 2031.91 1040.46   3
  -6 -11  -7-324.858 687.790   4
  17  -6  -7 1538.85 835.201   3
  -6 -11  -7 1607.15 583.183   3
   6 -17  -7 1950.87 782.704   3
 -11  17  -7 1771.76 828.630   1
  -6 -11  -7 1537.83 1118.30   2
  11   6  -7 1777.30 631.309   1
  11   6  -4 1564.53 678.260   3
 -17  11  -4 1528.48 462.394   2
  17  -6  -4 3196.04 787.495   3
   6 -17  -4 2067.95 650.984   3
  -6 -11  -4 838.189 315.668   3
  11   6  -4 530.355 550.002   1
 -11  17  -4 912.368 602.757   1
  -6 -11  -4 930.642 584.030   4
  -6 -11  -4 33.0464 737.506   2
 -17  11  -4 2409.13 844.182   1
   6 -17  -4 1324.44 542.270   1
 -17  11  -1 6652.33 837.803   2
  11   6  -1 8332.08 684.346   3
  17  -6  -1 8496.21 897.886   3
   6 -17  -1 6744.21 914.286   3
 -17  11  -1 6937.79 919.951   3
  -6 -11  -1 8188.80 1176.85   2
   6 -17  -1 6349.48 1016.84   2
  -6 -11  -1 8974.71 1149.66   4
 -17  11  -1 7841.96 1044.56   1
 -17  11  -1 9624.94 1035.46   4
   6 -17  -1 7757.87 1034.16   1
 -11  17  -1 8443.55 995.374   1
 -17  11   2 802.150 537.204   4
 -17  11   2 601.538 430.979   1
  -6 -11   2 1046.83 561.356   2
 -11  17   2 149.681 353.449   1
 -17  11   2 2286.54 706.968   2
  17  -6   2-299.163 392.346   3
  -6 -11   2 915.121 514.956   4
  17  -6   2 645.475 547.697   4
   6 -17   2 432.188 485.243   2
   6 -17   2 728.718 504.857   4
  17  -6   2 1040.55 678.348   2
  -6 -11   5 1867.93 688.973   2
 -17  11   5 890.425 191.509   1
   6 -17   5 2045.88 592.042   4
  17  -6   5 1774.50 563.917   4
  -6 -11   5 1803.18 724.284   4
  -6 -11   8 569.645 708.642   2
  -6 -11   8-43.0236 533.144   4
   6 -17   8 226.949 323.571   4
  12   5  -8 2361.07 767.033   1
 -17  12  -8 161.641 438.126   2
  12   5  -8 3279.12 1102.49   3
   5 -17  -8 4298.46 1170.84   3
 -17  12  -8 1930.29 990.559   1
  17  -5  -8 4033.87 1130.86   3
  -5 -12  -8 2793.36 781.968   3
 -12  17  -8 2552.36 966.030   1
   5 -17  -8 4434.43 1136.25   4
  -5 -12  -8 1826.46 826.934   4
  -5 -12  -8 3495.71 1432.60   2
  12   5  -5 9234.54 1263.16   3
 -17  12  -5 8197.97 781.931   2
  17  -5  -5 9714.23 1293.16   3
  12   5  -5 10021.3 1103.88   1
  -5 -12  -5 8454.76 805.947   3
   5 -17  -5 10648.2 1208.33   3
   5 -17  -5 8123.82 911.540   1
  -5 -12  -5 9770.12 1221.81   4
  -5 -12  -5 7733.46 1379.15   2
 -17  12  -5 9943.01 1470.10   1
 -12  17  -5 8268.54 1239.89   1
   5 -17  -2 3419.50 730.380   1
  12   5  -2 1702.84 532.993   3
  17  -5  -2 2362.02 586.714   3
  -5 -12  -2 1898.23 372.057   3
 -17  12  -2 1788.09 485.621   2
   5 -17  -2 1930.35 473.776   3
 -12  17  -2 2009.38 700.147   1
  -5 -12  -2 2329.36 738.141   4
   5 -17  -2 2932.38 912.970   2
  -5 -12  -2 2615.27 910.955   2
 -17  12  -2 2015.02 746.287   1
 -12  17   1 7229.27 844.245   1
 -17  12   1 6548.97 961.973   2
  17  -5   1 5701.34 701.747   3
   5 -17   1 5151.64 808.149   3
   5 -17   1 6005.97 939.952   4
   5 -17   1 4131.47 851.532   2
  -5 -12   1 5186.28 871.326   4
 -17  12   1 4295.71 712.918   1
  -5 -12   1 6261.95 981.805   2
 -12  17   4 1758.18 393.479   1
  -5 -12   4 1401.72 564.017   2
   5 -17   4 1580.54 666.340   4
  -5 -12   4 1064.83 520.500   4
 -17  12   4 2528.16 404.840   1
  17  -5   4 1460.65 571.526   4
   5 -17   4 2252.89 419.355   2
  -5 -12   7 2217.94 761.793   2
  17  -5   7 2747.75 630.534   4
  -5 -12   7 3736.31 831.190   4
   5 -17   7 1606.32 529.863   4
   4 -17  -9 541.684 754.906   4
  13   4  -9-128.418 948.851   3
  17  -4  -9-1751.94 976.935   3
 -17  13  -9 843.554 898.802   1
  -4 -13  -9 617.643 705.312   3
   4 -17  -9 576.713 801.208   3
  13   4  -9 925.418 674.125   1
 -13  17  -9 7.86417 825.409   1
   4 -17  -9 2030.34 1232.39   2
  -4 -13  -9 1210.68 886.226   4
  -4 -13  -9 45.7946 1015.22   2
 -17  13  -6 967.232 710.452   1
  13   4  -6 19.3249 658.923   3
  17  -4  -6 1190.49 730.104   3
 -17  13  -6 704.050 355.366   2
  -4 -13  -6 1069.94 563.079   3
   4 -17  -6 1487.24 673.565   3
   4 -17  -6 657.938 536.046   1
 -13  17  -6 116.469 686.906   1
   4 -17  -6 743.617 672.028   4
  -4 -13  -6-70.9782 583.415   4
  -4 -13  -6 1344.47 1112.06   2
  13   4  -6 543.105 524.776   1
 -17  13  -3 1630.42 739.675   1
  13   4  -3 1255.51 528.209   3
   4 -17  -3 1969.50 644.134   1
  17  -4  -3 1343.51 569.732   3
 -17  13  -3 1888.30 466.069   2
   4 -17  -3 1575.29 597.724   3
  -4 -13  -3 1554.60 405.250   3
 -13  17  -3 1764.98 689.907   1
   4 -17  -3 2033.65 753.981   4
  -4 -13  -3 639.807 697.768   2
   4 -17  -3 1254.65 872.657   2
  -4 -13  -3 2688.84 812.492   4
 -17  13   0 368.236 463.263   1
  13   4   0 863.608 263.481   3
  17  -4   0 1167.48 461.876   3
 -17  13   0 743.378 545.592   2
   4 -17   0 1552.94 627.990   3
 -13  17   0 1017.95 547.637   1
  -4 -13   0 155.287 500.863   4
   4 -17   0 328.358 726.264   2
  -4 -13   0 945.938 643.376   2
   4 -17   0 223.093 509.310   4
   4 -17   3 856.966 410.320   2
 -17  13   3 828.896 427.044   1
  -4 -13   3 1974.67 686.776   2
 -13  17   3 664.541 317.450   1
   4 -17   3 790.054 553.412   4
  -4 -13   3-254.884 577.423   4
  17  -4   6 1463.33 622.451   4
  -4 -13   6 533.427 523.436   2
   4 -17   6 1258.79 537.921   4
  -4 -13   6 1122.06 558.507   4
  -4 -13   9-335.790 543.394   4
  14   3  -7 706.949 745.121   3
  17  -3  -7-934.721 810.864   3
  14   3  -7-96.1038 538.047   1
 -17  14  -7 398.604 221.404   2
  -3 -14  -7 1638.17 676.622   3
   3 -17  -7 1141.06 697.222   3
 -14  17  -7 469.483 773.044   1
 -17  14  -7 1827.16 995.872   1
   3 -17  -7-584.849 726.643   4
   3 -17  -7 753.352 1111.18   2
  -3 -14  -7 185.295 729.948   4
  -3 -14  -7-780.007 888.674   2
 -17  14  -4 1292.33 719.238   1
  14   3  -4 438.191 507.379   3
  17  -3  -4 1831.38 719.414   3
   3 -17  -4 547.136 461.928   3
 -17  14  -4 44.1007 280.594   2
  -3 -14  -4 1256.01 489.659   3
 -14  17  -4-186.688 538.468   1
   3 -17  -4 466.996 562.159   1
   3 -17  -4 938.190 669.857   4
  -3 -14  -4 201.453 551.294   4
  -3 -14  -4 2551.93 1044.40   2
   3 -17  -4 1449.18 911.699   2
  14   3  -1 2601.22 456.112   3
 -17  14  -1 2090.39 702.507   1
  17  -3  -1 1317.27 503.121   3
 -14  17  -1 1148.95 631.475   1
   3 -17  -1 2018.47 793.522   2
   3 -17  -1 2845.32 678.713   3
 -17  14  -1 1276.97 515.489   2
   3 -17  -1 1303.51 695.539   4
  -3 -14  -1 1392.81 717.855   4
  -3 -14  -1 2481.63 919.350   2
  -3 -14   2 1113.08 626.376   2
 -17  14   2-72.3785 364.218   1
  17  -3   2 171.605 288.846   3
   3 -17   2 67.3034 554.515   4
  -3 -14   2 626.349 610.393   4
 -14  17   2 869.366 436.128   1
   3 -17   2 92.8374 482.961   2
  17  -3   5 308.065 549.915   4
  -3 -14   5-309.798 514.818   2
   3 -17   5 1433.97 398.845   2
   3 -17   5-339.891 496.092   4
  -3 -14   5-115.786 503.698   4
   3 -17   8 212.061 451.274   4
  -3 -14   8 476.324 532.146   4
   2 -17  -8 4769.55 1483.24   2
  15   2  -8 2239.00 1012.00   3
  17  -2  -8 3276.62 1160.52   3
 -17  15  -8 4844.31 1319.54   1
  -2 -15  -8 3531.43 900.661   3
   2 -17  -8 2283.07 957.131   3
 -15  17  -8 2586.45 1143.33   1
   2 -17  -8 2711.03 953.139   4
  -2 -15  -8 1176.08 895.269   4
  -2 -15  -8 4146.61 1475.40   2
  15   2  -8 2113.45 633.809   1
  15   2  -5 6205.60 1144.36   3
  17  -2  -5 4619.22 1050.87   3
   2 -17  -5 5229.11 885.318   3
  -2 -15  -5 5565.28 797.996   3
 -15  17  -5 6295.17 1126.17   1
   2 -17  -5 6187.72 1127.63   4
  -2 -15  -5 5665.29 1077.29   4
   2 -17  -5 5245.34 1369.43   2
  -2 -15  -5 4200.40 1165.61   2
 -17  15  -5 7131.31 1287.37   1
  15   2  -2 4527.45 687.269   3
  17  -2  -2 3917.44 698.695   3
 -17  15  -2 5461.61 681.360   2
   2 -17  -2 4107.87 753.302   3
  -2 -15  -2 4470.49 644.999   3
   2 -17  -2 6127.71 1166.03   2
   2 -17  -2 3835.04 915.263   4
 -17  15  -2 5485.63 966.707   1
  -2 -15  -2 3998.46 873.973   4
 -15  17  -2 3435.05 848.645   1
  -2 -15  -2 5086.66 1153.48   2
  17  -2   1 4521.25 562.846   3
 -17  15   1 6280.17 858.427   1
   2 -17   1 5356.67 975.101   4
  -2 -15   1 6452.66 968.358   4
   2 -17   1 6641.37 1001.87   2
  -2 -15   1 6147.93 1053.93   2
 -15  17   1 4894.10 747.601   1
   2 -17   4 731.615 497.912   2
   2 -17   4 709.393 631.312   4
  -2 -15   4 618.241 524.606   2
  -2 -15   4 693.315 617.704   4
 -15  17   4 880.052 307.759   1
 -17  15   4 621.835 271.190   1
  -2 -15   7 3709.92 768.165   2
   2 -17   7 3012.73 716.858   4
  -2 -15   7 3736.52 802.735   4
  16   1  -9 2907.37 1233.55   3
  17  -1  -9 601.623 1011.98   3
  -1 -16  -9 389.496 795.473   4
  -1 -16  -9-4.46773 724.882   3
   1 -17  -9 1354.68 890.763   3
 -17  16  -9-659.011 954.275   1
 -16  17  -9-627.471 842.994   1
   1 -17  -9 1888.51 958.940   4
   1 -17  -9-105.097 1171.07   2
  -1 -16  -9 2369.41 1474.36   2
  16   1  -6 217.966 682.716   3
  17  -1  -6 850.349 712.803   3
 -17  16  -6 2223.70 1016.25   1
 -16  17  -6 755.317 738.987   1
  -1 -16  -6 596.976 552.846   3
   1 -17  -6 559.099 540.974   3
   1 -17  -6 1190.47 780.041   4
  -1 -16  -6 159.316 622.578   4
   1 -17  -6-849.826 1018.96   2
  -1 -16  -6-33.4666 925.819   2
  -1 -16  -3 3735.76 916.728   4
  16   1  -3 2736.07 701.481   3
 -17  16  -3 2487.25 785.235   1
  17  -1  -3 2621.37 696.654   3
 -16  17  -3 2671.65 829.599   1
   1 -17  -3 2843.59 661.553   3
  -1 -16  -3 1540.79 484.044   3
   1 -17  -3 2555.22 832.410   4
  -1 -16  -3 1277.79 949.588   2
   1 -17  -3 2563.55 1035.79   2
 -17  16   0 1153.74 545.803   1
  16   1   0 1633.84 371.130   3
  17  -1   0 799.706 401.544   3
 -16  17   0 2206.52 685.287   1
   1 -17   0 1608.28 674.055   4
  -1 -16   0 582.993 595.087   4
  -1 -16   0 728.834 647.698   2
   1 -17   0 563.063 667.094   2
   1 -17   3 1959.65 590.200   2
  -1 -16   3 358.319 476.666   2
  -1 -16   3 1667.16 690.591   4
   1 -17   3 1310.92 604.793   4
 -16  17   3 2097.15 486.193   1
 -17  16   3 2904.42 533.300   1
  -1 -16   6-721.618 506.033   2
   1 -17   6-206.560 418.445   2
   1 -17   6 357.363 567.988   4
  -1 -16   6 27.0252 526.900   4
  -1 -16   9 1153.53 629.694   4
  17   0  -7 893.904 785.604   3
 -17  17  -7-1694.55 879.473   1
   0 -17  -7 320.629 586.670   3
   0 -17  -7 564.081 691.890   4
   0 -17  -7 1541.61 1139.10   2
  17   0  -4-733.329 582.663   3
 -17  17  -4 1061.01 634.773   1
   0 -17  -4 522.964 441.462   3
   0 -17  -4 211.402 671.785   4
   0 -17  -4-714.085 838.771   2
 -17  17  -1-113.270 529.002   1
  17   0  -1 483.700 419.567   3
   0 -17  -1-602.300 490.067   3
   0 -17  -1 184.623 593.207   4
   0 -17  -1-1272.13 871.376   2
   0 -17   2 1952.81 613.984   2
 -17  17   2 2443.75 581.421   1
   0 -17   2 2045.74 738.703   4
   0 -17   5 260.485 498.157   2
   0 -17   5 378.087 553.409   4
   0 -17   8 512.920 541.742   4
 -18   0  -6 714.555 889.163   2
 -18   0  -6 1171.15 455.459   3
  18 -18  -6 2791.44 919.670   3
   0  18  -6 1819.07 773.627   1
 -18   0  -6 1104.67 686.870   4
 -18   0  -3 770.140 768.283   2
 -18   0  -3 296.706 176.194   3
  18 -18  -3 821.479 594.520   3
   0  18  -3-188.318 642.012   2
 -18   0  -3 180.421 576.834   4
   0  18  -3 584.939 632.690   1
 -18   0   0 2352.55 823.021   2
  18 -18   0 900.109 551.661   2
   0  18   0 1365.30 566.240   3
  18 -18   0 968.260 601.141   3
   0  18   0 1087.66 562.098   1
 -18   0   0 1021.19 415.837   3
 -18   0   0 2857.03 844.833   4
  18 -18   3-295.925 468.581   2
   0  18   3-678.613 566.183   1
   0  18   3-68.2775 541.835   3
 -18   0   3 1622.13 806.998   2
  18 -18   3-268.288 665.869   3
 -18   0   3 191.317 628.573   4
 -18   0   6 1554.60 898.508   2
  18 -18   6 3044.32 657.408   4
 -18   0   6 3431.98 974.377   4
 -18   1  -7 5577.07 821.009   3
 -17  -1  -7 5915.52 784.604   3
  18 -17  -7 8749.15 1528.28   3
  17 -18  -7 5590.96 1268.08   3
   1  17  -7 6864.63 1201.28   1
  -1  18  -7 5388.10 1134.54   1
 -17  -1  -7 7936.37 1101.96   4
 -18   1  -7 5042.30 949.646   4
 -17  -1  -7 4507.84 1223.51   2
 -18   1  -7 6731.36 1262.09   2
 -17  -1  -4 1238.80 235.167   3
 -17  -1  -4 1568.11 796.844   2
 -18   1  -4 2196.87 857.106   2
 -17  -1  -4 1031.08 213.368   3
 -18   1  -4 1185.98 332.146   3
  18 -17  -4 632.398 715.858   3
  17 -18  -4 2766.09 787.878   3
  -1  18  -4 1118.51 656.233   2
   1  17  -4 1368.47 770.840   2
  -1  18  -4 1472.67 722.297   1
 -17  -1  -4 1659.69 680.396   4
   1  17  -4 2189.17 750.408   1
 -18   1  -4 2095.85 707.275   4
 -17  -1  -1 1596.32 283.241   3
  -1  18  -1 2279.88 683.598   1
 -17  -1  -1 2941.85 869.082   2
 -18   1  -1 1613.41 790.446   2
  17 -18  -1 1847.11 661.146   1
   1  17  -1 1632.66 629.970   1
 -18   1  -1 2726.36 717.220   4
  18 -17  -1 2740.41 727.182   3
  17 -18  -1 1228.32 608.495   3
   1  17  -1 2134.24 554.330   3
 -18   1  -1 2662.66 466.789   3
 -17  -1  -1 4638.06 955.351   4
 -18   1   2 2699.21 669.211   3
  18 -17   2 1464.92 549.391   2
  17 -18   2 2677.35 573.858   2
  -1  18   2 1909.16 636.565   1
 -17  -1   2 1013.90 633.620   2
   1  17   2 2501.79 671.332   3
  -1  18   2 594.067 556.384   3
 -18   1   2 2247.31 838.599   2
   1  17   2 3171.69 738.471   1
  18 -17   2 939.079 664.446   3
  17 -18   2 1477.11 705.469   3
 -17  -1   2 3566.26 879.638   4
 -18   1   2 2921.84 779.718   4
   1  17   5 2466.97 790.410   3
 -17  -1   5 3279.35 907.539   2
 -18   1   5 4023.26 1000.48   2
  17 -18   5 2963.14 672.546   4
 -18   1   5 3499.93 1025.27   4
  18 -17   5 3475.91 695.987   4
 -17  -1   5 4188.81 981.572   4
 -17  -1   8 515.068 812.404   2
 -18   1   8 234.569 876.218   2
 -17  -1   8 970.454 763.653   4
 -18   1   8 1787.53 848.349   4
 -18   2  -8-536.543 570.407   3
 -16  -2  -8 1481.23 645.440   3
  18 -16  -8 248.926 833.992   3
  16 -18  -8 852.665 912.911   3
  -2  18  -8 1510.12 802.595   1
   2  16  -8 425.199 754.718   1
 -18   2  -8 714.783 794.816   1
 -16  -2  -8 1517.34 724.042   4
 -18   2  -8 767.388 597.782   4
 -16  -2  -8 1192.41 958.016   2
 -18   2  -8 1846.34 1017.64   2
 -18   2  -5 893.473 794.205   2
 -16  -2  -5 753.192 279.621   3
  18 -16  -5 71.5405 646.419   3
  16 -18  -5 276.374 597.840   3
 -16  -2  -5 674.283 231.914   3
 -18   2  -5 1258.94 439.156   3
  -2  18  -5 1663.33 769.271   1
   2  16  -5 58.2539 590.912   1
  -2  18  -5 1341.78 647.365   2
   2  16  -5 759.239 686.188   2
 -16  -2  -5 1955.86 806.122   4
 -18   2  -5 1289.80 658.343   4
 -16  -2  -5 993.317 831.179   2
 -16  -2  -2 1734.79 839.041   2
 -18   2  -2 1879.62 736.888   2
   2  16  -2 2025.40 699.908   1
 -18   2  -2 1752.09 401.647   3
  18 -16  -2 1980.61 638.632   3
  16 -18  -2 1374.18 611.073   3
 -16  -2  -2 3282.68 820.131   4
  -2  18  -2 1719.67 637.484   1
  16 -18  -2 1700.13 581.276   1
 -18   2  -2 2569.81 711.425   4
 -18   2   1-469.468 492.008   3
 -16  -2   1 1143.01 683.965   2
  18 -16   1 319.888 487.851   2
 -18   2   1-505.848 513.983   2
   2  16   1 783.095 534.719   1
  16 -18   1 221.007 385.085   2
   2  16   1 814.328 480.144   3
  -2  18   1 1484.10 654.687   3
  -2  18   1 816.883 512.887   1
  18 -16   1 294.965 550.819   3
  16 -18   1-30.0017 514.202   3
 -16  -2   1 703.415 564.328   4
 -18   2   1 987.996 648.374   4
   2  16   4 625.442 469.078   3
 -16  -2   4-14.9546 570.351   2
 -18   2   4-1214.23 703.759   2
  18 -16   4-67.4895 377.708   2
 -16  -2   4 130.875 623.761   4
  18 -16   4 89.4940 460.036   4
 -18   2   4-779.199 682.964   4
  16 -18   4 584.010 515.644   4
 -16  -2   7 1082.77 886.980   2
 -18   2   7-45.2096 696.427   2
  16 -18   7 66.9294 289.448   4
 -16  -2   7 180.251 667.439   4
 -18   2   7-760.828 698.557   4
 -18   3  -6 415.580 726.200   2
 -15  -3  -6 1025.96 403.542   3
  18 -15  -6 1099.83 841.358   3
  15 -18  -6-40.1344 729.645   3
  -3  18  -6 156.463 699.886   1
 -18   3  -6 302.665 451.308   3
 -15  -3  -6 544.849 313.346   3
  -3  18  -6 858.395 471.238   2
   3  15  -6-396.431 638.100   1
 -15  -3  -6 8.51807 555.441   4
 -18   3  -6 651.616 597.725   4
 -15  -3  -6-209.739 759.402   2
 -15  -3  -3 2855.48 955.334   2
 -18   3  -3 3032.25 874.584   2
   3  15  -3 1242.00 672.573   1
  15 -18  -3 1675.81 535.568   1
 -18   3  -3 1208.70 390.286   3
  18 -15  -3 1190.90 663.998   3
  15 -18  -3 2113.72 739.963   3
  -3  18  -3 1602.38 701.443   1
   3  15  -3-124.451 653.864   2
 -15  -3  -3 2635.79 775.457   4
 -18   3  -3 2674.73 744.430   4
  -3  18   0 2393.25 638.339   1
 -15  -3   0 1863.33 784.252   2
 -18   3   0 1838.92 532.080   3
 -18   3   0 2356.08 748.506   2
  18 -15   0 1587.00 626.228   2
   3  15   0 1179.36 412.098   3
  15 -18   0 974.919 445.343   2
  18 -15   0 802.223 529.251   3
  15 -18   0 1305.45 635.194   3
 -15  -3   0 2897.11 827.898   4
 -18   3   0 1508.01 669.395   4
   3  15   0 1413.54 570.696   1
  15 -18   3 1144.97 314.689   2
   3  15   3 262.434 408.046   3
 -15  -3   3 1481.73 696.740   2
  18 -15   3 1018.19 582.231   4
 -18   3   3 1664.95 690.161   2
  18 -15   3 376.282 570.943   3
  -3  18   3 448.128 489.358   1
  15 -18   3 917.417 531.480   4
 -15  -3   3 917.695 590.169   4
 -18   3   3 994.354 674.291   4
  18 -15   3 438.777 480.292   2
   3  15   6 1348.60 682.096   3
 -18   3   6 1744.55 695.905   1
 -15  -3   6 1878.14 838.318   2
 -18   3   6 2560.86 1013.72   2
  15 -18   6 1587.56 575.010   4
  18 -15   6 1784.76 501.799   4
 -15  -3   6 2303.14 805.760   4
  15 -18   6 2159.45 537.040   4
 -18   3   6 3140.24 890.795   4
 -18   4  -7 3550.98 1054.43   2
 -14  -4  -7 3376.29 656.303   3
  -4  18  -7 4594.63 1141.53   1
  18 -14  -7 3902.68 1064.65   3
  14 -18  -7 2582.39 989.207   3
 -14  -4  -7 2428.99 759.688   4
 -18   4  -7 1834.82 990.317   1
   4  14  -7 2361.36 852.124   1
 -14  -4  -7 3113.54 1142.46   2
 -18   4  -7 3743.87 731.246   4
 -18   4  -4 4603.39 913.936   2
 -18   4  -4 3921.50 618.918   3
  -4  18  -4 5063.48 996.978   1
  18 -14  -4 4055.15 903.720   3
  14 -18  -4 3898.62 845.484   3
  14 -18  -4 4726.93 616.678   1
 -14  -4  -4 5467.87 965.652   4
   4  14  -4 5210.87 891.338   1
 -18   4  -4 5290.97 867.431   4
 -14  -4  -4 4625.86 1112.66   2
 -14  -4  -1 4638.83 888.952   2
 -18   4  -1 3900.97 620.373   3
 -18   4  -1 3833.83 873.242   2
  14 -18  -1 4076.09 800.889   3
   4  14  -1 3863.44 571.684   3
  18 -14  -1 3246.90 727.627   3
  -4  18  -1 4629.69 843.757   1
  14 -18  -1 3075.41 739.619   2
   4  14  -1 4020.57 767.578   1
 -18   4  -1 4931.57 883.608   4
 -14  -4  -1 3812.64 855.227   4
  14 -18  -1 3235.00 723.747   1
  18 -14   2 1932.06 589.797   2
   4  14   2 3501.71 590.768   3
 -18   4   2 3088.45 783.212   3
   4  14   2 2760.90 685.459   1
 -14  -4   2 2709.87 780.662   2
 -18   4   2 3278.47 791.481   2
 -14  -4   2 2645.51 754.577   4
  18 -14   2 1530.65 615.677   3
  14 -18   2 1916.88 707.413   3
  -4  18   2 3835.26 703.491   1
  14 -18   2 2827.47 471.409   2
 -18   4   2 3941.17 836.804   4
  18 -14   5 2261.53 644.135   2
   4  14   5 3181.27 671.024   3
 -14  -4   5 4434.30 927.976   2
 -18   4   5 4176.23 964.640   2
 -18   4   5 3378.84 693.906   1
  18 -14   5 2929.77 619.393   4
  14 -18   5 3715.64 673.689   4
 -14  -4   5 2707.86 881.155   4
 -18   4   5 4315.38 985.071   4
 -18   4   8 2382.95 897.602   4
 -14  -4   8 57.3428 894.961   2
 -14  -4   8 1084.81 678.504   4
 -18   5  -8 2484.47 934.437   2
   5  13  -8 3876.16 1248.88   3
  -5  18  -8 1448.90 852.815   1
 -13  -5  -8 1669.02 675.512   3
  18 -13  -8 2745.23 1037.67   3
  13 -18  -8 1710.59 851.699   3
 -13  -5  -8 2136.82 778.030   4
 -13  -5  -8 2748.82 1270.79   2
 -18   5  -8 2086.74 1050.10   1
   5  13  -8 1865.57 884.431   1
 -18   5  -8 2912.92 638.632   4
   5  13  -5 696.489 538.887   1
 -18   5  -5 291.286 674.159   2
 -13  -5  -5 105.726 170.117   3
  18 -13  -5 344.295 642.280   3
  13 -18  -5 911.932 744.580   3
 -18   5  -5-251.819 443.261   3
  13 -18  -5 294.642 279.396   1
 -13  -5  -5 17.3249 152.413   3
  -5  18  -5 1141.18 701.399   1
 -18   5  -5 772.464 935.495   1
 -13  -5  -5 986.255 596.671   4
 -13  -5  -5-1253.78 815.230   2
 -18   5  -5-131.410 476.765   4
 -13  -5  -2 316.206 648.581   2
  13 -18  -2 1471.60 539.094   1
 -18   5  -2 1915.91 707.649   2
 -18   5  -2 1236.28 471.196   3
  18 -13  -2 1544.10 605.411   3
  -5  18  -2 1644.28 592.580   1
  13 -18  -2 1412.08 604.979   3
   5  13  -2 1549.43 509.792   3
   5  13  -2 1530.36 529.127   1
 -13  -5  -2 2071.54 633.581   4
 -18   5  -2 408.835 436.516   4
 -18   5   1 4299.19 811.042   3
  13 -18   1 3713.95 564.685   2
  18 -13   1 4674.94 787.491   2
   5  13   1 5148.08 592.978   3
  18 -13   1 4947.50 830.961   3
  13 -18   1 3941.44 833.815   3
   5  13   1 5710.39 922.426   1
 -13  -5   1 4529.84 927.623   2
  -5  18   1 3849.36 692.614   1
 -13  -5   1 5168.23 968.482   4
 -18   5   1 5785.69 930.329   4
 -18   5   1 6269.31 983.925   2
   5  13   4 1450.69 464.062   3
 -18   5   4 1243.59 406.822   1
  18 -13   4 1712.01 638.994   2
 -13  -5   4 598.710 592.376   2
 -18   5   4 1324.17 715.510   2
  -5  18   4 1918.80 576.395   1
  18 -13   4 1190.13 545.875   4
 -13  -5   4 1988.18 733.632   4
 -18   5   4 2058.14 692.373   4
 -13  -5   7 2443.86 983.497   2
  13 -18   7 899.795 345.383   4
 -13  -5   7 891.749 652.424   4
 -18   5   7 1866.38 848.174   4
 -18   6  -9 848.617 735.668   2
   6  12  -9 1700.64 1165.14   3
  -6  18  -9 1643.41 878.760   1
 -12  -6  -9 538.197 682.091   3
  18 -12  -9 962.504 948.117   3
  12 -18  -9 1764.39 1006.93   3
 -12  -6  -9 809.163 713.156   4
 -12  -6  -9 3121.23 1342.20   2
   6  12  -9 2191.29 849.400   1
 -18   6  -9 1662.11 1043.07   1
 -18   6  -6 173.063 587.359   2
  -6  18  -6 737.177 665.548   1
 -12  -6  -6 1116.52 671.126   4
   6  12  -6-547.796 583.438   1
 -18   6  -6 101.033 480.446   4
  18 -12  -6-478.684 638.901   3
  12 -18  -6 1423.08 811.375   3
 -18   6  -6-1156.85 863.423   1
 -12  -6  -6 27.3318 899.899   2
 -12  -6  -6-387.398 367.884   3
  12 -18  -3 2472.24 587.397   1
 -18   6  -3 2827.70 775.101   2
  -6  18  -3 2340.26 696.760   1
  18 -12  -3 3265.41 780.715   3
 -18   6  -3 2878.40 586.928   3
  12 -18  -3 3800.35 799.159   3
   6  12  -3 2617.13 754.829   1
 -12  -6  -3 3476.15 805.246   4
 -18   6  -3 4070.97 753.096   4
 -12  -6  -3 2969.38 954.674   2
 -12  -6   0 429.973 611.716   2
  18 -12   0 453.974 554.152   2
 -18   6   0 642.839 500.954   3
 -18   6   0-122.530 524.497   2
  18 -12   0-632.035 453.767   3
   6  12   0 81.5803 296.358   3
  12 -18   0-236.721 459.716   3
  12 -18   0-422.930 426.879   2
  -6  18   0-310.901 497.972   1
 -12  -6   0-607.973 582.266   4
   6  12   0-422.229 502.736   1
 -18   6   0 597.005 571.366   4
   6  12   3 1923.54 363.782   3
 -12  -6   3 2548.04 743.160   2
 -18   6   3 2597.63 530.634   1
 -18   6   3 3125.71 827.179   2
  12 -18   3 2440.19 262.563   2
 -18   6   3 4417.20 942.026   4
 -12  -6   3 2084.15 771.051   4
  18 -12   3 3180.41 722.467   4
  18 -12   3 2189.35 727.596   2
  -6  18   3 4256.81 691.951   1
 -18   6   6 102.689 411.874   1
 -12  -6   6 31.2519 593.807   2
 -18   6   6-263.634 720.532   2
  12 -18   6 528.742 424.853   4
  18 -12   6 301.986 423.676   4
 -12  -6   6 123.165 556.136   4
  12 -18   6 32.9340 388.958   4
 -18   6   6 784.134 694.460   4
 -12  -6   9 277.914 638.244   4
 -18   7  -7 1448.50 665.975   2
   7  11  -7 1562.73 976.194   3
   7  11  -7 1770.02 763.899   1
 -11  -7  -7 540.049 446.376   3
  18 -11  -7 2076.55 873.684   3
  11 -18  -7 302.706 660.432   3
 -11  -7  -7 1290.02 726.118   4
 -11  -7  -7 2621.17 1070.07   2
 -18   7  -7 1642.10 871.263   1
  -7  18  -7 751.132 775.842   1
 -18   7  -7 1192.79 502.773   4
  -7  18  -4 3883.90 877.935   1
 -18   7  -4 4073.63 800.093   2
  11 -18  -4 3423.59 576.528   1
  18 -11  -4 3447.60 806.223   3
  11 -18  -4 2926.27 810.657   3
 -18   7  -4 2646.05 603.785   3
   7  11  -4 3537.78 787.473   1
 -18   7  -4 3475.66 1050.26   1
 -11  -7  -4 3881.90 869.358   4
 -18   7  -4 4570.09 802.262   4
 -11  -7  -4 1947.30 839.358   2
  11 -18  -1 6587.16 881.188   1
 -18   7  -1 8101.81 938.084   3
   7  11  -1 7041.89 981.622   1
  18 -11  -1 6315.24 896.191   3
  11 -18  -1 7153.36 936.066   3
  -7  18  -1 7396.16 985.945   1
   7  11  -1 6466.13 626.527   3
 -11  -7  -1 8537.57 1128.52   4
 -11  -7  -1 8537.38 1194.96   2
 -18   7  -1 8865.71 1018.20   4
 -18   7  -1 6199.57 944.617   2
  18 -11   2 3077.70 696.516   2
   7  11   2 2127.10 287.032   3
  11 -18   2 2991.22 439.155   2
 -18   7   2 2688.96 742.325   2
  18 -11   2 2704.71 695.960   3
  11 -18   2 1944.84 618.835   3
  11 -18   2 4951.13 679.228   2
  -7  18   2 3023.92 600.759   1
 -11  -7   2 3683.79 834.431   4
 -11  -7   2 3830.42 906.564   2
 -18   7   2 3352.12 814.562   4
 -18   7   5 8786.15 1323.27   2
 -18   7   5 5022.43 670.598   1
  11 -18   5 7530.02 923.446   4
  18 -11   5 5821.78 760.380   4
  18 -11   5 3527.71 868.888   2
 -11  -7   5 7815.28 1068.74   4
 -18   7   5 9025.70 1265.01   4
 -11  -7   5 9111.30 1223.05   2
 -11  -7   8 1259.77 827.472   2
 -11  -7   8 630.197 671.446   4
 -18   8  -8 2224.88 1120.78   1
 -18   8  -8 1785.99 811.074   2
   8  10  -8 2285.15 1017.38   3
   8  10  -8 2485.62 861.880   1
 -10  -8  -8 1904.94 644.532   3
  18 -10  -8 1243.00 927.158   3
  10 -18  -8 500.621 928.339   3
 -10  -8  -8 941.381 771.234   4
 -10  -8  -8 146.049 1014.64   2
  -8  18  -8 2371.26 901.309   1
   8  10  -5 2810.46 851.635   3
 -18   8  -5 3639.67 796.831   2
 -10  -8  -5 2256.53 333.914   3
  18 -10  -5 3198.35 908.222   3
  10 -18  -5 2483.37 493.977   1
  10 -18  -5 3415.78 866.305   3
   8  10  -5 2723.86 743.917   1
 -18   8  -5 3960.43 1122.33   1
 -10  -8  -5 2823.42 756.333   4
 -18   8  -5 4604.01 787.265   4
 -10  -8  -5 4852.95 1195.65   2
  -8  18  -5 3352.48 896.197   1
  -8  18  -2 2026.72 718.768   1
 -18   8  -2 1850.92 625.514   2
   8  10  -2 2271.43 681.360   1
  18 -10  -2 2197.42 649.092   3
  10 -18  -2 1877.06 566.285   1
 -18   8  -2 2311.83 604.465   3
  10 -18  -2 2192.18 626.133   3
 -10  -8  -2 1581.75 648.854   4
 -10  -8  -2 2809.51 888.528   2
 -18   8  -2 2429.48 630.818   4
   8  10   1 4434.45 364.636   3
 -18   8   1 4004.36 794.205   3
  18 -10   1 5885.08 872.632   3
  10 -18   1 7247.54 1029.45   3
  -8  18   1 5107.87 755.558   1
 -10  -8   1 5421.50 899.879   4
 -10  -8   1 6439.87 1028.53   2
 -18   8   1 5799.84 926.670   4
  18 -10   1 5871.66 959.455   2
 -18   8   1 5789.90 916.237   2
 -10  -8   4 2514.98 762.197   2
  -8  18   4 2597.46 570.179   1
 -18   8   4 3596.75 920.906   2
  10 -18   4 2120.20 637.927   4
 -10  -8   4 4041.92 908.288   4
  18 -10   4 2178.05 806.007   2
  18 -10   4 2385.84 615.034   4
 -18   8   4 4864.92 951.662   4
 -18   8   4 1836.27 467.190   1
 -10  -8   7 1525.25 791.902   2
  18 -10   7 947.354 380.564   4
  10 -18   7 954.194 403.671   4
 -18   9  -9 624.011 703.265   2
 -18   9  -9 1148.32 1070.20   1
   9   9  -9 364.503 1020.15   3
  -9  -9  -9 2187.26 806.071   3
  18  -9  -9 2833.05 1195.55   3
   9 -18  -9 1140.83 841.787   3
   9   9  -9 1173.94 734.183   1
  -9  -9  -9 1279.66 810.669   4
  -9  -9  -9 406.893 1017.34   2
  -9  18  -9 696.791 827.417   1
   9   9  -6 1050.78 750.188   3
 -18   9  -6-272.741 473.319   2
  18  -9  -6 1023.63 759.549   3
  -9  -9  -6 447.933 360.655   3
   9 -18  -6 1006.39 695.046   3
   9 -18  -6 590.572 374.723   1
   9   9  -6 671.769 669.522   1
  -9  18  -6-395.704 614.279   1
  -9  -9  -6 42.2230 603.840   4
  -9  -9  -6 2260.73 971.081   2
 -18   9  -6 1333.22 970.898   1
 -18   9  -6 308.963 439.565   4
   9   9  -3 2033.98 646.148   3
   9   9  -3 3407.98 757.779   1
   9 -18  -3 3823.55 830.719   3
 -18   9  -3 2775.61 701.475   2
  18  -9  -3 3171.61 768.573   3
 -18   9  -3 2449.24 597.257   3
   9 -18  -3 1250.60 462.737   1
  -9  -9  -3 3170.14 805.570   4
 -18   9  -3 2192.26 845.042   1
  -9  18  -3 2648.87 762.050   1
  -9  -9  -3 1981.79 841.495   2
 -18   9  -3 2946.75 623.873   4
  -9  -9   0 301.849 600.846   2
   9   9   0 232.648 239.556   3
   9   9   0 600.135 519.174   1
  -9  18   0-459.921 473.831   1
 -18   9   0 488.500 551.884   3
  -9  -9   0 349.811 525.279   4
 -18   9   0-317.504 496.918   2
  18  -9   0-64.5904 444.782   3
   9   9   0-132.134 191.813   3
   9 -18   0-223.557 471.815   3
 -18   9   0 289.714 442.158   4
  -9  18   3 2370.17 499.818   1
  -9  -9   3 2080.43 706.793   2
 -18   9   3 1631.05 737.664   2
   9 -18   3 2824.88 755.881   4
   9 -18   3 1414.05 308.987   2
  -9  -9   3 2328.18 757.495   4
  18  -9   3 2310.88 701.119   4
  18  -9   3 1508.20 753.773   2
 -18   9   3 2667.22 766.466   4
 -18   9   6 344.498 681.490   4
  -9  -9   6-555.000 565.136   2
   9 -18   6-865.701 483.358   4
  18  -9   6 541.389 446.274   4
 -18   9   6 113.646 182.234   1
 -18   9   6 265.386 193.347   1
  -9  -9   6 241.980 541.826   4
  -9  -9   9 102.213 624.651   4
 -18  10  -7 2812.70 1171.74   1
 -18  10  -7 1742.55 622.485   2
  10   8  -7 2588.10 1042.93   3
  18  -8  -7 1831.62 920.233   3
  -8 -10  -7 2021.33 556.701   3
   8 -18  -7 1111.74 771.647   3
  10   8  -7 1959.82 791.633   1
 -10  18  -7 1001.58 852.801   1
  -8 -10  -7 1735.61 720.366   4
  -8 -10  -7 2410.23 1036.53   2
  10   8  -4 3901.36 811.220   1
  10   8  -4 2261.67 721.360   3
  -8 -10  -4 2554.58 307.433   3
 -18  10  -4 2990.08 649.242   2
  18  -8  -4 3585.48 864.782   3
   8 -18  -4 3336.35 800.629   3
  -8 -10  -4 3153.27 1045.24   2
 -10  18  -4 2868.84 747.572   1
   8 -18  -4 2728.77 624.847   1
  -8 -10  -4 3665.21 778.532   4
 -18  10  -4 4282.08 763.046   4
 -18  10  -4 4494.36 1103.67   1
  10   8  -1 6940.77 688.977   3
 -10  18  -1 5751.73 906.499   1
 -18  10  -1 4051.92 831.459   3
  18  -8  -1 5505.61 800.902   3
   8 -18  -1 5211.22 833.220   3
  10   8  -1 7293.01 981.337   1
 -18  10  -1 5646.00 963.345   1
  -8 -10  -1 5632.72 929.434   4
  -8 -10  -1 5696.26 1084.59   2
   8 -18  -1 5301.95 828.700   1
 -18  10  -1 7173.66 959.006   4
 -18  10  -1 4773.98 799.261   2
  -8 -10   2 2668.09 757.575   2
 -18  10   2 3127.55 788.811   2
  18  -8   2 1485.29 534.889   3
 -10  18   2 2214.56 557.240   1
   8 -18   2 3462.25 756.296   4
  -8 -10   2 3669.32 867.144   4
 -18  10   2 2175.96 556.336   1
   8 -18   2 3194.77 642.962   2
  18  -8   2 1420.66 739.015   2
 -18  10   2 3322.88 814.837   4
 -18  10   5 4085.39 955.081   4
  -8 -10   5 3877.81 840.165   2
 -18  10   5 2267.90 392.363   1
   8 -18   5 3072.58 707.664   4
  18  -8   5 2331.91 826.016   2
  18  -8   5 2232.42 598.716   4
 -18  10   5 2012.69 371.969   1
  -8 -10   5 2599.74 765.518   4
  -8 -10   8 1381.36 874.272   2
   8 -18   8 429.204 289.107   4
  -8 -10   8 1428.70 702.718   4
 -18  11  -8 82.8148 455.134   2
 -18  11  -8 1105.49 929.588   1
  11   7  -8 1324.63 962.340   3
  18  -7  -8 1924.97 940.817   3
  -7 -11  -8 482.921 587.677   3
   7 -18  -8 867.560 787.290   3
 -11  18  -8 871.112 826.666   1
  -7 -11  -8 2450.66 928.863   4
  11   7  -8 1431.55 711.797   1
  -7 -11  -8 1739.31 1195.86   2
  11   7  -5 9574.26 1280.85   3
   7 -18  -5 6540.46 821.696   1
  11   7  -5 5790.08 955.334   1
  18  -7  -5 7719.94 1211.10   3
  -7 -11  -5 7180.19 638.875   3
   7 -18  -5 7474.60 1114.96   3
  -7 -11  -5 6803.55 1097.06   4
  -7 -11  -5 7819.24 1540.03   2
 -18  11  -5 9648.61 1586.49   1
 -18  11  -5 5122.65 743.875   2
 -11  18  -5 8522.97 1238.82   1
  11   7  -2 4337.04 675.880   3
  11   7  -2 3635.87 721.539   1
  18  -7  -2 3408.08 696.984   3
 -18  11  -2 2239.15 591.330   2
   7 -18  -2 2341.86 696.357   3
  -7 -11  -2 3481.29 1024.51   2
   7 -18  -2 3298.09 706.195   1
 -11  18  -2 3354.21 749.031   1
  -7 -11  -2 4006.92 855.648   4
 -18  11  -2 5008.90 827.637   4
 -18  11  -2 2481.51 845.823   1
 -18  11   1 7775.31 1087.50   2
 -11  18   1 8773.61 934.567   1
  18  -7   1 7430.46 882.649   3
   7 -18   1 7933.22 1069.92   3
   7 -18   1 7469.69 1015.11   4
   7 -18   1 7622.70 1015.73   2
 -18  11   1 8069.40 909.104   1
  -7 -11   1 8836.94 1132.05   4
  -7 -11   1 7243.85 1049.33   2
 -18  11   1 9497.72 1135.39   4
 -18  11   4 4708.24 976.180   4
 -18  11   4 2925.20 460.458   1
  -7 -11   4 3471.68 811.128   2
 -18  11   4 3668.33 914.680   2
   7 -18   4 4647.81 812.888   4
 -18  11   4 4009.69 561.955   1
  18  -7   4 3257.25 714.129   4
  -7 -11   4 3305.41 801.375   4
 -11  18   4 4292.31 587.591   1
  -7 -11   7 1406.08 739.688   2
  18  -7   7 327.767 451.063   4
   7 -18   7 1529.56 500.998   4
  -7 -11   7 2037.27 724.340   4
  12   6  -9 1127.22 972.402   3
 -18  12  -9-264.296 874.891   1
  -6 -12  -9-37.7049 794.060   4
  18  -6  -9 1884.07 1115.81   3
  -6 -12  -9 954.169 741.908   3
   6 -18  -9 204.977 795.683   3
   6 -18  -9-518.344 903.132   4
 -12  18  -9 989.950 785.129   1
  -6 -12  -9-808.108 1119.63   2
  12   6  -9 1097.68 727.337   1
   6 -18  -6 324.904 517.249   1
 -18  12  -6 905.752 878.119   1
  12   6  -6-931.742 675.040   3
 -18  12  -6 766.210 457.798   2
  18  -6  -6 249.413 716.785   3
  12   6  -6 9.65683 530.662   1
  -6 -12  -6 488.091 408.048   3
   6 -18  -6 349.217 683.172   3
 -12  18  -6 477.571 591.289   1
  -6 -12  -6 774.115 632.722   4
  -6 -12  -6-288.686 903.507   2
  12   6  -3 4111.76 772.005   3
  18  -6  -3 3760.10 773.841   3
  -6 -12  -3 3587.90 401.077   3
 -18  12  -3 2486.60 564.864   2
   6 -18  -3 3487.97 775.504   3
 -18  12  -3 6017.04 1155.67   1
  -6 -12  -3 4299.13 879.386   4
  -6 -12  -3 3124.48 986.452   2
   6 -18  -3 2760.70 692.962   1
 -12  18  -3 5339.91 983.949   1
  12   6  -3 3771.29 758.965   1
 -18  12   0-1041.59 534.125   4
   6 -18   0 486.792 546.284   4
  12   6   0 78.3187 173.954   3
   6 -18   0-466.168 646.206   2
  18  -6   0 224.473 379.185   3
 -18  12   0 360.565 430.758   2
   6 -18   0 862.602 560.754   3
  -6 -12   0 382.098 577.520   4
 -12  18   0 292.492 451.847   1
 -18  12   0 521.316 543.427   1
  -6 -12   0 203.931 554.819   2
   6 -18   3 2638.37 494.519   2
  -6 -12   3 1538.32 620.816   2
  -6 -12   3 1971.11 645.215   4
 -12  18   3 3329.26 579.032   1
 -18  12   3 3196.24 868.413   2
   6 -18   3 2684.03 693.758   4
 -18  12   3 2303.02 503.581   1
  -6 -12   6 376.794 560.615   2
  18  -6   6 255.098 485.007   4
   6 -18   6-271.630 454.142   4
  -6 -12   6-383.319 599.572   4
  -6 -12   9 1211.10 681.354   4
  13   5  -7 1603.59 805.682   3
 -18  13  -7 4665.95 1279.57   1
  -5 -13  -7 2082.30 794.845   4
 -18  13  -7 1252.12 459.041   2
  18  -5  -7 3710.88 1108.79   3
  -5 -13  -7 1967.88 618.886   3
   5 -18  -7 1114.26 739.137   3
  13   5  -7 2259.41 732.561   1
 -13  18  -7 2519.48 880.057   1
   5 -18  -7 2261.62 911.780   4
  -5 -13  -7 1941.46 1063.49   2
 -18  13  -4 2771.32 878.570   1
  -5 -13  -4 2908.64 1085.08   2
   5 -18  -4 2189.07 664.755   1
  13   5  -4 3376.29 788.215   3
  18  -5  -4 1479.12 581.456   3
 -18  13  -4 1419.83 422.226   2
   5 -18  -4 1427.91 613.801   3
  -5 -13  -4 1134.98 370.103   3
  13   5  -4 2066.34 632.081   1
 -13  18  -4 2458.82 778.472   1
  -5 -13  -4 1228.80 669.449   4
  13   5  -1 4273.38 543.720   3
 -18  13  -1 4812.77 755.874   2
  18  -5  -1 5136.46 728.246   3
   5 -18  -1 3855.73 784.420   3
  -5 -13  -1 4377.67 882.583   4
   5 -18  -1 5967.56 1011.14   4
   5 -18  -1 6158.63 1094.77   2
 -18  13  -1 4770.92 901.933   1
  -5 -13  -1 4579.56 1035.93   2
 -13  18  -1 5442.74 866.845   1
 -18  13   2 1098.57 488.745   1
  -5 -13   2 345.998 479.927   2
 -13  18   2 1095.97 444.071   1
  18  -5   2 1056.77 452.906   3
 -18  13   2 1536.63 662.559   2
   5 -18   2 1625.49 611.195   2
  -5 -13   2 2135.58 676.030   4
   5 -18   2 619.104 614.227   4
  18  -5   5 354.727 548.962   4
  -5 -13   5 465.948 653.703   2
   5 -18   5 77.0525 199.359   2
 -18  13   5-152.922 113.637   1
   5 -18   5-510.310 554.199   4
  -5 -13   5-49.6928 535.945   4
  -5 -13   8 2099.38 861.205   2
   5 -18   8 1481.47 478.792   4
  -5 -13   8 1561.58 757.549   4
  14   4  -8 551.489 846.688   3
 -18  14  -8 4366.70 1321.71   1
  18  -4  -8 3138.23 1125.17   3
  -4 -14  -8 1298.19 660.170   3
   4 -18  -8 1521.87 843.086   3
  -4 -14  -8 1476.50 1180.27   2
 -14  18  -8 781.823 757.205   1
   4 -18  -8 513.342 775.971   4
   4 -18  -8 92.5979 1173.12   2
  -4 -14  -8 1182.49 868.281   4
  14   4  -8 563.339 554.853   1
  14   4  -5 7015.99 1159.93   3
 -18  14  -5 4281.18 1152.27   1
  18  -4  -5 3653.55 882.941   3
   4 -18  -5 3499.84 781.246   1
  14   4  -5 4820.30 854.700   1
   4 -18  -5 4210.61 788.027   3
  -4 -14  -5 3059.03 556.663   3
 -14  18  -5 5951.45 1097.11   1
  -4 -14  -5 5289.61 1008.64   4
   4 -18  -5 4736.61 1075.87   4
  -4 -14  -5 3195.82 1187.17   2
 -18  14  -5 2721.72 477.775   2
   4 -18  -5 4945.22 1327.23   2
 -18  14  -2 2509.15 781.801   1
  18  -4  -2 4363.54 766.641   3
  14   4  -2 3214.87 589.448   3
  -4 -14  -2 4070.44 546.162   3
 -18  14  -2 2133.46 535.666   2
   4 -18  -2 2179.68 626.610   3
 -14  18  -2 2727.80 756.743   1
   4 -18  -2 2549.39 841.326   4
   4 -18  -2 1519.23 694.000   2
  -4 -14  -2 4811.34 1112.79   2
  -4 -14  -2 1670.75 696.579   4
 -14  18   1 5722.36 799.796   1
  -4 -14   1 3912.04 804.300   2
 -18  14   1 5878.26 983.289   2
  18  -4   1 4505.78 679.984   3
   4 -18   1 5521.05 973.594   4
  -4 -14   1 4878.18 925.640   4
   4 -18   1 4596.12 914.506   2
 -18  14   1 5469.84 824.126   1
  -4 -14   4 3874.26 767.663   2
 -14  18   4 6094.45 572.297   1
   4 -18   4 5980.04 897.987   4
  -4 -14   4 5040.65 948.377   4
 -18  14   4 4791.84 507.682   1
   4 -18   4 5007.56 643.346   2
  -4 -14   7 2856.64 843.464   2
   4 -18   7 2987.29 686.837   4
  -4 -14   7 3461.70 837.370   4
  15   3  -6 2789.29 929.376   3
 -18  15  -6 1326.26 905.719   1
  18  -3  -6 2430.12 881.714   3
  -3 -15  -6 1341.95 519.401   3
   3 -18  -6 2233.49 784.992   3
 -18  15  -6 1520.37 287.112   2
 -15  18  -6 2034.89 703.938   1
   3 -18  -6 2289.20 959.201   4
   3 -18  -6 3150.50 1301.70   2
  -3 -15  -6 1211.42 782.655   4
  -3 -15  -6 1413.66 1046.99   2
  15   3  -6 1974.38 688.486   1
 -18  15  -3 1412.78 696.000   1
  15   3  -3 1782.96 580.134   3
  18  -3  -3 1468.66 622.032   3
 -15  18  -3 1368.43 631.846   1
   3 -18  -3 1054.65 598.319   3
 -18  15  -3 591.765 386.224   2
  -3 -15  -3 745.522 401.483   3
  -3 -15  -3 1326.67 692.734   4
   3 -18  -3 1226.86 839.127   2
  -3 -15  -3 1863.68 908.429   2
   3 -18  -3 1381.79 773.246   4
 -18  15   0 2105.94 617.589   1
  15   3   0 1324.30 347.649   3
  18  -3   0 1748.51 475.022   3
 -15  18   0 1479.39 617.058   1
   3 -18   0 882.629 667.783   3
 -18  15   0 1778.25 603.293   2
   3 -18   0 2431.36 798.304   4
  -3 -15   0 563.930 552.753   4
   3 -18   0 1258.47 738.144   2
  -3 -15   0 1317.97 711.419   2
  -3 -15   3 1829.05 768.312   4
   3 -18   3 631.242 447.301   2
  -3 -15   3 875.942 540.954   2
 -15  18   3 2902.14 526.740   1
 -18  15   3 2156.33 479.491   1
   3 -18   3 2621.75 754.733   4
  -3 -15   6 151.471 543.576   2
   3 -18   6 533.059 318.641   2
   3 -18   6-303.018 528.795   4
  -3 -15   6 1103.66 618.961   4
  16   2  -7-50.9420 796.309   3
  18  -2  -7 1268.52 931.953   3
 -18  16  -7 770.256 856.813   1
  -2 -16  -7 336.412 744.058   4
   2 -18  -7 1237.92 1233.83   2
  -2 -16  -7 346.997 563.716   3
   2 -18  -7-299.901 645.707   3
 -16  18  -7-271.023 675.176   1
   2 -18  -7 182.425 737.365   4
  -2 -16  -7 27.4182 1014.10   2
 -18  16  -4 1015.23 810.222   1
  16   2  -4 326.658 560.828   3
  18  -2  -4 1123.16 701.245   3
 -16  18  -4 1074.31 789.638   1
   2 -18  -4 158.778 526.779   3
   2 -18  -4 519.190 787.048   2
  -2 -16  -4-69.8594 408.687   3
 -18  16  -4 63.2447 259.584   2
   2 -18  -4 612.519 686.478   4
  -2 -16  -4 1103.01 715.917   4
  -2 -16  -4-180.443 779.184   2
 -18  16  -1 886.299 607.402   1
  16   2  -1 353.084 397.677   3
  18  -2  -1 470.226 378.585   3
 -16  18  -1-131.611 527.070   1
   2 -18  -1 510.955 485.042   3
   2 -18  -1 729.113 619.965   4
  -2 -16  -1 550.913 606.201   4
   2 -18  -1-573.973 666.397   2
  -2 -16  -1-413.449 698.574   2
  -2 -16   2 1739.13 615.178   2
 -18  16   2 2086.33 580.372   1
   2 -18   2 2219.23 687.528   4
 -16  18   2 1519.01 544.228   1
  -2 -16   2 2295.22 751.375   4
   2 -18   2 2343.72 686.448   2
  -2 -16   5-52.3851 591.068   2
   2 -18   5 1270.68 514.525   2
   2 -18   5 590.103 572.215   4
  -2 -16   5 864.732 652.794   4
   2 -18   8 592.595 589.967   4
  -2 -16   8 911.475 629.915   4
  17   1  -8 280.969 863.403   3
  18  -1  -8 2018.35 945.453   3
  -1 -17  -8 1368.63 690.477   3
   1 -18  -8 509.838 761.233   3
 -18  17  -8 861.642 1073.37   1
   1 -18  -8 190.090 1214.59   2
 -17  18  -8 3022.45 1148.74   1
   1 -18  -8 1016.85 806.305   4
  -1 -17  -8 1430.96 945.445   4
  -1 -17  -8-985.380 1268.47   2
  18  -1  -5 5851.24 1101.15   3
  17   1  -5 5791.96 1055.28   3
  -1 -17  -5 4494.90 789.594   3
 -17  18  -5 4965.47 1072.08   1
   1 -18  -5 3918.65 740.342   3
   1 -18  -5 6093.81 1456.02   2
   1 -18  -5 4874.30 1070.89   4
  -1 -17  -5 3054.58 934.813   4
 -18  17  -5 4455.64 1153.35   1
  -1 -17  -5 4508.45 1168.79   2
 -18  17  -2 2248.27 730.133   1
  17   1  -2 2586.11 568.546   3
  18  -1  -2 3224.86 639.905   3
  -1 -17  -2 1675.14 747.370   4
 -17  18  -2 2535.67 763.392   1
   1 -18  -2 3022.76 1041.96   2
   1 -18  -2 2756.78 675.065   3
  -1 -17  -2 3091.08 646.984   3
  -1 -17  -2 3525.85 1024.63   2
   1 -18  -2 2098.54 799.491   4
  18  -1   1 4227.07 511.366   3
  17   1   1 2047.25 298.823   3
   1 -18   1 3938.07 874.204   4
 -17  18   1 2562.98 643.642   1
  -1 -17   1 3394.09 817.320   4
 -18  17   1 3601.85 736.182   1
   1 -18   1 2783.69 808.720   2
  -1 -17   1 2249.11 760.629   2
 -18  17   4 2705.26 442.124   1
   1 -18   4 2065.73 705.919   2
 -17  18   4 2032.47 422.298   1
  -1 -17   4 2776.11 775.261   2
   1 -18   4 2927.42 805.457   4
  -1 -17   4 809.400 604.201   4
  -1 -17   7 4502.36 784.964   2
   1 -18   7 4904.99 897.278   4
  -1 -17   7 5193.37 915.932   4
  18   0  -6 2507.90 975.762   3
 -18  18  -6 3146.27 1038.00   1
   0 -18  -6 2465.40 756.767   3
   0 -18  -6 1388.29 807.654   4
   0 -18  -6 360.702 1163.09   2
  18   0  -3 1201.82 630.677   3
 -18  18  -3-734.225 718.000   1
   0 -18  -3-300.714 498.340   3
   0 -18  -3 550.267 685.085   4
   0 -18  -3-922.391 845.491   2
 -18  18   0 1549.90 678.092   1
  18   0   0 993.907 397.426   3
   0 -18   0 2894.20 892.907   4
   0 -18   0 2041.11 861.215   2
   0 -18   3-94.7637 499.221   2
 -18  18   3 30.4224 376.173   1
   0 -18   3-274.369 624.448   4
   0 -18   6 660.274 574.300   2
   0 -18   6 104.013 553.206   4
 -19   0  -7 337.783 850.021   2
 -19   0  -7 1009.54 530.728   3
  19 -19  -7-134.533 893.250   3
   0  19  -7-686.289 707.762   1
 -19   0  -7 36.6594 664.677   4
 -19   0  -4 800.704 796.368   2
 -19   0  -4 818.040 201.650   3
  19 -19  -4 2153.01 889.732   3
   0  19  -4 1860.82 910.300   2
   0  19  -4 2209.01 762.662   1
 -19   0  -4 2095.89 747.401   4
 -19   0  -1 148.596 260.890   3
 -19   0  -1-247.039 715.277   2
   0  19  -1 468.984 584.571   1
  19 -19  -1 14.4435 550.672   3
 -19   0  -1 768.655 601.799   4
 -19   0   2 4755.95 1108.21   2
  19 -19   2 3567.45 708.696   2
   0  19   2 2663.27 873.573   3
  19 -19   2 4374.87 1002.84   3
   0  19   2 4530.11 826.537   1
 -19   0   2 3875.78 1000.42   4
 -19   0   5 730.428 692.074   2
 -19   0   5 1171.13 845.874   4
 -19   0   8 4767.06 1267.09   2
 -19   0   8 4524.64 1196.39   4
 -19   1  -8-881.221 640.920   3
 -18  -1  -8 549.129 573.288   3
  19 -18  -8 975.502 867.480   3
  18 -19  -8 566.833 824.209   3
  -1  19  -8 21.2930 729.117   1
   1  18  -8 1032.62 754.664   1
 -18  -1  -8 1527.42 1142.37   1
 -19   1  -8 1223.63 946.859   1
 -18  -1  -8 360.120 651.387   4
 -19   1  -8 797.613 729.062   4
 -18  -1  -8 458.577 868.944   2
 -19   1  -8-386.085 853.510   2
 -18  -1  -5 2602.96 992.152   2
 -19   1  -5-395.035 712.557   2
 -18  -1  -5 248.694 239.831   3
  -1  19  -5-411.463 653.752   1
  19 -18  -5-443.223 710.106   3
 -18  -1  -5 133.748 191.877   3
  18 -19  -5 222.098 649.274   3
 -19   1  -5 120.250 305.303   3
  -1  19  -5-387.445 640.600   2
   1  18  -5-498.857 741.313   2
   1  18  -5 271.619 749.894   1
 -18  -1  -5-646.422 686.300   4
 -19   1  -5-18.8265 600.660   4
 -18  -1  -2-564.154 646.862   2
 -19   1  -2 945.047 711.118   2
   1  18  -2-369.929 551.243   1
 -19   1  -2 124.762 268.591   3
  19 -18  -2 348.230 558.296   3
  18 -19  -2 341.360 520.655   3
  -1  19  -2 858.474 601.751   1
 -18  -1  -2 259.600 562.594   4
 -19   1  -2 209.541 585.187   4
 -19   1   1 1271.76 516.697   3
   1  18   1-549.550 513.037   1
 -18  -1   1-209.285 612.638   2
  19 -18   1 244.301 501.236   2
 -19   1   1 1360.01 779.296   2
  18 -19   1 652.099 515.140   2
   1  18   1-66.9274 518.367   3
  -1  19   1 639.717 565.064   3
  19 -18   1 267.673 560.103   3
  18 -19   1 650.445 581.078   3
  -1  19   1 323.484 472.991   1
 -18  -1   1 396.549 643.980   4
 -19   1   1 319.269 586.015   4
 -19   1   4-356.745 685.430   4
   1  18   4 266.681 588.799   3
 -18  -1   4 593.645 715.451   2
 -19   1   4-359.124 675.698   2
  18 -19   4-178.472 206.305   2
  19 -18   4 277.192 381.897   2
 -18  -1   4-859.143 708.219   4
 -18  -1   7 729.553 745.553   2
 -19   1   7 585.439 818.445   2
  18 -19   7 947.278 457.385   4
 -18  -1   7 361.852 789.034   4
 -19   1   7-0.82464 728.090   4
 -19   2  -6 837.246 877.759   2
 -17  -2  -6 1072.56 372.715   3
  19 -17  -6 168.129 716.635   3
  17 -19  -6 193.610 701.462   3
  -2  19  -6 1247.92 816.128   1
   2  17  -6 926.773 749.954   1
 -17  -2  -6 800.477 647.074   4
 -19   2  -6 1353.64 710.497   4
 -17  -2  -6 1997.45 999.664   2
 -17  -2  -3 3277.01 990.617   2
   2  17  -3 2065.67 765.640   1
 -19   2  -3 1080.94 707.328   2
 -19   2  -3 1097.33 340.985   3
 -19   2  -3 1966.81 690.100   4
  19 -17  -3 2452.59 762.113   3
  17 -19  -3 949.350 667.003   3
  -2  19  -3 867.396 636.489   1
 -17  -2  -3 2245.41 776.471   4
 -19   2   0 32.8662 402.176   3
 -17  -2   0-909.875 670.113   2
  -2  19   0 301.888 526.924   1
 -19   2   0-715.458 662.671   2
  17 -19   0 162.064 481.809   2
   2  17   0 617.368 437.712   3
  19 -17   0-1594.83 699.621   3
  17 -19   0-328.948 581.496   3
   2  17   0 771.099 533.866   1
 -17  -2   0 605.979 596.619   4
 -19   2   0 678.198 666.505   4
  19 -17   3 2131.61 637.737   2
  -2  19   3 1749.44 569.810   1
  17 -19   3 1717.54 463.350   2
   2  17   3 975.099 563.702   3
 -17  -2   3 2523.89 843.515   2
 -19   2   3 561.286 713.158   2
  19 -17   3 830.195 590.990   3
 -17  -2   3 825.649 667.047   4
 -19   2   3 1967.68 810.536   4
 -17  -2   6 1453.48 841.350   2
 -19   2   6 664.247 757.119   2
  19 -17   6 1454.32 561.133   4
 -17  -2   6-663.148 716.371   4
  17 -19   6 659.261 509.738   4
 -19   2   6 2586.81 979.039   4
 -19   3  -7 353.484 745.813   2
 -16  -3  -7-150.915 431.549   3
  19 -16  -7-258.850 868.816   3
  16 -19  -7-454.471 752.212   3
  -3  19  -7 341.440 664.046   1
 -19   3  -7 821.025 840.810   1
   3  16  -7 387.596 656.906   1
 -16  -3  -7-812.900 647.131   4
 -19   3  -7 10.9856 555.380   4
 -16  -3  -7 326.000 816.174   2
 -16  -3  -4 4739.31 983.339   2
 -19   3  -4 4327.57 980.965   2
 -19   3  -4 3751.12 554.832   3
  16 -19  -4 4698.03 988.039   3
  19 -16  -4 4330.79 953.579   3
  -3  19  -4 5218.51 986.560   1
   3  16  -4 5084.49 969.521   1
 -16  -3  -4 5214.25 1030.17   4
 -19   3  -4 7115.26 1045.80   4
 -16  -3  -1 338.273 604.569   2
 -19   3  -1 737.061 403.906   3
 -19   3  -1 538.904 699.913   2
 -16  -3  -1 289.333 583.067   4
  19 -16  -1 870.108 609.737   3
  16 -19  -1 334.801 504.519   3
   3  16  -1 716.892 436.602   3
   3  16  -1 622.225 521.278   1
  -3  19  -1 109.762 502.164   1
  16 -19  -1 771.144 586.628   1
 -19   3  -1 679.561 568.740   4
 -19   3   2 9714.54 1115.72   3
   3  16   2 8450.19 913.795   3
  19 -16   2 6907.33 1054.77   3
  16 -19   2 9541.16 1253.63   3
   3  16   2 9733.80 1148.31   1
 -16  -3   2 11510.3 1412.76   4
 -19   3   2 8496.20 1214.06   4
  16 -19   2 9732.20 847.107   2
 -16  -3   2 9913.44 1263.42   2
 -19   3   2 9771.65 1294.01   2
  -3  19   2 9682.17 1061.55   1
  19 -16   2 7364.38 923.221   2
   3  16   5-110.520 527.643   3
 -16  -3   5-157.351 664.332   2
 -19   3   5 581.147 725.519   2
 -19   3   5-153.076 659.665   4
  19 -16   5-208.803 434.888   2
  19 -16   5 340.151 511.526   4
 -16  -3   5 158.632 672.048   4
  16 -19   5 386.310 476.620   4
 -16  -3   8 8560.74 1653.11   2
 -19   3   8 7134.52 1300.49   4
 -16  -3   8 4506.01 1069.72   4
 -19   4  -8 447.805 828.625   2
 -15  -4  -8-260.778 538.762   3
  19 -15  -8 880.955 969.374   3
  -4  19  -8 141.482 767.123   1
  15 -19  -8 25.2936 732.818   3
 -15  -4  -8 248.070 696.902   4
 -19   4  -8 2758.44 1160.37   1
   4  15  -8 211.558 717.698   1
 -15  -4  -8 530.802 1012.34   2
 -19   4  -8-262.343 529.872   4
   4  15  -5 148.572 584.513   1
 -19   4  -5 547.884 604.831   2
  19 -15  -5 1774.44 795.638   3
  -4  19  -5 2012.32 753.484   1
  15 -19  -5 1325.19 606.184   3
 -19   4  -5 602.985 455.524   3
 -15  -4  -5 2561.20 885.449   4
 -19   4  -5 699.406 566.776   4
 -15  -4  -5 1392.23 877.535   2
 -15  -4  -2 125.018 665.513   2
 -19   4  -2 997.897 612.422   2
 -19   4  -2 376.453 392.114   3
  19 -15  -2 280.407 523.339   3
  15 -19  -2 176.809 525.504   3
   4  15  -2-273.378 491.072   1
   4  15  -2 811.014 495.774   3
  -4  19  -2-1561.62 732.163   1
 -15  -4  -2 411.188 544.486   4
  15 -19  -2 469.273 535.072   1
 -19   4  -2-128.961 554.329   4
   4  15   1 738.381 550.638   1
 -19   4   1 201.807 470.876   3
  19 -15   1-337.438 487.206   2
 -15  -4   1-159.157 569.816   2
  -4  19   1 574.404 455.729   1
 -19   4   1 597.335 570.930   2
   4  15   1 169.375 388.906   3
  15 -19   1 1034.86 461.463   2
  19 -15   1 860.183 624.407   3
  15 -19   1 1318.29 636.518   3
 -15  -4   1 239.458 589.361   4
 -19   4   1-59.1539 503.267   4
  -4  19   4-843.063 506.337   1
   4  15   4 534.734 494.315   3
 -19   4   4-380.285 490.762   1
 -15  -4   4 14.4717 579.138   2
 -19   4   4 334.919 639.873   2
  19 -15   4-743.131 543.968   2
 -15  -4   4 1270.16 677.867   4
  19 -15   4 489.893 503.198   4
 -19   4   4 881.398 653.191   4
  15 -19   4-19.5410 492.549   4
 -15  -4   7-1221.62 820.640   2
 -19   4   7 1658.59 969.694   2
  15 -19   7 64.1252 327.188   4
 -15  -4   7 446.154 664.805   4
 -19   4   7 760.159 686.276   4
   5  14  -6 240.506 654.180   1
 -19   5  -6 336.626 663.806   2
 -14  -5  -6 715.453 293.009   3
  -5  19  -6 2674.55 937.316   1
  19 -14  -6 1082.64 805.965   3
  14 -19  -6 900.138 732.375   3
 -14  -5  -6 628.773 274.029   3
 -19   5  -6 1570.18 999.426   1
 -14  -5  -6 1048.03 708.561   4
 -14  -5  -6 910.821 867.976   2
 -19   5  -6 1955.66 724.217   4
 -14  -5  -3 1743.01 782.402   2
 -19   5  -3 1892.02 790.205   2
 -19   5  -3 2319.39 519.582   3
  19 -14  -3 2004.69 677.344   3
   5  14  -3 3769.63 835.036   1
  -5  19  -3 1786.30 781.963   1
  14 -19  -3 1126.98 586.313   3
 -14  -5  -3 2058.92 666.847   4
 -19   5  -3 3018.31 722.352   4
  14 -19  -3 1776.31 552.221   1
 -14  -5   0 499.761 618.734   2
 -19   5   0 493.545 484.575   3
 -19   5   0 259.731 555.665   2
 -19   5   0-231.622 482.022   4
  -5  19   0-761.973 610.109   1
 -14  -5   0 843.762 695.295   4
   5  14   0 306.554 326.088   3
  19 -14   0 172.856 490.056   3
  14 -19   0-378.682 529.656   3
  14 -19   0-178.936 419.903   2
   5  14   0 74.7595 466.795   1
  -5  19   3 924.204 488.121   1
  14 -19   3 754.988 247.327   2
   5  14   3 580.415 369.814   3
 -19   5   3 319.653 421.673   1
 -14  -5   3 334.237 637.527   2
 -19   5   3 1243.88 684.396   2
  19 -14   3 1133.10 601.029   3
  14 -19   3 1059.63 321.111   2
 -14  -5   3 127.474 592.734   4
 -19   5   3 1259.43 708.959   4
  19 -14   3 1856.09 691.909   2
 -19   5   6-36.0667 579.496   1
 -14  -5   6 2259.37 858.308   2
 -19   5   6 600.989 681.071   2
  14 -19   6 1078.12 530.702   4
  19 -14   6 236.697 452.161   4
 -14  -5   6 336.479 604.199   4
  14 -19   6 495.226 460.785   4
 -19   5   6 1020.09 737.474   4
 -19   6  -7 174.128 646.337   2
   6  13  -7 1704.90 1013.00   3
   6  13  -7 1365.55 634.885   1
  -6  19  -7 1917.70 926.795   1
 -13  -6  -7 1165.26 478.438   3
  19 -13  -7 1190.38 778.614   3
  13 -19  -7 560.758 757.847   3
 -13  -6  -7 1003.05 731.036   4
 -19   6  -7 1418.05 1012.89   1
 -13  -6  -7 1647.79 991.599   2
 -19   6  -7 1058.18 619.396   4
 -19   6  -4 8822.78 1164.59   2
  19 -13  -4 10590.2 1215.29   3
  13 -19  -4 8137.99 1141.71   3
 -19   6  -4 5518.35 736.825   3
  -6  19  -4 8858.37 1248.21   1
 -13  -6  -4 8421.26 1350.76   2
 -13  -6  -4 8948.51 1188.80   4
  13 -19  -4 6696.35 756.181   1
 -19   6  -4 10427.4 1130.93   4
   6  13  -4 8497.00 1147.01   1
 -13  -6  -1 787.518 665.719   2
  13 -19  -1 656.398 522.011   1
   6  13  -1 1108.37 534.715   1
 -19   6  -1 1316.07 641.207   2
 -19   6  -1 1038.71 513.375   3
  19 -13  -1 721.092 552.679   3
  13 -19  -1 938.847 530.372   3
  -6  19  -1 936.658 569.221   1
   6  13  -1 771.461 381.564   3
  13 -19  -1 390.770 484.132   2
 -13  -6  -1 2033.01 708.984   4
 -19   6  -1 1802.42 637.240   4
   6  13   2 6990.45 586.529   3
  19 -13   2 9503.61 1146.78   3
  13 -19   2 10456.9 1276.19   3
 -19   6   2 9196.36 1005.52   1
  -6  19   2 9567.19 973.908   1
 -19   6   2 8348.31 1126.03   2
  19 -13   2 8831.54 1062.55   2
 -13  -6   2 13487.6 1416.04   4
 -19   6   2 9565.43 1233.66   4
 -13  -6   2 10764.0 1312.97   2
  13 -19   2 9423.96 718.487   2
  19 -13   5 724.932 595.228   2
  19 -13   5 687.686 510.101   4
 -13  -6   5 449.985 667.126   2
 -19   6   5 1187.66 755.424   2
  13 -19   5-109.849 558.823   4
 -19   6   5-368.252 516.057   1
 -13  -6   5 295.635 576.742   4
 -19   6   5 1306.28 731.299   4
 -19   6   8 3301.09 1008.58   4
 -13  -6   8 2271.93 1057.60   2
 -13  -6   8 3315.30 898.391   4
 -19   7  -8 1276.22 845.254   2
  -7  19  -8 931.790 844.247   1
   7  12  -8 1118.53 1037.02   3
   7  12  -8 490.463 645.947   1
 -12  -7  -8 807.594 584.964   3
  19 -12  -8-688.576 966.878   3
  12 -19  -8 281.129 787.628   3
 -12  -7  -8 1090.08 712.859   4
 -12  -7  -8 1498.04 1058.52   2
 -19   7  -8 1334.05 1006.72   1
  -7  19  -5 481.408 702.546   1
  12 -19  -5 562.841 379.961   1
 -19   7  -5 1367.32 666.006   2
  19 -12  -5-5.77525 653.079   3
   7  12  -5-233.202 555.730   1
 -12  -7  -5 551.290 136.907   3
  12 -19  -5 1146.57 690.714   3
 -12  -7  -5 366.655 123.206   3
 -12  -7  -5 1135.76 669.537   4
 -19   7  -5-513.508 772.880   1
 -12  -7  -5 543.732 853.591   2
 -19   7  -5 1709.45 667.134   4
   7  12  -2 3172.03 751.888   1
  12 -19  -2 928.011 487.553   1
 -19   7  -2 3194.81 824.343   2
  -7  19  -2 1936.88 678.902   1
 -19   7  -2 2926.37 665.579   3
  19 -12  -2 2490.08 687.146   3
  12 -19  -2 2637.26 750.953   3
 -12  -7  -2 2720.91 802.706   4
 -19   7  -2 2280.96 657.214   4
 -12  -7  -2 2889.84 951.419   2
  19 -12   1 910.515 570.926   2
 -12  -7   1 1102.08 725.695   2
 -19   7   1 971.209 626.245   3
   7  12   1 1277.28 574.854   1
   7  12   1 731.622 309.632   3
 -19   7   1 1423.52 586.166   2
  19 -12   1 698.540 502.883   3
  12 -19   1 573.324 533.868   3
  12 -19   1 1539.37 493.618   2
  -7  19   1 51.4837 429.610   1
 -12  -7   1 654.108 577.616   4
 -19   7   1 1453.19 622.738   4
  -7  19   4 324.075 424.468   1
 -12  -7   4 1538.31 663.701   2
 -19   7   4 1270.78 697.538   2
 -19   7   4 1306.78 460.786   1
  12 -19   4 1602.96 641.202   4
  19 -12   4 677.093 640.869   2
  19 -12   4 480.430 519.505   4
 -12  -7   4 1137.17 719.456   4
 -19   7   4 2924.56 857.604   4
 -19   7   7 1213.01 826.065   4
 -12  -7   7 2155.43 973.858   2
  12 -19   7 175.611 341.397   4
 -12  -7   7 1169.94 705.483   4
 -19   8  -9 1717.97 1059.54   1
 -19   8  -9 1422.57 799.154   2
   8  11  -9 1342.36 1147.62   3
   8  11  -9 992.349 778.547   1
 -11  -8  -9 2001.92 785.427   3
  19 -11  -9 703.443 960.701   3
  11 -19  -9 1411.48 953.346   3
 -11  -8  -9 2973.40 1383.82   2
 -11  -8  -9 1118.55 845.756   4
  -8  19  -9 594.837 813.302   1
   8  11  -6 727.146 690.755   3
 -19   8  -6 131.842 531.908   2
  11 -19  -6 317.760 296.159   1
  19 -11  -6 73.3074 697.666   3
 -11  -8  -6 230.326 276.622   3
  11 -19  -6 282.312 637.184   3
   8  11  -6 300.232 595.448   1
 -11  -8  -6 717.077 661.591   4
 -11  -8  -6-510.214 825.326   2
 -19   8  -6 675.040 889.502   1
  -8  19  -6 506.805 621.115   1
 -19   8  -6 723.620 479.805   4
  -8  19  -3 1107.62 599.110   1
 -19   8  -3 1124.07 522.489   4
 -19   8  -3 1439.60 616.004   2
  11 -19  -3 1560.06 564.780   1
  19 -11  -3 1170.15 587.634   3
 -19   8  -3 1097.57 588.904   3
  11 -19  -3 620.932 628.088   3
 -19   8  -3 2765.39 1105.40   1
 -11  -8  -3 1407.37 616.922   4
   8  11  -3 1984.10 751.580   1
 -11  -8  -3 328.057 669.489   2
 -11  -8   0 3578.99 849.735   2
   8  11   0 2588.39 398.246   3
   8  11   0 1903.96 640.237   1
 -19   8   0 2972.28 677.426   3
 -19   8   0 2804.92 738.206   2
  -8  19   0 3130.42 710.375   1
  19 -11   0 1859.03 646.657   3
  11 -19   0 1731.19 622.392   3
 -11  -8   0 2388.21 762.433   4
 -19   8   0 3301.30 723.745   4
 -19   8   3 1174.72 456.122   1
 -11  -8   3 579.813 638.748   2
  11 -19   3 669.537 186.396   2
  -8  19   3 2185.14 570.382   1
 -11  -8   3 1374.99 691.706   4
 -19   8   3 1490.16 759.075   2
  11 -19   3 852.235 256.311   2
  19 -11   3 1716.06 805.553   2
 -19   8   3 1653.59 749.255   4
 -19   8   6 1225.22 749.084   4
 -19   8   6 1398.30 449.155   1
 -11  -8   6 1102.35 678.915   2
  11 -19   6 1175.49 558.840   4
  19 -11   6 1555.60 556.413   4
 -11  -8   6 517.854 603.806   4
 -11  -8   9 2257.54 831.155   4
   9  10  -7-147.588 775.098   3
 -19   9  -7 969.055 659.103   2
  19 -10  -7 707.701 711.135   3
 -10  -9  -7 1104.79 480.893   3
  10 -19  -7 1211.66 779.409   3
   9  10  -7 377.161 608.478   1
 -10  -9  -7 1343.10 718.040   4
  -9  19  -7 476.635 757.955   1
 -10  -9  -7 1710.25 1204.94   2
 -19   9  -7-518.853 913.295   1
   9  10  -4 4542.67 888.230   1
   9  10  -4 6135.07 999.509   3
  -9  19  -4 4734.58 987.041   1
  19 -10  -4 5496.47 1033.80   3
 -19   9  -4 3750.70 730.275   2
  10 -19  -4 4373.64 864.299   3
 -10  -9  -4 5418.70 984.651   4
  10 -19  -4 3610.77 652.986   1
 -19   9  -4 4934.08 1298.98   1
 -19   9  -4 5202.42 864.308   4
 -10  -9  -4 4256.74 1128.46   2
 -10  -9  -1 2226.93 861.839   2
  -9  19  -1 1679.66 605.936   1
 -19   9  -1 1344.09 645.304   3
 -19   9  -1 1172.07 631.682   2
  19 -10  -1 719.455 557.486   3
  10 -19  -1 1213.22 549.030   3
   9  10  -1 1253.70 409.140   3
   9  10  -1 2064.65 654.283   1
 -10  -9  -1 2796.33 793.575   4
 -19   9  -1 1864.99 608.588   4
  19 -10   2 3450.38 854.189   2
 -19   9   2 5510.52 960.041   2
 -10  -9   2 3522.15 875.066   2
  19 -10   2 5583.61 839.683   3
  -9  19   2 4551.29 698.373   1
  10 -19   2 5140.80 792.397   2
 -10  -9   2 5468.94 1012.27   4
 -19   9   2 4534.38 900.985   4
 -19   9   5 2562.59 938.506   4
 -10  -9   5 1654.78 701.340   2
 -19   9   5 2195.20 877.480   2
  10 -19   5 455.082 534.934   4
  19 -10   5 1265.99 735.446   2
 -19   9   5 1919.11 476.131   1
  19 -10   5 560.211 505.151   4
 -10  -9   5 611.153 650.903   4
 -10  -9   8 3777.70 1081.93   2
 -10  -9   8 1884.35 757.818   4
 -19  10  -8 3743.74 1379.42   1
 -19  10  -8 1369.09 694.093   2
  10   9  -8 2412.24 1043.08   3
  19  -9  -8 4241.12 1257.34   3
  -9 -10  -8 2941.93 712.668   3
   9 -19  -8 2237.82 970.524   3
  -9 -10  -8 2488.29 1177.64   2
  10   9  -8 1878.87 752.970   1
  -9 -10  -8 2702.19 936.458   4
 -10  19  -8 3444.70 1062.81   1
  10   9  -5 1890.15 809.330   3
 -19  10  -5 1781.91 582.519   2
  19  -9  -5 2135.03 842.068   3
   9 -19  -5 965.405 634.278   3
  -9 -10  -5 1120.02 292.885   3
   9 -19  -5 1563.22 568.636   1
  10   9  -5 1873.42 719.788   1
  -9 -10  -5 1974.54 1034.52   2
 -10  19  -5 1379.19 706.062   1
  -9 -10  -5 1241.84 737.317   4
 -19  10  -5 2618.35 1157.33   1
 -19  10  -5 1634.80 607.787   4
  10   9  -2 5739.38 768.081   3
 -10  19  -2 5685.89 978.171   1
  19  -9  -2 5270.17 818.750   3
   9 -19  -2 5272.28 900.870   3
  10   9  -2 5081.58 838.811   1
 -19  10  -2 2744.00 667.946   3
 -19  10  -2 8017.15 1289.84   1
  -9 -10  -2 5143.28 975.495   4
  -9 -10  -2 6187.74 1197.68   2
   9 -19  -2 5516.96 841.696   1
 -19  10  -2 5913.92 892.460   4
 -19  10  -2 6183.51 886.115   2
  -9 -10   1 1310.84 725.710   2
 -10  19   1 1666.87 524.925   1
 -19  10   1 2055.86 712.235   2
  19  -9   1 816.339 515.576   3
   9 -19   1 1861.46 743.570   3
   9 -19   1 110.789 537.914   2
  -9 -10   1 1450.08 676.223   4
 -19  10   1 1628.44 680.558   4
 -19  10   4 3311.03 490.971   1
  -9 -10   4 3571.21 862.109   2
  -9 -10   4 5142.88 914.453   4
 -19  10   4 3879.76 997.036   2
   9 -19   4 4544.07 899.050   4
  19  -9   4 3468.66 754.388   4
  19  -9   4 2866.44 922.152   2
 -19  10   4 4488.73 997.989   4
 -10  19   4 3616.89 601.422   1
  -9 -10   7 383.282 694.839   2
   9 -19   7 1302.01 513.874   4
  -9 -10   7 938.853 674.650   4
  11   8  -9 321.235 933.582   3
 -19  11  -9 2162.80 1150.17   1
  19  -8  -9 1495.04 1141.42   3
  -8 -11  -9 1918.64 772.151   3
   8 -19  -9 605.823 784.395   3
  -8 -11  -9 352.199 761.595   4
  11   8  -9 2284.90 907.988   1
  -8 -11  -9 1682.38 1268.32   2
 -11  19  -9 2178.94 1095.70   1
 -19  11  -6 1374.60 949.419   1
  11   8  -6 1619.79 794.065   3
 -19  11  -6 2566.59 703.002   2
  19  -8  -6 1458.82 787.417   3
  11   8  -6 958.414 689.055   1
  -8 -11  -6 2005.92 464.476   3
   8 -19  -6 1610.45 694.395   3
   8 -19  -6 736.945 502.966   1
 -11  19  -6 3280.42 932.748   1
  -8 -11  -6 1886.65 1070.81   2
  -8 -11  -6 931.664 668.560   4
  11   8  -3 2042.90 634.496   3
  -8 -11  -3 1512.62 621.120   4
 -19  11  -3 1911.10 586.238   2
  19  -8  -3 1337.02 593.281   3
   8 -19  -3 1487.23 640.487   3
   8 -19  -3 2318.01 692.788   1
 -11  19  -3 1209.49 685.001   1
 -19  11  -3 3427.69 1036.09   1
  -8 -11  -3 1032.99 765.553   2
  11   8  -3 2069.66 661.219   1
 -19  11  -3 2616.26 667.005   4
  -8 -11   0 1608.51 765.482   2
  11   8   0 2302.09 319.760   3
 -11  19   0 2611.84 655.490   1
  19  -8   0 3929.86 717.631   3
  11   8   0 2174.56 288.494   3
 -19  11   0 3373.36 736.827   2
   8 -19   0 3027.29 788.324   3
   8 -19   0 3471.37 834.686   2
  -8 -11   0 2225.95 716.686   4
 -19  11   0 3097.17 789.414   1
 -19  11   0 2807.00 702.791   4
  -8 -11   3 824.001 676.008   2
   8 -19   3 2017.20 708.297   4
 -19  11   3 1922.43 752.141   4
 -19  11   3 1007.53 656.116   2
 -19  11   3 2373.93 564.040   1
  -8 -11   3 1220.63 651.538   4
 -11  19   3 1520.79 450.762   1
   8 -19   3 1018.49 365.423   2
  -8 -11   6 418.943 639.977   2
   8 -19   6 785.072 486.764   4
  19  -8   6 278.323 488.350   4
  -8 -11   6 421.971 587.074   4
  -8 -11   9 1291.21 677.266   4
 -19  12  -7 722.795 883.315   1
  12   7  -7 1884.45 674.773   1
  12   7  -7 1851.33 956.428   3
 -19  12  -7 1526.89 556.394   2
  19  -7  -7 674.590 915.369   3
  -7 -12  -7 2219.94 559.289   3
   7 -19  -7 1551.17 844.831   3
 -12  19  -7 1950.93 905.596   1
  -7 -12  -7 1444.93 990.312   2
  -7 -12  -7 1255.81 779.066   4
  12   7  -4 1339.01 704.812   3
  19  -7  -4 1230.58 588.380   3
 -19  12  -4 1652.78 505.683   2
   7 -19  -4 1062.20 681.730   3
  -7 -12  -4 1052.67 284.216   3
  -7 -12  -4 1524.33 692.785   4
 -12  19  -4 2210.17 811.170   1
   7 -19  -4 1247.97 615.100   1
  -7 -12  -4 1233.08 939.258   2
  12   7  -4 1175.09 651.530   1
 -19  12  -4 890.836 764.309   1
 -19  12  -1 1236.59 528.606   4
  12   7  -1 442.856 325.322   3
  19  -7  -1 1021.20 480.851   3
 -19  12  -1 589.672 495.618   2
   7 -19  -1 480.353 576.658   3
   7 -19  -1 1351.22 758.180   2
  -7 -12  -1 100.845 566.194   4
 -12  19  -1 1025.77 649.894   1
 -19  12  -1 261.947 530.002   1
  -7 -12  -1 1914.83 831.153   2
  -7 -12   2 2780.44 752.270   2
 -12  19   2 2501.50 578.779   1
  -7 -12   2 2799.95 798.634   4
 -19  12   2 2731.10 786.462   2
  19  -7   2 2213.46 607.289   3
   7 -19   2 2876.33 754.835   4
   7 -19   2 2291.30 662.910   2
 -19  12   2 3156.58 620.380   1
 -19  12   2 3904.61 900.578   4
 -19  12   5 408.791 244.571   1
 -12  19   5 831.866 350.431   1
  -7 -12   5 953.720 599.017   2
   7 -19   5 805.449 566.309   4
  19  -7   5 1066.82 609.179   4
  -7 -12   5-369.569 645.210   4
 -19  12   5 384.218 248.846   1
  -7 -12   8 618.361 647.610   4
  -7 -12   8 1307.67 809.096   2
   7 -19   8 1122.90 435.435   4
  13   6  -8 2752.92 1120.78   3
 -19  13  -8 5751.90 1499.97   1
 -19  13  -8 1365.60 477.678   2
  19  -6  -8 3448.66 1179.32   3
  -6 -13  -8 2762.75 747.547   3
   6 -19  -8 3023.89 969.536   3
  13   6  -8 4279.14 934.594   1
  -6 -13  -8 3223.71 973.591   4
   6 -19  -8 1870.81 962.831   4
 -13  19  -8 2858.05 1062.89   1
  -6 -13  -8 2822.23 1304.29   2
   6 -19  -5 404.139 538.944   1
  13   6  -5 1113.49 579.956   1
 -19  13  -5 48.7257 739.461   1
  13   6  -5 165.732 627.434   3
  19  -6  -5 208.131 606.127   3
 -19  13  -5 1073.33 465.889   2
   6 -19  -5 120.668 578.910   3
  -6 -13  -5 607.507 354.238   3
  -6 -13  -5 1228.71 977.427   2
 -13  19  -5 336.725 637.591   1
  -6 -13  -5 367.626 638.530   4
 -19  13  -2 10089.7 970.386   2
  13   6  -2 10231.6 955.944   3
  19  -6  -2 9943.89 1068.49   3
   6 -19  -2 9149.43 1119.12   3
   6 -19  -2 10744.9 1361.34   2
  -6 -13  -2 8031.56 1187.23   4
  -6 -13  -2 8603.41 1420.57   2
 -19  13  -2 10928.4 1389.40   1
 -13  19  -2 11454.4 1245.85   1
  -6 -13   1 104.799 613.541   2
  19  -6   1 827.083 492.217   3
 -19  13   1 1195.89 650.037   2
   6 -19   1 658.072 544.025   3
   6 -19   1 1064.95 661.776   4
  -6 -13   1 464.103 530.429   4
   6 -19   1 2640.40 806.686   2
 -19  13   1 838.667 533.117   1
 -13  19   1 879.527 510.578   1
   6 -19   4 7130.07 1060.01   4
  -6 -13   4 8150.73 1112.65   4
 -13  19   4 9460.31 781.500   1
   6 -19   4 8132.03 689.254   2
 -19  13   4 9574.08 765.797   1
  -6 -13   4 8706.46 1179.30   2
  -6 -13   7 1004.34 703.989   2
   6 -19   7 1464.33 608.279   4
  -6 -13   7 1459.80 643.573   4
 -19  14  -6 2723.67 995.227   1
  14   5  -6 104.480 712.979   3
   5 -19  -6 117.807 540.037   1
  19  -5  -6 2056.92 919.143   3
  14   5  -6 1639.55 691.746   1
 -19  14  -6 857.031 414.634   2
  -5 -14  -6 1349.57 540.689   3
   5 -19  -6 1286.37 721.796   3
 -14  19  -6 1326.31 827.960   1
   5 -19  -6 1518.24 912.086   4
  -5 -14  -6 348.147 683.821   4
 -19  14  -3 1146.00 711.409   1
  14   5  -3 1213.07 518.941   3
  19  -5  -3 681.515 530.119   3
 -19  14  -3 1062.48 444.338   2
   5 -19  -3 1323.69 595.218   3
  -5 -14  -3 701.045 333.219   3
 -14  19  -3 127.698 532.927   1
   5 -19  -3 2096.03 820.756   4
   5 -19  -3 1862.84 885.165   2
  -5 -14  -3 1090.89 676.835   4
  -5 -14  -3 1471.24 844.536   2
 -19  14   0 1525.54 599.249   1
  14   5   0 252.613 217.440   3
  19  -5   0 234.300 422.940   3
 -19  14   0 945.187 630.182   2
   5 -19   0 160.293 588.333   3
   5 -19   0 975.369 695.301   4
 -14  19   0-41.7014 449.452   1
  -5 -14   0-655.752 679.037   4
   5 -19   0 5.21415 645.594   2
  -5 -14   0 1035.05 681.605   2
   5 -19   3 1473.64 519.989   2
  -5 -14   3 2569.31 772.545   2
 -14  19   3 2476.47 534.761   1
 -19  14   3 3553.56 615.613   1
   5 -19   3 2950.70 803.367   4
  -5 -14   3 2800.59 808.387   4
  -5 -14   6 279.912 648.080   2
   5 -19   6-517.491 541.451   4
  -5 -14   6 1548.74 693.007   4
  15   4  -7 396.525 851.252   3
 -19  15  -7 754.633 906.390   1
  19  -4  -7-769.014 779.687   3
  -4 -15  -7 272.055 534.518   3
 -19  15  -7 271.426 254.546   2
   4 -19  -7-34.7155 656.370   3
 -15  19  -7 1498.96 870.688   1
  -4 -15  -7-362.878 742.003   4
   4 -19  -7 583.214 767.362   4
   4 -19  -7 977.492 1214.39   2
  -4 -15  -7 3612.99 1316.31   2
  15   4  -7 1271.37 711.360   1
 -19  15  -4 43.6669 675.034   1
  15   4  -4 1465.15 695.745   3
  19  -4  -4-253.919 553.694   3
   4 -19  -4 309.066 515.167   3
 -19  15  -4 486.069 348.779   2
  -4 -15  -4-104.600 364.176   3
 -15  19  -4 547.598 617.324   1
   4 -19  -4 513.810 685.927   4
   4 -19  -4 1212.77 920.506   2
  -4 -15  -4 566.025 666.832   4
  -4 -15  -4 1756.71 934.288   2
 -19  15  -1 218.720 591.287   1
  15   4  -1 781.265 370.155   3
  19  -4  -1-486.725 427.757   3
 -19  15  -1 460.695 455.369   2
   4 -19  -1 1710.45 676.632   3
 -15  19  -1 274.435 585.766   1
   4 -19  -1-144.384 709.755   4
  -4 -15  -1 887.584 643.913   4
   4 -19  -1 1629.34 846.925   2
  -4 -15  -1 709.654 715.821   2
  -4 -15   2 793.397 535.157   2
 -19  15   2 1295.77 543.443   1
  19  -4   2 417.007 352.907   3
  -4 -15   2 1144.78 675.135   4
   4 -19   2 637.954 660.627   4
   4 -19   2 1637.42 663.942   2
 -15  19   2 601.384 430.666   1
 -15  19   5 506.789 233.276   1
  -4 -15   5 690.716 669.120   2
 -19  15   5 321.765 124.744   1
   4 -19   5 551.317 342.103   2
   4 -19   5 1248.03 623.017   4
  -4 -15   5 1227.89 692.009   4
  -4 -15   8 505.634 668.565   2
   4 -19   8 406.377 511.119   4
  -4 -15   8-498.085 584.212   4
  -3 -16  -8 6123.93 1020.30   3
   3 -19  -8 5326.29 1174.28   3
  16   3  -8 5598.99 1401.90   3
  19  -3  -8 5680.63 1373.51   3
   3 -19  -8 8802.67 2049.95   2
  -3 -16  -8 6306.43 1263.84   4
  -3 -16  -8 8003.27 1918.78   2
   3 -19  -8 4669.38 1242.77   4
 -19  16  -8 7165.48 1540.59   1
 -16  19  -8 7092.34 1436.80   1
  16   3  -5 637.326 657.387   3
 -19  16  -5-594.235 706.612   1
  19  -3  -5 252.947 643.535   3
   3 -19  -5 411.777 620.911   3
  -3 -16  -5 78.9237 460.499   3
 -16  19  -5 1021.82 684.592   1
 -19  16  -5-96.6480 246.718   2
   3 -19  -5 788.982 741.047   4
  -3 -16  -5 1298.81 746.693   4
   3 -19  -5 949.494 996.843   2
  -3 -16  -5 67.8892 881.050   2
  16   3  -2 8903.71 915.782   3
  19  -3  -2 9437.26 1044.77   3
 -19  16  -2 9051.57 910.080   2
   3 -19  -2 7239.00 972.996   3
  -3 -16  -2 8423.40 778.751   3
   3 -19  -2 9457.69 1319.92   4
   3 -19  -2 9435.71 1422.65   2
  -3 -16  -2 11386.1 1402.54   4
  -3 -16  -2 11179.2 1664.95   2
 -19  16  -2 9799.97 1263.99   1
 -16  19  -2 9726.47 1254.56   1
 -19  16   1 39.3061 452.104   1
  19  -3   1 422.343 400.817   3
 -16  19   1 403.319 459.654   1
   3 -19   1 507.252 573.501   4
  -3 -16   1 1025.07 636.825   4
   3 -19   1-48.5593 715.696   2
  -3 -16   1 717.662 653.717   2
  -3 -16   4 4774.82 936.297   2
 -16  19   4 5363.90 574.689   1
  -3 -16   4 5923.70 1078.81   4
   3 -19   4 3445.80 855.360   4
   3 -19   4 5400.29 828.006   2
 -19  16   4 5184.66 560.096   1
  -3 -16   7 314.784 602.224   2
   3 -19   7-214.903 550.968   4
  -3 -16   7-41.4575 601.460   4
  17   2  -6 1758.26 889.266   3
  19  -2  -6 390.242 753.153   3
 -19  17  -6 809.536 911.484   1
   2 -19  -6-353.406 593.879   3
  -2 -17  -6-133.610 474.202   3
 -17  19  -6 1219.06 766.329   1
   2 -19  -6 801.422 784.235   4
  -2 -17  -6 1628.76 784.146   4
   2 -19  -6 617.413 1096.17   2
  -2 -17  -6-298.635 902.949   2
 -19  17  -3 2372.25 828.778   1
  17   2  -3 2637.51 675.265   3
  19  -2  -3 1336.33 616.045   3
 -17  19  -3 1593.96 720.431   1
   2 -19  -3 787.450 566.267   3
  -2 -17  -3 1396.32 475.188   3
   2 -19  -3 2712.12 882.826   4
  -2 -17  -3 1696.38 860.751   4
   2 -19  -3 1871.71 1067.90   2
  -2 -17  -3 2507.85 1060.86   2
 -19  17   0 844.020 562.713   1
  17   2   0 583.245 295.462   3
  19  -2   0 976.571 413.218   3
 -17  19   0 11.3285 490.216   1
   2 -19   0 903.888 714.389   4
  -2 -17   0 587.941 644.017   4
   2 -19   0 126.594 697.456   2
  -2 -17   0 100.601 668.086   2
   2 -19   3 1496.71 528.525   2
 -17  19   3 3100.07 586.835   1
  -2 -17   3 519.229 551.790   2
   2 -19   3 2041.49 825.120   4
  -2 -17   3 2817.18 880.381   4
 -19  17   3 3399.45 589.921   1
  -2 -17   6 919.938 623.132   2
   2 -19   6 513.962 418.475   2
   2 -19   6 482.964 623.629   4
  -2 -17   6 573.918 670.808   4
  18   1  -7 184.441 791.842   3
  19  -1  -7-1358.67 929.702   3
 -19  18  -7 903.527 879.552   1
  -1 -18  -7 419.952 582.259   3
   1 -19  -7-333.514 607.988   3
 -18  19  -7-790.058 872.900   1
   1 -19  -7 363.023 774.306   4
  -1 -18  -7 594.516 759.316   4
   1 -19  -7-1675.16 1271.12   2
  -1 -18  -7 2291.06 1305.19   2
  18   1  -4 565.179 579.777   3
  19  -1  -4-110.834 603.671   3
 -19  18  -4 588.559 768.041   1
 -18  19  -4 426.777 664.669   1
   1 -19  -4-1646.64 659.687   3
  -1 -18  -4 732.477 497.333   3
   1 -19  -4 1085.23 807.753   4
  -1 -18  -4 660.512 696.383   4
   1 -19  -4-433.651 1014.59   2
  -1 -18  -4 969.587 838.185   2
 -19  18  -1 904.585 636.105   1
  18   1  -1 1103.99 420.496   3
  19  -1  -1 537.128 424.628   3
 -18  19  -1 949.421 564.072   1
   1 -19  -1 528.270 469.606   3
   1 -19  -1 1716.43 751.538   4
  -1 -18  -1 1578.89 755.918   4
   1 -19  -1-601.476 842.038   2
  -1 -18  -1 1065.74 905.693   2
   1 -19   2 509.645 536.094   2
  -1 -18   2 278.236 574.718   2
 -19  18   2-655.610 474.461   1
 -18  19   2 329.095 462.377   1
   1 -19   2 68.4892 600.332   4
  -1 -18   2-414.884 696.950   4
  -1 -18   5 577.229 604.521   2
   1 -19   5 606.491 529.203   2
   1 -19   5 2.46165 572.895   4
  -1 -18   5 230.240 612.262   4
   1 -19   8-221.310 592.039   4
  -1 -18   8 147.453 600.517   4
  19   0  -8 4485.60 1341.27   3
   0 -19  -8 4965.75 993.731   3
 -19  19  -8 5570.92 1426.56   1
   0 -19  -8 5462.82 1279.05   4
   0 -19  -8 5834.59 1754.50   2
  19   0  -5 198.948 636.807   3
 -19  19  -5 2056.66 923.884   1
   0 -19  -5 910.545 595.911   3
   0 -19  -5 1489.13 843.321   4
   0 -19  -5 953.424 899.733   2
  19   0  -2 4282.27 716.953   3
   0 -19  -2 2950.11 1122.46   2
 -19  19  -2 5737.66 1090.13   1
   0 -19  -2 2899.68 646.820   3
   0 -19  -2 5173.54 1126.11   4
   0 -19   1-47.4091 629.807   2
 -19  19   1 713.408 594.805   1
  19   0   1 987.845 342.352   3
 -19  19   4 2133.74 450.529   1
   0 -19   4 3306.97 824.852   2
   0 -19   4 1975.91 761.990   4
   0 -19   7 753.141 495.906   2
   0 -19   7-520.481 726.418   4
 -20   0  -5-404.345 756.602   2
 -20   0  -5 302.431 228.209   3
  20 -20  -5 933.617 715.072   3
 -20   0  -5-21.1981 683.723   4
   0  20  -5 98.3558 674.995   1
 -20   0  -2 409.328 195.526   3
   0  20  -2 918.477 709.027   1
 -20   0  -2 1177.13 823.665   2
  20 -20  -2 580.224 659.172   3
 -20   0  -2 1542.90 780.721   4
   0  20   1 1730.12 684.238   1
 -20   0   1 473.631 472.402   3
  20 -20   1 1165.46 600.060   2
 -20   0   1 712.387 663.269   2
 -20   0   1 175.074 634.837   4
  20 -20   1 420.608 654.059   3
 -20   0   4 168.723 618.135   2
  20 -20   4 297.401 356.838   2
 -20   0   4 1151.29 748.809   4
 -20   0   7 170.912 804.450   2
 -20   0   7 2410.86 961.183   4
 -19  -1  -6-0.97211 851.638   2
 -20   1  -6 827.488 843.304   2
 -20   1  -6 167.763 419.304   3
 -19  -1  -6 1477.00 370.400   3
  20 -19  -6 526.100 699.967   3
  19 -20  -6 1453.16 868.872   3
  -1  20  -6 631.139 750.892   1
 -20   1  -6 1551.20 756.602   4
   1  19  -6 1019.44 868.947   1
 -19  -1  -6 987.221 712.126   4
   1  19  -3 598.435 639.092   1
 -19  -1  -3 852.214 787.438   2
 -20   1  -3 27.4504 672.161   2
 -20   1  -3 578.924 250.534   3
  20 -19  -3 421.257 546.651   3
  19 -20  -3-164.847 614.178   3
  -1  20  -3-155.854 681.294   2
 -19  -1  -3-300.531 615.185   4
  -1  20  -3-1184.60 689.146   1
 -20   1  -3-169.916 599.666   4
 -20   1   0 622.034 444.351   3
 -19  -1   0 674.463 656.168   2
 -20   1   0 189.254 598.648   2
  -1  20   0 1277.61 642.653   1
  20 -19   0 1116.45 679.784   3
  19 -20   0 1408.40 686.412   3
   1  19   0 942.523 673.534   1
 -19  -1   0 1343.06 701.968   4
 -20   1   0 1809.26 781.896   4
  20 -19   3 934.202 637.731   2
   1  19   3 325.380 588.800   1
  19 -20   3 739.040 516.048   2
   1  19   3-125.548 587.607   3
 -19  -1   3 771.007 785.020   2
 -20   1   3 152.437 671.837   2
  -1  20   3-162.477 515.832   1
  20 -19   3 1775.64 787.743   3
  19 -20   3-139.547 655.854   3
 -19  -1   3 2373.45 828.689   4
 -20   1   3 285.107 666.085   4
 -19  -1   6 1442.22 803.745   2
 -20   1   6-306.176 744.854   2
 -19  -1   6 1698.86 861.440   4
 -20   1   6 2304.69 904.363   4
 -20   2  -7 1614.06 932.434   2
 -20   2  -7 2139.55 642.101   3
 -18  -2  -7 2210.70 530.132   3
  20 -18  -7 3579.63 1124.34   3
  18 -20  -7 2293.15 1086.73   3
  -2  20  -7 3250.28 1035.55   1
 -20   2  -7 3794.61 1226.61   1
   2  18  -7 5080.27 1154.24   1
 -18  -2  -7 2640.79 913.390   4
 -20   2  -7 2594.17 832.768   4
 -18  -2  -7 2012.77 1084.70   2
   2  18  -4 500.851 708.551   1
 -18  -2  -4 650.273 835.731   2
 -20   2  -4 400.673 770.185   2
 -20   2  -4 686.345 371.725   3
  20 -18  -4-501.703 661.772   3
  18 -20  -4 618.682 638.427   3
  -2  20  -4 971.332 688.389   2
  -2  20  -4-178.870 716.482   1
 -18  -2  -4 475.409 617.698   4
 -20   2  -4 1511.58 746.712   4
 -20   2  -1 4540.63 595.243   3
  20 -18  -1 5656.76 974.606   3
  18 -20  -1 5924.75 1026.04   3
  -2  20  -1 7092.11 1053.38   1
 -18  -2  -1 6337.71 1071.23   4
 -18  -2  -1 5611.83 1167.55   2
 -20   2  -1 8344.09 1193.36   4
 -20   2  -1 6043.71 1183.19   2
   2  18  -1 6330.03 1038.50   1
 -20   2   2 1358.14 622.759   3
  -2  20   2 2330.73 691.628   1
  20 -18   2 2176.30 707.462   2
  18 -20   2 1939.89 582.351   2
 -18  -2   2 2662.93 864.792   2
   2  18   2 868.418 578.440   3
 -20   2   2 1469.74 691.613   2
   2  18   2 1298.39 632.029   1
  20 -18   2-11.8613 587.420   3
  18 -20   2 1025.90 712.836   3
 -18  -2   2 932.444 679.129   4
 -20   2   2 2129.85 861.483   4
 -18  -2   5 3685.86 965.771   2
 -20   2   5 2866.55 970.853   2
 -20   2   5 5678.83 1182.72   4
 -18  -2   5 4540.24 1026.82   4
 -18  -2   8 419.184 984.886   2
 -20   2   8 2743.21 1085.88   2
 -18  -2   8 2131.95 900.258   4
 -20   2   8 1924.10 955.175   4
 -20   3  -8 614.172 934.206   2
 -20   3  -8 1021.80 657.597   3
  20 -17  -8-1135.85 922.411   3
  17 -20  -8 1114.24 930.991   3
  -3  20  -8 761.075 942.560   1
 -17  -3  -8-5.22691 676.947   4
 -17  -3  -8 2041.99 1124.24   2
 -20   3  -8 1236.49 1015.78   1
   3  17  -8 135.615 718.342   1
 -20   3  -8 77.7577 586.007   4
 -17  -3  -5-191.596 721.262   2
   3  17  -5 75.0398 621.509   1
 -20   3  -5-701.190 717.702   2
  20 -17  -5-756.680 712.990   3
  17 -20  -5 119.046 652.455   3
 -20   3  -5 280.457 414.899   3
  -3  20  -5-273.174 670.382   1
 -17  -3  -5 102.125 645.454   4
 -20   3  -5 694.552 632.105   4
 -17  -3  -2 53.8986 728.434   2
 -20   3  -2 970.219 683.948   2
 -20   3  -2 963.905 426.907   3
  20 -17  -2-255.049 613.506   3
   3  17  -2 1174.63 744.518   1
  17 -20  -2 940.469 650.802   3
 -20   3  -2 766.849 583.080   4
  -3  20  -2-1088.05 659.268   1
  17 -20  -2 468.246 558.173   1
 -17  -3  -2 512.606 678.596   4
 -20   3   1 697.073 497.785   3
  20 -17   1-869.885 611.878   2
 -17  -3   1 600.873 671.535   2
 -20   3   1 872.769 588.472   2
  17 -20   1 444.964 459.609   2
   3  17   1 611.664 504.629   3
  -3  20   1 84.5569 481.789   1
  20 -17   1 541.864 585.898   3
  17 -20   1 104.655 599.575   3
   3  17   1 572.536 554.835   1
 -17  -3   1 872.216 634.341   4
 -20   3   1 287.549 619.577   4
   3  17   4 89.7992 521.523   3
 -17  -3   4 574.133 626.902   2
 -20   3   4 669.485 623.417   2
  20 -17   4 630.760 558.091   2
 -17  -3   4 1131.07 782.279   4
 -20   3   4 1308.34 860.292   4
  -3  20   4 773.009 525.943   1
 -17  -3   7 174.562 763.511   2
 -20   3   7 498.242 865.888   2
  17 -20   7 209.256 413.821   4
 -17  -3   7-729.707 752.585   4
 -20   3   7 279.423 729.050   4
   4  16  -6 3398.25 905.512   1
 -20   4  -6 3911.27 1002.88   2
 -16  -4  -6 2125.46 329.008   3
  20 -16  -6 4522.52 1103.32   3
  16 -20  -6 3400.44 1076.82   3
  -4  20  -6 3262.50 947.104   1
 -20   4  -6 5368.74 1396.21   1
 -16  -4  -6 1907.57 791.797   4
 -20   4  -6 4125.06 868.892   4
 -16  -4  -6 2459.95 986.266   2
 -16  -4  -3-31.2769 747.311   2
 -20   4  -3 803.717 684.165   2
 -20   4  -3 136.969 404.228   3
   4  16  -3-580.736 604.540   1
  20 -16  -3 627.459 659.184   3
  16 -20  -3 917.965 726.571   3
  -4  20  -3 609.479 650.712   1
 -16  -4  -3 2342.46 817.233   4
  16 -20  -3 52.7336 459.953   1
 -20   4  -3 1021.99 587.885   4
  -4  20   0 1942.18 655.914   1
 -16  -4   0 1347.85 709.068   2
 -20   4   0 980.432 456.411   3
 -20   4   0 854.385 637.769   2
   4  16   0 1945.41 690.136   1
   4  16   0 1876.73 508.570   3
  16 -20   0 562.536 488.855   2
  20 -16   0 2116.88 654.439   3
  16 -20   0 1781.08 701.569   3
 -16  -4   0 2070.47 749.012   4
 -20   4   0 693.499 592.667   4
  16 -20   3 519.210 326.675   2
   4  16   3 148.103 426.996   3
 -16  -4   3-59.0430 644.184   2
  -4  20   3 315.979 589.492   1
 -20   4   3-414.292 545.145   2
  20 -16   3 295.689 679.909   3
 -16  -4   3-745.137 684.732   4
 -20   4   3-829.463 705.247   4
  20 -16   3 10.7365 609.464   2
 -16  -4   6 2734.13 912.952   2
 -20   4   6 1834.24 871.582   2
  16 -20   6 2158.65 706.850   4
 -16  -4   6 261.023 701.035   4
 -20   4   6 1480.98 864.060   4
   5  15  -7 3106.14 912.753   1
 -20   5  -7 2104.98 906.947   2
 -15  -5  -7 3114.82 572.989   3
  -5  20  -7 5057.30 1178.58   1
  20 -15  -7 2952.61 1116.11   3
  15 -20  -7 3844.82 1033.95   3
 -15  -5  -7 3251.20 954.037   4
 -20   5  -7 3060.45 1239.54   1
 -15  -5  -7 3375.62 1304.28   2
 -20   5  -7 3185.34 750.830   4
 -20   5  -4 548.589 622.962   2
   5  15  -4 369.286 540.256   1
  20 -15  -4 969.678 665.846   3
 -20   5  -4 184.260 526.624   4
  -5  20  -4 2377.60 854.203   1
 -20   5  -4 345.124 435.646   3
  15 -20  -4 873.267 742.791   3
 -15  -5  -4 1165.93 737.875   4
  15 -20  -4 676.657 474.568   1
 -15  -5  -4 471.360 820.230   2
   5  15  -1 3272.58 786.974   1
 -20   5  -1 3909.73 703.513   3
 -15  -5  -1 2721.18 887.942   2
 -20   5  -1 2722.40 789.535   2
  20 -15  -1 2319.19 744.435   3
  15 -20  -1 3110.59 763.859   3
   5  15  -1 2548.36 535.627   3
  -5  20  -1 2559.99 764.094   1
 -15  -5  -1 3247.73 832.407   4
 -20   5  -1 4002.25 816.466   4
  20 -15   2 1715.77 714.032   2
   5  15   2 2247.06 690.559   1
 -15  -5   2 2506.66 831.862   2
   5  15   2 1448.08 452.265   3
  15 -20   2 1716.61 449.434   2
 -20   5   2 2608.90 795.668   2
  -5  20   2 1689.43 613.945   1
  20 -15   2 2152.40 761.310   3
  15 -20   2 408.948 667.623   3
 -15  -5   2 2082.92 764.684   4
 -20   5   2 1793.57 732.686   4
   5  15   5 3306.88 666.487   3
 -15  -5   5 1438.37 698.464   2
 -20   5   5 1845.98 803.091   2
  20 -15   5 610.695 548.430   2
 -20   5   5 1997.29 684.301   1
  20 -15   5 2434.02 650.485   4
 -15  -5   5 2782.87 845.383   4
 -20   5   5 3694.22 1009.61   4
  15 -20   5 2386.09 680.267   4
 -20   5   8 788.862 887.270   4
 -15  -5   8-1166.27 934.975   2
 -15  -5   8 659.209 802.718   4
 -20   6  -8 593.782 749.720   2
   6  14  -8 700.254 1017.07   3
   6  14  -8-83.2951 718.950   1
  -6  20  -8-154.801 795.615   1
 -14  -6  -8 1154.18 554.905   3
  20 -14  -8 1006.48 1003.88   3
  14 -20  -8 700.316 819.053   3
 -14  -6  -8 53.6256 696.427   4
 -14  -6  -8 130.280 1026.17   2
 -20   6  -8 2809.15 1247.88   1
 -20   6  -5 1655.00 742.524   2
  -6  20  -5 1211.88 785.567   1
   6  14  -5 458.417 631.936   1
  20 -14  -5 1122.75 758.825   3
  14 -20  -5 585.166 645.641   3
 -20   6  -5 1576.66 562.064   3
 -20   6  -5 1528.14 1119.48   1
 -14  -6  -5 1556.30 805.868   4
  14 -20  -5 1319.83 449.108   1
 -14  -6  -5 236.751 789.887   2
 -20   6  -5 1802.65 697.241   4
 -14  -6  -2 1674.88 823.463   2
  14 -20  -2 972.801 561.987   1
 -20   6  -2 1611.05 712.598   2
 -20   6  -2 379.544 454.471   3
  20 -14  -2 739.665 572.861   3
  14 -20  -2 190.816 520.685   3
  -6  20  -2 67.0049 614.065   1
   6  14  -2 682.622 437.990   3
 -14  -6  -2-113.589 584.939   4
   6  14  -2 1122.74 564.216   1
 -20   6  -2 596.135 490.039   4
 -14  -6   1 1226.53 733.144   2
 -20   6   1 853.286 582.939   3
   6  14   1 2212.84 642.786   1
 -20   6   1 2165.70 805.384   2
   6  14   1 547.831 347.444   3
  14 -20   1 1744.88 497.440   2
  20 -14   1 1169.82 666.498   3
  14 -20   1-440.358 596.566   3
 -14  -6   1 1597.76 735.965   4
 -20   6   1 1844.82 722.948   4
  -6  20   1 912.859 522.474   1
  -6  20   4 328.248 451.194   1
   6  14   4 908.614 393.448   3
 -14  -6   4 978.860 688.053   2
 -20   6   4 1630.82 813.471   2
 -20   6   4-89.4352 433.478   1
  20 -14   4-183.484 621.894   2
 -14  -6   4 948.934 674.187   4
 -20   6   4 627.512 666.878   4
 -20   6   7 2351.92 958.985   4
 -14  -6   7 2010.82 1019.42   2
 -20   6   7 827.065 799.671   2
  14 -20   7 1215.67 459.101   4
 -14  -6   7 464.372 673.217   4
   7  13  -6 143.111 703.856   3
 -20   7  -6 1960.76 843.376   2
  -7  20  -6 1509.49 819.917   1
   7  13  -6 297.869 574.067   1
 -13  -7  -6 563.658 232.041   3
  20 -13  -6 1426.82 936.471   3
  13 -20  -6 387.441 643.528   3
 -13  -7  -6 266.456 216.322   3
 -13  -7  -6 1032.86 723.640   4
  13 -20  -6 554.967 248.139   1
 -20   7  -6 770.570 861.234   1
 -13  -7  -6 257.876 783.786   2
 -20   7  -6 577.525 552.624   4
  13 -20  -3 667.000 476.329   1
 -20   7  -3 429.045 549.490   2
  -7  20  -3 605.254 603.940   1
  20 -13  -3 737.589 620.586   3
 -20   7  -3 962.887 529.238   3
  13 -20  -3 562.321 537.208   3
   7  13  -3 1117.07 608.546   1
 -13  -7  -3 599.996 600.741   4
 -20   7  -3 1558.79 606.620   4
 -13  -7  -3 805.236 826.356   2
 -13  -7   0 3854.86 865.148   2
  13 -20   0 4095.15 749.219   2
   7  13   0 2452.19 477.252   3
  20 -13   0 3676.68 831.737   3
 -20   7   0 3400.82 729.661   3
   7  13   0 4173.95 821.562   1
  13 -20   0 2906.06 754.084   3
  -7  20   0 3263.88 758.751   1
 -13  -7   0 3867.66 898.262   4
 -20   7   0 5144.41 970.243   2
 -20   7   0 3345.02 758.469   4
   7  13   3 446.774 236.441   3
  13 -20   3 192.024 192.247   2
 -13  -7   3 1230.14 680.857   2
 -20   7   3 985.575 711.142   2
  20 -13   3 112.477 580.055   3
  -7  20   3 970.236 532.666   1
  13 -20   3 48.6757 210.051   2
 -13  -7   3 666.300 635.907   4
 -20   7   3 804.636 475.878   1
  20 -13   3 352.022 685.736   2
 -20   7   3 1916.71 820.877   4
  13 -20   6 760.779 504.475   4
 -20   7   6 431.972 482.268   1
 -13  -7   6 902.528 733.508   2
 -20   7   6 1214.82 824.273   2
  13 -20   6 687.531 483.714   4
  20 -13   6 1109.67 537.538   4
 -13  -7   6 535.004 708.790   4
 -20   7   6 714.378 746.549   4
  -8  20  -7 3572.15 980.039   1
   8  12  -7 4282.02 1174.66   3
 -20   8  -7 3096.69 823.253   2
 -12  -8  -7 3294.37 561.413   3
  20 -12  -7 3267.26 1105.14   3
   8  12  -7 3401.07 922.256   1
  12 -20  -7 3006.17 989.665   3
 -12  -8  -7 1446.16 755.348   4
 -12  -8  -7 5752.81 1433.00   2
 -20   8  -7 4358.68 1403.85   1
 -20   8  -7 3316.62 740.978   4
  -8  20  -4 426.922 641.517   1
 -20   8  -4 1199.90 716.593   2
  12 -20  -4 928.143 516.514   1
  20 -12  -4-812.683 643.919   3
  12 -20  -4 1961.46 756.266   3
   8  12  -4 1428.19 624.575   1
 -20   8  -4 1342.55 1020.02   1
 -12  -8  -4 904.779 603.958   4
 -12  -8  -4 1231.79 909.853   2
 -20   8  -4 990.851 578.389   4
 -20   8  -1 5278.33 891.907   3
  20 -12  -1 6081.95 942.706   3
   8  12  -1 5984.19 951.470   1
  12 -20  -1 4870.40 927.117   3
   8  12  -1 3688.48 526.582   3
  -8  20  -1 4323.64 856.329   1
 -12  -8  -1 5902.22 1147.60   2
 -12  -8  -1 3993.99 915.660   4
 -20   8  -1 5093.18 871.898   4
 -20   8  -1 5081.50 936.826   2
  -8  20   2 2142.43 592.839   1
  20 -12   2 2380.49 774.857   2
 -20   8   2 2736.72 976.044   2
  12 -20   2 3077.67 483.179   2
 -12  -8   2 3236.04 859.851   2
  20 -12   2 1768.03 676.370   3
  12 -20   2 2574.10 817.770   3
  12 -20   2 2289.80 639.613   2
 -12  -8   2 3299.59 845.329   4
 -20   8   2 3178.27 826.357   4
 -12  -8   5 3095.80 917.340   2
 -20   8   5 2341.44 872.045   4
 -20   8   5 2854.80 920.001   2
  12 -20   5 4442.30 888.025   4
  20 -12   5 2313.23 666.677   4
 -20   8   5 2152.13 553.540   1
 -12  -8   5 3599.84 877.235   4
  20 -12   5 1630.98 737.469   2
 -12  -8   8-690.607 862.350   2
 -12  -8   8 396.824 646.327   4
 -20   9  -8 118.590 989.906   1
 -20   9  -8 638.302 637.690   2
   9  11  -8 1385.10 1018.64   3
 -11  -9  -8-672.880 541.170   3
  20 -11  -8 971.086 987.049   3
  11 -20  -8 1952.80 984.541   3
 -11  -9  -8 286.027 718.359   4
   9  11  -8 1369.80 828.978   1
 -11  -9  -8 2010.35 1204.03   2
  -9  20  -8-162.232 713.074   1
   9  11  -5 4650.04 1015.82   3
 -20   9  -5 1387.28 624.229   2
  11 -20  -5 1622.06 489.930   1
  20 -11  -5 2744.03 965.938   3
  11 -20  -5 3759.64 981.740   3
   9  11  -5 1923.35 760.381   1
 -11  -9  -5 2641.86 836.571   4
 -20   9  -5 3067.96 1160.39   1
 -11  -9  -5 755.560 902.865   2
  -9  20  -5 2383.90 801.963   1
 -20   9  -5 2745.53 706.325   4
  -9  20  -2 1601.10 696.931   1
 -20   9  -2 941.867 550.899   2
  11 -20  -2 989.272 557.223   1
 -20   9  -2 596.751 510.132   3
  20 -11  -2 405.495 555.250   3
  11 -20  -2 477.422 610.917   3
   9  11  -2 433.086 556.863   1
 -20   9  -2 727.040 815.636   1
 -11  -9  -2 1108.61 635.888   4
 -20   9  -2 1116.68 516.824   4
 -11  -9  -2 1350.36 927.393   2
 -20   9   1 4553.28 921.015   2
 -11  -9   1 3199.25 861.405   2
   9  11   1 2174.85 273.849   3
  20 -11   1 4391.07 780.922   3
  11 -20   1 3852.45 825.563   3
  -9  20   1 3895.92 709.230   1
  11 -20   1 3338.33 704.439   2
 -11  -9   1 3628.02 861.198   4
 -20   9   1 5201.15 936.612   4
  -9  20   4 1605.53 567.864   1
 -11  -9   4 580.197 609.497   2
 -20   9   4 1563.82 826.816   2
  11 -20   4 857.992 641.433   4
  20 -11   4 36.7509 676.148   2
 -11  -9   4-167.076 671.105   4
 -20   9   4 214.726 393.990   1
 -20   9   4 2165.92 864.575   4
 -11  -9   7 659.963 841.353   2
  11 -20   7 742.289 485.174   4
 -11  -9   7 221.626 684.339   4
 -20  10  -6 1502.22 625.057   4
  10  10  -6-307.254 707.383   3
 -20  10  -6 1172.16 633.077   2
  20 -10  -6 1822.82 899.538   3
 -10 -10  -6 780.108 302.375   3
  10 -20  -6 885.955 470.228   1
  10 -20  -6 1606.42 812.643   3
 -10 -10  -6 1773.63 830.356   4
  10  10  -6 91.8563 632.210   1
 -10 -10  -6 835.777 973.359   2
 -10  20  -6-79.5378 692.344   1
 -20  10  -6 922.451 926.769   1
  10  10  -3 930.427 551.965   3
 -20  10  -3 453.571 579.867   2
  20 -10  -3 1221.56 592.422   3
  10 -20  -3-130.767 503.035   3
  10 -20  -3 281.356 502.091   1
  10  10  -3-461.138 553.532   1
 -10 -10  -3 742.514 679.254   4
 -20  10  -3 584.871 844.380   1
 -10 -10  -3 1992.12 993.012   2
 -10  20  -3 977.182 675.755   1
 -20  10  -3 486.617 506.233   4
 -10 -10   0 1041.31 696.951   2
  10  10   0 505.164 263.324   3
 -10  20   0 767.078 622.286   1
 -20  10   0 1101.94 610.064   2
  20 -10   0 1197.38 580.465   3
  10  10   0 544.424 250.809   3
  10 -20   0 1347.55 637.426   3
 -20  10   0-256.796 581.560   1
 -10 -10   0-483.674 651.880   4
 -20  10   0 1123.60 623.137   4
 -10  20   3-179.312 427.356   1
 -10 -10   3-138.629 594.001   2
 -20  10   3 1030.63 726.493   2
  10 -20   3 544.536 529.328   4
 -10 -10   3 1247.20 679.480   4
  10 -20   3 154.412 286.238   2
 -20  10   3 145.321 625.770   4
 -20  10   6 1231.79 838.454   4
 -20  10   6 393.422 259.852   1
 -10 -10   6 686.258 743.229   2
  10 -20   6 1.72672 497.140   4
  20 -10   6-114.290 498.565   4
 -20  10   6 595.530 266.087   1
 -10 -10   6 950.193 796.485   4
 -20  11  -7 1853.85 1082.82   1
  11   9  -7 1377.17 981.629   3
 -20  11  -7 422.498 543.121   2
  20  -9  -7 2150.23 1049.47   3
  -9 -11  -7 25.1665 370.799   3
   9 -20  -7 1107.78 886.372   3
  -9 -11  -7 899.610 773.329   4
 -11  20  -7 1091.30 886.029   1
  -9 -11  -7 156.340 1043.48   2
  11   9  -7 927.778 681.645   1
  11   9  -4 849.562 728.554   3
  -9 -11  -4 564.781 698.921   4
 -20  11  -4 436.025 472.177   2
  20  -9  -4 1375.64 804.410   3
   9 -20  -4 1312.06 653.789   3
  11   9  -4 32.8696 520.517   1
   9 -20  -4 739.437 560.981   1
 -11  20  -4 1537.93 742.341   1
  -9 -11  -4 168.905 742.654   2
 -20  11  -4 2102.78 1028.85   1
 -20  11  -4 555.117 557.000   4
  11   9  -1 4795.71 619.833   3
 -11  20  -1 5130.43 916.839   1
  20  -9  -1 3780.18 741.797   3
   9 -20  -1 4165.03 845.373   3
  11   9  -1 4866.99 887.650   1
 -20  11  -1 5699.62 1037.53   1
  -9 -11  -1 4880.74 1024.76   4
 -20  11  -1 3612.63 857.712   4
 -20  11  -1 4037.38 810.888   2
  -9 -11  -1 4667.41 1011.67   2
   9 -20   2-186.005 583.293   4
  -9 -11   2 4.35112 565.619   2
 -20  11   2 725.470 635.357   4
  -9 -11   2 651.483 597.315   4
 -20  11   2 1351.82 665.388   2
  20  -9   2 1492.90 657.140   3
 -11  20   2 323.169 457.528   1
 -20  11   2 262.191 464.759   1
   9 -20   2-156.517 495.696   2
 -20  11   5 2404.40 430.805   1
 -20  11   5 3837.58 995.795   4
 -11  20   5 3115.98 539.935   1
  -9 -11   5 3343.84 892.725   2
   9 -20   5 2136.22 709.420   4
  20  -9   5 3631.39 781.503   4
  -9 -11   5 2562.63 852.023   4
 -20  11   5 1279.41 402.419   1
  -9 -11   8-215.289 788.591   2
  -9 -11   8 82.0938 620.021   4
  12   8  -8-613.377 678.341   1
 -20  12  -8-766.511 1120.61   1
  12   8  -8 799.217 930.587   3
 -20  12  -8-280.659 527.976   2
  -8 -12  -8 2140.89 1262.82   2
  20  -8  -8 31.7821 896.704   3
  -8 -12  -8 306.091 470.211   3
   8 -20  -8-174.926 787.654   3
  -8 -12  -8 319.911 738.435   4
 -12  20  -8 212.577 779.877   1
  12   8  -5 4076.77 991.417   3
  -8 -12  -5 1965.40 366.004   3
 -20  12  -5 1679.76 604.571   2
  20  -8  -5 3528.06 980.708   3
   8 -20  -5 3688.51 931.815   3
  12   8  -5 4099.49 871.776   1
  -8 -12  -5 4202.42 1004.88   4
   8 -20  -5 1732.93 616.375   1
 -12  20  -5 2974.40 900.160   1
  -8 -12  -5 3395.30 1202.83   2
 -20  12  -5 5480.97 1317.49   1
 -20  12  -2 2513.02 695.470   4
  12   8  -2 3449.36 824.350   1
  12   8  -2 1153.30 513.332   3
  20  -8  -2 1470.51 594.361   3
 -20  12  -2 1985.28 582.043   2
   8 -20  -2 2176.92 655.714   3
  -8 -12  -2 1335.52 710.667   4
 -12  20  -2 3386.38 827.925   1
 -20  12  -2 1479.49 822.051   1
  -8 -12  -2 3271.82 964.907   2
  -8 -12   1 3265.68 826.540   2
 -20  12   1 5628.87 1000.14   2
 -12  20   1 5088.50 828.161   1
  20  -8   1 4322.11 768.259   3
   8 -20   1 6186.96 996.391   3
   8 -20   1 4620.61 947.949   4
   8 -20   1 5812.08 972.291   2
 -20  12   1 5287.68 867.032   1
  -8 -12   1 4307.51 978.917   4
 -20  12   1 5292.67 946.095   4
 -20  12   4 477.151 344.754   1
  -8 -12   4 464.730 625.390   2
 -12  20   4 689.288 419.852   1
 -20  12   4 1337.35 807.524   2
   8 -20   4 959.674 666.977   4
  -8 -12   4 1410.93 652.983   4
 -20  12   4 1563.49 474.510   1
  -8 -12   7 1004.15 848.735   2
   8 -20   7 1527.15 574.636   4
 -20  13  -6 1229.11 1009.35   1
  13   7  -6 674.735 760.020   3
 -20  13  -6 1710.46 552.509   2
  20  -7  -6 195.256 758.379   3
  -7 -13  -6 1795.57 488.262   3
   7 -20  -6 229.125 657.922   3
  13   7  -6 946.510 655.138   1
 -13  20  -6 64.1426 761.446   1
  -7 -13  -6 912.771 655.521   4
  -7 -13  -6 130.962 1011.61   2
   7 -20  -6 392.284 528.091   1
  13   7  -3 726.196 543.047   3
  20  -7  -3 512.343 547.073   3
 -20  13  -3 511.092 449.981   2
   7 -20  -3-945.055 684.515   3
 -13  20  -3-236.413 588.708   1
  13   7  -3-268.814 527.642   1
  -7 -13  -3 1761.43 755.074   4
  -7 -13  -3-1998.05 969.921   2
 -20  13  -3 1405.23 796.265   1
  -7 -13   0 5205.34 1061.22   2
 -20  13   0 4072.95 812.697   4
  13   7   0 2466.05 332.025   3
  13   7   0 2754.57 301.336   3
  20  -7   0 3020.06 674.458   3
 -20  13   0 3119.12 739.264   2
   7 -20   0 2719.23 794.939   3
   7 -20   0 5973.60 1021.21   4
 -20  13   0 4588.18 944.030   1
   7 -20   0 2902.27 834.233   2
  -7 -13   0 4285.91 884.606   4
 -13  20   0 2992.64 711.378   1
   7 -20   3 36.9737 369.531   2
  -7 -13   3-182.185 579.940   2
 -20  13   3 1125.10 707.123   2
 -13  20   3 344.603 386.749   1
   7 -20   3 416.535 547.001   4
  -7 -13   3 307.461 572.236   4
 -20  13   3 1129.52 536.065   1
   7 -20   6 1389.35 654.719   4
  -7 -13   6 929.549 634.840   4
 -20  14  -7-112.803 880.958   1
  14   6  -7 1477.55 885.611   3
  20  -6  -7 784.866 811.943   3
 -20  14  -7-301.684 403.564   2
  -6 -14  -7 960.283 508.884   3
   6 -20  -7 1333.29 772.630   3
 -14  20  -7 793.964 788.876   1
  -6 -14  -7 1006.00 764.879   4
  -6 -14  -7-416.890 1033.92   2
   6 -20  -7 1817.67 1000.28   4
  14   6  -7 1715.65 771.816   1
 -20  14  -4 1789.10 872.620   1
  14   6  -4 874.002 610.745   3
  20  -6  -4-521.350 642.067   3
 -20  14  -4 1357.48 458.331   2
   6 -20  -4 286.947 547.332   3
  -6 -14  -4 946.015 365.065   3
 -14  20  -4-438.240 673.108   1
   6 -20  -4 141.437 657.494   4
   6 -20  -4 1010.59 1018.36   2
  14   6  -4 269.394 577.166   1
  -6 -14  -4 969.200 678.705   4
  -6 -14  -4-1466.32 968.414   2
  -6 -14  -1 636.442 696.309   2
  14   6  -1 345.617 298.757   3
  20  -6  -1 761.392 432.414   3
 -20  14  -1 1412.76 565.301   2
   6 -20  -1 521.799 552.069   3
   6 -20  -1 3089.41 931.464   4
   6 -20  -1 1372.26 801.462   2
 -14  20  -1 255.710 515.534   1
  -6 -14  -1 1150.33 654.019   4
 -20  14  -1 735.913 572.887   1
 -20  14   2 394.212 473.011   1
  -6 -14   2-206.847 573.574   2
 -14  20   2 605.918 515.372   1
  20  -6   2-343.284 476.398   3
 -20  14   2-475.268 623.017   2
   6 -20   2 637.088 638.589   4
   6 -20   2 974.560 544.984   2
 -20  14   5 639.394 231.499   1
 -14  20   5 588.040 333.293   1
  -6 -14   5 1376.84 793.063   2
 -20  14   5 62.7886 189.274   1
   6 -20   5 628.322 213.760   2
   6 -20   5 1086.45 667.388   4
  -6 -14   5 137.081 592.198   4
  -6 -14   8 417.471 699.928   2
   6 -20   8-964.627 590.638   4
  -6 -14   8 542.804 667.133   4
  15   5  -8 2750.78 1125.66   3
 -20  15  -8 1975.15 1084.79   1
  20  -5  -8 444.468 890.536   3
  -5 -15  -8-138.805 550.519   3
   5 -20  -8 143.804 720.849   3
  15   5  -8 517.333 620.195   1
 -15  20  -8 1416.74 1012.16   1
   5 -20  -8 466.901 881.140   4
   5 -20  -8-661.447 1263.96   2
  -5 -15  -8 1004.00 845.565   4
  -5 -15  -8 3212.89 1402.28   2
  15   5  -5 2179.62 715.698   1
 -20  15  -5 2971.35 1036.36   1
  15   5  -5 3511.86 919.643   3
  20  -5  -5 3590.48 888.670   3
 -20  15  -5 1583.99 452.917   2
   5 -20  -5 2017.78 765.632   3
  -5 -15  -5 2736.40 532.146   3
 -15  20  -5 3027.86 1007.06   1
   5 -20  -5 3039.21 935.716   4
   5 -20  -5 1681.63 1116.44   2
  -5 -15  -5 2762.83 1189.08   2
  -5 -15  -5 2122.38 750.043   4
 -20  15  -2 2242.16 810.924   1
  15   5  -2 2290.25 572.146   3
  20  -5  -2 1982.33 626.534   3
  -5 -15  -2 1765.49 769.107   4
 -20  15  -2 2732.37 615.234   2
   5 -20  -2 1879.01 733.380   3
 -15  20  -2 2714.73 802.260   1
   5 -20  -2 2380.68 875.974   4
   5 -20  -2 2121.23 877.023   2
  -5 -15  -2 2777.31 1002.22   2
  -5 -15   1 2686.91 804.548   2
 -20  15   1 3250.84 738.829   1
 -20  15   1 5114.76 996.840   2
  20  -5   1 3400.08 668.093   3
   5 -20   1 3169.56 849.461   4
  -5 -15   1 3513.96 872.838   4
   5 -20   1 3598.41 922.857   2
 -15  20   1 3824.51 702.382   1
   5 -20   4 585.317 479.618   2
  -5 -15   4 1323.83 735.275   2
 -20  15   4 1226.50 404.425   1
   5 -20   4 951.841 670.262   4
 -15  20   4 15.8092 344.163   1
  -5 -15   4 1457.42 707.979   4
  -5 -15   7 2899.30 890.483   2
   5 -20   7 4234.80 821.948   4
  -5 -15   7 4294.98 955.178   4
  16   4  -6 929.160 834.132   3
 -20  16  -6 1968.57 1006.84   1
  20  -4  -6 1104.12 858.103   3
   4 -20  -6 1733.52 712.062   3
  -4 -16  -6 1720.56 520.602   3
 -20  16  -6 693.588 286.152   2
 -16  20  -6-209.822 865.043   1
   4 -20  -6 2383.02 1005.89   4
   4 -20  -6 1292.43 1119.99   2
  -4 -16  -6 1046.63 785.311   4
  -4 -16  -6 1177.78 1075.85   2
 -20  16  -3-738.044 731.033   1
  16   4  -3-15.1414 473.801   3
  20  -4  -3-128.000 541.970   3
   4 -20  -3-848.530 678.913   3
 -20  16  -3 353.007 426.978   2
 -16  20  -3 755.921 648.624   1
  -4 -16  -3-81.2362 363.055   3
   4 -20  -3 796.325 752.877   4
  -4 -16  -3 296.593 715.456   4
   4 -20  -3-734.964 828.701   2
  -4 -16  -3 1017.71 775.060   2
 -20  16   0 1074.69 639.013   1
  16   4   0 956.288 282.237   3
  20  -4   0 2189.96 558.696   3
   4 -20   0 584.788 595.526   3
 -20  16   0 1451.29 628.408   2
 -16  20   0 1546.66 617.558   1
   4 -20   0 1804.92 775.671   4
  -4 -16   0 2463.06 877.549   4
   4 -20   0 2104.04 825.555   2
  -4 -16   0 811.240 717.306   2
   4 -20   3 25.5948 449.512   2
  -4 -16   3 140.464 607.089   2
 -16  20   3 627.532 432.736   1
 -20  16   3 1402.96 516.192   1
   4 -20   3 1201.69 749.431   4
  -4 -16   3 347.738 639.222   4
  -4 -16   6 1720.81 695.948   4
  -4 -16   6 3524.78 843.031   2
   4 -20   6 1302.98 335.921   2
   4 -20   6 2824.88 798.184   4
  17   3  -7 673.963 838.007   3
  20  -3  -7 784.474 830.722   3
 -20  17  -7 9.80356 814.314   1
   3 -20  -7 570.655 699.133   3
  -3 -17  -7-334.087 494.523   3
 -17  20  -7 602.984 818.302   1
   3 -20  -7-199.745 772.408   4
   3 -20  -7 1555.63 1245.86   2
  -3 -17  -7 87.2603 716.340   4
  -3 -17  -7 2963.75 1452.70   2
 -20  17  -4 90.3173 686.318   1
  17   3  -4 1775.10 745.143   3
  20  -3  -4 608.040 589.450   3
   3 -20  -4 2247.68 723.924   3
 -17  20  -4 990.016 742.483   1
  -3 -17  -4 1387.22 515.809   3
 -20  17  -4 455.673 384.032   2
   3 -20  -4 2593.96 959.905   4
  -3 -17  -4 1204.68 765.459   4
   3 -20  -4 2704.88 1133.62   2
  -3 -17  -4 832.251 885.368   2
 -20  17  -1 1013.12 622.689   1
  17   3  -1 439.422 403.557   3
  20  -3  -1-129.906 409.021   3
 -17  20  -1 901.780 640.207   1
   3 -20  -1 1491.26 712.762   3
   3 -20  -1 703.107 751.227   4
  -3 -17  -1-184.044 612.667   4
   3 -20  -1 1368.62 903.199   2
  -3 -17  -1 554.200 802.184   2
  -3 -17   2 1143.32 675.461   2
 -20  17   2 693.705 498.794   1
   3 -20   2-154.471 675.243   4
  -3 -17   2-179.738 615.730   4
 -17  20   2 1125.34 505.193   1
   3 -20   2 770.429 589.017   2
   3 -20   5 157.983 444.033   2
 -20  17   5 52.2503 131.957   1
 -17  20   5-223.959 228.753   1
   3 -20   5-444.908 631.956   4
  -3 -17   5-19.6557 604.534   4
  -3 -17   8 814.391 650.232   2
   3 -20   8 21.3734 608.002   4
  -3 -17   8 669.193 685.761   4
  18   2  -8 1631.52 1036.59   3
  20  -2  -8 1720.64 1022.22   3
 -20  18  -8 3292.76 1190.84   1
  -2 -18  -8 221.022 606.124   3
   2 -20  -8 994.087 784.618   3
 -18  20  -8 2328.77 1129.73   1
   2 -20  -8 1867.50 1139.28   4
  -2 -18  -8 282.266 814.675   4
   2 -20  -8 3730.78 1747.85   2
  -2 -18  -8 1821.68 1351.01   2
  18   2  -5 4347.78 1062.59   3
  -2 -18  -5 4073.39 708.799   3
  20  -2  -5 4136.54 1012.61   3
 -20  18  -5 3616.63 1133.62   1
 -18  20  -5 2369.27 981.302   1
   2 -20  -5 2198.16 649.432   3
  -2 -18  -5 5233.97 1207.64   4
   2 -20  -5 4727.99 1183.93   4
   2 -20  -5 4737.19 1474.35   2
  -2 -18  -5 3966.65 1232.40   2
 -20  18  -2 1397.94 716.443   1
  18   2  -2 2199.92 567.060   3
  20  -2  -2 1895.31 628.272   3
 -18  20  -2 3253.07 882.996   1
   2 -20  -2 1196.81 632.720   3
  -2 -18  -2 705.127 445.824   3
   2 -20  -2 1158.84 818.476   4
  -2 -18  -2 485.105 669.828   4
   2 -20  -2 1320.56 937.064   2
  -2 -18  -2 551.998 756.984   2
  20  -2   1 7938.47 728.985   3
   2 -20   1 6731.67 1186.96   4
   2 -20   1 5910.49 1193.20   2
 -20  18   1 6508.62 943.433   1
  -2 -18   1 4126.24 989.250   4
 -18  20   1 7643.10 1013.84   1
  -2 -18   1 4274.74 968.495   2
   2 -20   4 832.034 595.682   2
  -2 -18   4 162.602 646.405   2
 -18  20   4 2256.82 499.178   1
 -20  18   4 1056.95 396.474   1
   2 -20   4 227.646 663.096   4
  -2 -18   4 1762.29 826.240   4
  -2 -18   7 2753.21 810.756   2
   2 -20   7 2094.24 745.423   4
  -2 -18   7 2355.82 816.564   4
  19   1  -6 852.257 843.675   3
  20  -1  -6 1970.93 992.813   3
 -20  19  -6-1115.28 896.656   1
 -19  20  -6 515.864 900.179   1
   1 -20  -6 2237.12 752.844   3
  -1 -19  -6 1107.48 554.583   3
   1 -20  -6 1107.26 906.152   4
  -1 -19  -6 1623.78 909.663   4
   1 -20  -6 265.693 992.367   2
  -1 -19  -6 846.283 1186.21   2
  19   1  -3 967.877 576.619   3
  20  -1  -3 1306.75 622.757   3
 -20  19  -3-658.853 672.082   1
 -19  20  -3 109.989 698.086   1
   1 -20  -3-564.078 509.147   3
  -1 -19  -3-731.238 532.329   3
   1 -20  -3 900.989 777.966   4
  -1 -19  -3 174.052 690.717   4
   1 -20  -3 1533.77 1006.27   2
  -1 -19  -3-918.474 890.963   2
 -20  19   0-588.637 556.279   1
  19   1   0 1672.08 442.807   3
  20  -1   0 1556.72 524.831   3
 -19  20   0 2009.24 697.328   1
   1 -20   0 328.285 616.633   4
  -1 -19   0 1155.07 673.566   4
   1 -20   0 1671.92 973.315   2
  -1 -19   0 227.612 744.093   2
   1 -20   3 337.392 502.676   2
  -1 -19   3 346.446 601.493   2
 -20  19   3 709.721 440.446   1
   1 -20   3-216.550 650.274   4
  -1 -19   3 950.724 726.053   4
 -19  20   3 529.599 451.938   1
  -1 -19   6 1412.10 718.934   2
   1 -20   6 487.261 557.558   2
   1 -20   6 756.485 697.598   4
  -1 -19   6 2110.74 873.507   4
  20   0  -7 313.727 830.531   3
 -20  20  -7-104.441 828.022   1
   0 -20  -7 458.122 593.858   3
   0 -20  -7 315.579 753.965   4
   0 -20  -7-473.373 1302.81   2
  20   0  -4 404.851 579.506   3
 -20  20  -4 2765.34 941.999   1
   0 -20  -4 962.025 544.608   3
   0 -20  -4 1457.93 866.431   4
   0 -20  -4 546.970 985.493   2
  20   0  -1-89.4132 393.975   3
 -20  20  -1 246.428 603.735   1
   0 -20  -1 341.055 730.190   4
   0 -20  -1 35.8996 795.684   2
   0 -20   2 354.758 590.296   2
 -20  20   2 1247.09 574.013   1
   0 -20   2 528.389 698.069   4
   0 -20   5 1132.32 697.501   2
 -20  20   5 120.343 216.951   1
   0 -20   5-293.221 703.593   4
 -21   0  -6 31.8629 805.755   2
  21 -21  -6 1115.46 904.032   3
   0  21  -6 340.299 722.210   1
 -21   0  -6 1607.75 830.901   4
   0  21  -3-875.040 734.848   1
 -21   0  -3-489.497 798.672   2
  21 -21  -3 8.10313 694.914   3
 -21   0  -3 566.519 652.506   4
 -21   0   0 2623.35 940.836   2
  21 -21   0 1673.08 680.856   3
   0  21   0 2515.27 812.818   1
 -21   0   0 4860.06 1104.23   4
  21 -21   3 782.923 678.557   2
   0  21   3-442.859 557.499   1
 -21   0   3 1144.60 818.522   2
  21 -21   3-140.155 675.813   3
 -21   0   3 588.583 740.683   4
 -21   0   6 2372.31 1062.89   2
 -21   0   6 1362.80 902.209   4
 -20  -1  -7 3302.95 1162.63   2
 -21   1  -7 1465.22 1017.05   2
  21 -20  -7 1634.23 915.951   3
  20 -21  -7 1273.28 972.961   3
  -1  21  -7 3084.14 1047.95   1
   1  20  -7 2121.46 908.523   1
 -20  -1  -7 737.914 792.965   4
 -21   1  -7 1005.73 754.249   4
   1  20  -4-376.712 629.852   1
 -20  -1  -4 1671.40 1011.23   2
 -21   1  -4 2436.82 996.801   2
 -21   1  -4 246.061 214.945   3
  21 -20  -4 286.118 627.630   3
  20 -21  -4 1019.21 684.815   3
  -1  21  -4 1026.89 718.575   1
 -20  -1  -4 1184.57 804.012   4
 -21   1  -4 1632.99 750.450   4
 -21   1  -1 1955.06 466.938   3
 -20  -1  -1 4032.26 1062.41   2
  -1  21  -1 3910.66 846.171   1
  21 -20  -1 2235.25 723.389   3
  20 -21  -1 2817.62 838.483   3
 -21   1  -1 5460.29 1202.64   2
   1  20  -1 4315.56 966.595   1
 -20  -1  -1 4809.84 1012.43   4
 -21   1  -1 4011.92 974.282   4
   1  20   2 1219.94 596.227   1
  21 -20   2 558.637 611.596   2
  20 -21   2 604.764 555.454   2
 -20  -1   2 185.583 659.788   2
   1  20   2-165.876 630.294   3
 -21   1   2-526.668 666.612   2
  -1  21   2 1204.65 649.402   1
  21 -20   2 325.848 724.596   3
  20 -21   2-44.7372 670.239   3
 -20  -1   2 818.039 767.033   4
 -21   1   2 749.473 710.448   4
 -20  -1   5 2861.89 938.082   2
 -21   1   5 655.638 728.591   2
 -20  -1   5 3498.23 1033.41   4
 -21   1   5 3118.40 1058.68   4
 -19  -2  -5 2060.23 962.763   2
 -21   2  -5-361.766 793.252   2
  21 -19  -5-317.646 780.298   3
  19 -21  -5 927.096 771.898   3
  -2  21  -5 640.741 699.224   1
 -19  -2  -5 782.445 654.202   4
 -21   2  -5-389.656 626.776   4
   2  19  -5 620.288 692.767   1
 -19  -2  -2 888.812 742.012   2
 -21   2  -2 43.4757 310.640   3
 -21   2  -2 435.763 671.557   2
   2  19  -2 396.493 558.619   1
  21 -19  -2-496.098 619.097   3
  19 -21  -2 17.9875 634.854   3
 -19  -2  -2 417.752 755.275   4
 -21   2  -2 0.69060 567.917   4
  -2  21  -2-148.705 575.836   1
 -21   2   1 992.880 578.654   3
 -19  -2   1 1191.86 749.246   2
 -21   2   1 3060.77 912.419   2
  19 -21   1 715.570 566.103   2
   2  19   1 844.578 561.821   3
   2  19   1 542.369 526.594   1
  21 -19   1 289.604 596.815   3
  19 -21   1 2015.24 816.238   3
  -2  21   1 1528.98 597.262   1
 -19  -2   1 2023.87 851.976   4
 -21   2   1 1085.42 677.911   4
   2  19   4 682.072 715.028   3
 -19  -2   4 1298.45 777.683   2
 -21   2   4 55.8808 662.351   2
  21 -19   4-78.0373 488.453   2
 -19  -2   4 1041.79 792.641   4
 -21   2   4-632.027 750.277   4
 -19  -2   7 1076.87 988.173   2
 -21   2   7 2241.58 988.653   2
  19 -21   7-233.907 533.343   4
 -19  -2   7-1362.63 970.848   4
 -21   2   7 302.011 746.356   4
 -21   3  -6 740.643 854.250   2
  21 -18  -6 2335.22 962.835   3
  18 -21  -6 2492.54 918.020   3
  -3  21  -6 3639.49 1020.19   1
 -18  -3  -6 3622.75 987.086   4
 -21   3  -6 2301.58 811.910   4
   3  18  -6 2634.23 899.173   1
 -18  -3  -6 1483.28 1049.06   2
 -18  -3  -3 1297.13 853.600   2
 -21   3  -3 631.595 676.702   2
 -21   3  -3 633.242 404.398   3
   3  18  -3 1060.77 673.922   1
  21 -18  -3 66.9872 614.426   3
  18 -21  -3 1533.24 772.207   3
  -3  21  -3 1172.88 781.746   1
  18 -21  -3 676.206 577.342   1
 -18  -3  -3 946.749 742.805   4
 -21   3  -3 1644.77 761.998   4
   3  18   0 1363.31 684.484   1
 -21   3   0 1091.50 548.568   3
 -18  -3   0 2432.88 873.199   2
  -3  21   0-22.1369 529.853   1
 -21   3   0 2271.34 817.696   2
   3  18   0 56.4420 469.816   3
  21 -18   0 349.714 619.367   3
  18 -21   0 235.206 568.382   3
 -18  -3   0 1371.00 795.772   4
 -21   3   0 1677.95 769.719   4
  21 -18   3 598.662 684.613   2
  18 -21   3 363.660 383.597   2
   3  18   3 567.847 512.259   3
 -18  -3   3 605.997 693.699   2
 -21   3   3 523.487 602.779   2
  21 -18   3 1845.57 804.709   3
  -3  21   3-864.093 616.623   1
 -18  -3   3-118.711 750.199   4
 -21   3   3-356.951 681.356   4
 -18  -3   6 1096.34 887.642   2
 -21   3   6 2667.96 1067.59   2
 -18  -3   6 966.979 781.725   4
 -21   3   6 1948.85 911.373   4
   4  17  -7 2476.46 908.782   1
 -21   4  -7 470.220 757.265   2
  21 -17  -7 366.612 860.427   3
  17 -21  -7 1050.73 887.168   3
  -4  21  -7 54.5273 835.011   1
 -17  -4  -7 843.974 735.891   4
 -21   4  -7 2217.67 815.002   4
 -17  -4  -7 268.062 940.875   2
 -17  -4  -4 1450.34 960.881   2
 -21   4  -4 1045.48 716.505   2
   4  17  -4 1222.10 723.591   1
 -21   4  -4 1575.96 506.012   3
  21 -17  -4 1851.06 800.831   3
  17 -21  -4 386.643 608.872   3
  -4  21  -4 1867.78 807.042   1
 -17  -4  -4 3860.21 1018.76   4
 -21   4  -4 2197.65 780.592   4
   4  17  -1 4393.02 923.193   1
 -17  -4  -1 4719.92 1081.49   2
 -21   4  -1 2976.80 593.179   3
 -21   4  -1 3886.93 1062.80   2
  21 -17  -1 3198.83 781.740   3
  17 -21  -1 1375.18 731.237   3
   4  17  -1 2529.01 599.259   3
 -17  -4  -1 3755.91 895.722   4
  -4  21  -1 3712.83 872.834   1
 -21   4  -1 4447.21 935.253   4
  21 -17   2 965.406 674.638   2
 -17  -4   2 487.527 618.863   2
  17 -21   2 743.008 470.340   2
   4  17   2 1379.14 582.853   3
 -21   4   2 1908.66 736.619   2
  21 -17   2 337.356 657.402   3
  17 -21   2 1039.85 730.832   3
  -4  21   2 769.649 587.172   1
   4  17   2 1836.73 723.805   1
 -17  -4   2 2647.27 892.215   4
 -21   4   2 1565.77 680.393   4
   4  17   5 1397.69 593.889   3
 -17  -4   5 1549.50 772.785   2
 -21   4   5 2001.80 903.938   2
  21 -17   5 498.184 529.154   2
 -17  -4   5 3121.42 1031.02   4
 -21   4   5 2722.13 1007.04   4
 -17  -4   8-825.436 1074.78   2
 -17  -4   8 2773.44 1057.02   4
 -21   4   8 1215.36 940.228   4
 -21   5  -8 1358.47 961.899   2
   5  16  -8 455.599 979.395   3
   5  16  -8 955.850 771.888   1
  21 -16  -8 1252.39 1065.16   3
  -5  21  -8-827.296 849.741   1
  16 -21  -8 850.248 946.280   3
 -16  -5  -8-1647.25 1169.78   2
 -16  -5  -8-7.21353 752.661   4
 -21   5  -8 584.017 976.932   1
 -21   5  -5 143.922 674.764   2
   5  16  -5 753.276 677.300   1
  21 -16  -5-253.038 659.707   3
  16 -21  -5 439.425 717.939   3
  -5  21  -5 71.1312 689.549   1
 -21   5  -5-142.490 436.291   3
 -16  -5  -5 666.409 701.032   4
 -21   5  -5-628.954 599.308   4
 -16  -5  -5 1345.59 970.614   2
 -16  -5  -2 675.011 715.764   2
 -21   5  -2 3316.52 848.270   4
 -21   5  -2 3701.59 941.504   2
 -21   5  -2 2746.89 614.057   3
  21 -16  -2 2525.85 782.750   3
  16 -21  -2 1238.68 633.834   3
  -5  21  -2 1127.67 755.617   1
   5  16  -2 2745.68 805.660   1
 -16  -5  -2 2587.70 859.878   4
  16 -21  -2 2676.39 749.441   1
 -21   5   1 803.873 611.356   3
  -5  21   1 1026.47 535.585   1
 -16  -5   1 443.132 614.072   2
 -21   5   1-261.107 566.116   2
   5  16   1 852.196 446.574   3
  16 -21   1-310.477 416.295   2
  21 -16   1 112.803 554.229   3
  16 -21   1 1147.79 651.069   3
   5  16   1-1059.09 581.720   1
 -16  -5   1-409.493 582.954   4
 -21   5   1 729.744 631.491   4
   5  16   4 536.921 468.106   3
 -16  -5   4 275.473 648.839   2
 -21   5   4 183.455 630.480   2
  -5  21   4 566.482 573.388   1
  21 -16   4-605.215 682.428   2
 -16  -5   4-78.2642 679.726   4
 -16  -5   7 1922.06 1047.58   2
 -21   5   7 1336.61 941.048   2
  16 -21   7 631.042 478.312   4
 -16  -5   7 837.966 846.173   4
 -21   5   7-252.743 783.348   4
 -21   6  -6 711.957 738.911   2
   6  15  -6 2024.83 711.717   1
  -6  21  -6 2300.89 846.984   1
  21 -15  -6 204.567 822.139   3
  15 -21  -6 1121.93 769.764   3
 -15  -6  -6 1731.13 843.124   4
 -15  -6  -6 1070.74 985.642   2
 -21   6  -6 1771.99 783.555   4
 -15  -6  -3 1225.97 884.619   2
 -21   6  -3 613.049 712.486   2
 -21   6  -3 1020.79 549.327   3
  21 -15  -3 735.829 620.375   3
  15 -21  -3-321.409 653.568   3
  -6  21  -3 2127.36 822.064   1
   6  15  -3 1676.76 729.116   1
 -15  -6  -3 2613.14 830.202   4
 -21   6  -3 1075.11 609.184   4
  15 -21  -3 2747.22 686.393   1
 -15  -6   0 3804.03 945.792   2
 -21   6   0 2742.17 726.850   3
 -21   6   0 2102.88 701.707   2
   6  15   0 1255.30 441.041   3
  21 -15   0 1011.94 615.822   3
  15 -21   0 2253.51 660.627   2
  15 -21   0 2463.69 782.706   3
 -21   6   0 4058.57 935.724   4
  -6  21   0 2975.47 742.743   1
 -15  -6   0 2069.53 773.455   4
   6  15   0 1781.86 630.303   1
   6  15   3 822.126 389.520   3
  15 -21   3 1125.25 298.252   2
 -15  -6   3 1472.76 829.183   2
 -15  -6   3 1459.26 806.868   4
 -21   6   3 2427.48 789.282   2
  21 -15   3 1811.24 800.089   3
  15 -21   3 1154.37 408.024   2
  -6  21   3 906.893 489.766   1
 -21   6   3 1659.45 720.126   4
  21 -15   3 1383.12 771.906   2
 -15  -6   6 206.762 674.181   2
 -21   6   6 1420.76 903.145   2
  15 -21   6 363.917 612.165   4
 -15  -6   6 385.749 631.517   4
 -21   6   6 2141.46 929.163   4
   7  14  -7 1474.29 1071.12   3
 -21   7  -7 78.4058 691.624   2
  -7  21  -7 2358.54 1002.68   1
   7  14  -7 2355.68 963.649   1
  21 -14  -7 1255.08 961.674   3
  14 -21  -7 1816.95 973.190   3
 -14  -7  -7 1237.21 831.377   4
 -21   7  -7 2478.17 1127.37   1
 -14  -7  -7 718.254 925.848   2
 -21   7  -7 1633.32 716.204   4
  14 -21  -4 1705.85 590.913   1
 -21   7  -4 445.935 605.197   2
  -7  21  -4 2457.57 836.782   1
  21 -14  -4 865.290 605.926   3
 -21   7  -4-176.911 465.699   3
  14 -21  -4 1339.81 742.109   3
   7  14  -4 2395.76 790.565   1
 -21   7  -4 728.173 898.928   1
 -14  -7  -4 987.296 601.311   4
 -21   7  -4 961.440 613.312   4
 -14  -7  -4 1196.35 867.143   2
 -14  -7  -1 3014.22 911.288   2
 -21   7  -1 2422.39 672.906   3
 -21   7  -1 4157.21 904.380   2
  21 -14  -1 1724.02 703.634   3
  -7  21  -1 4300.47 899.974   1
  14 -21  -1 3371.21 877.574   3
   7  14  -1 2184.82 469.379   3
   7  14  -1 3287.47 821.587   1
 -21   7  -1 5403.00 943.880   4
 -14  -7  -1 4772.88 953.168   4
  21 -14   2 977.882 699.529   2
   7  14   2 1243.57 328.922   3
 -14  -7   2 2173.99 807.664   2
  -7  21   2 1522.40 569.014   1
 -21   7   2 2413.37 770.924   2
  14 -21   2 1580.36 429.620   2
  21 -14   2 951.015 662.370   3
  14 -21   2 2029.14 790.344   3
 -14  -7   2 1603.30 804.043   4
 -21   7   2 1141.45 669.816   4
 -14  -7   5 2646.36 887.609   2
 -21   7   5 958.195 855.793   2
  14 -21   5 2237.78 780.231   4
  21 -14   5 1155.93 622.663   4
 -21   7   5 1786.10 616.861   1
 -14  -7   5 3001.61 950.463   4
  21 -14   5 2134.17 812.554   2
 -21   7   5 3779.81 1060.45   4
 -21   7   8 1684.71 970.144   4
 -14  -7   8 2496.87 1061.63   2
 -14  -7   8 424.887 781.967   4
   8  13  -8 727.234 938.851   3
 -21   8  -8 29.3825 734.181   2
  -8  21  -8-1025.40 985.868   1
  21 -13  -8 2948.27 1186.23   3
   8  13  -8 2513.72 877.927   1
  13 -21  -8 720.162 864.269   3
 -13  -8  -8 2147.99 946.316   4
 -13  -8  -8 3583.02 1251.29   2
 -21   8  -8 3005.28 1389.69   1
  13 -21  -5 236.348 451.294   1
   8  13  -5 874.761 702.020   3
  -8  21  -5 1627.61 874.285   1
 -21   8  -5 646.240 684.823   2
  21 -13  -5-171.251 631.109   3
  13 -21  -5 1568.48 750.714   3
   8  13  -5 1138.66 724.545   1
 -13  -8  -5 374.490 686.059   4
 -21   8  -5 1049.71 1083.00   1
 -13  -8  -5 1643.92 1010.76   2
 -21   8  -5 1264.58 699.034   4
 -13  -8  -2 4353.70 1089.04   2
   8  13  -2 4443.81 946.580   1
 -21   8  -2 4829.83 868.131   3
  21 -13  -2 6894.11 1035.92   3
  13 -21  -2 6393.48 1035.02   3
  -8  21  -2 7456.56 1141.72   1
   8  13  -2 4291.50 695.113   3
 -13  -8  -2 7124.01 1160.71   4
 -21   8  -2 8096.57 1084.53   4
 -21   8  -2 4976.62 960.597   2
 -13  -8   1 1336.69 761.917   2
   8  13   1 589.786 322.008   3
 -21   8   1 1416.91 705.136   2
  21 -13   1 366.576 531.401   3
  13 -21   1 944.161 497.852   2
  13 -21   1 302.078 563.315   3
  -8  21   1 480.942 525.289   1
 -13  -8   1 1071.77 630.864   4
 -21   8   1 1629.15 733.790   4
 -13  -8   4 1517.01 815.287   2
  -8  21   4 739.664 526.251   1
 -21   8   4 992.569 761.877   2
  13 -21   4 661.934 666.874   4
 -21   8   4 1343.22 499.715   1
  21 -13   4 1432.21 816.179   2
 -13  -8   4 2009.34 750.883   4
 -21   8   4 1706.43 820.711   4
 -21   8   7 1978.50 961.360   4
 -13  -8   7 579.225 790.619   2
  13 -21   7 751.820 466.039   4
 -13  -8   7 586.487 737.913   4
  -9  21  -6-651.359 689.753   1
   9  12  -6 192.254 781.000   3
 -21   9  -6 1788.24 749.633   2
  21 -12  -6 171.702 731.540   3
  12 -21  -6 945.797 809.680   3
 -12  -9  -6 410.386 171.632   3
   9  12  -6 223.780 673.322   1
 -12  -9  -6-168.976 698.081   4
 -21   9  -6 999.830 1074.99   1
 -12  -9  -6 2412.65 1167.69   2
 -21   9  -6 385.495 621.372   4
  -9  21  -3 3787.06 945.638   1
   9  12  -3 1645.05 666.863   1
 -21   9  -3 1374.68 616.257   2
  12 -21  -3 1352.82 577.366   1
  21 -12  -3 640.933 626.910   3
  12 -21  -3 2178.28 769.064   3
 -21   9  -3 4793.49 1268.57   1
 -12  -9  -3 1470.50 739.565   4
 -12  -9  -3 607.305 804.994   2
 -21   9  -3 2938.32 838.433   4
 -12  -9   0 303.759 631.445   2
   9  12   0-212.549 535.529   1
 -21   9   0 1016.49 617.500   2
   9  12   0 650.632 283.266   3
  21 -12   0-707.790 557.893   3
  -9  21   0-502.217 505.661   1
  12 -21   0-1071.80 659.744   3
 -12  -9   0 372.239 575.234   4
 -21   9   0 387.118 561.526   4
 -21   9   3 1560.94 567.212   1
 -12  -9   3 1090.92 684.261   2
  -9  21   3 2032.99 573.024   1
  12 -21   3 1173.50 271.559   2
 -21   9   3 2266.08 888.758   2
  21 -12   3 1559.81 729.811   3
  12 -21   3 1642.91 379.862   2
 -12  -9   3 2756.57 916.274   4
 -21   9   3 4013.40 980.327   4
 -21   9   6 210.963 772.718   4
 -12  -9   6 1073.47 788.364   2
 -21   9   6-14.0050 705.161   2
  12 -21   6 771.754 617.008   4
 -12  -9   6 343.808 632.872   4
  10  11  -7 861.141 806.746   3
  10  11  -7 1329.79 691.495   1
 -21  10  -7 1319.35 734.379   2
  21 -11  -7 255.605 795.378   3
 -11 -10  -7 736.077 354.829   3
  11 -21  -7-160.556 762.683   3
 -11 -10  -7 30.0679 742.236   4
 -11 -10  -7 2147.90 1168.75   2
 -10  21  -7 81.1916 772.694   1
 -21  10  -7 1531.99 1032.26   1
  10  11  -4 382.387 605.953   3
  10  11  -4 2172.36 714.216   1
 -21  10  -4 1831.81 673.745   2
  21 -11  -4 1257.34 717.054   3
  11 -21  -4 848.107 582.285   1
  11 -21  -4 810.366 615.330   3
 -11 -10  -4 1977.27 807.767   4
 -21  10  -4 1731.63 994.091   1
 -11 -10  -4 2269.71 1005.66   2
 -21  10  -4 3040.39 777.279   4
 -10  21  -4 939.626 758.749   1
 -11 -10  -1 3066.94 966.135   2
  10  11  -1 2186.86 512.957   3
  10  11  -1 2155.58 764.087   1
 -10  21  -1 2924.52 778.595   1
  10  11  -1 2281.52 465.450   3
 -21  10  -1 2489.32 821.958   2
  21 -11  -1 2358.28 700.472   3
  11 -21  -1 1626.91 668.653   3
 -21  10  -1 3621.78 989.693   1
 -11 -10  -1 2221.13 827.322   4
 -21  10  -1 3177.78 798.745   4
 -11 -10   2 607.938 606.597   2
 -21  10   2 939.508 642.250   2
  21 -11   2 1257.86 609.891   3
  11 -21   2 1651.12 631.812   2
 -10  21   2 1572.09 510.219   1
 -11 -10   2 1488.14 741.264   4
 -21  10   2 1611.74 767.998   4
 -21  10   5 2757.08 937.449   4
 -21  10   5 402.097 464.371   1
 -11 -10   5 1060.12 793.988   2
 -21  10   5 3068.69 902.163   2
  11 -21   5 1326.08 709.820   4
 -10  21   5 1496.26 582.237   1
 -11 -10   5 1080.62 748.129   4
 -11 -10   8 3707.14 1207.01   2
 -11 -10   8 2903.44 945.350   4
 -21  11  -8 2640.32 1395.52   1
  11  10  -8 1748.53 1116.73   3
 -21  11  -8 370.145 593.337   2
  21 -10  -8 1310.56 876.303   3
 -10 -11  -8 1914.57 588.549   3
  10 -21  -8 2105.66 949.022   3
 -10 -11  -8 1942.89 991.434   4
  11  10  -8 2152.96 917.840   1
 -10 -11  -8 2662.60 1197.28   2
 -11  21  -8 813.876 800.570   1
 -21  11  -5 2182.19 683.229   4
  11  10  -5 2533.72 939.341   3
  11  10  -5 779.601 655.636   1
 -21  11  -5 1433.09 606.886   2
  21 -10  -5 2533.22 890.307   3
  10 -21  -5-663.553 698.073   3
  10 -21  -5 951.640 556.076   1
 -10 -11  -5 514.298 138.554   3
 -10 -11  -5 1013.10 650.879   4
 -11  21  -5 2054.42 904.081   1
 -10 -11  -5 1518.08 1011.22   2
 -21  11  -5 1404.14 1035.99   1
 -11  21  -2 2340.33 730.880   1
  11  10  -2 2288.44 615.258   3
 -21  11  -2 1539.71 634.187   2
  21 -10  -2 1405.74 626.400   3
  10 -21  -2 1200.24 731.119   3
  11  10  -2 845.024 653.786   1
 -10 -11  -2 2677.63 818.312   4
 -21  11  -2 828.719 818.179   1
 -10 -11  -2 2516.37 878.652   2
 -21  11  -2 3025.43 743.482   4
 -10 -11   1 963.133 583.954   2
 -11  21   1 2205.29 685.976   1
 -21  11   1 2782.27 769.509   2
  21 -10   1 2233.40 682.488   3
  10 -21   1 3811.92 926.917   3
  10 -21   1 3539.03 842.004   2
 -21  11   1 3520.90 828.620   1
 -10 -11   1 3293.83 879.693   4
 -21  11   1 3788.75 863.147   4
 -21  11   4 2729.88 898.208   4
 -10 -11   4 250.861 620.027   2
 -21  11   4 1221.57 438.074   1
 -21  11   4 710.268 750.302   2
 -11  21   4 840.398 490.408   1
  10 -21   4 1872.18 776.803   4
 -21  11   4 1093.15 445.096   1
 -10 -11   4 673.602 660.115   4
 -10 -11   7 754.359 781.532   2
  10 -21   7 48.7433 457.722   4
 -10 -11   7 440.438 670.303   4
 -21  12  -6 2192.75 1166.10   1
  12   9  -6 916.775 812.727   3
 -21  12  -6 633.020 589.286   2
  12   9  -6 478.165 708.039   1
  21  -9  -6 909.155 709.088   3
   9 -21  -6-544.279 698.627   3
  -9 -12  -6 147.362 261.067   3
  -9 -12  -6 1641.51 844.886   4
 -12  21  -6 1895.08 811.597   1
  -9 -12  -6 1001.21 868.145   2
 -21  12  -3 2185.06 730.691   4
  12   9  -3 4383.16 841.731   3
 -21  12  -3 2179.39 630.871   2
  21  -9  -3 1740.52 695.464   3
   9 -21  -3 1988.27 791.029   3
  12   9  -3 2413.16 737.043   1
  -9 -12  -3 1865.22 786.449   4
 -12  21  -3 2834.22 841.291   1
 -21  12  -3 1403.39 872.502   1
  -9 -12  -3 3062.87 986.162   2
 -21  12   0-420.254 561.793   4
 -21  12   0 685.935 618.164   1
  -9 -12   0-310.852 761.898   2
 -12  21   0 549.832 530.996   1
  12   9   0 268.778 206.167   3
 -21  12   0 968.907 622.314   2
  21  -9   0 560.650 514.535   3
  12   9   0 170.568 179.567   3
   9 -21   0 189.444 593.256   3
   9 -21   0 1507.37 712.755   2
  -9 -12   0 1503.41 723.471   4
 -21  12   3 3710.93 920.087   4
  -9 -12   3 1121.50 701.011   2
 -21  12   3 3140.29 964.981   2
   9 -21   3 2642.47 823.688   4
  -9 -12   3 2841.05 848.812   4
 -21  12   3 2641.24 641.016   1
 -12  21   3 2379.23 599.370   1
   9 -21   3 1968.36 487.607   2
  -9 -12   6 86.0652 675.855   2
   9 -21   6 1800.26 704.938   4
  -9 -12   6 470.317 699.062   4
 -21  12   6 375.221 158.448   1
 -13  21  -7 252.646 769.856   1
 -21  13  -7 1968.84 1084.07   1
  13   8  -7 1067.40 898.489   3
 -21  13  -7 744.662 512.970   2
  21  -8  -7 912.937 993.529   3
  -8 -13  -7 74.6209 400.250   3
   8 -21  -7 750.714 765.804   3
  13   8  -7 1346.89 711.560   1
  -8 -13  -7 1100.77 702.180   4
  -8 -13  -7 1858.52 1330.48   2
  13   8  -4 1062.38 666.600   3
  21  -8  -4 2064.30 793.662   3
 -21  13  -4 1126.74 551.864   2
   8 -21  -4 1766.64 708.787   3
  13   8  -4 1093.70 696.871   1
  -8 -13  -4 1835.90 792.167   4
  -8 -13  -4 738.985 218.850   3
 -13  21  -4 859.820 723.405   1
  -8 -13  -4 1717.84 993.062   2
 -21  13  -4 2516.69 1145.93   1
 -21  13  -1 1499.21 649.290   4
  13   8  -1 1171.39 426.476   3
  21  -8  -1 1155.02 624.148   3
 -21  13  -1 333.045 478.921   2
   8 -21  -1 79.5381 583.602   3
  -8 -13  -1 318.957 596.883   4
 -21  13  -1 1420.36 761.374   1
   8 -21  -1 1143.94 710.055   2
 -13  21  -1 2506.27 781.527   1
  -8 -13  -1 513.159 766.596   2
 -21  13   2 8404.58 1256.74   2
  21  -8   2 5779.85 874.083   3
 -13  21   2 5854.47 826.501   1
   8 -21   2 6698.67 1124.91   4
 -21  13   2 6481.45 912.195   1
   8 -21   2 3914.06 839.929   2
  -8 -13   2 8010.40 1221.31   4
  -8 -13   2 5688.92 1029.20   2
 -21  13   2 7429.69 1160.16   4
 -21  13   5 414.415 306.028   1
 -21  13   5 367.967 310.485   1
  -8 -13   5 1606.26 877.542   2
 -13  21   5-141.271 393.027   1
   8 -21   5 892.578 697.438   4
  -8 -13   5 1093.30 720.832   4
  -8 -13   8 1443.90 812.905   4
  -8 -13   8 1741.75 1009.01   2
  14   7  -8 1071.74 900.203   3
 -21  14  -8 2954.07 1373.43   1
  21  -7  -8 1248.32 911.748   3
  -7 -14  -8 558.183 494.761   3
   7 -21  -8 892.799 873.889   3
   7 -21  -8 1545.84 1069.06   4
 -14  21  -8 300.495 848.359   1
  -7 -14  -8 700.827 865.096   4
  14   7  -8 866.175 756.352   1
  -7 -14  -8 1272.23 1242.46   2
 -21  14  -5 1886.97 1074.82   1
  14   7  -5 1510.80 720.771   3
  21  -7  -5 1170.60 695.421   3
 -21  14  -5 1054.07 485.340   2
 -14  21  -5 591.828 813.697   1
   7 -21  -5 1946.18 771.089   3
  -7 -14  -5 953.028 342.315   3
  14   7  -5 754.583 628.547   1
  -7 -14  -5 455.172 632.741   4
  -7 -14  -5 616.436 901.424   2
   7 -21  -2 1551.50 798.342   4
  14   7  -2 2666.84 638.607   3
  21  -7  -2 1515.25 664.948   3
 -21  14  -2 1638.89 596.201   2
   7 -21  -2 1670.69 753.951   3
   7 -21  -2 1109.27 776.105   2
  -7 -14  -2 3736.74 899.261   4
 -14  21  -2 1227.12 731.953   1
 -21  14  -2 3686.26 979.450   1
  -7 -14  -2 3064.47 1043.71   2
  -7 -14   1 3127.37 907.708   2
 -14  21   1 2174.53 655.615   1
  21  -7   1 1927.41 638.088   3
 -21  14   1 3973.52 885.379   2
   7 -21   1 1895.64 706.921   3
   7 -21   1 3392.24 907.540   4
  -7 -14   1 2115.04 771.522   4
   7 -21   1 2234.12 793.589   2
 -21  14   1 3364.61 769.201   1
 -21  14   4 1205.35 492.445   1
 -14  21   4 893.036 449.016   1
   7 -21   4 649.809 384.685   2
  -7 -14   4 244.898 616.615   2
   7 -21   4 1289.74 714.206   4
  -7 -14   4 980.128 766.899   4
  -7 -14   7 472.261 743.209   2
   7 -21   7-99.8333 582.397   4
  -7 -14   7 943.064 680.224   4
 -21  15  -6 1306.97 958.296   1
  15   6  -6 452.679 716.379   3
  21  -6  -6 778.932 752.038   3
 -21  15  -6 442.611 395.193   2
   6 -21  -6 1852.78 728.417   3
  -6 -15  -6 1057.82 439.223   3
 -15  21  -6 337.145 713.359   1
   6 -21  -6 153.201 766.338   4
   6 -21  -6 614.598 1059.74   2
  -6 -15  -6 1167.74 1006.38   2
  15   6  -6 633.335 627.916   1
  -6 -15  -6-82.6200 697.075   4
 -21  15  -3 2239.83 1015.41   1
  15   6  -3 973.223 594.450   3
  21  -6  -3 583.146 564.695   3
 -21  15  -3 404.012 446.107   2
   6 -21  -3 3110.58 887.120   3
   6 -21  -3-450.304 739.234   2
   6 -21  -3 881.747 733.999   4
 -15  21  -3 1188.95 709.693   1
  -6 -15  -3 1022.91 726.003   4
  -6 -15  -3 404.905 960.762   2
 -21  15   0 2161.78 683.937   1
  15   6   0 1118.82 252.549   3
  21  -6   0 1881.47 536.996   3
 -21  15   0 3028.33 744.357   2
   6 -21   0 3229.99 859.425   3
   6 -21   0 3140.77 839.947   4
  -6 -15   0 3202.71 829.483   4
   6 -21   0 1379.49 777.222   2
 -15  21   0 3137.41 768.294   1
  -6 -15   0 1965.13 897.981   2
   6 -21   3 936.233 522.787   2
 -21  15   3 1895.54 556.856   1
  -6 -15   3 1232.08 744.252   2
 -15  21   3 2375.98 590.242   1
   6 -21   3 2260.43 823.770   4
  -6 -15   3 1829.40 778.343   4
  -6 -15   6 635.383 671.659   2
   6 -21   6 1272.39 713.955   4
  -6 -15   6 426.063 610.376   4
  16   5  -7 1299.73 957.695   3
 -21  16  -7-417.076 905.253   1
  21  -5  -7-891.200 959.164   3
   5 -21  -7 849.289 730.313   3
  -5 -16  -7 530.754 473.791   3
 -16  21  -7 205.946 867.777   1
   5 -21  -7-908.112 917.132   4
  16   5  -7 1236.50 741.269   1
   5 -21  -7-2312.68 1321.88   2
  -5 -16  -7-1309.25 803.854   4
  -5 -16  -7 1746.39 1256.46   2
 -21  16  -4 3307.77 1072.27   1
  16   5  -4 918.695 642.929   3
  21  -5  -4 1657.83 807.539   3
   5 -21  -4 35.7313 657.103   3
 -21  16  -4 414.898 413.110   2
  -5 -16  -4 1111.37 422.540   3
 -16  21  -4 853.709 741.473   1
   5 -21  -4 1425.47 832.063   4
   5 -21  -4 1194.17 896.037   2
  -5 -16  -4 1627.94 851.597   4
  -5 -16  -4 618.764 906.011   2
 -21  16  -1 1266.49 675.347   1
  16   5  -1 105.245 356.117   3
  21  -5  -1-220.410 480.381   3
 -21  16  -1-121.245 473.484   2
   5 -21  -1-650.294 681.299   3
   5 -21  -1 35.8734 626.509   4
 -16  21  -1 520.688 603.351   1
  -5 -16  -1 588.940 626.651   4
   5 -21  -1 63.7180 702.154   2
  -5 -16  -1 66.3991 743.944   2
 -16  21   2 2192.40 625.668   1
  -5 -16   2 2807.15 808.124   2
 -21  16   2 2966.77 690.255   1
  21  -5   2 2072.80 584.649   3
  -5 -16   2 3965.10 1020.28   4
   5 -21   2 4357.15 986.087   4
   5 -21   2 1920.38 765.596   2
  -5 -16   5 373.292 724.536   2
   5 -21   5-213.265 347.513   2
 -21  16   5 266.779 207.177   1
   5 -21   5-745.759 702.334   4
 -16  21   5-585.430 346.511   1
  -5 -16   5-130.470 656.853   4
 -21  16   5-67.3283 189.659   1
  -5 -16   8 1729.47 794.691   2
   5 -21   8 312.061 545.064   4
  -5 -16   8 502.476 658.734   4
  17   4  -8 1396.54 981.670   3
  21  -4  -8 816.833 933.060   3
 -21  17  -8 2266.82 1210.20   1
  -4 -17  -8 992.767 595.483   3
   4 -21  -8 210.642 789.151   3
 -17  21  -8 2774.54 1150.88   1
   4 -21  -8 2000.08 1069.00   4
   4 -21  -8 544.176 1227.58   2
  -4 -17  -8 2659.57 1099.41   4
  -4 -17  -8 1289.81 1306.97   2
 -21  17  -5 2816.47 1114.70   1
  17   4  -5 3369.29 1016.91   3
  21  -4  -5 4027.71 993.909   3
   4 -21  -5 1802.80 726.536   3
  -4 -17  -5 2079.21 531.678   3
 -21  17  -5 1782.86 422.984   2
 -17  21  -5 1924.19 984.361   1
   4 -21  -5 2124.19 951.513   4
   4 -21  -5 1554.57 1148.56   2
  -4 -17  -5 2850.89 927.193   4
  -4 -17  -5 2430.56 1111.01   2
 -21  17  -2 1965.50 861.572   1
  17   4  -2 983.432 494.348   3
  21  -4  -2 927.553 552.609   3
   4 -21  -2 1610.54 775.624   3
 -21  17  -2 1501.94 535.018   2
 -17  21  -2 910.520 624.254   1
   4 -21  -2 1939.96 809.861   4
  -4 -17  -2 2323.49 843.582   4
   4 -21  -2 1919.47 969.155   2
  -4 -17  -2 1448.65 910.956   2
  -4 -17   1 3776.25 999.797   2
 -17  21   1 4371.47 801.426   1
  21  -4   1 4288.06 714.398   3
  -4 -17   1 3192.97 925.967   4
   4 -21   1 3907.88 938.980   4
 -21  17   1 6185.66 972.772   1
   4 -21   1 2860.14 982.748   2
   4 -21   4 211.061 497.973   2
  -4 -17   4 1349.23 721.378   2
 -21  17   4 1746.24 444.839   1
 -17  21   4 1487.27 477.174   1
  -4 -17   4 1185.46 623.610   4
  -4 -17   7 1292.42 781.169   2
   4 -21   7 1093.31 682.415   4
  -4 -17   7 547.060 729.094   4
  18   3  -6-581.711 774.762   3
 -21  18  -6-274.644 831.582   1
  21  -3  -6 1529.28 920.402   3
   3 -21  -6 536.034 672.713   3
  -3 -18  -6 306.241 489.898   3
 -18  21  -6 2212.54 957.046   1
   3 -21  -6 2095.00 1029.28   4
  -3 -18  -6 2183.50 1004.06   4
   3 -21  -6 520.793 1043.73   2
  -3 -18  -6-398.966 970.351   2
 -21  18  -3 1127.96 868.172   1
  18   3  -3 829.092 594.347   3
  21  -3  -3 1037.54 620.931   3
 -18  21  -3 818.957 716.904   1
   3 -21  -3-491.190 666.195   3
  -3 -18  -3 802.745 474.966   3
   3 -21  -3 1019.24 749.810   4
  -3 -18  -3 577.944 679.953   4
   3 -21  -3 118.478 861.430   2
  -3 -18  -3 123.198 829.854   2
 -21  18   0 416.954 599.363   1
  18   3   0 735.451 309.106   3
  21  -3   0-341.719 441.122   3
 -18  21   0 1245.21 664.805   1
   3 -21   0 2270.37 844.233   4
  -3 -18   0 852.414 744.366   4
   3 -21   0 897.094 905.930   2
  -3 -18   0 821.249 742.150   2
   3 -21   3 1072.79 573.052   2
 -18  21   3 475.223 419.850   1
  -3 -18   3 42.1945 576.431   2
 -21  18   3 54.9362 407.086   1
   3 -21   3 432.772 694.188   4
  -3 -18   3 1655.44 736.776   4
  -3 -18   6 1774.09 866.303   2
   3 -21   6 1461.65 454.345   2
   3 -21   6 1785.75 735.304   4
  -3 -18   6 3308.18 823.254   4
  19   2  -7 976.980 818.188   3
  21  -2  -7 453.656 1025.11   3
 -21  19  -7 1066.39 966.450   1
   2 -21  -7 1346.79 771.056   3
  -2 -19  -7 1121.49 677.462   3
 -19  21  -7-903.369 915.354   1
   2 -21  -7-224.547 847.250   4
  -2 -19  -7-423.056 874.609   4
   2 -21  -7 18.8461 1116.42   2
  -2 -19  -7 1033.06 1110.88   2
  19   2  -4 812.165 729.248   3
 -21  19  -4 122.032 749.686   1
  21  -2  -4 1312.52 721.406   3
 -19  21  -4 1134.07 817.412   1
   2 -21  -4 86.3602 519.604   3
  -2 -19  -4-499.835 440.697   3
   2 -21  -4 595.319 751.776   4
  -2 -19  -4 1872.94 988.623   4
   2 -21  -4 1459.47 1053.93   2
  -2 -19  -4 1621.32 1105.78   2
 -21  19  -1 1614.37 756.768   1
  19   2  -1 291.416 416.220   3
  21  -2  -1 157.120 421.310   3
 -19  21  -1 853.160 649.779   1
   2 -21  -1 192.165 609.475   3
   2 -21  -1 1324.52 854.363   4
  -2 -19  -1-532.868 715.137   4
   2 -21  -1 1315.40 872.553   2
  -2 -19  -1 320.406 797.007   2
  -2 -19   2 1029.64 736.486   2
 -21  19   2 484.674 503.880   1
   2 -21   2 507.767 692.642   4
  -2 -19   2 421.828 681.559   4
 -19  21   2-208.938 459.439   1
   2 -21   2 687.860 600.092   2
 -19  21   5 226.300 246.541   1
  -2 -19   5 1141.90 768.469   2
   2 -21   5 572.297 615.472   2
 -21  19   5 706.488 245.558   1
   2 -21   5-762.489 661.496   4
  -2 -19   5-632.150 697.636   4
  20   1  -5 3633.52 1054.60   3
  21  -1  -5 1221.33 820.432   3
 -20  21  -5 4109.63 1224.33   1
   1 -21  -5 2297.72 712.938   3
  -1 -20  -5 1894.97 620.308   3
   1 -21  -5 2665.08 1029.07   4
  -1 -20  -5 2436.30 926.156   4
 -21  20  -5 5514.54 1311.26   1
   1 -21  -5 2506.88 1207.21   2
  -1 -20  -5 2286.44 1233.51   2
  20   1  -2 593.980 535.609   3
 -21  20  -2 250.400 622.303   1
  21  -1  -2 452.498 491.680   3
 -20  21  -2 828.545 730.952   1
   1 -21  -2 868.920 609.306   3
  -1 -20  -2 524.210 476.479   3
   1 -21  -2 1912.40 873.364   4
  -1 -20  -2 494.787 759.796   4
   1 -21  -2 1795.61 1018.27   2
  -1 -20  -2 725.571 856.977   2
  21  -1   1 3795.34 536.585   3
   1 -21   1 4846.51 1095.32   4
  -1 -20   1 4255.89 1018.01   4
 -21  20   1 4746.63 935.166   1
 -20  21   1 4711.01 908.183   1
   1 -21   1 3690.85 1014.51   2
  -1 -20   1 4298.36 1093.13   2
 -20  21   4 1189.01 438.543   1
   1 -21   4 651.670 607.687   2
  -1 -20   4 876.744 678.362   2
   1 -21   4 611.464 835.677   4
  -1 -20   4 1314.08 872.605   4
 -21  20   4 420.770 369.936   1
  -1 -20   7 1392.43 679.399   2
   1 -21   7 1436.67 808.854   4
  -1 -20   7 1712.13 755.393   4
  21   0  -6 234.625 747.026   3
 -21  21  -6 2112.18 1068.18   1
   0 -21  -6 538.191 609.458   3
   0 -21  -6 1168.67 901.244   4
   0 -21  -6 404.277 1148.47   2
  21   0  -3 615.333 577.694   3
 -21  21  -3 137.323 629.242   1
   0 -21  -3-239.726 559.896   3
   0 -21  -3 1793.58 886.395   4
   0 -21  -3 283.190 830.533   2
 -21  21   0 2708.21 811.919   1
  21   0   0 2425.97 519.617   3
   0 -21   0 2648.55 916.707   4
   0 -21   0 1655.72 1068.90   2
   0 -21   3 558.011 666.130   2
   0 -21   3 342.409 797.983   4
 -21  21   3 291.062 483.542   1
   0 -21   6 343.424 626.764   2
   0 -21   6 830.477 812.462   4
   0  22  -4 1021.37 769.671   1
 -22   0  -4 1221.34 927.451   2
  22 -22  -4 2382.74 878.282   3
 -22   0  -4 792.069 790.756   4
 -22   0  -1-79.5903 718.686   2
  22 -22  -1-568.041 629.606   3
   0  22  -1 883.418 679.567   1
 -22   0  -1 1259.02 859.652   4
  22 -22   2 184.129 636.044   2
 -22   0   2 910.583 780.512   2
  22 -22   2 1073.56 893.956   3
   0  22   2 1138.44 692.654   1
 -22   0   2 1050.64 762.940   4
 -22   0   5 321.428 780.020   2
 -22   0   5-637.696 785.073   4
 -21  -1  -5 1768.67 1030.48   2
 -22   1  -5 340.577 843.835   2
  22 -21  -5 916.225 785.446   3
  21 -22  -5 2967.00 1002.99   3
  -1  22  -5 505.819 673.641   1
 -21  -1  -5 655.728 729.220   4
 -22   1  -5 338.722 731.308   4
   1  21  -5-174.448 715.924   1
 -22   1  -2 493.052 280.560   3
  -1  22  -2 1319.31 701.679   1
 -21  -1  -2-913.686 898.583   2
 -22   1  -2 1153.93 885.896   2
   1  21  -2 2477.19 831.569   1
  22 -21  -2 1383.15 786.693   3
  21 -22  -2 25.9661 660.545   3
 -21  -1  -2 1927.58 809.089   4
 -22   1  -2 1033.75 652.402   4
 -22   1   1 2218.68 649.159   3
 -21  -1   1 1851.31 795.693   2
 -22   1   1 1781.73 937.401   2
   1  21   1 2171.92 761.259   1
  22 -21   1 1056.54 671.092   3
  21 -22   1 1129.82 701.214   3
 -21  -1   1 3720.92 1045.09   4
 -22   1   1 1647.48 919.885   4
  -1  22   1 1662.13 689.938   1
 -21  -1   4 552.398 734.482   2
 -22   1   4 944.629 735.051   2
 -21  -1   4-896.686 833.303   4
 -22   1   4 244.443 716.709   4
 -21  -1   7 1513.46 1027.51   2
 -22   1   7 1499.07 993.091   2
 -20  -2  -6-113.704 869.760   2
 -22   2  -6 912.508 459.390   3
 -22   2  -6 674.967 841.862   2
  22 -20  -6-557.006 813.455   3
  20 -22  -6 1194.34 888.763   3
  -2  22  -6 907.891 817.305   1
 -20  -2  -6 826.550 817.342   4
 -22   2  -6 300.772 728.506   4
   2  20  -6-789.791 758.990   1
 -20  -2  -3 665.594 780.987   2
 -22   2  -3 1231.76 715.208   2
 -22   2  -3 266.011 264.272   3
   2  20  -3 296.604 620.779   1
  22 -20  -3-42.5997 633.692   3
  20 -22  -3 1164.11 690.663   3
 -20  -2  -3 1361.23 850.275   4
  -2  22  -3 2341.17 863.667   1
 -22   2  -3 588.744 739.484   4
   2  20   0 2157.61 744.268   1
 -22   2   0 794.343 502.228   3
 -20  -2   0 382.851 728.133   2
 -22   2   0 518.649 675.210   2
  -2  22   0 514.259 555.000   1
  22 -20   0 750.130 648.545   3
  20 -22   0 2158.94 756.174   3
 -20  -2   0 1862.79 894.374   4
 -22   2   0 1032.49 749.094   4
  22 -20   3 1015.30 718.621   2
  20 -22   3 458.648 502.225   2
   2  20   3 434.907 568.823   1
  -2  22   3 880.214 674.432   1
   2  20   3-846.778 670.591   3
 -20  -2   3 1181.16 751.000   2
 -22   2   3 321.455 716.345   2
  22 -20   3 741.401 781.840   3
  20 -22   3-798.209 675.184   3
 -20  -2   3 792.624 880.975   4
 -22   2   3 227.278 656.398   4
 -20  -2   6 1438.32 876.575   2
 -22   2   6 63.3357 788.874   2
 -20  -2   6 1825.89 969.812   4
   3  19  -7 510.505 715.419   1
 -22   3  -7-580.828 583.692   3
 -22   3  -7 887.325 898.484   2
  22 -19  -7-1157.40 1046.89   3
  19 -22  -7 2097.48 989.986   3
  -3  22  -7 1829.35 977.050   1
 -22   3  -7-1813.76 1050.33   1
 -19  -3  -7 381.945 740.211   4
 -22   3  -7 275.682 678.538   4
 -19  -3  -7 887.858 969.861   2
 -19  -3  -4 1725.06 982.676   2
 -22   3  -4 276.506 819.681   2
   3  19  -4 1370.22 776.809   1
 -22   3  -4 830.547 378.174   3
  22 -19  -4 1311.36 753.965   3
  19 -22  -4 1956.11 846.019   3
  -3  22  -4 2670.79 861.245   1
 -19  -3  -4 1836.91 905.538   4
 -22   3  -4 2020.88 804.504   4
  -3  22  -1 998.112 659.070   1
 -19  -3  -1-564.375 707.768   2
 -22   3  -1 1092.29 500.282   3
 -22   3  -1 1436.52 835.070   2
  22 -19  -1-97.0044 583.679   3
  19 -22  -1-230.763 639.301   3
   3  19  -1-69.4405 580.471   1
 -19  -3  -1 2973.61 947.092   4
 -22   3  -1 1211.54 725.996   4
  -3  22   2 3953.84 858.936   1
  22 -19   2 2641.29 810.272   2
  19 -22   2 3708.76 684.004   2
 -19  -3   2 2250.71 894.596   2
   3  19   2 1693.40 656.411   3
  22 -19   2 5699.49 1094.04   3
 -22   3   2 2326.23 893.312   2
  19 -22   2 1949.70 814.793   3
 -19  -3   2 5367.34 1174.92   4
   3  19   2 1597.68 725.493   1
 -22   3   2 3192.37 895.367   4
 -19  -3   5 849.396 802.801   2
 -22   3   5-557.545 773.496   2
 -19  -3   5-308.671 751.694   4
 -22   3   5 548.782 820.163   4
 -18  -4  -5 1525.27 811.136   2
 -22   4  -5 1015.21 842.132   2
   4  18  -5 1789.64 898.580   1
  22 -18  -5 874.922 749.908   3
  18 -22  -5 1180.68 819.231   3
  -4  22  -5 948.071 683.668   1
 -18  -4  -5 623.522 746.359   4
 -22   4  -5 1711.91 835.909   4
 -18  -4  -2 542.696 744.732   2
 -22   4  -2 1458.95 692.622   2
 -22   4  -2 659.271 478.295   3
  22 -18  -2-1311.19 737.904   3
  18 -22  -2 608.976 668.556   3
   4  18  -2 454.195 655.554   1
  -4  22  -2-1000.79 662.529   1
 -18  -4  -2 1631.13 782.091   4
 -22   4  -2 651.822 667.187   4
   4  18   1-198.872 544.356   1
 -22   4   1 819.812 611.766   3
 -18  -4   1 782.270 737.348   2
 -22   4   1-293.499 614.844   2
   4  18   1 490.768 546.774   3
  18 -22   1 537.515 496.279   2
  -4  22   1 205.057 500.331   1
  22 -18   1-837.198 741.272   3
  18 -22   1 1013.38 689.462   3
 -18  -4   1 1230.15 786.387   4
 -22   4   1 1431.96 749.708   4
  -4  22   4-1201.07 682.729   1
   4  18   4-200.080 506.240   3
 -18  -4   4 52.8949 658.573   2
 -22   4   4-475.126 659.804   2
  22 -18   4-1125.94 706.588   2
 -18  -4   4-1173.23 799.386   4
 -22   4   4 154.150 788.644   4
 -18  -4   7 800.085 866.153   2
 -22   4   7 2337.83 1064.43   2
  18 -22   7 453.297 549.438   4
 -18  -4   7-32.5092 762.900   4
 -22   4   7 198.250 827.821   4
 -22   5  -6-108.465 752.287   2
   5  17  -6-786.624 656.906   1
  22 -17  -6 1236.72 964.709   3
  17 -22  -6 370.809 766.515   3
  -5  22  -6 891.847 774.047   1
 -22   5  -6 1666.79 935.405   1
 -17  -5  -6 217.313 735.545   4
 -22   5  -6 1189.34 759.230   4
 -17  -5  -6-139.287 872.642   2
 -17  -5  -3 1607.65 815.153   2
 -22   5  -3 895.353 751.696   2
 -22   5  -3 1263.64 525.455   3
  22 -17  -3 1504.03 748.669   3
  17 -22  -3 2060.92 846.888   3
   5  17  -3 1284.91 686.941   1
  -5  22  -3 561.336 626.675   1
 -17  -5  -3 2406.90 904.335   4
  17 -22  -3 572.056 580.360   1
 -22   5  -3 1669.95 749.147   4
  -5  22   0 1388.40 642.193   1
 -17  -5   0 3046.96 982.919   2
 -22   5   0 873.146 592.643   3
 -22   5   0 931.142 746.647   2
   5  17   0 1038.37 516.933   3
  22 -17   0 782.222 647.076   3
  17 -22   0 674.935 662.148   3
   5  17   0 821.360 622.744   1
 -17  -5   0 1081.02 778.212   4
 -22   5   0 683.760 638.862   4
  17 -22   3 425.059 331.795   2
   5  17   3 300.222 435.137   3
  -5  22   3 98.7703 495.582   1
 -17  -5   3 1068.70 758.553   2
 -22   5   3 390.648 632.088   2
  22 -17   3 1540.50 896.940   3
 -17  -5   3 1000.90 827.189   4
 -22   5   3 947.159 744.387   4
  22 -17   3 795.303 795.090   2
 -17  -5   6-132.947 770.700   2
 -22   5   6 895.765 807.692   2
  17 -22   6 1370.48 763.654   4
 -17  -5   6-530.130 785.062   4
 -22   5   6 845.986 796.725   4
 -22   6  -7 1576.49 932.991   2
   6  16  -7 2417.13 910.794   1
  -6  22  -7 272.921 730.678   1
  22 -16  -7 277.724 881.720   3
  16 -22  -7-769.918 878.166   3
 -16  -6  -7 441.199 777.825   4
 -16  -6  -7 952.103 915.780   2
 -22   6  -7 1279.15 751.152   4
 -22   6  -7-302.966 925.428   1
 -16  -6  -4 1388.45 835.810   2
 -22   6  -4 558.721 755.079   2
 -22   6  -4-246.750 544.453   3
  22 -16  -4 451.464 642.513   3
  16 -22  -4 2193.72 933.437   3
  -6  22  -4 1739.56 869.026   1
   6  16  -4 979.362 790.561   1
 -16  -6  -4 1674.88 831.073   4
  16 -22  -4 736.675 538.814   1
 -22   6  -4 2535.73 821.919   4
 -16  -6  -1-221.338 681.359   2
 -22   6  -1 445.295 511.869   3
 -22   6  -1 86.5028 586.535   2
   6  16  -1 1254.26 681.135   1
  22 -16  -1 582.745 652.582   3
  16 -22  -1 1156.30 837.183   3
   6  16  -1 225.708 420.401   3
  -6  22  -1-911.805 691.134   1
 -16  -6  -1 580.641 690.817   4
 -22   6  -1 448.558 674.481   4
 -16  -6   2 2206.15 879.213   2
   6  16   2 1135.83 448.842   3
  16 -22   2 2534.30 540.079   2
 -22   6   2 2544.66 815.703   2
  -6  22   2 2184.17 679.081   1
  22 -16   2 2501.11 851.637   3
  16 -22   2 1421.05 718.432   3
 -16  -6   2 2339.72 830.376   4
 -22   6   2 3329.18 934.789   4
   6  16   5-207.255 442.522   3
 -16  -6   5 1014.81 710.404   2
 -22   6   5-355.373 808.055   2
  22 -16   5 1785.04 739.624   2
 -16  -6   5 1719.86 878.961   4
 -22   6   5-779.739 771.467   4
 -22   7  -5 868.644 674.485   2
  -7  22  -5 1638.89 899.570   1
  22 -15  -5-226.306 665.704   3
  15 -22  -5 270.609 702.220   3
   7  15  -5 1790.54 799.329   1
 -22   7  -5 2293.19 1229.91   1
 -15  -7  -5 1187.64 796.686   4
 -22   7  -5 1459.38 630.923   4
 -15  -7  -5 1087.14 943.430   2
 -15  -7  -2 3815.02 1062.49   2
   7  15  -2 1626.12 707.199   1
 -22   7  -2 1842.28 696.336   2
 -22   7  -2 1385.47 580.501   3
  22 -15  -2 212.889 599.467   3
  15 -22  -2 2433.79 807.094   3
  -7  22  -2 2014.60 806.937   1
   7  15  -2 1248.94 498.350   3
 -15  -7  -2 2711.60 836.456   4
 -22   7  -2 2534.27 760.997   4
 -15  -7   1-908.182 743.082   2
   7  15   1-164.830 354.200   3
 -22   7   1 211.886 575.603   2
   7  15   1-1209.95 648.090   1
  15 -22   1-163.001 433.695   2
  22 -15   1 547.883 669.426   3
  15 -22   1 793.611 615.222   3
 -15  -7   1 1137.39 759.852   4
 -22   7   1 262.694 603.961   4
  -7  22   1-379.260 528.509   1
   7  15   4 17.7253 290.968   3
 -15  -7   4-1615.92 789.029   2
 -22   7   4-226.484 613.231   2
  -7  22   4 497.835 502.932   1
  22 -15   4-1195.45 847.090   2
 -15  -7   4-169.006 683.892   4
 -22   7   4-229.241 677.549   4
 -22   7   7 11.1406 881.457   4
 -15  -7   7-528.391 809.419   2
 -22   7   7 1082.49 975.655   2
  15 -22   7 121.391 495.244   4
 -15  -7   7 1773.12 885.962   4
   8  14  -6 1625.72 903.489   3
 -22   8  -6 894.684 722.913   2
  -8  22  -6 1961.67 971.535   1
  22 -14  -6 2203.20 958.697   3
  14 -22  -6 681.009 717.129   3
   8  14  -6 830.770 743.851   1
 -14  -8  -6 1709.66 844.170   4
 -22   8  -6 1240.07 942.223   1
 -14  -8  -6 724.835 1002.39   2
 -22   8  -6 1455.58 766.879   4
   8  14  -3 1825.04 762.714   1
  14 -22  -3 2006.44 670.677   1
 -22   8  -3 2811.29 856.831   2
  -8  22  -3 2915.25 923.933   1
 -22   8  -3 1791.55 693.049   3
  22 -14  -3 2189.75 762.875   3
  14 -22  -3 2421.23 844.765   3
 -14  -8  -3 2696.25 911.993   4
 -22   8  -3 3686.18 863.180   4
 -14  -8  -3 2393.36 881.703   2
 -14  -8   0 1834.61 838.074   2
 -22   8   0 1206.40 669.240   2
   8  14   0 1193.09 377.045   3
  22 -14   0-71.5938 571.466   3
  14 -22   0 1019.55 620.289   3
  14 -22   0 1349.18 617.546   2
  -8  22   0 226.637 542.123   1
 -14  -8   0 2166.53 792.833   4
   8  14   0 382.657 533.199   1
 -22   8   0 2516.59 814.560   4
   8  14   3 972.613 208.821   3
 -14  -8   3 3229.60 880.436   2
 -22   8   3 2834.09 941.181   2
  22 -14   3 2450.50 790.995   3
  -8  22   3 2613.55 690.542   1
  14 -22   3 1744.99 425.197   2
 -14  -8   3 1941.79 797.072   4
  14 -22   3 1760.87 330.455   2
 -22   8   3 1689.80 819.471   4
 -22   8   6 775.868 720.292   4
 -14  -8   6-59.1233 733.993   2
 -22   8   6-480.086 776.977   2
  14 -22   6 72.1351 628.418   4
 -14  -8   6-160.012 671.080   4
   9  13  -7 143.919 818.124   3
  -9  22  -7 474.552 729.510   1
 -22   9  -7 735.057 672.113   2
  22 -13  -7 2656.06 1065.25   3
  13 -22  -7 1137.75 861.144   3
   9  13  -7 1622.71 816.994   1
 -13  -9  -7 647.048 810.874   4
 -13  -9  -7-77.1495 959.801   2
 -22   9  -7 807.216 1115.59   1
 -22   9  -7 209.894 593.353   4
   9  13  -4 2907.27 824.984   1
   9  13  -4 320.486 598.286   3
  -9  22  -4 2793.75 901.351   1
  13 -22  -4 1543.71 598.501   1
 -22   9  -4 2329.27 806.072   2
  22 -13  -4 2984.99 922.226   3
  13 -22  -4 2803.46 859.517   3
 -13  -9  -4 1984.40 816.648   4
 -22   9  -4 1964.41 1114.06   1
 -13  -9  -4 2685.47 1031.00   2
 -22   9  -4 1091.82 651.916   4
 -13  -9  -1 1643.69 835.696   2
 -22   9  -1 903.150 648.884   2
   9  13  -1 1703.54 758.453   1
  -9  22  -1 1245.47 752.330   1
  22 -13  -1 628.519 526.747   3
  13 -22  -1 772.068 591.063   3
   9  13  -1 963.377 391.529   3
 -13  -9  -1 265.990 756.006   4
 -22   9  -1 456.629 642.348   4
 -13  -9   2 3487.76 971.224   2
 -22   9   2 2557.99 896.281   2
  13 -22   2 2401.04 530.425   2
  22 -13   2 3153.01 895.060   3
  13 -22   2 3292.22 912.444   3
  -9  22   2 4117.64 806.255   1
 -13  -9   2 5242.56 1063.76   4
  13 -22   2 2884.55 742.236   2
 -22   9   2 4097.68 1025.47   4
 -22   9   5 521.029 496.027   1
 -13  -9   5 219.472 700.770   2
 -22   9   5-156.741 736.021   2
  13 -22   5-788.250 705.149   4
 -13  -9   5 484.006 711.237   4
 -22   9   5-744.861 835.784   4
 -13  -9   8 1630.97 1054.46   2
 -13  -9   8 969.894 834.705   4
 -22  10  -8-560.652 1113.01   1
 -10  22  -8-6.69129 798.589   1
  10  12  -8 422.000 1022.48   3
 -22  10  -8-455.084 742.951   2
  22 -12  -8-255.350 854.786   3
  12 -22  -8 188.804 835.737   3
  10  12  -8 1054.64 864.292   1
 -12 -10  -8 496.923 896.610   4
 -12 -10  -8-857.530 1083.43   2
 -10  22  -5 1466.89 861.915   1
 -12 -10  -5 371.974 765.022   4
  10  12  -5 1533.49 756.802   3
  12 -22  -5 1182.64 591.739   1
 -22  10  -5 1607.03 716.501   2
  22 -12  -5 1210.85 732.992   3
  12 -22  -5 1054.22 691.783   3
 -22  10  -5 1741.04 1226.88   1
 -12 -10  -5 525.960 887.852   2
 -22  10  -5 1557.92 718.585   4
  10  12  -5 1431.77 707.983   1
  10  12  -2 2671.51 667.190   3
  10  12  -2 919.411 690.829   1
 -10  22  -2 992.136 608.203   1
 -22  10  -2 2529.47 796.889   2
  22 -12  -2 1869.27 655.412   3
  12 -22  -2 1619.12 717.109   3
 -12 -10  -2 2639.16 831.567   4
 -22  10  -2 3219.29 1172.77   1
 -22  10  -2 3372.37 783.250   4
 -12 -10  -2 1158.04 830.964   2
 -12 -10   1 302.636 635.170   2
 -22  10   1 1481.41 704.794   2
  22 -12   1 932.503 652.589   3
  12 -22   1 875.621 711.551   3
 -10  22   1 1315.79 619.883   1
  12 -22   1 1311.93 685.316   2
 -12 -10   1 1903.03 799.207   4
 -22  10   1 1405.85 729.334   4
 -22  10   4 1437.98 500.542   1
 -12 -10   4-115.120 651.985   2
 -22  10   4 2265.67 883.331   2
  12 -22   4 1649.80 800.276   4
 -12 -10   4 1416.66 659.801   4
 -10  22   4 1185.40 568.433   1
 -22  10   4 2356.95 845.154   4
 -12 -10   7 494.133 802.709   2
  12 -22   7-34.1453 543.375   4
 -12 -10   7 572.725 740.857   4
 -22  11  -6-75.5958 600.248   4
  11  11  -6 267.032 636.220   1
  11  11  -6 979.983 831.994   3
 -22  11  -6 1290.77 606.354   2
  22 -11  -6 361.846 747.420   3
  11 -22  -6 1813.42 805.377   3
 -11 -11  -6 404.481 165.196   3
 -11 -11  -6 760.574 755.748   4
 -11 -11  -6-587.925 888.388   2
 -11  22  -6 1369.15 854.521   1
 -22  11  -6 2640.60 1260.64   1
  11  11  -3 3277.49 789.685   3
  11  11  -3 3088.43 822.968   1
 -11  22  -3 4815.71 1031.95   1
 -22  11  -3 1691.22 693.260   2
  22 -11  -3 2302.26 726.912   3
  11 -22  -3 2650.76 875.513   3
 -11 -11  -3 2559.69 845.849   4
 -22  11  -3 2975.55 1132.24   1
 -11 -11  -3 3760.68 1207.28   2
 -22  11  -3 2269.74 759.238   4
 -11 -11   0-759.967 713.746   2
  11  11   0 224.760 239.557   3
 -11  22   0 472.216 527.436   1
 -22  11   0 398.385 525.043   2
  11  11   0 30.6214 215.886   3
  22 -11   0 1540.54 706.960   3
  11 -22   0-168.837 653.236   3
  11 -22   0 959.860 697.372   2
 -22  11   0-331.961 665.070   1
 -11 -11   0-532.628 633.220   4
 -22  11   0-855.333 517.539   4
 -22  11   3 2186.45 900.070   4
 -11  22   3 2525.71 612.470   1
 -11 -11   3 1321.74 770.163   2
 -22  11   3 2105.67 852.331   2
  11 -22   3 1734.95 368.803   2
 -22  11   3 4217.28 813.218   1
  11 -22   3 2642.21 870.469   4
 -11 -11   3 2687.68 969.032   4
  11 -22   3 1012.05 364.639   2
 -11 -11   6 140.060 780.414   2
  11 -22   6 561.365 631.202   4
 -22  11   6 289.568 300.544   1
 -11 -11   6 1067.00 783.323   4
 -22  12  -7-1133.03 1167.39   1
  12  10  -7 1043.93 891.746   3
  12  10  -7 775.394 709.261   1
 -22  12  -7 327.059 582.444   2
  22 -10  -7 31.3082 858.809   3
 -10 -12  -7 17.2772 294.070   3
  10 -22  -7 1021.32 830.201   3
 -10 -12  -7-107.560 715.849   4
 -10 -12  -7 203.739 1110.02   2
 -12  22  -7 1132.44 835.138   1
 -22  12  -4 1071.24 674.084   4
  12  10  -4 2169.38 828.268   3
 -22  12  -4 2109.33 710.635   2
  22 -10  -4 1353.47 741.599   3
  10 -22  -4 1467.28 804.410   3
  10 -22  -4 572.684 580.925   1
 -10 -12  -4 2891.62 946.775   4
  12  10  -4 1741.19 753.104   1
 -12  22  -4 1022.38 694.477   1
 -10 -12  -4 661.148 865.759   2
 -22  12  -4 3447.68 1238.70   1
 -10 -12  -1 821.433 773.109   2
 -12  22  -1 1483.99 728.937   1
  12  10  -1 2053.87 489.986   3
 -22  12  -1 534.824 583.991   2
  22 -10  -1 1314.15 627.963   3
  10 -22  -1 581.024 616.411   3
  10 -22  -1 925.038 713.827   2
 -10 -12  -1 968.484 653.503   4
 -22  12  -1 617.769 700.219   1
 -22  12  -1 1756.34 683.724   4
 -22  12   2 1027.93 648.503   4
 -10 -12   2 1533.22 827.378   2
 -22  12   2 3289.54 916.016   2
  22 -10   2 1212.29 683.857   3
 -12  22   2 3040.25 690.814   1
  10 -22   2 1463.65 718.015   4
 -22  12   2 1564.71 588.883   1
 -10 -12   2 3269.65 853.598   4
  10 -22   2 1806.28 718.429   2
 -22  12   5 1124.12 440.332   1
 -10 -12   5 1170.16 787.039   2
  10 -22   5 774.902 664.273   4
 -12  22   5 116.840 434.903   1
 -10 -12   5 1082.89 744.635   4
 -22  12   5 916.416 438.637   1
 -10 -12   8 2290.07 1109.38   2
 -10 -12   8 174.043 672.035   4
 -22  13  -8 1747.73 1142.43   1
  13   9  -8 911.425 1006.81   3
  22  -9  -8 1209.56 1060.86   3
   9 -22  -8 2121.81 974.847   3
  13   9  -8 1047.77 831.220   1
  -9 -13  -8 1894.52 1110.78   4
 -13  22  -8 2199.23 1016.59   1
  -9 -13  -8 1969.09 1305.72   2
  13   9  -5 243.283 690.739   3
 -22  13  -5 211.513 516.322   2
  22  -9  -5 382.312 657.135   3
   9 -22  -5-389.110 732.889   3
  -9 -13  -5-48.0328 160.672   3
  -9 -13  -5-67.8724 634.604   4
 -13  22  -5 1483.63 886.677   1
  13   9  -5-670.277 732.421   1
 -22  13  -5 501.716 964.408   1
  13   9  -2 3685.54 711.734   3
  22  -9  -2 1972.65 718.028   3
   9 -22  -2 3533.52 918.446   3
   9 -22  -2 2099.68 861.035   2
  -9 -13  -2 2973.36 865.527   4
  13   9  -2 4146.83 982.139   1
 -22  13  -2 4528.60 897.669   4
 -22  13  -2 4277.81 1106.69   1
 -13  22  -2 4553.67 964.441   1
  -9 -13  -2 3129.86 1065.59   2
 -22  13  -2 3962.09 830.893   2
 -22  13   1 1358.33 728.799   4
  -9 -13   1 2634.74 924.523   2
 -13  22   1 888.565 621.990   1
 -22  13   1 464.784 674.485   2
  22  -9   1-1376.29 632.836   3
   9 -22   1 875.498 685.428   3
   9 -22   1 302.695 651.414   4
   9 -22   1 861.763 660.808   2
  -9 -13   1 477.736 647.874   4
 -22  13   1 1486.72 648.400   1
  -9 -13   4 1356.18 764.238   2
 -13  22   4 1333.19 504.023   1
 -22  13   4 890.806 432.947   1
 -22  13   4 1836.60 915.066   2
   9 -22   4 2738.20 860.935   4
   9 -22   4 1360.17 300.818   2
  -9 -13   4 3159.55 944.386   4
 -22  13   4 2491.75 614.351   1
  -9 -13   7 1045.95 806.348   2
   9 -22   7 1501.02 647.579   4
  -9 -13   7 276.436 754.582   4
 -22  14  -6-219.317 870.064   1
  14   8  -6-633.157 645.135   1
  14   8  -6-280.499 745.058   3
  22  -8  -6 631.742 756.081   3
 -22  14  -6 45.9280 455.741   2
   8 -22  -6 685.829 663.147   3
  -8 -14  -6 180.273 300.637   3
 -14  22  -6 984.280 792.838   1
  -8 -14  -6-172.534 684.333   4
  -8 -14  -6 1901.64 1061.51   2
  14   8  -3 3618.19 834.332   3
  22  -8  -3 3123.59 845.189   3
 -22  14  -3 1919.39 677.250   2
  14   8  -3 4573.65 983.898   1
   8 -22  -3 3976.40 947.093   3
   8 -22  -3 4018.62 1131.36   2
  -8 -14  -3 2564.63 823.785   4
 -14  22  -3 3455.96 929.116   1
  -8 -14  -3 1249.43 997.437   2
 -22  14  -3 2049.02 949.775   1
 -22  14   0 1855.67 723.626   4
  -8 -14   0 2159.19 931.847   2
 -14  22   0 1640.08 618.005   1
  14   8   0 1155.67 244.662   3
  22  -8   0 872.845 601.586   3
 -22  14   0 1371.00 667.731   2
  14   8   0 417.853 148.680   3
   8 -22   0 343.558 610.694   3
   8 -22   0-222.411 627.495   4
   8 -22   0-704.651 685.464   2
  -8 -14   0 2729.02 918.119   4
 -22  14   0 1315.73 693.853   1
  -8 -14   3 1029.57 635.768   2
 -22  14   3 2961.61 1009.20   2
   8 -22   3 2398.55 917.043   4
 -14  22   3 2024.88 586.888   1
  -8 -14   3 2596.89 841.707   4
 -22  14   3 2181.62 624.163   1
   8 -22   3 1387.35 489.977   2
  -8 -14   6 1429.96 825.487   2
   8 -22   6 1417.08 684.219   4
  -8 -14   6-432.563 710.408   4
 -22  15  -7 1951.42 1226.47   1
  15   7  -7-489.159 810.298   3
  22  -7  -7 56.1842 820.938   3
 -22  15  -7 379.269 406.015   2
  -7 -15  -7 2100.34 949.150   4
   7 -22  -7 395.788 709.896   3
  -7 -15  -7 474.047 433.174   3
  15   7  -7 643.380 759.632   1
   7 -22  -7 723.074 926.287   4
   7 -22  -7 2927.73 1366.86   2
 -15  22  -7 559.928 827.153   1
  -7 -15  -7-217.119 1025.98   2
 -22  15  -4 86.3324 757.451   1
  15   7  -4-255.261 691.918   3
  22  -7  -4 206.384 619.809   3
 -22  15  -4 647.026 483.396   2
   7 -22  -4 504.012 666.250   3
  15   7  -4 1828.63 783.906   1
  -7 -15  -4 313.288 268.923   3
   7 -22  -4-21.8269 716.745   4
   7 -22  -4-787.161 941.259   2
 -15  22  -4 483.609 675.172   1
  -7 -15  -4 1040.70 802.394   4
  -7 -15  -4 934.106 894.992   2
  15   7  -1 1471.52 435.065   3
  22  -7  -1-139.453 497.794   3
 -22  15  -1-604.564 507.979   2
   7 -22  -1 1049.46 726.742   3
   7 -22  -1 454.795 658.577   4
   7 -22  -1 416.975 690.689   2
  -7 -15  -1 1434.88 758.707   4
 -15  22  -1 347.990 554.170   1
  -7 -15  -1 210.180 730.402   2
 -22  15  -1 766.797 684.185   1
 -22  15   2 3491.79 776.781   1
  -7 -15   2 1400.35 680.588   2
 -15  22   2 2312.53 620.819   1
  22  -7   2 981.283 618.599   3
 -22  15   2 2773.73 973.030   2
   7 -22   2 1354.72 690.773   4
  -7 -15   2 2629.18 833.704   4
   7 -22   2 1972.71 699.278   2
  -7 -15   5 1406.91 816.264   2
 -22  15   5 349.562 260.799   1
 -22  15   5 466.648 286.641   1
   7 -22   5 728.791 748.751   4
  -7 -15   5 1606.26 814.601   4
 -15  22   5 491.467 400.260   1
 -22  16  -5-1302.16 984.444   1
  16   6  -5-477.663 694.425   3
  22  -6  -5-509.764 703.766   3
 -22  16  -5 107.383 381.171   2
   6 -22  -5 169.824 669.714   3
  -6 -16  -5 29.7651 357.930   3
 -16  22  -5 1452.48 876.493   1
   6 -22  -5 1170.68 969.923   4
   6 -22  -5 581.121 1179.77   2
  -6 -16  -5 967.469 831.027   4
  -6 -16  -5 1654.65 1133.85   2
 -22  16  -2 3088.98 971.798   1
  16   6  -2 2260.39 605.511   3
  22  -6  -2 2128.73 696.544   3
 -22  16  -2 1996.69 640.410   2
   6 -22  -2 1706.93 779.110   3
  -6 -16  -2 2222.10 862.420   4
   6 -22  -2 3474.95 1005.64   4
 -16  22  -2 4260.03 959.639   1
   6 -22  -2 1868.65 877.608   2
  -6 -16  -2 3606.19 1177.27   2
  -6 -16   1-427.903 697.801   2
 -22  16   1 534.244 558.594   1
  22  -6   1 31.7438 519.449   3
 -22  16   1 855.742 652.291   2
   6 -22   1 607.956 622.532   4
  -6 -16   1 1207.03 694.981   4
   6 -22   1-298.675 775.027   2
 -16  22   1 370.185 489.065   1
   6 -22   4 1119.02 528.732   2
 -22  16   4 2219.11 531.556   1
  -6 -16   4 2519.11 886.157   2
   6 -22   4 2066.43 858.752   4
  -6 -16   4 994.432 779.510   4
 -16  22   4 1978.69 530.005   1
  -6 -16   7-973.557 802.115   2
   6 -22   7 1002.70 613.791   4
  -6 -16   7 890.773 693.480   4
  17   5  -6 442.579 746.166   3
 -22  17  -6 545.638 874.353   1
  22  -5  -6 1152.60 816.817   3
   5 -22  -6 293.121 697.654   3
  -5 -17  -6-141.081 414.887   3
 -22  17  -6 144.823 329.472   2
 -17  22  -6 1206.78 834.145   1
   5 -22  -6-499.604 889.349   4
   5 -22  -6 472.006 1135.32   2
  -5 -17  -6 2172.48 935.191   4
  -5 -17  -6 231.474 1021.09   2
 -22  17  -3 1711.09 870.226   1
  17   5  -3 454.987 595.998   3
  22  -5  -3 1077.58 662.950   3
   5 -22  -3 1851.15 786.324   3
 -22  17  -3 454.497 450.726   2
 -17  22  -3 1902.38 799.354   1
   5 -22  -3 308.447 722.892   4
  -5 -17  -3 281.818 664.805   4
   5 -22  -3-170.332 786.345   2
  -5 -17  -3 1579.09 1141.88   2
 -22  17   0-688.169 715.070   1
  17   5   0 426.967 204.591   3
  22  -5   0-1162.45 556.106   3
 -22  17   0-119.071 555.732   2
   5 -22   0 527.090 652.831   3
   5 -22   0 301.090 759.627   4
  -5 -17   0 461.281 690.885   4
 -17  22   0 657.272 608.274   1
   5 -22   0 2015.35 901.694   2
  -5 -17   0 250.183 724.532   2
   5 -22   3 1029.16 565.549   2
  -5 -17   3 785.098 752.859   4
  -5 -17   3 394.988 617.186   2
 -22  17   3 1563.34 578.939   1
 -17  22   3 1354.18 575.000   1
   5 -22   3 1025.76 820.709   4
  -5 -17   6 118.872 754.987   2
   5 -22   6 307.972 215.948   2
   5 -22   6-311.685 699.476   4
  -5 -17   6 398.548 732.822   4
  18   4  -7 1086.62 1041.56   3
 -22  18  -7 1254.57 1052.66   1
  22  -4  -7 483.242 801.758   3
   4 -22  -7 669.873 722.377   3
  -4 -18  -7 246.025 486.694   3
 -18  22  -7 61.5702 898.023   1
   4 -22  -7-1062.34 956.501   4
   4 -22  -7 2240.04 1391.89   2
  -4 -18  -7 849.235 818.259   4
  -4 -18  -7 749.174 1165.73   2
 -22  18  -4-78.4677 707.286   1
  18   4  -4-591.485 640.076   3
  22  -4  -4 935.899 747.991   3
   4 -22  -4 431.246 654.124   3
  -4 -18  -4 270.716 427.332   3
 -18  22  -4 1219.02 794.210   1
 -22  18  -4 90.1833 397.075   2
   4 -22  -4-700.108 773.546   4
  -4 -18  -4 582.628 733.276   4
   4 -22  -4 512.887 876.620   2
  -4 -18  -4 794.879 886.819   2
 -22  18  -1 1107.33 672.369   1
  18   4  -1 239.984 368.816   3
  22  -4  -1 19.5679 480.505   3
   4 -22  -1 1540.43 743.493   3
 -18  22  -1 614.107 567.375   1
  -4 -18  -1 366.857 723.641   4
   4 -22  -1 980.964 911.979   2
  -4 -18  -1 1279.63 915.983   2
   4 -22  -1 1027.48 709.951   4
  -4 -18   2-297.425 606.597   2
 -22  18   2 1362.45 616.892   1
   4 -22   2 1212.72 816.820   4
  -4 -18   2 1480.15 756.428   4
 -18  22   2 884.203 533.013   1
   4 -22   2 641.337 615.608   2
  -4 -18   5 2046.57 902.308   2
   4 -22   5 596.484 537.581   2
 -18  22   5 684.683 335.905   1
   4 -22   5 491.146 712.143   4
  -4 -18   5 2202.92 837.802   4
 -22  18   5 380.918 247.382   1
  19   3  -5-24.8471 715.582   3
 -22  19  -5 1470.30 965.343   1
  22  -3  -5 820.240 828.953   3
   3 -22  -5-412.451 696.141   3
  -3 -19  -5-123.264 441.895   3
 -19  22  -5 691.638 830.832   1
   3 -22  -5 833.552 882.812   4
  -3 -19  -5 1692.75 887.295   4
  -3 -19  -5 1900.59 1043.27   2
   3 -22  -5 1341.03 1139.84   2
  19   3  -2 3878.30 713.822   3
  22  -3  -2 2293.34 684.294   3
 -19  22  -2 3117.77 907.077   1
   3 -22  -2 3524.81 866.193   3
   3 -22  -2 3439.64 1066.29   4
 -22  19  -2 3947.07 1086.44   1
  -3 -19  -2 4282.81 1045.47   4
   3 -22  -2 3868.20 1244.79   2
  -3 -19  -2 3624.58 1138.50   2
  -3 -19   1 993.868 712.395   2
 -22  19   1-18.2141 546.447   1
  22  -3   1 662.552 448.328   3
   3 -22   1 789.777 786.569   4
 -19  22   1 291.116 537.424   1
  -3 -19   1 75.4605 715.335   4
   3 -22   1 1949.47 912.909   2
   3 -22   4 1582.96 688.636   2
  -3 -19   4 1249.10 804.879   2
 -19  22   4 1858.57 496.559   1
 -22  19   4 756.092 410.529   1
   3 -22   4 677.284 794.766   4
  -3 -19   4 1878.85 896.291   4
  -3 -19   7-67.1370 688.166   2
   3 -22   7 197.386 714.247   4
  -3 -19   7 169.634 675.279   4
  20   2  -6-15.7668 789.007   3
  22  -2  -6 794.331 774.243   3
 -22  20  -6 1010.34 925.500   1
   2 -22  -6 1419.57 741.782   3
  -2 -20  -6-5.73525 519.608   3
 -20  22  -6 1809.38 976.394   1
   2 -22  -6 89.6354 886.756   4
  -2 -20  -6-341.773 797.550   4
   2 -22  -6 78.5044 1103.28   2
  -2 -20  -6 1478.15 1327.51   2
  20   2  -3 560.223 571.546   3
 -22  20  -3 328.397 679.747   1
  22  -2  -3 1110.96 642.545   3
 -20  22  -3 910.067 681.829   1
   2 -22  -3 97.6077 547.016   3
  -2 -20  -3 297.633 519.554   3
   2 -22  -3 900.615 784.320   4
  -2 -20  -3 1401.80 841.338   4
   2 -22  -3-233.972 947.885   2
  -2 -20  -3 251.780 888.225   2
 -22  20   0 491.210 562.889   1
  20   2   0 498.743 323.174   3
  22  -2   0-774.530 482.782   3
 -20  22   0 250.410 588.935   1
   2 -22   0 611.147 710.861   4
  -2 -20   0 2679.98 936.552   4
   2 -22   0 1732.30 1131.09   2
  -2 -20   0 1525.54 1043.52   2
   2 -22   3 406.919 603.111   2
  -2 -20   3 150.313 613.953   2
 -22  20   3 921.676 512.107   1
   2 -22   3 1814.38 923.904   4
  -2 -20   3 790.635 702.679   4
 -20  22   3 1226.37 566.988   1
  -2 -20   6 839.179 831.482   2
   2 -22   6-235.739 513.236   2
   2 -22   6 469.871 709.554   4
  -2 -20   6 990.023 814.347   4
  21   1  -7 893.748 929.721   3
  22  -1  -7 250.110 949.272   3
 -22  21  -7 1847.06 1123.07   1
   1 -22  -7 206.290 597.813   3
  -1 -21  -7 540.429 595.319   3
 -21  22  -7 2761.27 1140.75   1
   1 -22  -7 1654.20 1023.50   4
  -1 -21  -7 585.098 894.149   4
   1 -22  -7 65.2139 1179.96   2
  -1 -21  -7 1317.08 1341.88   2
  21   1  -4-436.547 590.432   3
  22  -1  -4-25.7513 609.234   3
 -22  21  -4 1321.88 846.080   1
 -21  22  -4-408.676 722.409   1
   1 -22  -4-676.582 553.633   3
  -1 -21  -4 1222.55 594.761   3
   1 -22  -4-256.126 752.434   4
  -1 -21  -4 1504.52 890.508   4
   1 -22  -4 704.090 1088.07   2
  -1 -21  -4-624.579 967.696   2
 -22  21  -1 978.632 796.139   1
  21   1  -1 1868.80 553.569   3
  22  -1  -1 1450.66 571.135   3
 -21  22  -1 1330.82 721.083   1
   1 -22  -1 2368.45 971.838   4
  -1 -21  -1 1036.24 851.428   4
   1 -22  -1 3662.64 1375.71   2
  -1 -21  -1 2383.24 1192.74   2
   1 -22   2 316.351 692.082   2
  -1 -21   2 186.489 725.469   2
 -22  21   2 990.419 600.516   1
 -21  22   2 1679.46 662.833   1
   1 -22   2 68.3998 754.185   4
  -1 -21   2 1669.07 913.153   4
   1 -22   5 1648.48 797.190   2
  -1 -21   5 1447.80 861.358   2
 -22  21   5 642.176 290.626   1
   1 -22   5 1443.39 852.637   4
  -1 -21   5 1275.88 798.026   4
 -21  22   5 444.615 289.864   1
  22   0  -5-442.862 757.606   3
 -22  22  -5-422.119 756.146   1
   0 -22  -5 279.815 564.424   3
   0 -22  -5-688.534 815.146   4
   0 -22  -5 1908.30 1096.17   2
  22   0  -2 1886.21 680.746   3
 -22  22  -2 1140.73 777.785   1
   0 -22  -2 1591.35 657.629   3
   0 -22  -2 3049.69 995.105   4
   0 -22  -2 634.133 1112.43   2
 -22  22   1 11.7664 616.104   1
  22   0   1-320.522 260.166   3
   0 -22   1-1189.60 836.005   4
   0 -22   1 91.6923 816.918   2
 -22  22   4 1791.59 532.672   1
   0 -22   4 942.833 710.035   2
   0 -22   4 1544.27 944.958   4
   0  23  -5-166.046 716.673   1
 -23   0  -5 1740.91 1139.69   2
  23 -23  -5 1490.83 919.601   3
 -23   0  -5 809.236 884.780   4
 -23   0  -2 623.142 880.361   2
   0  23  -2 1257.29 733.621   1
  23 -23  -2 2302.55 894.173   3
 -23   0  -2 1076.08 842.032   4
   0  23   1 103.588 648.126   1
 -23   0   1 741.945 850.150   2
  23 -23   1 342.103 785.804   3
 -23   0   1 154.384 728.650   4
 -23   0   4 2056.82 913.577   2
 -23   0   4 1858.66 953.978   4
 -22  -1  -6 925.617 990.935   2
 -23   1  -6 1514.48 1004.17   2
  23 -22  -6 916.682 957.392   3
  22 -23  -6-1266.54 1002.37   3
  -1  23  -6-1012.50 877.789   1
 -22  -1  -6 816.357 790.226   4
 -23   1  -6 240.415 803.763   4
   1  22  -6 798.554 830.349   1
  -1  23  -3 1569.97 854.835   1
 -22  -1  -3 1873.18 1003.75   2
 -23   1  -3 1021.88 820.357   2
   1  22  -3 1033.39 624.223   1
  23 -22  -3 434.933 654.843   3
  22 -23  -3 492.227 759.846   3
 -22  -1  -3 1957.61 910.647   4
 -23   1  -3 1222.71 834.800   4
 -23   1   0 91.0453 476.797   3
 -22  -1   0 766.191 763.441   2
 -23   1   0 428.496 766.563   2
  23 -22   0-497.574 699.431   3
  22 -23   0 543.922 658.979   3
  -1  23   0 782.451 620.801   1
 -22  -1   0 2236.09 874.780   4
 -23   1   0 1168.09 873.455   4
   1  22   0 1677.12 769.081   1
  -1  23   3 897.407 657.537   1
 -22  -1   3 1301.86 833.415   2
 -23   1   3 1792.82 875.827   2
   1  22   3 2267.79 807.227   1
  23 -22   3 1756.25 919.811   3
  22 -23   3 820.301 870.326   3
 -22  -1   3-9.81061 735.166   4
 -23   1   3 686.117 821.700   4
 -22  -1   6-525.402 822.317   2
 -23   1   6-601.780 980.614   2
 -22  -1   6 1732.95 1031.35   4
 -23   1   6 17.7777 877.357   4
 -21  -2  -4 1858.16 992.690   2
 -23   2  -4 1327.22 912.357   2
   2  21  -4 1198.50 859.315   1
  23 -21  -4 42.7589 786.285   3
  21 -23  -4 1184.75 855.194   3
  -2  23  -4 1178.82 892.975   1
 -21  -2  -4 753.501 801.234   4
 -23   2  -4 1260.99 763.841   4
 -23   2  -1 1126.19 463.721   3
 -21  -2  -1 997.860 938.025   2
 -23   2  -1 2050.37 799.818   2
  -2  23  -1 2232.99 802.695   1
  23 -21  -1-313.112 699.575   3
  21 -23  -1 1286.31 793.431   3
   2  21  -1 3147.47 943.841   1
 -21  -2  -1 3279.23 987.495   4
 -23   2  -1 2923.51 947.262   4
  21 -23   2 452.676 592.603   2
 -21  -2   2 821.485 765.953   2
 -23   2   2 178.127 699.515   2
  -2  23   2 717.119 645.547   1
  23 -21   2 402.258 751.426   3
  21 -23   2-197.969 744.415   3
   2  21   2 844.397 717.799   1
 -21  -2   2 1697.38 853.165   4
 -23   2   2 1229.41 779.752   4
 -21  -2   5 870.091 859.405   2
 -23   2   5 1212.23 807.017   2
 -21  -2   5 1485.84 927.963   4
 -23   2   5 2907.72 1123.60   4
 -20  -3  -5-50.0363 822.775   2
 -23   3  -5 740.041 889.805   2
   3  20  -5-526.523 779.818   1
  23 -20  -5 1076.14 905.100   3
  20 -23  -5 940.274 791.767   3
  -3  23  -5 949.789 776.665   1
 -20  -3  -5 626.691 766.435   4
 -23   3  -5-858.122 762.076   4
 -20  -3  -2 1205.17 891.473   2
 -23   3  -2 975.503 433.778   3
 -23   3  -2 1521.94 884.071   2
  23 -20  -2 858.986 840.974   3
  20 -23  -2 1917.96 808.061   3
   3  20  -2 2276.35 813.165   1
 -20  -3  -2 1446.71 793.910   4
 -23   3  -2 1956.98 827.688   4
  -3  23  -2 976.241 817.221   1
 -23   3   1 516.229 659.196   3
 -20  -3   1-938.379 814.465   2
 -23   3   1 45.4791 731.575   2
  20 -23   1 1120.02 631.285   2
   3  20   1 112.387 599.773   3
  23 -20   1-665.119 652.653   3
  20 -23   1 940.299 787.101   3
  -3  23   1 142.001 558.215   1
   3  20   1 222.735 540.217   1
 -20  -3   1-633.614 801.989   4
 -23   3   1 275.814 712.349   4
  -3  23   4 442.254 650.964   1
 -20  -3   4 1031.06 805.668   2
 -23   3   4 1283.75 819.275   2
 -20  -3   4 409.073 741.827   4
 -23   3   4 1919.23 983.122   4
 -19  -4  -6 2211.78 1066.40   2
 -23   4  -6 2383.29 1011.74   2
   4  19  -6 662.002 844.053   1
  23 -19  -6-578.332 763.726   3
  19 -23  -6 883.702 799.076   3
  -4  23  -6 2001.69 976.820   1
 -19  -4  -6 2709.90 1026.86   4
 -23   4  -6 1247.82 773.366   4
 -19  -4  -3 2699.04 1075.59   2
 -23   4  -3 305.700 732.716   2
 -23   4  -3 489.163 412.467   3
  23 -19  -3 563.551 612.356   3
  19 -23  -3 808.826 821.690   3
   4  19  -3 5.15527 639.619   1
  -4  23  -3 286.226 644.717   1
 -19  -4  -3 985.750 741.283   4
 -23   4  -3 485.133 718.834   4
 -23   4   0 1416.60 623.818   3
 -19  -4   0 1850.72 1004.27   2
  -4  23   0 2506.41 783.565   1
 -23   4   0 2605.61 887.348   2
   4  19   0 1158.79 600.395   3
   4  19   0 2003.53 730.132   1
  23 -19   0 1266.36 779.318   3
  19 -23   0 2228.47 847.156   3
 -19  -4   0 2819.16 986.427   4
 -23   4   0 2382.41 871.958   4
  19 -23   3 445.740 422.879   2
   4  19   3 388.774 544.598   3
 -19  -4   3-176.329 644.667   2
 -23   4   3 279.374 668.394   2
  23 -19   3 312.708 718.246   3
  -4  23   3 1.84501 579.969   1
 -19  -4   3 997.286 801.145   4
 -23   4   3 143.327 707.710   4
  23 -19   3-805.653 771.913   2
 -19  -4   6 1925.66 983.173   2
 -23   4   6 675.015 949.168   2
 -19  -4   6 1171.31 859.605   4
 -23   4   6 1605.81 962.478   4
 -23   5  -7 2479.54 1031.62   2
   5  18  -7 3219.37 1035.53   1
  23 -18  -7 765.367 837.423   3
  18 -23  -7 2894.63 1133.87   3
  -5  23  -7 1609.00 986.337   1
 -23   5  -7 2016.50 1104.49   1
 -18  -5  -7 2672.91 979.562   4
 -23   5  -7 952.770 759.257   4
 -18  -5  -7 3017.14 1241.69   2
 -18  -5  -4 1715.95 1007.68   2
 -23   5  -4-177.510 740.274   2
  23 -18  -4-255.967 681.658   3
  18 -23  -4 482.315 642.575   3
   5  18  -4 1169.23 808.587   1
  -5  23  -4-508.911 722.962   1
 -18  -5  -4-167.018 684.745   4
 -23   5  -4-13.8595 618.346   4
 -18  -5  -1 1867.59 961.611   2
   5  18  -1 1586.95 666.116   1
 -23   5  -1 1464.61 547.741   3
 -23   5  -1 2823.89 850.892   2
  23 -18  -1 1999.43 776.783   3
   5  18  -1 1619.24 573.071   3
  18 -23  -1 489.314 720.797   3
  -5  23  -1 4330.04 1039.02   1
 -18  -5  -1 3659.61 1052.83   4
 -23   5  -1 3275.29 902.508   4
 -18  -5   2 2148.02 857.268   2
   5  18   2 332.265 545.050   3
  18 -23   2 802.932 512.430   2
 -23   5   2 1324.43 839.203   2
  23 -18   2 605.425 736.636   3
  18 -23   2 679.729 672.372   3
   5  18   2 73.4248 605.462   1
  -5  23   2 130.677 537.325   1
 -18  -5   2 1702.97 896.146   4
 -23   5   2 836.830 776.323   4
 -18  -5   5 642.048 724.678   2
 -23   5   5-271.025 735.051   2
 -18  -5   5 1930.61 921.833   4
 -23   5   5 403.659 756.896   4
 -23   6  -5 958.812 809.926   2
  23 -17  -5-618.445 759.703   3
  17 -23  -5 721.687 743.549   3
   6  17  -5 1358.29 757.055   1
  -6  23  -5 568.400 683.614   1
 -23   6  -5 848.898 978.073   1
 -17  -6  -5-563.752 687.629   4
 -23   6  -5 1051.86 725.653   4
 -17  -6  -5 1718.52 1060.35   2
   6  17  -2 435.325 680.035   1
 -17  -6  -2 1837.86 866.781   2
 -23   6  -2 1295.36 901.891   2
 -23   6  -2 121.123 489.519   3
  23 -17  -2-475.913 672.666   3
  17 -23  -2-376.422 650.341   3
  -6  23  -2 1226.38 693.501   1
 -17  -6  -2 571.536 671.640   4
 -23   6  -2 830.142 645.242   4
  -6  23   1-146.072 529.971   1
 -17  -6   1 954.741 834.834   2
   6  17   1-675.814 719.261   1
   6  17   1 78.0821 517.622   3
 -23   6   1 971.502 776.321   2
  17 -23   1 820.960 528.470   2
  23 -17   1 963.618 753.128   3
  17 -23   1 625.954 732.590   3
 -17  -6   1-1208.78 830.857   4
 -23   6   1 1365.40 767.009   4
   6  17   4 219.118 389.917   3
  -6  23   4 2494.98 764.184   1
 -17  -6   4 875.101 768.514   2
 -23   6   4-193.429 793.503   2
  23 -17   4 356.319 781.792   2
 -17  -6   4-504.864 797.730   4
 -23   6   4 1278.75 881.252   4
 -17  -6   7 1431.92 1064.59   2
 -23   6   7 391.743 917.530   2
  17 -23   7-399.240 562.979   4
 -17  -6   7 493.811 728.733   4
 -23   6   7 1431.45 948.819   4
 -23   7  -6 1971.13 895.070   2
  -7  23  -6 2891.82 973.004   1
  23 -16  -6 1431.48 923.723   3
  16 -23  -6 437.664 758.101   3
   7  16  -6 3840.71 1080.40   1
 -23   7  -6 3167.64 1256.51   1
 -16  -7  -6 3612.46 1029.22   4
 -23   7  -6 3185.56 911.617   4
 -16  -7  -6 2547.98 1170.97   2
 -16  -7  -3-1202.24 791.201   2
 -23   7  -3-500.781 648.282   2
 -23   7  -3 260.874 529.643   3
  23 -16  -3 622.367 595.499   3
  16 -23  -3-834.696 685.086   3
  -7  23  -3-117.276 652.926   1
 -16  -7  -3 1272.12 706.809   4
   7  16  -3 1112.56 749.023   1
 -23   7  -3 1472.95 736.647   4
  16 -23  -3-630.591 577.363   1
 -16  -7   0 3860.52 1078.12   2
   7  16   0 4341.23 986.039   1
 -23   7   0 3606.34 946.484   2
   7  16   0 1358.03 475.072   3
  23 -16   0 2870.84 836.388   3
  16 -23   0 2112.40 874.900   3
  -7  23   0 2810.75 784.726   1
 -16  -7   0 3617.05 959.031   4
 -23   7   0 3075.34 882.138   4
   7  16   3 1030.01 330.292   3
  16 -23   3 415.497 278.105   2
 -16  -7   3 1107.66 824.318   2
 -23   7   3 281.699 630.028   2
  23 -16   3-240.702 700.134   3
  16 -23   3 664.602 375.165   2
  -7  23   3-1104.27 559.682   1
 -16  -7   3 990.493 802.382   4
 -23   7   3 728.263 714.000   4
 -16  -7   6 2244.69 1012.38   2
 -23   7   6 1407.11 965.372   2
  16 -23   6 2284.13 837.033   4
 -16  -7   6 952.515 843.974   4
 -23   7   6 2214.86 1006.65   4
   8  15  -7 1559.06 1004.94   3
 -23   8  -7 706.385 753.157   2
  -8  23  -7 771.064 787.384   1
  23 -15  -7 726.577 912.878   3
  15 -23  -7 366.027 786.581   3
   8  15  -7 1102.92 764.498   1
 -15  -8  -7 453.158 804.849   4
 -23   8  -7 843.398 1104.08   1
 -15  -8  -7 3368.86 1299.01   2
 -23   8  -7 1775.88 781.441   4
  15 -23  -4 1149.98 628.674   1
 -23   8  -4 935.330 751.926   2
  -8  23  -4 2865.29 972.645   1
  23 -15  -4 1439.02 836.836   3
  15 -23  -4 836.858 768.352   3
 -23   8  -4 2322.02 1269.12   1
 -15  -8  -4 1839.40 765.523   4
   8  15  -4 1297.72 794.691   1
 -23   8  -4 2501.44 846.642   4
 -15  -8  -4 158.592 789.846   2
 -15  -8  -1 1301.30 805.619   2
 -23   8  -1 2090.23 890.330   2
  23 -15  -1 2688.06 854.956   3
   8  15  -1 1481.89 465.265   3
  15 -23  -1 1522.95 714.475   3
  -8  23  -1 3220.03 912.101   1
 -15  -8  -1 1251.02 717.242   4
 -23   8  -1 3584.53 864.927   4
   8  15  -1 2099.56 729.533   1
   8  15   2 18.1614 209.650   3
  -8  23   2 406.189 541.987   1
 -15  -8   2-810.440 776.770   2
  15 -23   2 31.0824 384.604   2
 -23   8   2 68.8557 700.920   2
  23 -15   2 180.507 666.552   3
  15 -23   2-1078.65 730.192   3
  15 -23   2 1333.89 647.066   2
 -15  -8   2-62.8073 715.230   4
 -23   8   2 718.923 696.628   4
 -15  -8   5 2245.72 900.522   2
 -23   8   5 3395.78 1076.77   2
  15 -23   5 2567.11 913.982   4
 -15  -8   5 2117.56 842.719   4
 -23   8   5 2182.82 974.076   4
   9  14  -5 738.815 696.477   3
  -9  23  -5 676.056 737.829   1
 -23   9  -5-409.600 722.965   2
  23 -14  -5 250.871 806.696   3
  14 -23  -5-344.153 691.596   3
 -14  -9  -5-798.322 695.577   4
   9  14  -5 239.826 712.205   1
 -23   9  -5 1651.72 1213.05   1
 -14  -9  -5 764.156 1023.72   2
 -23   9  -5 735.322 696.367   4
 -14  -9  -2-446.326 979.098   2
 -23   9  -2 639.982 601.020   2
  -9  23  -2 601.492 761.523   1
  23 -14  -2 507.110 581.823   3
  14 -23  -2 2014.58 880.785   3
   9  14  -2 424.621 478.168   3
   9  14  -2 1704.09 720.538   1
 -14  -9  -2 1754.94 799.844   4
 -23   9  -2 1157.64 666.148   4
 -14  -9   1 709.410 795.946   2
   9  14   1 641.159 288.731   3
 -23   9   1 1033.62 715.512   2
  23 -14   1 746.752 739.380   3
  14 -23   1-78.0449 467.136   2
  14 -23   1 1303.60 627.023   3
  -9  23   1 1251.66 594.492   1
 -14  -9   1 2344.45 815.641   4
 -23   9   1 2332.72 844.625   4
  -9  23   4-1177.13 611.778   1
 -14  -9   4 1395.03 755.868   2
 -23   9   4 408.734 727.937   2
  14 -23   4 1237.12 707.033   4
 -14  -9   4-499.929 651.765   4
 -23   9   4 1135.18 850.309   4
 -23   9   7 253.945 867.709   4
 -14  -9   7 1136.80 951.369   2
  14 -23   7 666.996 646.429   4
 -14  -9   7 1934.28 930.007   4
 -10  23  -6 2821.52 1005.07   1
  10  13  -6 3920.98 1124.36   3
 -23  10  -6 2318.83 826.415   2
  23 -13  -6 1797.30 940.287   3
  13 -23  -6 2285.63 970.073   3
 -13 -10  -6 2251.86 938.404   4
  10  13  -6 678.518 772.548   1
 -23  10  -6 3205.25 1326.69   1
 -13 -10  -6-702.823 905.323   2
 -23  10  -6 4030.01 949.643   4
  10  13  -3 393.378 630.473   3
 -10  23  -3 1175.73 789.220   1
 -23  10  -3 1072.06 642.198   2
  23 -13  -3-160.849 588.241   3
  13 -23  -3 1390.65 749.332   3
  10  13  -3 297.058 638.190   1
 -13 -10  -3 1121.04 762.427   4
 -23  10  -3 1256.46 643.802   4
 -13 -10  -3 244.090 890.059   2
  10  13   0 2132.34 812.879   1
 -13 -10   0 2121.31 817.182   2
 -23  10   0 1540.20 740.951   2
  10  13   0 1297.12 387.508   3
  23 -13   0 1366.65 660.863   3
 -10  23   0 1832.69 788.654   1
  13 -23   0 1125.18 686.795   3
 -13 -10   0 1954.38 946.297   4
 -23  10   0 2841.31 818.136   4
 -13 -10   3-506.526 650.609   2
 -10  23   3 111.603 477.512   1
  13 -23   3 1.94286 227.528   2
 -23  10   3-281.691 685.053   2
  23 -13   3-461.272 728.184   3
  13 -23   3-43.4624 589.020   4
 -13 -10   3 1847.51 897.538   4
  13 -23   3 426.741 335.102   2
 -23  10   3 490.051 672.986   4
 -23  10   6 1415.88 962.584   4
 -13 -10   6 2086.34 942.588   2
 -23  10   6 2529.11 1108.08   2
  13 -23   6 1449.01 800.171   4
 -13 -10   6 1273.90 827.934   4
  11  12  -7 2113.07 1020.17   3
 -23  11  -7 1825.80 774.656   2
  23 -12  -7 2978.60 1186.14   3
  12 -23  -7 925.593 843.410   3
 -12 -11  -7 851.669 906.620   4
 -12 -11  -7 1952.24 1295.66   2
  11  12  -7 2201.64 823.470   1
 -23  11  -7 1115.06 1110.37   1
 -11  23  -7 1047.65 888.380   1
 -11  23  -4 1777.04 865.704   1
  11  12  -4 643.276 627.233   3
 -23  11  -4 790.300 688.899   2
  12 -23  -4 892.984 643.212   1
  23 -12  -4 1284.56 757.973   3
  12 -23  -4 1575.21 846.939   3
  11  12  -4 1600.62 730.334   1
 -12 -11  -4 553.591 673.370   4
 -23  11  -4 1971.39 1045.92   1
 -12 -11  -4-5.23536 793.875   2
 -23  11  -4 398.920 577.185   4
  11  12  -1 3028.50 624.437   3
 -12 -11  -1 1691.86 882.546   2
 -11  23  -1 2853.48 903.943   1
  11  12  -1 2096.90 773.365   1
 -23  11  -1 3915.06 908.767   2
  23 -12  -1 2647.60 746.740   3
  12 -23  -1 1778.80 747.074   3
  11  12  -1 2338.48 467.698   3
 -23  11  -1 2293.60 914.985   1
 -12 -11  -1 3255.43 925.367   4
 -23  11  -1 2571.74 800.510   4
 -12 -11   2 1090.99 665.388   2
 -23  11   2 1698.18 871.211   2
  23 -12   2 1303.72 727.646   3
  12 -23   2 2548.25 747.909   2
 -11  23   2 1229.37 564.048   1
 -12 -11   2 1207.65 719.852   4
 -23  11   2 2076.01 761.665   4
 -23  11   5 3068.39 1018.44   4
 -11  23   5 1446.71 574.026   1
 -12 -11   5 1489.77 787.966   2
 -23  11   5 925.639 805.619   2
  12 -23   5 1123.18 818.913   4
 -23  11   5 568.934 468.119   1
 -12 -11   5 2272.46 916.692   4
 -23  12  -5 1622.81 722.841   4
  12  11  -5 1275.65 806.342   3
 -23  12  -5 1848.26 669.194   2
  23 -11  -5 1005.65 801.475   3
  11 -23  -5 2231.23 940.948   3
  12  11  -5 2161.41 825.717   1
 -11 -12  -5 871.675 750.107   4
 -11 -12  -5 2708.85 1294.35   2
 -23  12  -5 537.173 993.321   1
 -12  23  -5 720.519 739.003   1
 -12  23  -2 1132.53 650.480   1
  12  11  -2 1610.10 585.721   3
 -23  12  -2 1736.52 694.206   2
  23 -11  -2 2248.64 833.481   3
  11 -23  -2 2681.79 859.714   3
  12  11  -2 2829.79 863.819   1
 -11 -12  -2 2318.47 824.001   4
 -23  12  -2 957.060 856.466   1
 -11 -12  -2 1354.10 887.253   2
 -23  12  -2 2620.40 799.604   4
 -23  12   1 5058.05 993.052   2
 -11 -12   1 2192.57 859.770   2
 -12  23   1 3404.37 805.493   1
  23 -11   1 1710.08 668.502   3
  11 -23   1 1741.33 801.905   3
  11 -23   1 4734.10 977.317   2
 -23  12   1 2127.24 799.699   1
 -11 -12   1 3001.94 964.267   4
 -23  12   1 2984.97 878.506   4
 -23  12   4 1792.82 864.929   4
 -11 -12   4 1074.60 754.065   2
 -23  12   4 1194.66 812.789   2
 -12  23   4 635.592 489.794   1
  11 -23   4 1299.23 759.897   4
 -23  12   4 117.905 433.484   1
 -23  12   4-25.6329 491.860   1
 -11 -12   4 527.864 662.184   4
 -11 -12   7 1723.70 910.306   2
  11 -23   7 1341.26 653.843   4
 -11 -12   7 2332.16 962.839   4
 -23  13  -6 2450.14 1220.43   1
  13  10  -6 1226.72 814.681   3
 -23  13  -6 1584.87 671.804   2
  23 -10  -6 1835.65 1020.92   3
  10 -23  -6 2575.08 941.053   3
  13  10  -6 2257.02 878.924   1
 -10 -13  -6 1596.53 875.192   4
 -13  23  -6 1487.52 946.378   1
 -10 -13  -6 3770.40 1341.81   2
 -23  13  -3 392.523 658.967   4
  13  10  -3 79.4773 532.737   3
  13  10  -3 956.567 674.420   1
 -23  13  -3 22.2473 504.751   2
  23 -10  -3 507.610 608.567   3
  10 -23  -3 31.6320 648.196   3
 -10 -13  -3 836.194 628.152   4
 -23  13  -3 1646.47 1013.70   1
 -13  23  -3 238.097 656.217   1
 -10 -13  -3 2229.96 1027.95   2
 -23  13   0 2539.61 819.610   4
 -10 -13   0 1841.63 896.972   2
 -13  23   0 692.431 642.934   1
  13  10   0 689.554 212.674   3
 -23  13   0 3505.75 895.451   2
  23 -10   0 448.951 573.931   3
  13  10   0 1439.82 243.210   3
  10 -23   0 2454.66 863.496   3
  10 -23   0 2000.65 845.389   2
 -10 -13   0 1204.87 784.754   4
 -23  13   0 1855.66 812.857   1
 -23  13   3 1076.45 764.478   4
 -10 -13   3-8.09139 632.981   2
 -23  13   3 1095.14 888.234   2
  10 -23   3 905.836 768.553   4
 -10 -13   3 1078.63 696.278   4
 -23  13   3-279.309 479.478   1
 -13  23   3-121.187 458.081   1
  10 -23   3 12.2873 368.506   2
 -23  13   6 741.038 267.924   1
 -10 -13   6 1743.56 872.073   2
  10 -23   6 849.471 708.861   4
 -10 -13   6 1212.06 817.148   4
 -23  14  -7 1733.98 1145.86   1
  14   9  -7 1607.21 1029.34   3
 -23  14  -7 1348.37 644.609   2
  23  -9  -7-414.364 913.493   3
   9 -23  -7 554.256 733.836   3
  -9 -14  -7 2445.53 1044.91   4
 -14  23  -7 1984.29 1035.50   1
  14   9  -7 906.937 784.754   1
  -9 -14  -7-2.64548 1098.10   2
  14   9  -4 589.820 658.491   3
  14   9  -4-304.165 668.969   1
  23  -9  -4 678.645 694.835   3
 -23  14  -4 382.649 458.350   2
   9 -23  -4-174.626 654.454   3
  -9 -14  -4 393.432 838.873   4
 -14  23  -4-304.714 711.089   1
  -9 -14  -4-793.974 867.090   2
 -23  14  -4 708.285 913.924   1
 -23  14  -1 727.296 682.059   4
  14   9  -1 1258.12 405.422   3
  23  -9  -1 1134.14 614.762   3
 -23  14  -1 2499.12 732.180   2
   9 -23  -1 1850.19 813.530   3
   9 -23  -1 2575.95 906.170   4
   9 -23  -1 230.116 733.847   2
  -9 -14  -1 905.386 670.794   4
 -23  14  -1 2343.52 893.160   1
  -9 -14  -1 658.240 765.676   2
 -14  23  -1 1230.89 708.051   1
 -23  14   2 658.193 587.176   4
  -9 -14   2 75.1230 625.579   2
 -14  23   2 317.625 488.337   1
 -23  14   2 1311.30 847.298   2
  23  -9   2 527.587 564.923   3
   9 -23   2 1415.21 808.504   4
  -9 -14   2 834.071 741.747   4
   9 -23   2-248.679 620.978   2
 -23  14   2 876.153 562.697   1
 -23  14   5 573.983 425.076   1
 -14  23   5 110.630 429.974   1
  -9 -14   5 873.522 796.348   2
   9 -23   5 2097.09 918.547   4
  -9 -14   5 479.556 682.467   4
 -23  15  -5 3436.96 1350.60   1
  15   8  -5 2392.24 853.497   3
  23  -8  -5 1380.26 842.294   3
 -23  15  -5 2094.73 637.217   2
  15   8  -5 2628.42 854.402   1
   8 -23  -5 2859.80 876.221   3
  -8 -15  -5 556.458 246.608   3
   8 -23  -5 2321.90 1027.71   4
   8 -23  -5 3591.28 1444.27   2
  -8 -15  -5 3291.96 1006.73   4
 -15  23  -5 1294.42 918.106   1
  -8 -15  -5 1332.60 905.236   2
  15   8  -2 465.861 446.560   3
  23  -8  -2 617.937 605.177   3
 -23  15  -2-306.630 485.383   2
   8 -23  -2 1120.39 746.814   3
   8 -23  -2 65.9339 692.024   4
   8 -23  -2 744.354 764.330   2
  -8 -15  -2 253.648 710.517   4
 -15  23  -2 599.780 710.860   1
  -8 -15  -2 52.2785 872.531   2
 -23  15  -2 539.867 656.982   1
  -8 -15   1 1641.33 904.691   2
 -15  23   1 1994.49 736.628   1
  23  -8   1 1458.97 707.071   3
 -23  15   1 3515.70 892.135   2
   8 -23   1 3432.25 943.451   4
  -8 -15   1 3247.12 958.601   4
   8 -23   1 3326.60 959.076   2
 -23  15   1 2089.27 692.642   1
 -23  15   4 1031.53 501.299   1
 -15  23   4 1176.42 543.868   1
   8 -23   4 1084.43 428.557   2
  -8 -15   4 1544.46 731.071   2
   8 -23   4 2046.92 850.498   4
  -8 -15   4 1683.68 827.931   4
  -8 -15   7 2437.90 957.720   2
   8 -23   7 447.427 639.470   4
  -8 -15   7 2473.13 906.537   4
 -23  16  -6 2780.80 1290.25   1
  16   7  -6 2834.40 1080.64   3
  23  -7  -6 1512.02 934.895   3
 -23  16  -6 307.309 427.743   2
   7 -23  -6 862.418 752.139   3
  -7 -16  -6 1264.19 428.927   3
   7 -23  -6 3634.75 1269.08   4
   7 -23  -6 3577.64 1446.60   2
 -16  23  -6 1073.89 910.734   1
  -7 -16  -6 2298.47 937.369   4
  -7 -16  -6 4053.58 1508.93   2
  16   7  -6 2678.02 851.785   1
 -23  16  -3 50.0547 745.658   1
  16   7  -3-48.7858 530.143   3
  23  -7  -3-667.361 692.867   3
 -23  16  -3 294.783 482.306   2
   7 -23  -3 729.992 714.692   3
   7 -23  -3 433.025 774.747   4
   7 -23  -3-320.038 812.453   2
 -16  23  -3 964.243 686.257   1
  -7 -16  -3 79.4371 755.543   4
  -7 -16  -3-429.371 985.544   2
  -7 -16   0 3419.62 1036.65   2
 -16  23   0 4457.74 918.319   1
  23  -7   0 1871.75 685.475   3
 -23  16   0 3779.77 850.413   2
   7 -23   0 4581.58 978.554   3
   7 -23   0 4620.86 1087.59   4
 -23  16   0 5059.25 970.939   1
  -7 -16   0 1801.89 898.004   4
   7 -23   0 1962.48 993.932   2
   7 -23   3 101.626 491.228   2
 -23  16   3-6.40814 514.872   1
  -7 -16   3 409.323 664.987   2
 -16  23   3 46.5416 457.752   1
   7 -23   3-172.830 666.465   4
  -7 -16   3 258.096 702.449   4
  -7 -16   6 3757.07 1013.99   2
   7 -23   6 3541.81 967.774   4
  -7 -16   6 2204.36 877.692   4
  17   6  -7 441.952 988.187   3
 -23  17  -7 106.537 990.734   1
  23  -6  -7 99.7225 895.397   3
   6 -23  -7-1672.19 808.339   3
  -6 -17  -7 740.198 468.672   3
   6 -23  -7 1189.84 961.316   4
 -17  23  -7 1725.86 1062.77   1
   6 -23  -7 244.700 1365.17   2
  -6 -17  -7 657.832 780.268   4
  -6 -17  -7 182.634 1267.17   2
 -23  17  -4 405.865 800.508   1
  17   6  -4 147.144 683.728   3
  23  -6  -4 542.888 699.614   3
   6 -23  -4 176.411 678.257   3
 -23  17  -4 19.4074 432.357   2
  -6 -17  -4 801.954 347.654   3
   6 -23  -4 428.443 872.233   4
 -17  23  -4 851.195 794.866   1
   6 -23  -4 2075.09 1121.63   2
  -6 -17  -4 1560.42 867.763   4
  -6 -17  -4-803.789 936.523   2
 -23  17  -1 727.460 705.235   1
  17   6  -1 85.2622 319.099   3
  23  -6  -1 242.900 522.601   3
 -23  17  -1-104.213 503.425   2
   6 -23  -1 399.367 682.107   3
   6 -23  -1 587.103 747.935   4
  -6 -17  -1 203.658 698.363   4
 -17  23  -1 4.57759 614.863   1
   6 -23  -1-865.055 808.410   2
  -6 -17  -1 382.486 795.925   2
  -6 -17   2-260.474 628.678   2
 -23  17   2-15.2718 538.279   1
 -17  23   2 691.383 577.237   1
  23  -6   2-350.200 479.907   3
   6 -23   2 520.362 711.196   4
  -6 -17   2 824.249 781.416   4
   6 -23   2 160.649 612.264   2
  -6 -17   5 69.4915 703.472   2
   6 -23   5 170.507 297.116   2
 -23  17   5 717.226 297.893   1
 -17  23   5-544.130 389.613   1
   6 -23   5 422.012 676.465   4
  -6 -17   5 490.583 737.012   4
 -23  18  -5 2580.63 1116.70   1
  18   5  -5 2224.20 934.934   3
  23  -5  -5 1928.97 939.333   3
   5 -23  -5 1788.19 791.602   3
  -5 -18  -5 2236.66 533.612   3
 -23  18  -5 629.287 426.934   2
 -18  23  -5 1850.09 991.962   1
   5 -23  -5 3801.40 1248.50   4
   5 -23  -5 1358.28 1129.39   2
  -5 -18  -5 1330.61 784.763   4
  -5 -18  -5 2504.07 1282.59   2
 -23  18  -2 2086.16 977.667   1
  18   5  -2 834.235 472.721   3
  23  -5  -2 1241.20 633.179   3
   5 -23  -2 255.121 666.041   3
 -23  18  -2 1243.10 596.096   2
 -18  23  -2 786.216 702.361   1
   5 -23  -2 1430.83 839.962   4
  -5 -18  -2 2056.84 908.352   4
   5 -23  -2 1021.75 894.123   2
  -5 -18  -2 1893.50 1083.15   2
  -5 -18   1 2737.28 895.836   2
 -23  18   1 3155.41 835.274   1
  23  -5   1 2432.35 617.661   3
   5 -23   1 4917.52 1125.49   4
  -5 -18   1 3080.78 964.871   4
 -18  23   1 2209.51 726.353   1
   5 -23   1 1668.10 826.915   2
   5 -23   4 1142.57 643.492   2
  -5 -18   4 441.509 751.869   2
 -23  18   4 101.600 394.409   1
 -18  23   4-291.848 409.062   1
   5 -23   4-170.758 722.685   4
  -5 -18   4-669.741 721.421   4
  -5 -18   7-263.631 766.172   2
   5 -23   7 177.347 654.678   4
  -5 -18   7 599.937 737.063   4
  19   4  -6 3905.95 1194.10   3
 -23  19  -6 2267.93 1254.93   1
  23  -4  -6 826.817 987.530   3
   4 -23  -6 220.316 728.075   3
  -4 -19  -6 2012.73 568.525   3
 -19  23  -6 1328.90 1024.04   1
   4 -23  -6 3122.39 1119.80   4
  -4 -19  -6 1696.89 996.921   4
   4 -23  -6 957.236 1196.84   2
  -4 -19  -6 608.960 1115.71   2
 -23  19  -3-627.686 816.508   1
  19   4  -3-98.9017 519.690   3
  23  -4  -3 125.319 635.783   3
   4 -23  -3 139.423 618.269   3
 -19  23  -3-810.525 743.054   1
  -4 -19  -3 170.566 386.134   3
   4 -23  -3-884.568 846.076   4
  -4 -19  -3 961.102 807.842   4
   4 -23  -3 1117.71 998.673   2
  -4 -19  -3 1857.09 1031.46   2
 -23  19   0 2805.70 847.494   1
  19   4   0 2038.22 320.836   3
  23  -4   0 606.591 493.677   3
   4 -23   0 2207.75 983.459   4
  -4 -19   0 2658.36 950.193   4
   4 -23   0 716.994 834.840   2
 -19  23   0 4122.20 957.507   1
  -4 -19   0 3883.72 1196.07   2
   4 -23   3-205.164 582.481   2
  -4 -19   3 720.245 748.619   2
 -19  23   3 22.4700 544.533   1
 -23  19   3 1945.07 629.395   1
   4 -23   3 1360.41 924.844   4
  -4 -19   3 1587.59 884.646   4
  -4 -19   6 1662.95 814.872   2
   4 -23   6 2266.73 897.981   4
  -4 -19   6 38.1882 791.067   4
  20   3  -4 1227.46 723.023   3
 -23  20  -4-221.478 777.878   1
  23  -3  -4-66.1524 637.783   3
   3 -23  -4 291.625 566.611   3
 -20  23  -4 65.7432 717.987   1
  -3 -20  -4 746.184 510.235   3
   3 -23  -4-843.046 871.509   4
  -3 -20  -4-13.4508 767.802   4
   3 -23  -4 523.476 1023.74   2
  -3 -20  -4 1019.78 1123.58   2
 -23  20  -1-146.152 641.480   1
  20   3  -1-576.809 417.874   3
  23  -3  -1 780.140 523.327   3
   3 -23  -1 1189.74 766.353   3
 -20  23  -1 9.09785 611.008   1
   3 -23  -1-838.531 825.752   4
  -3 -20  -1-409.736 811.009   4
   3 -23  -1 300.907 989.747   2
  -3 -20  -1-948.977 1066.70   2
  -3 -20   2 1342.35 865.469   2
 -23  20   2 1771.83 658.531   1
   3 -23   2 1019.90 844.627   4
  -3 -20   2 3788.62 1076.32   4
 -20  23   2 1041.86 606.033   1
   3 -23   2 1128.37 769.916   2
 -20  23   5 549.097 350.217   1
 -23  20   5 516.546 280.771   1
   3 -23   5 604.001 574.221   2
  -3 -20   5 285.029 757.134   2
   3 -23   5 94.5065 804.990   4
  -3 -20   5 1139.39 825.833   4
  21   2  -5 2805.19 952.170   3
  23  -2  -5 2500.53 982.520   3
 -23  21  -5 1627.90 1000.39   1
 -21  23  -5 1028.79 848.771   1
   2 -23  -5 1785.20 730.847   3
  -2 -21  -5 976.812 529.938   3
   2 -23  -5 2690.53 1153.42   4
  -2 -21  -5 1882.08 1002.20   4
   2 -23  -5 1705.72 1163.53   2
  -2 -21  -5 2398.42 1307.00   2
 -23  21  -2 797.582 697.010   1
  21   2  -2 2177.87 652.892   3
  23  -2  -2 1073.63 607.510   3
 -21  23  -2 1530.34 788.395   1
   2 -23  -2 99.7520 612.948   3
   2 -23  -2 1798.43 850.417   4
  -2 -21  -2 1138.07 797.604   4
   2 -23  -2 412.120 860.481   2
  -2 -21  -2 1160.82 936.277   2
 -23  21   1 1810.73 723.667   1
  23  -2   1 1573.02 478.570   3
 -21  23   1 1485.93 784.055   1
   2 -23   1 2244.43 1026.94   4
  -2 -21   1 3684.30 1147.69   4
   2 -23   1 938.169 905.907   2
  -2 -21   1 2489.21 1037.80   2
   2 -23   4-421.777 651.903   2
  -2 -21   4 116.095 732.167   2
 -21  23   4 276.177 431.394   1
   2 -23   4 115.796 748.808   4
  -2 -21   4-740.106 919.648   4
 -23  21   4 873.916 453.846   1
  22   1  -6 11.7734 828.934   3
  23  -1  -6-397.789 891.981   3
 -23  22  -6 328.964 845.096   1
 -22  23  -6-643.445 905.411   1
   1 -23  -6 273.036 684.485   3
  -1 -22  -6 367.836 556.902   3
   1 -23  -6-314.114 904.174   4
  -1 -22  -6 611.802 934.330   4
   1 -23  -6-448.627 1306.58   2
  -1 -22  -6-579.086 1261.99   2
  22   1  -3 620.474 622.997   3
  23  -1  -3 1922.42 712.811   3
 -23  22  -3 208.269 671.983   1
 -22  23  -3 1077.84 843.831   1
   1 -23  -3-332.400 633.724   3
  -1 -22  -3 783.412 605.328   3
   1 -23  -3 910.880 865.922   4
  -1 -22  -3 1420.50 881.734   4
   1 -23  -3 992.884 1166.62   2
  -1 -22  -3 2333.21 1282.50   2
 -23  22   0 2096.04 933.581   1
  22   1   0-58.2331 338.550   3
  23  -1   0 658.202 433.622   3
 -22  23   0 2156.29 848.137   1
   1 -23   0 1292.81 854.992   4
  -1 -22   0 1464.74 946.605   4
   1 -23   0 2055.54 1023.98   2
  -1 -22   0 1524.11 982.005   2
   1 -23   3 1567.91 719.032   2
  -1 -22   3 1361.71 703.023   2
 -23  22   3 812.863 546.454   1
   1 -23   3 1431.54 861.640   4
  -1 -22   3 877.888 844.820   4
 -22  23   3-213.442 529.281   1
  -1 -22   6 1119.96 827.943   2
   1 -23   6 817.817 640.995   2
   1 -23   6 374.264 852.986   4
  -1 -22   6 579.613 823.104   4
  23   0  -4 2526.17 856.421   3
 -23  23  -4 2607.67 1042.14   1
   0 -23  -4 105.670 562.375   3
   0 -23  -4 980.534 821.503   4
   0 -23  -4 57.1808 1013.18   2
  23   0  -1 37.9468 437.669   3
 -23  23  -1 512.314 703.774   1
   0 -23  -1 627.954 750.207   4
   0 -23  -1 1468.65 1034.48   2
   0 -23   2 2446.20 987.537   2
 -23  23   2 464.691 635.114   1
   0 -23   2 1790.31 964.187   4
   0 -23   5 503.304 749.230   2
   0 -23   5 779.948 868.300   4
 -24   0  -3 763.409 1014.54   2
   0  24  -3 0.84102 770.873   1
  24 -24  -3-21.2770 824.456   3
 -24   0  -3 673.055 861.236   4
 -24   0   0 714.055 758.261   2
  24 -24   0 1269.60 901.211   3
   0  24   0 1689.42 871.822   1
 -24   0   0 694.881 779.503   4
 -24   0   3 180.728 758.900   2
  24 -24   3 1437.62 902.098   3
   0  24   3 214.504 700.782   1
 -24   0   3 75.9283 818.430   4
  -1  24  -4 1322.33 810.377   1
 -23  -1  -4 687.533 863.826   2
 -24   1  -4-310.190 827.906   2
   1  23  -4 1120.97 893.522   1
  24 -23  -4-1390.99 881.824   3
  23 -24  -4-1098.42 823.537   3
 -23  -1  -4 1682.58 990.511   4
 -24   1  -4 1297.60 835.667   4
 -23  -1  -1 649.688 925.714   2
 -24   1  -1 2478.33 1002.39   2
  24 -23  -1-145.864 709.888   3
  -1  24  -1 1090.65 717.757   1
  23 -24  -1 882.938 844.418   3
   1  23  -1 1797.73 832.867   1
 -23  -1  -1 2390.81 1000.72   4
 -24   1  -1 2797.83 938.810   4
   1  23   2 948.401 802.046   1
 -23  -1   2-150.416 864.415   2
 -24   1   2 912.323 815.782   2
  24 -23   2 779.112 820.862   3
  23 -24   2 262.182 773.243   3
  -1  24   2 691.253 625.164   1
 -23  -1   2-235.266 794.769   4
 -24   1   2 598.539 705.541   4
 -23  -1   5 2794.10 1032.46   2
 -24   1   5 427.061 740.987   2
 -23  -1   5 280.311 863.276   4
 -24   1   5 3181.10 1192.99   4
 -22  -2  -5 499.812 1002.70   2
 -24   2  -5 1471.64 1109.74   2
   2  22  -5-135.793 695.816   1
  24 -22  -5 585.263 813.871   3
  22 -24  -5-218.284 938.929   3
  -2  24  -5 1200.40 891.475   1
 -22  -2  -5 1922.06 888.223   4
 -24   2  -5 1424.07 910.917   4
  -2  24  -2 1125.37 806.100   1
 -22  -2  -2 1492.92 946.036   2
 -24   2  -2 2352.30 1019.62   2
  24 -22  -2-954.222 774.842   3
  22 -24  -2 339.231 699.131   3
   2  22  -2 545.189 738.100   1
 -22  -2  -2 2535.84 923.653   4
 -24   2  -2 45.4248 662.476   4
 -22  -2   1 2226.41 915.397   2
 -24   2   1 1688.83 932.197   2
  24 -22   1 714.560 772.711   3
  22 -24   1-504.477 771.523   3
   2  22   1 1383.68 723.142   1
 -22  -2   1 2452.04 1005.70   4
  -2  24   1 2402.66 917.590   1
 -24   2   1 1899.69 876.533   4
 -22  -2   4 440.343 761.083   2
 -24   2   4 438.702 734.516   2
 -22  -2   4 1074.27 808.712   4
 -24   2   4 863.828 802.030   4
 -21  -3  -6-1.13536 936.592   2
 -24   3  -6 2.99837 856.800   2
   3  21  -6 299.016 807.992   1
  24 -21  -6 101.805 825.223   3
  21 -24  -6 1090.50 898.641   3
  -3  24  -6 533.486 879.836   1
 -21  -3  -6 1231.37 916.938   4
 -24   3  -6 1183.91 829.206   4
 -21  -3  -3-162.894 763.258   2
 -24   3  -3 1417.92 915.730   2
  24 -21  -3 548.163 787.655   3
  21 -24  -3-642.907 711.917   3
   3  21  -3 1513.25 825.831   1
 -21  -3  -3-12.7748 690.049   4
  -3  24  -3 238.286 739.748   1
 -24   3  -3 859.386 770.625   4
 -24   3   0 1448.84 595.420   3
 -21  -3   0 2006.36 1029.79   2
 -24   3   0 3020.95 996.622   2
   3  21   0 2952.60 856.526   1
  -3  24   0 618.142 715.991   1
  24 -21   0 2965.62 979.370   3
  21 -24   0 1872.60 778.944   3
 -21  -3   0 2847.31 984.231   4
 -24   3   0 2898.22 939.143   4
 -21  -3   3 485.044 701.967   2
 -24   3   3 971.623 676.516   2
  24 -21   3 16.8268 901.810   3
 -21  -3   3 129.171 730.664   4
 -24   3   3 350.941 755.283   4
  -3  24   3-407.957 598.881   1
 -21  -3   6 546.312 826.926   2
 -24   3   6 1246.14 832.316   2
 -21  -3   6 1198.06 957.001   4
 -24   3   6-1386.41 1017.14   4
 -20  -4  -4 1550.93 995.610   2
 -24   4  -4 1506.86 881.430   2
  24 -20  -4 1374.37 767.463   3
  20 -24  -4 6.65056 718.154   3
   4  20  -4 1775.23 768.805   1
  -4  24  -4 1349.60 724.313   1
 -20  -4  -4 1727.34 994.331   4
 -24   4  -4 2333.93 949.295   4
  -4  24  -1 509.593 755.141   1
   4  20  -1 969.850 688.399   1
 -24   4  -1 467.192 497.200   3
 -20  -4  -1 2370.86 899.158   2
 -24   4  -1 2854.58 982.945   2
  24 -20  -1-583.214 728.818   3
  20 -24  -1 878.671 705.456   3
 -20  -4  -1 1807.04 882.675   4
 -24   4  -1 460.834 737.361   4
  20 -24   2 180.631 508.551   2
 -20  -4   2 526.903 784.013   2
   4  20   2 532.391 606.341   3
 -24   4   2-482.434 767.752   2
  24 -20   2 210.664 717.031   3
  20 -24   2-206.497 722.120   3
 -20  -4   2 429.146 727.904   4
   4  20   2-770.828 679.128   1
  -4  24   2-519.557 552.730   1
 -20  -4   5 2169.95 1022.98   2
 -24   4   5 60.5050 789.892   2
 -20  -4   5 568.262 764.715   4
 -24   4   5 1083.07 879.007   4
 -19  -5  -5 868.014 941.512   2
 -24   5  -5-461.246 783.279   2
  24 -19  -5 192.910 736.450   3
   5  19  -5 517.118 713.716   1
  19 -24  -5-740.232 780.204   3
  -5  24  -5 625.378 738.997   1
 -19  -5  -5-470.046 763.474   4
 -24   5  -5 506.164 700.279   4
 -19  -5  -2 2069.63 940.257   2
 -24   5  -2 1284.39 522.752   3
 -24   5  -2 2293.02 986.065   2
  24 -19  -2 3288.43 951.690   3
  19 -24  -2 2069.01 943.762   3
  -5  24  -2 880.327 738.802   1
 -19  -5  -2 2633.22 988.369   4
   5  19  -2 1299.96 687.137   1
 -24   5  -2 3297.86 974.048   4
 -19  -5   1 523.455 722.737   2
 -24   5   1 859.626 847.784   2
   5  19   1-255.815 607.154   3
  19 -24   1 2181.92 714.715   2
  -5  24   1 1601.84 685.818   1
  24 -19   1 1190.77 670.897   3
  19 -24   1 393.225 776.818   3
   5  19   1 301.372 715.415   1
 -19  -5   1 1324.80 833.360   4
 -24   5   1 2944.47 922.926   4
 -19  -5   4-372.396 729.158   2
 -24   5   4-315.206 778.787   2
  -5  24   4 406.702 685.772   1
 -19  -5   4 375.557 844.619   4
 -24   5   4 129.989 853.469   4
 -24   6  -6 3012.35 1075.00   2
  24 -18  -6 1699.68 1015.39   3
  18 -24  -6 2089.14 976.564   3
   6  18  -6 1981.23 885.870   1
  -6  24  -6 3304.84 1134.31   1
 -24   6  -6 2513.74 1224.59   1
 -18  -6  -6 1349.66 860.358   4
 -24   6  -6 2200.93 870.541   4
 -18  -6  -6 1097.01 1045.43   2
 -18  -6  -3 2049.27 1178.02   2
 -24   6  -3 155.227 691.963   2
 -24   6  -3-669.593 567.063   3
  24 -18  -3 1011.06 702.838   3
  18 -24  -3 781.710 790.951   3
  -6  24  -3 1654.91 767.735   1
   6  18  -3 526.569 650.297   1
 -18  -6  -3 2728.33 976.698   4
 -24   6  -3 2042.37 837.618   4
  -6  24   0 748.638 662.188   1
   6  18   0 1466.83 695.063   1
 -18  -6   0 1638.59 826.807   2
 -24   6   0 414.298 730.490   2
   6  18   0 217.809 487.828   3
  24 -18   0 900.471 673.268   3
  18 -24   0 2241.13 793.271   3
 -18  -6   0 183.749 716.914   4
 -24   6   0 1780.94 799.993   4
  -6  24   3 2236.77 782.687   1
  18 -24   3 811.132 409.721   2
   6  18   3 288.087 402.366   3
 -18  -6   3 1304.83 809.921   2
 -24   6   3 1979.10 829.327   2
  24 -18   3 1387.08 864.894   3
  18 -24   3 210.967 445.462   2
 -18  -6   3 2051.78 923.177   4
 -24   6   3 2522.11 931.100   4
 -18  -6   6 1855.90 1025.56   2
 -24   6   6 1371.50 1011.55   2
  18 -24   6 264.576 832.385   4
 -18  -6   6 1729.43 880.734   4
 -24   6   6 1947.33 1083.52   4
   7  17  -7-233.620 926.415   3
 -24   7  -7-726.302 896.502   2
  24 -17  -7 1055.33 949.906   3
  -7  24  -7 1439.78 943.841   1
  17 -24  -7-245.943 840.789   3
   7  17  -7 484.352 819.253   1
 -17  -7  -7-19.8820 774.214   4
 -24   7  -7-112.457 980.112   1
 -17  -7  -7-649.956 1045.19   2
 -24   7  -7 1203.18 841.456   4
 -17  -7  -4 1680.00 828.285   2
 -24   7  -4 1397.75 834.404   2
  24 -17  -4 1838.25 792.084   3
  17 -24  -4 332.888 686.810   3
  -7  24  -4 1899.96 900.767   1
   7  17  -4 1563.33 835.024   1
 -17  -7  -4 729.100 684.832   4
 -24   7  -4 501.187 697.841   4
 -17  -7  -1 804.865 791.329   2
 -24   7  -1 676.566 601.550   3
 -24   7  -1 788.172 753.676   2
  24 -17  -1 130.710 720.784   3
   7  17  -1 771.534 485.043   3
  17 -24  -1 837.591 615.205   3
   7  17  -1 805.407 714.858   1
  -7  24  -1 1132.42 691.128   1
 -17  -7  -1 305.792 732.588   4
 -24   7  -1 1158.82 702.888   4
   7  17   2-27.8852 357.773   3
 -17  -7   2-968.278 697.062   2
  17 -24   2 298.053 433.743   2
 -24   7   2 681.927 649.195   2
  -7  24   2 141.883 538.738   1
  24 -17   2 1047.98 841.103   3
  17 -24   2 1138.07 726.132   3
 -17  -7   2 1354.79 838.230   4
 -24   7   2 819.564 792.162   4
 -17  -7   5 2185.90 877.783   2
 -24   7   5 1909.11 957.335   2
  17 -24   5 2368.72 896.236   4
 -17  -7   5 2403.75 987.123   4
 -24   7   5 1767.52 972.086   4
 -24   8  -5-149.202 685.274   2
  -8  24  -5 928.430 750.615   1
  24 -16  -5 1060.12 782.230   3
  16 -24  -5 654.218 769.199   3
   8  16  -5 534.530 678.018   1
 -24   8  -5 1678.75 1154.80   1
 -16  -8  -5 232.854 754.799   4
 -24   8  -5 781.988 781.767   4
 -16  -8  -5 680.042 898.069   2
 -16  -8  -2 686.739 800.407   2
 -24   8  -2 703.701 694.785   2
  24 -16  -2 1138.56 764.355   3
  16 -24  -2 916.081 680.119   3
   8  16  -2 1102.16 708.363   1
  -8  24  -2 767.894 636.965   1
 -16  -8  -2 1197.03 712.738   4
 -24   8  -2-604.196 646.726   4
  -8  24   1 343.716 570.806   1
 -16  -8   1-236.295 690.076   2
   8  16   1 259.435 627.956   1
   8  16   1 379.115 377.066   3
 -24   8   1 898.177 831.209   2
  16 -24   1 567.364 501.252   2
  24 -16   1 780.091 708.501   3
  16 -24   1-31.4944 613.974   3
 -16  -8   1 212.095 640.427   4
 -24   8   1 398.361 646.309   4
 -16  -8   4 1547.63 809.651   2
 -24   8   4 1194.78 835.538   2
  -8  24   4 1377.42 643.576   1
 -16  -8   4 2362.91 914.534   4
 -24   8   4 2480.04 991.713   4
 -24   8   7 604.246 972.466   4
 -16  -8   7-497.783 881.541   2
 -24   8   7 1265.44 1080.08   2
  16 -24   7 96.7189 623.580   4
 -16  -8   7 1082.74 821.270   4
   9  15  -6 1014.27 872.537   3
 -24   9  -6 1128.15 765.335   2
  -9  24  -6 1762.41 942.082   1
  24 -15  -6 1174.14 820.002   3
  15 -24  -6 2419.46 952.780   3
   9  15  -6 700.437 702.271   1
 -15  -9  -6 930.862 813.819   4
 -24   9  -6-65.5467 988.702   1
 -15  -9  -6 3004.26 1285.83   2
 -24   9  -6 2195.29 910.666   4
 -15  -9  -3-388.579 977.684   2
 -24   9  -3 2225.08 795.108   2
  -9  24  -3 2848.13 888.683   1
   9  15  -3 1631.15 748.477   1
  24 -15  -3 1263.10 723.460   3
  15 -24  -3 792.048 762.911   3
 -24   9  -3 2919.45 1178.76   1
 -15  -9  -3 1037.45 793.652   4
 -24   9  -3 1832.67 764.532   4
 -15  -9   0 29.0979 686.913   2
 -24   9   0 925.355 682.910   2
   9  15   0 724.253 431.310   3
  24 -15   0-1006.29 717.226   3
  15 -24   0-485.823 707.680   3
  -9  24   0 988.602 722.955   1
 -15  -9   0 1045.76 771.652   4
   9  15   0 265.380 574.080   1
 -24   9   0 1981.10 859.605   4
 -15  -9   3 1458.50 896.924   2
  15 -24   3 1627.47 363.414   2
 -24   9   3 2312.02 951.340   2
  -9  24   3 1345.09 657.679   1
  24 -15   3 1725.89 900.027   3
  15 -24   3 420.670 321.704   2
 -15  -9   3 1662.42 874.525   4
 -24   9   3 1965.91 876.487   4
 -24   9   6 474.236 882.217   4
 -15  -9   6-117.220 767.212   2
 -24   9   6 237.113 977.549   2
  15 -24   6 64.3156 711.129   4
 -15  -9   6 237.204 824.107   4
  10  14  -7 1160.78 1111.57   3
 -10  24  -7 1528.63 1015.17   1
 -24  10  -7 1028.69 871.668   2
  24 -14  -7 1495.50 1006.14   3
  14 -24  -7 157.672 850.191   3
 -14 -10  -7 808.753 799.553   4
  10  14  -7 1396.83 900.718   1
 -14 -10  -7 2037.75 1391.46   2
 -24  10  -7 1524.52 1130.64   1
 -24  10  -7 2224.05 854.438   4
  10  14  -4 927.002 717.728   3
 -10  24  -4-872.700 731.665   1
 -24  10  -4-63.2255 749.838   2
  10  14  -4 897.233 766.038   1
  24 -14  -4 873.183 771.109   3
  14 -24  -4 228.592 660.005   3
 -14 -10  -4 677.116 779.514   4
 -24  10  -4 781.536 939.698   1
 -14 -10  -4 704.498 872.998   2
 -24  10  -4 397.060 746.379   4
  10  14  -1 1937.60 865.388   1
 -14 -10  -1 2872.69 1028.41   2
 -24  10  -1 2003.20 761.587   2
  24 -14  -1 1200.16 648.438   3
 -10  24  -1 1920.89 770.106   1
  10  14  -1 781.005 412.712   3
  14 -24  -1 1835.96 836.594   3
 -14 -10  -1 265.294 821.722   4
 -24  10  -1 2477.38 896.096   4
 -10  24   2 710.689 500.892   1
 -14 -10   2 1866.80 772.534   2
 -24  10   2 1478.68 794.000   2
  14 -24   2 1704.25 510.357   2
  24 -14   2-80.3462 722.038   3
  14 -24   2 2008.47 918.764   3
  14 -24   2 2598.96 845.923   2
 -14 -10   2 2104.92 891.898   4
 -24  10   2 614.162 612.034   4
 -24  10   5 2915.48 1052.92   4
 -14 -10   5 466.758 821.040   2
 -24  10   5 1819.76 924.819   2
  14 -24   5 2395.91 929.273   4
 -10  24   5 1212.82 675.144   1
 -14 -10   5 1528.94 914.831   4
  11  13  -5-446.455 758.043   3
 -11  24  -5-390.854 761.980   1
 -24  11  -5-711.516 674.837   2
  11  13  -5-25.1259 729.378   1
  24 -13  -5-785.179 716.996   3
  13 -24  -5 1667.96 855.529   3
 -13 -11  -5 1239.85 831.404   4
 -24  11  -5 822.366 1192.96   1
 -13 -11  -5 122.793 911.521   2
 -24  11  -5 766.338 780.248   4
 -13 -11  -2 2113.87 1065.48   2
  11  13  -2 1213.24 553.178   3
 -11  24  -2 1891.00 901.366   1
 -24  11  -2 1916.18 790.548   2
  24 -13  -2 1560.05 744.279   3
  13 -24  -2 587.299 690.758   3
  11  13  -2 1257.46 524.708   3
  11  13  -2 3480.11 959.823   1
 -24  11  -2 1742.95 937.402   1
 -13 -11  -2 1150.13 788.616   4
 -24  11  -2 2324.34 748.405   4
 -13 -11   1 894.184 774.057   2
 -24  11   1 1611.42 808.437   2
  24 -13   1 161.422 663.118   3
  13 -24   1 195.428 715.268   3
 -11  24   1 987.690 589.048   1
  13 -24   1 184.684 648.897   2
 -13 -11   1 730.107 760.088   4
 -24  11   1 1857.81 858.401   4
 -24  11   4 2619.01 1021.00   4
 -13 -11   4 417.403 815.925   2
 -24  11   4 725.380 690.265   2
  13 -24   4-364.864 688.645   4
 -13 -11   4 476.468 742.569   4
 -11  24   4 1317.03 620.460   1
 -13 -11   7-573.267 922.649   2
  13 -24   7 1463.09 733.550   4
 -13 -11   7 1155.15 860.070   4
  12  12  -6 576.311 786.235   3
 -24  12  -6 328.227 637.131   2
  24 -12  -6 39.8923 831.394   3
  12  12  -6 1395.42 967.740   1
  12 -24  -6 575.708 852.259   3
 -12 -12  -6 925.781 807.291   4
 -12 -12  -6 481.815 950.465   2
 -24  12  -6 154.045 1011.68   1
 -12  24  -6 1669.10 825.826   1
 -12  24  -3 2460.21 902.485   1
  12  12  -3 1425.98 682.782   3
 -24  12  -3 1187.70 627.022   2
  24 -12  -3 442.593 727.909   3
  12  12  -3 634.060 781.533   1
  12 -24  -3 942.485 771.442   3
 -12 -12  -3 1278.59 871.864   4
 -24  12  -3 1764.25 1005.38   1
 -12 -12  -3 1792.11 986.361   2
 -24  12  -3 837.688 635.943   4
 -12 -12   0 676.102 757.747   2
  12  12   0 244.645 272.955   3
 -12  24   0 1509.00 754.885   1
 -24  12   0 741.414 624.620   2
  12  12   0 681.893 281.441   3
  24 -12   0 893.051 608.900   3
  12 -24   0 114.932 729.524   3
  12 -24   0 368.292 669.874   2
 -24  12   0 1265.39 822.265   1
 -12 -12   0 1099.20 728.754   4
 -24  12   0 949.450 675.961   4
 -24  12   3 1167.57 824.180   4
 -12  24   3 617.591 512.268   1
 -12 -12   3 861.114 695.076   2
  12 -24   3 762.202 346.459   2
 -24  12   3 1755.67 866.950   2
  12 -24   3 1033.50 794.561   4
 -24  12   3 1286.76 663.568   1
 -12 -12   3 1121.14 734.730   4
  12 -24   3 624.684 389.044   2
 -12 -12   6 1237.37 843.821   2
  12 -24   6-144.110 704.505   4
 -12 -12   6 1281.27 799.540   4
 -24  12   6 108.476 363.901   1
 -24  13  -7 1217.28 1268.55   1
  13  11  -7 33.3304 890.663   3
 -24  13  -7-119.926 661.875   2
  24 -11  -7 1587.83 1008.41   3
  11 -24  -7 499.730 907.797   3
  13  11  -7-485.968 700.026   1
 -11 -13  -7 705.392 780.470   4
 -11 -13  -7 81.1323 1203.92   2
 -13  24  -7 544.064 975.643   1
 -24  13  -4 887.254 746.824   4
  13  11  -4 538.910 669.523   3
 -24  13  -4-303.967 556.134   2
  24 -11  -4 507.876 626.887   3
  13  11  -4-203.649 604.467   1
  11 -24  -4 932.729 748.269   3
 -11 -13  -4 961.792 773.017   4
 -11 -13  -4 955.964 1054.49   2
 -24  13  -4 507.997 1032.40   1
 -13  24  -4 1110.60 770.134   1
 -24  13  -1 970.510 654.759   4
 -11 -13  -1 1068.43 869.084   2
  13  11  -1 876.827 404.262   3
 -13  24  -1 321.156 670.702   1
 -24  13  -1 486.022 585.301   2
  24 -11  -1-304.091 614.022   3
  11 -24  -1 860.774 744.776   3
  13  11  -1 1265.56 375.057   3
  11 -24  -1-496.415 677.337   2
 -11 -13  -1 253.688 754.080   4
 -24  13  -1-434.915 702.663   1
 -24  13   2 3334.19 944.533   4
 -11 -13   2 1980.67 767.488   2
 -24  13   2 1334.44 921.182   2
  24 -11   2 1985.94 820.900   3
  11 -24   2 1928.88 888.032   4
 -13  24   2 2856.48 687.004   1
 -11 -13   2 1039.21 862.307   4
  11 -24   2 2607.91 899.270   2
 -24  13   2 609.537 661.391   1
 -11 -13   5-367.848 737.362   2
 -13  24   5-221.822 478.771   1
  11 -24   5-48.9552 740.414   4
 -11 -13   5 719.078 746.207   4
 -24  13   5 259.480 472.681   1
  14  10  -5 2257.22 966.467   3
 -24  14  -5 1436.93 651.606   2
  24 -10  -5 3983.15 1087.31   3
  10 -24  -5 1949.77 885.257   3
  14  10  -5 2664.14 894.208   1
 -10 -14  -5 2776.45 1029.59   4
 -14  24  -5 2857.04 1041.99   1
 -10 -14  -5 2053.60 1072.03   2
 -24  14  -5 1801.21 1120.73   1
 -24  14  -2 2776.18 847.389   4
  14  10  -2 1713.74 608.222   3
  24 -10  -2 3604.01 825.120   3
 -24  14  -2 1904.97 716.954   2
  10 -24  -2 2357.32 909.063   3
  10 -24  -2 1740.30 894.864   2
 -10 -14  -2 1295.08 743.430   4
 -24  14  -2 1980.07 990.352   1
 -10 -14  -2 851.218 924.420   2
 -14  24  -2 1416.57 684.573   1
 -24  14   1 4119.41 1000.68   4
 -10 -14   1 2003.54 826.569   2
 -14  24   1 1194.29 663.953   1
 -24  14   1 1855.14 756.398   2
  24 -10   1 1132.79 749.224   3
  10 -24   1 1805.70 845.063   3
  10 -24   1 1878.12 836.072   4
  10 -24   1-639.907 752.163   2
 -10 -14   1 1008.29 755.536   4
 -24  14   1 2315.83 787.284   1
  10 -24   4 876.397 282.438   2
 -10 -14   4 1584.59 802.551   2
 -14  24   4 303.300 463.284   1
  10 -24   4 14.2684 170.714   2
 -24  14   4 408.994 797.260   2
 -24  14   4 258.246 463.221   1
  10 -24   4 719.728 836.077   4
 -10 -14   4 1134.97 792.912   4
 -24  14   4-750.587 558.466   1
 -10 -14   7 2317.20 1115.60   2
  10 -24   7 1017.46 746.564   4
 -10 -14   7 1088.06 838.086   4
 -24  15  -6 1424.43 1153.45   1
  15   9  -6 745.617 928.307   3
  24  -9  -6-227.282 788.621   3
 -24  15  -6 264.041 497.139   2
   9 -24  -6 1156.81 831.836   3
  15   9  -6 1387.44 759.653   1
  -9 -15  -6 1216.77 801.612   4
 -15  24  -6 1250.26 952.225   1
  -9 -15  -6 2007.93 1013.10   2
  15   9  -3 1341.86 669.776   3
  24  -9  -3 1565.23 689.967   3
 -24  15  -3 1452.67 654.885   2
   9 -24  -3 1595.02 827.742   3
   9 -24  -3 888.561 907.854   2
  -9 -15  -3 889.737 855.122   4
 -15  24  -3 1974.90 875.254   1
  -9 -15  -3 750.891 861.967   2
 -24  15  -3 3596.97 1211.48   1
 -24  15   0 1462.49 724.639   4
  -9 -15   0 22.2779 711.519   2
 -15  24   0 1769.01 730.483   1
  24  -9   0 696.442 676.721   3
 -24  15   0 1955.69 723.055   2
   9 -24   0 909.267 820.403   3
   9 -24   0 1227.33 788.270   4
   9 -24   0 820.692 765.665   2
  -9 -15   0 2814.26 1012.03   4
 -24  15   0 452.485 691.709   1
  -9 -15   3 2189.87 938.650   2
 -24  15   3 991.115 745.217   2
   9 -24   3 426.760 756.592   4
 -15  24   3 680.242 507.903   1
  -9 -15   3 1359.29 795.154   4
 -24  15   3 794.955 635.107   1
   9 -24   3 585.765 462.818   2
  -9 -15   6 601.593 874.106   2
   9 -24   6 1156.86 799.326   4
  -9 -15   6 1399.78 869.648   4
 -24  16  -7 2035.69 1255.37   1
  16   8  -7 1696.38 1037.27   3
  16   8  -7 626.130 787.966   1
  24  -8  -7-123.194 850.993   3
   8 -24  -7 2428.55 976.748   3
   8 -24  -7-353.235 926.707   4
   8 -24  -7 1505.70 1446.91   2
  -8 -16  -7 893.007 818.013   4
 -16  24  -7 405.666 815.752   1
  -8 -16  -7 900.278 1083.32   2
 -24  16  -4 2815.80 1180.88   1
  16   8  -4 1697.78 785.135   3
  24  -8  -4 341.965 643.613   3
 -24  16  -4 2007.44 615.958   2
   8 -24  -4 555.280 683.292   3
   8 -24  -4 2441.78 1189.09   4
   8 -24  -4 699.845 907.055   2
  -8 -16  -4 1704.14 861.822   4
 -16  24  -4 2374.87 875.336   1
  -8 -16  -4 1665.07 1022.72   2
  16   8  -1-228.539 320.340   3
  24  -8  -1 239.399 650.691   3
 -24  16  -1 1795.21 721.165   2
   8 -24  -1 586.965 787.939   3
   8 -24  -1 749.721 757.675   4
   8 -24  -1 1137.71 804.701   2
  -8 -16  -1-367.889 681.441   4
 -16  24  -1 489.912 608.363   1
  -8 -16  -1 2086.75 1112.70   2
 -24  16  -1-269.583 659.535   1
 -24  16   2 1017.02 592.769   1
  -8 -16   2-217.888 639.630   2
 -16  24   2 455.215 534.606   1
  24  -8   2 117.032 560.713   3
 -24  16   2 462.982 723.707   2
   8 -24   2 1029.67 809.913   4
  -8 -16   2 1066.66 713.535   4
   8 -24   2 70.9866 616.127   2
 -24  16   5-245.076 346.498   1
  -8 -16   5 1193.28 866.202   2
   8 -24   5 546.810 811.653   4
 -16  24   5 423.664 451.940   1
  -8 -16   5 1795.48 799.216   4
 -24  17  -5 848.258 1020.17   1
  17   7  -5 1790.64 886.248   3
  24  -7  -5 1779.69 931.176   3
 -24  17  -5 918.336 530.145   2
   7 -24  -5 2458.58 875.677   3
  -7 -17  -5 461.707 326.332   3
   7 -24  -5 1434.91 986.706   4
   7 -24  -5 283.135 1051.70   2
 -17  24  -5 1130.64 835.330   1
  -7 -17  -5 1899.14 921.965   4
  -7 -17  -5 862.405 1184.89   2
 -24  17  -2-33.2026 780.918   1
  17   7  -2 302.958 414.621   3
  24  -7  -2 932.536 645.271   3
 -24  17  -2 161.909 493.809   2
   7 -24  -2 1649.13 824.683   3
   7 -24  -2-978.878 863.962   4
   7 -24  -2 996.045 907.350   2
  -7 -17  -2 921.728 781.287   4
 -17  24  -2-720.690 785.727   1
  -7 -17  -2 2023.10 1120.87   2
  -7 -17   1 2047.42 877.133   2
 -17  24   1 675.109 541.946   1
 -24  17   1 2762.76 834.518   1
  24  -7   1 550.357 655.044   3
 -24  17   1-671.962 700.227   2
   7 -24   1 46.6340 701.493   4
  -7 -17   1 1834.07 851.706   4
   7 -24   1 1176.79 845.753   2
   7 -24   4 1268.60 568.515   2
 -24  17   4 164.324 446.228   1
  -7 -17   4 146.573 704.341   2
   7 -24   4 1145.85 789.726   4
  -7 -17   4 320.365 703.929   4
 -17  24   4-545.760 480.160   1
  -7 -17   7 20.3625 849.499   2
   7 -24   7 698.369 771.555   4
  -7 -17   7 599.384 803.853   4
 -24  18  -6 3932.92 1522.85   1
  18   6  -6 1710.34 1045.59   3
  24  -6  -6 1693.67 921.163   3
   6 -24  -6-520.427 732.967   3
  -6 -18  -6 482.056 421.699   3
   6 -24  -6-406.445 971.995   4
 -18  24  -6 1848.16 1038.77   1
   6 -24  -6 907.591 1166.68   2
  -6 -18  -6 809.721 801.981   4
  -6 -18  -6 316.142 1029.88   2
 -24  18  -3 1703.91 993.296   1
  18   6  -3 1068.48 595.267   3
  24  -6  -3 1258.10 695.127   3
   6 -24  -3 2281.62 913.041   3
 -24  18  -3 2064.03 666.872   2
   6 -24  -3 2704.98 1111.17   4
 -18  24  -3 2200.65 892.556   1
   6 -24  -3 1549.92 914.682   2
  -6 -18  -3 2547.43 970.974   4
  -6 -18  -3 1433.48 1029.00   2
 -24  18   0 1145.87 698.990   1
  24  -6   0 141.050 542.395   3
  18   6   0 369.524 115.749   3
 -24  18   0 572.933 626.699   2
   6 -24   0 2362.27 899.723   3
   6 -24   0 282.233 757.524   4
  -6 -18   0 1936.23 912.418   4
   6 -24   0-109.216 918.086   2
 -18  24   0 2024.47 795.658   1
  -6 -18   0 1366.38 881.091   2
   6 -24   3-40.9675 514.534   2
  -6 -18   3 137.820 656.756   2
 -24  18   3 1866.02 613.366   1
 -18  24   3 807.425 506.813   1
   6 -24   3 2075.57 1023.85   4
  -6 -18   3 2170.40 915.823   4
  -6 -18   6 3384.64 1064.93   2
   6 -24   6 898.422 848.355   4
  -6 -18   6 1746.22 887.882   4
 -24  19  -4-545.653 788.142   1
  19   5  -4-635.311 664.259   3
  24  -5  -4-164.464 641.784   3
   5 -24  -4 1208.51 770.027   3
 -24  19  -4 986.303 542.032   2
  -5 -19  -4 107.011 400.360   3
 -19  24  -4 3.48769 692.490   1
   5 -24  -4 968.906 788.364   4
  -5 -19  -4 2262.60 1023.66   4
   5 -24  -4 1218.18 1006.04   2
  -5 -19  -4 539.889 1034.68   2
 -24  19  -1 326.428 701.889   1
  19   5  -1 1049.91 428.706   3
  24  -5  -1 594.020 539.127   3
   5 -24  -1 582.953 785.676   3
   5 -24  -1 803.883 876.784   4
 -19  24  -1 187.633 622.531   1
  -5 -19  -1 566.639 717.603   4
   5 -24  -1 1303.40 1050.26   2
  -5 -19  -1 125.305 896.056   2
 -19  24   2 1875.03 637.935   1
  -5 -19   2 2173.58 879.116   2
 -24  19   2 3321.74 800.086   1
  24  -5   2 1519.18 487.855   3
   5 -24   2 2884.80 1024.05   4
  -5 -19   2 1995.59 982.473   4
   5 -24   2 2161.13 891.517   2
  -5 -19   5 594.326 753.475   2
   5 -24   5 1019.59 573.412   2
 -19  24   5-130.189 388.882   1
   5 -24   5 1443.39 887.985   4
 -24  19   5 636.223 295.805   1
  -5 -19   5 1703.28 911.772   4
  20   4  -5 1012.48 822.913   3
 -24  20  -5 2772.45 1110.94   1
  24  -4  -5 2717.92 1042.78   3
   4 -24  -5 2247.84 832.766   3
  -4 -20  -5 1826.48 556.172   3
 -20  24  -5 1394.70 893.254   1
   4 -24  -5 2178.97 1052.81   4
  -4 -20  -5 2990.91 1097.97   4
   4 -24  -5 2024.72 1142.07   2
  -4 -20  -5 479.668 1038.36   2
 -24  20  -2 104.981 684.679   1
  20   4  -2 604.225 437.487   3
  24  -4  -2-834.879 650.976   3
   4 -24  -2-894.745 770.723   3
 -20  24  -2-173.865 661.078   1
   4 -24  -2 2392.22 1020.89   4
  -4 -20  -2 143.656 708.382   4
   4 -24  -2 957.805 893.636   2
  -4 -20  -2 1658.74 1148.08   2
  -4 -20   1-888.333 780.726   2
 -24  20   1 1938.90 753.067   1
  24  -4   1 1205.34 576.337   3
   4 -24   1 1703.56 948.377   4
  -4 -20   1 98.9434 722.098   4
 -20  24   1 752.863 630.488   1
   4 -24   1 349.754 858.351   2
   4 -24   4 940.487 651.822   2
  -4 -20   4 1207.41 831.396   2
 -20  24   4 1969.98 574.282   1
 -24  20   4 1131.38 506.379   1
   4 -24   4 154.801 788.273   4
  -4 -20   4 648.775 819.910   4
  21   3  -6 885.141 1043.17   3
  24  -3  -6 796.025 883.512   3
 -24  21  -6-54.1340 1009.72   1
   3 -24  -6 192.228 671.331   3
  -3 -21  -6 378.630 474.268   3
 -21  24  -6 1841.08 1013.12   1
   3 -24  -6 1669.30 1113.34   4
  -3 -21  -6-917.646 999.876   4
   3 -24  -6 544.513 1244.37   2
  -3 -21  -6 729.383 1274.91   2
 -24  21  -3 685.263 812.921   1
  21   3  -3 254.007 567.963   3
  24  -3  -3 1114.17 646.425   3
   3 -24  -3 714.956 648.836   3
 -21  24  -3 1467.65 818.157   1
   3 -24  -3 209.054 761.705   4
  -3 -21  -3 1758.77 902.471   4
   3 -24  -3 1162.26 1012.66   2
  -3 -21  -3 1840.76 1256.87   2
 -24  21   0 1664.55 821.079   1
  21   3   0 655.025 268.808   3
  24  -3   0 1265.39 539.125   3
 -21  24   0 1729.69 805.150   1
   3 -24   0 1596.82 903.224   4
  -3 -21   0 2345.84 992.850   4
   3 -24   0 1791.33 1085.25   2
  -3 -21   0 1874.72 960.375   2
   3 -24   3 769.217 658.034   2
 -21  24   3 411.008 526.531   1
  -3 -21   3 532.554 696.262   2
 -24  21   3 161.680 490.819   1
   3 -24   3 476.034 921.668   4
  -3 -21   3 244.563 725.988   4
  -3 -21   6 781.941 817.160   2
   3 -24   6 834.005 814.345   4
  -3 -21   6 797.001 853.161   4
  22   2  -4 624.183 732.327   3
  24  -2  -4 1373.93 849.070   3
 -24  22  -4 218.039 762.783   1
 -22  24  -4 722.493 889.302   1
   2 -24  -4 696.417 703.147   3
  -2 -22  -4 896.620 561.704   3
   2 -24  -4 945.506 941.236   4
  -2 -22  -4-171.808 894.511   4
   2 -24  -4-721.851 1190.46   2
  -2 -22  -4 1686.54 1278.02   2
 -24  22  -1 1824.60 805.392   1
  22   2  -1 2024.16 563.778   3
  24  -2  -1 1369.99 608.889   3
 -22  24  -1 1179.84 790.806   1
   2 -24  -1 1841.28 1009.44   4
  -2 -22  -1 827.634 772.501   4
   2 -24  -1 1021.42 1092.11   2
  -2 -22  -1 682.389 1109.83   2
   2 -24   2 1734.05 980.379   2
  -2 -22   2 418.497 765.506   2
 -24  22   2 1262.02 668.620   1
   2 -24   2 503.987 782.381   4
  -2 -22   2 67.5302 792.002   4
 -22  24   2 987.449 625.585   1
   2 -24   5 2279.87 925.649   2
  -2 -22   5 787.097 954.541   2
   2 -24   5 1447.15 947.748   4
  -2 -22   5 458.515 815.026   4
  23   1  -5 2007.27 964.348   3
  24  -1  -5 2454.74 1023.98   3
 -24  23  -5 1073.43 970.781   1
 -23  24  -5 1704.89 1061.82   1
   1 -24  -5 72.1465 613.692   3
  -1 -23  -5 869.505 591.581   3
   1 -24  -5 1898.01 992.533   4
  -1 -23  -5 2296.18 1102.53   4
   1 -24  -5 1428.04 1246.23   2
  -1 -23  -5 1942.21 1290.45   2
  23   1  -2 314.702 511.952   3
  24  -1  -2 393.145 584.870   3
 -24  23  -2 916.244 811.267   1
 -23  24  -2-8.99833 675.504   1
   1 -24  -2 946.064 632.701   3
   1 -24  -2-903.428 1016.04   4
  -1 -23  -2 1320.78 940.582   4
   1 -24  -2-1070.44 940.520   2
  -1 -23  -2 2879.26 1222.06   2
 -24  23   1 1312.27 711.844   1
  24  -1   1 587.284 293.794   3
 -23  24   1 1943.22 823.248   1
   1 -24   1 1226.40 888.848   4
  -1 -23   1 2895.66 1069.88   4
   1 -24   1 1030.41 1022.21   2
  -1 -23   1 1214.41 865.956   2
   1 -24   4-499.025 680.021   2
 -23  24   4 113.193 447.527   1
  -1 -23   4 69.8170 696.523   2
   1 -24   4 1424.86 945.894   4
  -1 -23   4-960.094 973.445   4
 -24  23   4 395.305 443.936   1
  24   0  -3 428.145 574.995   3
 -24  24  -3 731.408 780.142   1
   0 -24  -3 0.52816 552.969   3
   0 -24  -3-1374.18 897.237   4
   0 -24  -3-740.834 1065.93   2
  24   0   0 764.754 437.537   3
 -24  24   0 2378.96 843.050   1
   0 -24   0 2680.08 1075.14   4
   0 -24   0 494.209 1117.80   2
   0 -24   3 1392.19 850.373   2
   0 -24   3 603.249 846.577   4
 -24  24   3-84.7753 511.023   1
 -25   0  -4 868.464 1001.72   2
   0  25  -4 876.507 927.894   1
  25 -25  -4 1030.34 821.816   3
 -25   0  -4 1626.53 1002.03   4
 -25   0  -1-163.479 797.117   2
  25 -25  -1 612.372 775.479   3
   0  25  -1-207.010 682.302   1
 -25   0  -1 693.123 825.853   4
   0  25   2 1824.38 830.498   1
 -25   0   2 2174.67 998.265   2
  25 -25   2 1137.36 975.625   3
 -25   0   2 205.496 793.931   4
  -1  25  -5 137.681 735.961   1
 -24  -1  -5 1714.81 1106.54   2
 -25   1  -5 2324.24 1012.32   2
   1  24  -5 2412.71 1020.11   1
  25 -24  -5-1787.88 970.585   3
  24 -25  -5 1142.76 856.968   3
 -24  -1  -5 323.114 812.397   4
 -25   1  -5 265.760 783.966   4
 -24  -1  -2 1170.14 1011.77   2
 -25   1  -2-51.0946 902.691   2
  -1  25  -2 396.274 741.646   1
  25 -24  -2 116.303 761.794   3
  24 -25  -2 933.686 812.071   3
   1  24  -2 1276.88 788.253   1
 -24  -1  -2 1295.23 936.946   4
 -25   1  -2 381.518 791.438   4
  -1  25   1 2489.50 817.800   1
 -24  -1   1 717.087 814.467   2
 -25   1   1 2287.97 948.539   2
  25 -24   1-769.627 836.422   3
  24 -25   1 1057.41 891.650   3
   1  24   1 558.370 675.077   1
 -24  -1   1 2792.79 1017.23   4
 -25   1   1 1766.55 938.968   4
 -24  -1   4 124.568 790.632   2
 -25   1   4 140.114 779.645   2
 -24  -1   4 613.610 959.055   4
 -25   1   4 1341.47 926.896   4
  -2  25  -3 2134.25 936.916   1
 -23  -2  -3 1086.24 947.539   2
 -25   2  -3 343.455 815.356   2
  25 -23  -3 941.192 824.094   3
  23 -25  -3 371.613 828.584   3
   2  23  -3 1901.63 834.276   1
 -23  -2  -3-168.966 879.062   4
 -25   2  -3 1700.46 881.639   4
 -23  -2   0-147.908 906.356   2
   2  23   0 1351.59 772.522   1
 -25   2   0 2567.61 1097.42   2
  25 -23   0-51.5730 765.630   3
  23 -25   0-342.877 707.308   3
  -2  25   0 814.589 729.899   1
 -23  -2   0 1090.39 848.707   4
 -25   2   0 2219.54 957.341   4
 -23  -2   3 1503.33 817.775   2
 -25   2   3-290.187 791.306   2
  -2  25   3 961.380 789.683   1
  25 -23   3 922.068 905.691   3
 -23  -2   3 1955.68 1043.48   4
 -25   2   3 2000.81 1010.64   4
 -22  -3  -4 713.812 930.929   2
 -25   3  -4 314.617 776.094   2
   3  22  -4 1870.93 914.357   1
  25 -22  -4-204.190 759.886   3
  22 -25  -4 339.052 888.087   3
 -22  -3  -4-576.502 792.344   4
  -3  25  -4 795.031 782.359   1
 -25   3  -4 1589.86 912.915   4
   3  22  -1 867.222 671.918   1
 -22  -3  -1 638.140 834.883   2
 -25   3  -1 547.662 856.413   2
  -3  25  -1 81.0201 702.118   1
  25 -22  -1 6.40940 679.572   3
  22 -25  -1 30.6095 681.745   3
 -22  -3  -1 1545.60 930.981   4
 -25   3  -1 1652.66 854.312   4
  -3  25   2 1685.24 796.948   1
 -22  -3   2-36.2757 845.304   2
 -25   3   2-865.332 706.978   2
   3  22   2 286.756 669.291   1
  25 -22   2-174.178 769.775   3
  22 -25   2-12.9134 737.174   3
 -22  -3   2 664.503 857.834   4
 -22  -3   5 1201.08 931.572   2
 -25   3   5 333.062 796.429   2
 -22  -3   5 817.288 823.278   4
 -21  -4  -5 1398.54 1044.25   2
 -25   4  -5 442.004 814.182   2
   4  21  -5 619.619 780.305   1
  25 -21  -5 2205.68 1051.55   3
  21 -25  -5 1969.76 887.837   3
  -4  25  -5 452.882 912.978   1
 -21  -4  -5 487.413 871.024   4
 -25   4  -5 1185.15 749.690   4
 -21  -4  -2 1313.27 1021.86   2
 -25   4  -2 1287.14 906.403   2
  25 -21  -2 1989.09 856.916   3
  21 -25  -2 598.847 752.587   3
   4  21  -2 1091.02 788.832   1
 -21  -4  -2 742.703 761.326   4
 -25   4  -2 3039.56 1029.75   4
  -4  25  -2-255.613 683.960   1
 -21  -4   1 1563.73 843.393   2
 -25   4   1 1989.74 960.944   2
   4  21   1 612.542 703.785   1
  25 -21   1 1882.06 876.171   3
  21 -25   1 1597.82 806.232   3
  -4  25   1 1954.25 814.199   1
 -21  -4   1 3217.17 1080.86   4
 -25   4   1 2237.28 946.621   4
 -21  -4   4 337.813 754.200   2
 -25   4   4 123.271 716.537   2
  -4  25   4-32.1596 649.220   1
 -21  -4   4 1101.70 874.444   4
 -25   4   4 2104.58 958.476   4
 -20  -5  -6-1136.81 984.368   2
 -25   5  -6 739.915 926.885   2
  25 -20  -6 627.176 953.674   3
   5  20  -6 665.237 771.944   1
  20 -25  -6-910.842 933.178   3
  -5  25  -6 1359.79 940.462   1
 -25   5  -6 1843.65 1312.09   1
 -20  -5  -6 1810.08 1108.45   4
 -25   5  -6-684.243 729.167   4
 -20  -5  -3 1040.34 886.035   2
 -25   5  -3 3871.80 1187.30   2
  25 -20  -3-97.0975 705.143   3
  20 -25  -3 2157.58 866.558   3
  -5  25  -3 942.003 741.917   1
   5  20  -3 586.106 773.236   1
 -20  -5  -3 1354.07 878.541   4
 -25   5  -3 284.585 665.184   4
 -20  -5   0 1062.64 924.392   2
  -5  25   0 648.721 598.177   1
 -25   5   0 2178.22 865.573   2
  25 -20   0 288.689 755.159   3
  20 -25   0-495.521 785.909   3
   5  20   0 847.864 714.296   1
 -20  -5   0 1554.35 926.924   4
 -25   5   0 922.018 767.468   4
 -20  -5   3 3737.68 1180.64   2
 -25   5   3 2463.68 951.389   2
  -5  25   3 1096.26 668.894   1
  25 -20   3 2058.67 1057.85   3
 -20  -5   3 1877.92 952.841   4
 -25   5   3 3257.54 1032.91   4
 -20  -5   6 593.394 945.091   2
 -25   5   6-322.135 1010.20   2
  20 -25   6 7.06952 849.583   4
 -20  -5   6 530.860 782.135   4
 -25   5   6 692.268 966.702   4
 -19  -6  -4-73.7243 821.643   2
 -25   6  -4-210.564 739.413   2
  25 -19  -4 666.702 738.158   3
  19 -25  -4-413.531 692.151   3
  -6  25  -4 139.886 758.380   1
   6  19  -4 1039.13 825.956   1
 -19  -6  -4-518.050 752.580   4
 -25   6  -4 1253.37 766.522   4
 -19  -6  -1-691.263 852.869   2
 -25   6  -1 348.590 806.789   2
  25 -19  -1 618.706 766.043   3
  19 -25  -1-194.054 661.409   3
   6  19  -1-263.602 623.493   1
 -19  -6  -1 201.001 711.003   4
  -6  25  -1-575.338 669.322   1
 -25   6  -1-111.946 672.242   4
   6  19   2 435.783 514.789   3
 -19  -6   2 692.159 799.297   2
  19 -25   2 1255.84 558.570   2
 -25   6   2 394.088 713.177   2
  25 -19   2 207.281 735.366   3
  19 -25   2-1025.11 727.402   3
  -6  25   2-446.525 622.733   1
 -19  -6   2 289.626 749.892   4
 -25   6   2 482.828 757.229   4
 -19  -6   5 1167.93 830.630   2
 -25   6   5-38.7591 780.315   2
 -19  -6   5 1036.85 809.424   4
 -25   6   5 922.869 851.730   4
 -18  -7  -5 2785.59 1247.54   2
 -25   7  -5-179.779 757.555   2
  25 -18  -5 2168.13 1026.13   3
  18 -25  -5 1647.11 972.619   3
  -7  25  -5 2209.20 966.474   1
   7  18  -5 3063.09 970.079   1
 -25   7  -5 1617.99 1210.37   1
 -18  -7  -5 2139.27 952.289   4
 -25   7  -5 1009.52 824.140   4
 -18  -7  -2 1144.67 891.127   2
 -25   7  -2 189.207 731.801   2
   7  18  -2 940.159 814.395   1
  25 -18  -2-985.459 693.238   3
  18 -25  -2 575.439 702.704   3
  -7  25  -2 113.607 644.460   1
 -18  -7  -2-992.094 779.072   4
 -25   7  -2 640.898 713.626   4
  -7  25   1 934.255 684.419   1
 -18  -7   1 968.575 764.617   2
   7  18   1 598.077 501.909   3
 -25   7   1 1338.39 882.908   2
  18 -25   1 1414.34 655.026   2
   7  18   1 281.220 663.890   1
  25 -18   1 292.591 704.586   3
  18 -25   1-483.950 740.493   3
 -18  -7   1 912.482 849.617   4
 -25   7   1 288.931 652.436   4
 -18  -7   4-310.640 727.258   2
 -25   7   4 858.161 693.352   2
 -18  -7   4-46.4467 736.848   4
  -7  25   4 199.919 619.840   1
 -25   7   4 895.737 838.049   4
   8  17  -6 453.376 872.221   3
 -25   8  -6-390.702 864.397   2
  25 -17  -6 1525.45 956.816   3
  -8  25  -6 1643.90 929.549   1
  17 -25  -6 790.867 901.418   3
   8  17  -6-446.410 731.263   1
 -17  -8  -6 125.985 789.064   4
 -25   8  -6 1160.08 1215.84   1
 -25   8  -6 514.911 725.222   4
 -17  -8  -6 2603.84 1266.83   2
 -17  -8  -3 1361.67 1031.80   2
   8  17  -3 76.3439 644.526   1
 -25   8  -3 766.186 785.428   2
  25 -17  -3 2133.42 880.874   3
  17 -25  -3 1603.91 800.071   3
  -8  25  -3 2323.98 821.933   1
 -17  -8  -3 1829.23 894.744   4
 -25   8  -3 2146.66 933.841   4
   8  17   0 1635.07 756.808   1
 -17  -8   0 1406.64 903.744   2
 -25   8   0-613.082 784.543   2
   8  17   0 183.023 465.400   3
  25 -17   0 109.536 748.769   3
  17 -25   0 193.860 674.083   3
 -17  -8   0 820.143 741.934   4
  -8  25   0-321.208 661.389   1
 -25   8   0 1414.71 707.324   4
   8  17   3 335.756 224.048   3
  17 -25   3 1107.47 397.321   2
 -17  -8   3 1473.60 939.493   2
 -25   8   3 2410.99 931.553   2
  25 -17   3 1800.16 994.370   3
  17 -25   3 1539.37 484.925   2
  -8  25   3 901.811 575.172   1
 -17  -8   3 3038.00 1106.38   4
 -25   8   3 2050.27 924.618   4
 -17  -8   6 371.978 855.837   2
 -25   8   6 1077.97 888.833   2
  17 -25   6 593.705 802.627   4
 -17  -8   6 1381.43 927.807   4
 -25   8   6 1441.48 956.506   4
 -16  -9  -4-27.6108 910.760   2
   9  16  -4 1158.49 827.026   1
 -25   9  -4-263.119 670.547   2
  -9  25  -4 329.982 784.684   1
  25 -16  -4 1351.37 714.987   3
  16 -25  -4 2951.58 929.532   3
 -25   9  -4 1118.04 1068.61   1
 -16  -9  -4 1302.48 887.013   4
 -25   9  -4 1008.64 721.584   4
 -16  -9  -1 1151.28 913.267   2
 -25   9  -1 1420.59 763.262   2
  25 -16  -1-762.838 728.516   3
   9  16  -1 463.304 460.407   3
  16 -25  -1-975.061 788.761   3
   9  16  -1 535.903 602.854   1
  -9  25  -1 1578.32 783.146   1
 -16  -9  -1 1918.44 937.630   4
 -25   9  -1 377.290 710.433   4
   9  16   2 210.706 154.342   3
 -16  -9   2 1446.92 885.389   2
  -9  25   2 1267.30 642.757   1
  16 -25   2 944.260 503.130   2
 -25   9   2 2475.08 904.302   2
  25 -16   2 1095.59 815.654   3
  16 -25   2 891.463 783.153   3
  16 -25   2 1489.47 731.232   2
 -16  -9   2 535.320 707.468   4
 -25   9   2 2627.48 920.266   4
 -16  -9   5-426.087 825.106   2
  -9  25   5 1460.71 776.144   1
 -25   9   5-875.858 791.677   2
  16 -25   5 287.833 809.229   4
 -16  -9   5 816.503 916.888   4
 -25   9   5-34.7193 764.240   4
  10  15  -5 2806.36 1021.41   3
  10  15  -5 1204.25 774.469   1
 -10  25  -5 1728.61 966.714   1
 -25  10  -5 1284.09 791.886   2
  25 -15  -5-302.587 742.424   3
  15 -25  -5 1229.46 938.165   3
 -15 -10  -5 1170.10 905.633   4
 -25  10  -5 470.815 1089.88   1
 -15 -10  -5 351.059 930.240   2
 -25  10  -5 1186.04 802.290   4
 -15 -10  -2 1552.67 1042.96   2
  10  15  -2 451.523 716.988   1
 -25  10  -2 15.4845 635.754   2
  25 -15  -2-976.539 701.586   3
 -10  25  -2-947.401 766.382   1
  15 -25  -2-177.573 691.471   3
  10  15  -2 1408.77 587.957   3
 -25  10  -2-120.160 848.085   1
 -15 -10  -2-193.158 643.372   4
 -25  10  -2 1178.43 670.902   4
  10  15   1 356.928 225.953   3
 -15 -10   1 581.353 678.921   2
  10  15   1 351.530 220.785   3
 -25  10   1 1283.00 798.203   2
  25 -15   1 66.1514 740.673   3
  15 -25   1 136.833 516.172   2
  15 -25   1 1756.33 870.295   3
  15 -25   1 497.394 684.605   2
 -15 -10   1 613.851 782.563   4
 -10  25   1 801.576 667.252   1
 -25  10   1 422.885 731.179   4
 -10  25   4 806.576 609.338   1
 -15 -10   4 1179.20 827.329   2
 -25  10   4 2554.36 968.450   2
  15 -25   4 413.286 805.139   4
 -15 -10   4 689.508 804.289   4
 -25  10   4-462.951 764.929   4
  11  14  -6 1074.86 957.458   3
 -11  25  -6 337.679 833.398   1
  11  14  -6 401.680 741.070   1
 -25  11  -6 813.188 768.862   2
  25 -14  -6 328.776 785.996   3
  14 -25  -6 588.683 879.453   3
 -14 -11  -6 890.107 871.618   4
 -25  11  -6-1204.57 1245.48   1
 -14 -11  -6 1497.95 1006.47   2
 -25  11  -6 732.752 771.374   4
  11  14  -3 2372.04 864.548   3
 -11  25  -3 4389.84 1044.50   1
 -25  11  -3 1151.87 748.674   2
  25 -14  -3 1956.28 844.983   3
  14 -25  -3 509.090 704.482   3
 -14 -11  -3 3325.16 1035.58   4
 -25  11  -3 2765.78 1309.23   1
 -25  11  -3 3242.05 916.180   4
 -14 -11  -3 4939.14 1405.65   2
  11  14  -3 2776.01 900.085   1
  11  14   0 570.103 342.319   3
 -14 -11   0-580.103 758.069   2
 -25  11   0 1460.55 748.441   2
  11  14   0 383.235 304.742   3
  25 -14   0 121.979 658.877   3
  14 -25   0 813.107 845.876   3
 -11  25   0 959.673 746.002   1
 -25  11   0 685.280 801.598   1
 -14 -11   0 32.2076 672.292   4
 -25  11   0 1389.99 767.895   4
 -14 -11   3 2110.90 889.694   2
 -11  25   3 1781.40 614.215   1
  14 -25   3 804.178 309.832   2
 -25  11   3 1946.16 943.678   2
  25 -14   3-156.381 744.087   3
  14 -25   3 2793.13 854.695   4
 -14 -11   3 244.539 715.121   4
  14 -25   3 1048.23 411.699   2
 -25  11   3 2272.53 927.510   4
 -14 -11   6 1355.61 976.074   2
 -25  11   6 1841.69 1092.36   2
  14 -25   6 754.606 820.110   4
 -25  11   6-9.31734 528.398   1
 -14 -11   6 2048.99 948.787   4
  12  13  -4 117.945 727.637   3
 -12  25  -4 1685.16 834.675   1
 -25  12  -4 690.526 653.513   2
  25 -13  -4 329.454 714.624   3
  13 -25  -4 2152.66 842.406   3
 -13 -12  -4 1237.49 874.922   4
 -25  12  -4 1226.28 1054.07   1
  12  13  -4-331.159 688.039   1
 -13 -12  -4-349.647 947.474   2
 -25  12  -4-707.354 757.109   4
 -13 -12  -1 711.625 770.906   2
  12  13  -1 913.462 509.718   3
 -12  25  -1 1082.13 870.740   1
 -25  12  -1 1794.19 747.381   2
  25 -13  -1 1256.84 707.040   3
  12  13  -1 606.463 389.950   3
  13 -25  -1 343.519 693.129   3
 -25  12  -1 1380.08 868.142   1
 -13 -12  -1 1004.59 832.993   4
  12  13  -1 1691.61 814.822   1
 -25  12  -1 1472.93 761.979   4
 -13 -12   2 597.954 755.893   2
 -25  12   2 828.270 752.162   2
  25 -13   2 1448.53 850.962   3
  13 -25   2 945.680 547.786   2
  13 -25   2 663.487 786.658   4
 -25  12   2 898.984 743.963   1
  13 -25   2 1141.99 708.932   2
 -13 -12   2 2004.56 908.321   4
 -12  25   2 1748.98 690.993   1
 -25  12   2 135.736 682.373   4
 -25  12   5 2139.46 1043.14   4
 -13 -12   5 204.491 768.768   2
 -25  12   5 1150.48 929.505   2
  13 -25   5 547.259 844.810   4
 -25  12   5 1104.51 574.701   1
 -13 -12   5 853.902 806.756   4
 -12  25   5 683.063 606.628   1
 -13  25  -5-59.1090 753.932   1
 -25  13  -5 1386.55 865.618   4
  13  12  -5 387.754 766.957   3
 -25  13  -5 654.373 622.264   2
  25 -12  -5-114.574 766.733   3
  12 -25  -5 1963.10 928.809   3
 -12 -13  -5-1496.60 938.693   4
 -12 -13  -5 193.303 922.625   2
 -25  13  -5-476.601 1059.49   1
  13  12  -5-390.664 751.231   1
 -12 -13  -2 511.706 842.683   2
  13  12  -2 1231.33 768.132   1
  13  12  -2-117.139 541.586   3
 -13  25  -2 671.012 630.886   1
 -25  13  -2 1570.33 759.876   2
  25 -12  -2 589.693 617.929   3
  12 -25  -2 58.3445 777.007   3
 -12 -13  -2 1094.11 782.899   4
 -25  13  -2 2657.77 1117.58   1
 -25  13  -2 2527.24 822.963   4
 -25  13   1-41.5327 645.831   4
 -12 -13   1-1024.33 747.576   2
 -25  13   1-313.265 646.019   2
  25 -12   1 1426.28 708.880   3
 -13  25   1 22.3884 562.506   1
  12 -25   1 715.760 769.080   3
  12 -25   1-384.963 766.962   4
  12 -25   1 1242.59 797.826   2
 -12 -13   1-52.2672 743.056   4
 -25  13   1 1021.35 752.360   1
 -25  13   4 2147.82 959.539   4
 -12 -13   4 544.487 785.653   2
 -25  13   4 889.341 880.651   2
 -13  25   4 375.136 498.030   1
  12 -25   4-231.681 757.571   4
 -25  13   4 959.226 615.966   1
 -12 -13   4 204.300 718.429   4
 -25  14  -6 1358.70 1120.99   1
  14  11  -6-487.339 754.720   1
  14  11  -6 335.723 778.136   3
 -25  14  -6 883.775 639.926   2
  25 -11  -6 1572.97 970.135   3
  11 -25  -6 1145.26 843.677   3
 -11 -14  -6 459.614 758.134   4
 -11 -14  -6 3683.38 1488.96   2
 -14  25  -6 872.797 818.184   1
 -14  25  -3 2785.79 996.609   1
 -25  14  -3 1797.87 798.608   4
  14  11  -3 2315.34 735.047   3
  25 -11  -3 1439.91 790.386   3
 -25  14  -3 2031.63 720.209   2
  11 -25  -3 469.555 715.389   3
  14  11  -3 935.409 723.201   1
 -11 -14  -3 928.073 792.904   4
 -25  14  -3 2187.89 1142.30   1
 -11 -14  -3 2119.06 1151.72   2
 -25  14   0 729.638 631.822   4
 -11 -14   0 1103.90 900.092   2
 -14  25   0 1283.41 674.699   1
  14  11   0 303.813 153.561   3
 -25  14   0 2448.96 810.234   2
  25 -11   0 1570.56 737.990   3
  11 -25   0 1955.42 865.162   3
  11 -25   0 1486.09 770.524   4
  11 -25   0 514.229 775.188   2
 -11 -14   0 1603.44 877.229   4
 -25  14   0 739.597 685.269   1
 -25  14   3 2282.00 923.715   4
 -11 -14   3 2671.32 1026.01   2
 -25  14   3 1961.99 920.375   2
  11 -25   3 2136.36 996.858   4
 -11 -14   3 2450.33 964.787   4
 -25  14   3 2610.75 772.149   1
 -14  25   3 1174.54 591.996   1
  11 -25   3 1401.41 524.112   2
 -11 -14   6 129.941 817.401   2
  11 -25   6 471.756 731.608   4
 -11 -14   6-550.579 717.710   4
  15  10  -4 285.195 673.968   3
  25 -10  -4 1123.00 816.147   3
 -25  15  -4 1528.39 712.367   2
  10 -25  -4 662.962 719.865   3
  15  10  -4 1822.81 854.168   1
  10 -25  -4 256.598 906.016   2
 -10 -15  -4 545.107 786.283   4
 -15  25  -4-324.967 708.511   1
 -10 -15  -4 541.693 1042.09   2
 -25  15  -4 2099.06 1181.13   1
 -10 -15  -1 1950.65 938.829   2
 -25  15  -1 1387.33 751.417   4
 -15  25  -1 626.873 699.919   1
  15  10  -1 706.421 366.815   3
  25 -10  -1 454.643 580.470   3
 -25  15  -1-489.355 676.467   2
  10 -25  -1-347.135 735.601   3
  15  10  -1 530.388 335.457   3
  10 -25  -1 89.0854 723.614   4
  10 -25  -1 341.333 710.728   2
 -10 -15  -1-58.5445 707.082   4
 -25  15  -1 1120.98 932.757   1
 -25  15   2 904.329 779.342   4
 -10 -15   2-281.658 765.774   2
 -25  15   2-518.379 735.302   2
 -15  25   2 641.217 566.356   1
  25 -10   2-640.219 739.952   3
  10 -25   2 231.893 752.349   4
 -10 -15   2-708.802 687.016   4
  10 -25   2 81.3236 638.782   2
 -25  15   2 715.065 667.983   1
 -25  15   5 221.667 423.567   1
 -15  25   5 1143.39 567.788   1
 -10 -15   5 1615.04 955.531   2
  10 -25   5-674.718 890.216   4
 -10 -15   5-480.372 720.301   4
 -25  16  -5 1542.15 1151.31   1
  16   9  -5 518.263 801.508   3
  25  -9  -5-272.870 726.757   3
 -25  16  -5 319.793 526.894   2
   9 -25  -5-691.526 814.123   3
   9 -25  -5-219.589 908.580   4
   9 -25  -5 723.925 1093.04   2
  -9 -16  -5 24.9348 714.164   4
 -16  25  -5 913.924 883.812   1
  -9 -16  -5 2510.37 1291.33   2
  16   9  -5-191.280 720.376   1
  16   9  -2 1334.68 539.880   3
  25  -9  -2 768.095 668.447   3
 -25  16  -2 400.156 678.171   2
   9 -25  -2 1986.24 880.930   3
   9 -25  -2 2566.88 972.848   4
   9 -25  -2 275.052 782.542   2
  -9 -16  -2 1939.72 962.715   4
 -16  25  -2-880.450 745.305   1
  -9 -16  -2 2444.18 1071.88   2
 -25  16  -2 923.459 839.162   1
  -9 -16   1 284.959 918.684   2
 -16  25   1 94.7564 552.123   1
  25  -9   1 827.464 639.703   3
 -25  16   1 897.773 781.278   2
   9 -25   1 1140.00 820.935   4
  -9 -16   1 1133.10 785.823   4
   9 -25   1 228.343 806.013   2
 -25  16   1 84.7766 616.124   1
 -25  16   4 1660.29 640.252   1
 -16  25   4-55.7487 497.732   1
   9 -25   4-779.677 434.375   2
  -9 -16   4-526.776 737.326   2
   9 -25   4-763.771 767.261   4
  -9 -16   4 10.8766 713.819   4
 -25  17  -6-405.537 1091.57   1
  17   8  -6 56.4608 888.459   3
  25  -8  -6 1286.03 989.555   3
 -25  17  -6 1109.18 544.807   2
   8 -25  -6 1251.72 836.925   3
   8 -25  -6-232.571 1025.54   4
   8 -25  -6 3163.02 1571.84   2
  -8 -17  -6 1473.59 837.402   4
 -17  25  -6 264.850 809.051   1
  -8 -17  -6 2535.66 1454.93   2
 -25  17  -3 2797.08 1202.12   1
  17   8  -3 1628.46 734.458   3
  25  -8  -3 1275.44 722.134   3
 -25  17  -3 2773.66 748.559   2
   8 -25  -3 602.242 790.745   3
   8 -25  -3 1079.04 818.314   4
   8 -25  -3 2942.21 1179.69   2
  -8 -17  -3 1256.32 770.467   4
 -17  25  -3 3524.33 1043.53   1
  -8 -17  -3 2235.44 1161.20   2
 -17  25   0 1636.43 764.283   1
  -8 -17   0 650.733 934.014   2
 -25  17   0 2080.80 796.146   1
  25  -8   0 1065.46 581.304   3
 -25  17   0 630.295 711.130   2
   8 -25   0-18.8321 746.414   3
   8 -25   0 1078.09 799.132   4
  -8 -17   0 558.394 802.201   4
   8 -25   0 2054.61 1029.15   2
   8 -25   3 763.312 556.785   2
 -25  17   3 1592.19 697.875   1
  -8 -17   3-58.3274 740.208   2
 -17  25   3 1963.42 665.795   1
   8 -25   3 1358.40 867.204   4
  -8 -17   3 1554.97 891.812   4
  -8 -17   6 883.755 886.567   2
   8 -25   6 1190.75 820.457   4
  -8 -17   6 627.718 904.272   4
 -25  18  -4-1643.74 1099.34   1
  18   7  -4 1120.47 774.491   3
  25  -7  -4-424.735 685.883   3
   7 -25  -4 1154.52 746.892   3
 -25  18  -4-103.841 462.604   2
   7 -25  -4 721.014 843.174   4
   7 -25  -4 349.117 992.012   2
 -18  25  -4 208.363 808.401   1
  -7 -18  -4-1020.65 842.503   4
  -7 -18  -4 328.360 1212.74   2
 -25  18  -1 1996.37 899.481   1
  18   7  -1 829.846 375.195   3
  25  -7  -1 797.763 675.626   3
 -25  18  -1 1077.56 642.445   2
   7 -25  -1 490.389 800.068   3
   7 -25  -1 722.000 847.608   4
  -7 -18  -1-402.500 749.041   4
   7 -25  -1 1621.65 1078.15   2
 -18  25  -1 1234.95 790.174   1
  -7 -18  -1 1701.50 1111.74   2
  -7 -18   2 56.2038 694.554   2
 -25  18   2 946.680 696.927   1
 -18  25   2 6.15207 599.931   1
  25  -7   2-276.911 628.919   3
   7 -25   2 330.499 709.465   4
  -7 -18   2 1181.30 867.988   4
   7 -25   2 222.040 681.927   2
  -7 -18   5 601.256 815.819   2
 -25  18   5 933.902 374.548   1
 -18  25   5 582.253 474.525   1
   7 -25   5 2590.01 1000.44   4
  -7 -18   5 837.582 838.052   4
 -25  19  -5 3001.50 1285.74   1
  19   6  -5 1346.62 929.842   3
  25  -6  -5-215.545 734.481   3
   6 -25  -5-24.4123 713.625   3
 -25  19  -5-116.433 467.564   2
  -6 -19  -5 252.941 351.354   3
   6 -25  -5 1458.38 1106.15   4
 -19  25  -5 556.405 761.207   1
   6 -25  -5 966.863 1023.30   2
  -6 -19  -5 481.996 804.776   4
  -6 -19  -5 90.1008 1152.90   2
 -25  19  -2 2014.65 866.618   1
  19   6  -2 2493.45 640.239   3
  25  -6  -2 496.067 631.599   3
   6 -25  -2 2019.22 902.678   3
 -25  19  -2 1371.35 581.050   2
   6 -25  -2-460.337 877.731   4
 -19  25  -2 1243.78 778.290   1
  -6 -19  -2 1753.38 876.068   4
   6 -25  -2 316.915 855.732   2
  -6 -19  -2 270.825 1017.68   2
  -6 -19   1-94.4152 759.509   2
 -25  19   1 783.049 702.659   1
  25  -6   1 100.325 578.627   3
   6 -25   1 740.754 851.373   4
  -6 -19   1 624.972 894.807   4
   6 -25   1-522.115 808.157   2
 -19  25   1-550.168 691.261   1
   6 -25   4 782.291 641.173   2
  -6 -19   4-232.926 696.100   2
 -25  19   4 1522.40 560.226   1
   6 -25   4 1973.06 1060.79   4
 -19  25   4 1052.62 547.135   1
  -6 -19   4 1464.03 835.232   4
  20   5  -6 1152.82 1035.33   3
 -25  20  -6 1364.25 1146.13   1
  25  -5  -6-1020.03 857.510   3
   5 -25  -6 626.538 801.276   3
 -20  25  -6 1663.88 976.907   1
   5 -25  -6 1821.21 1062.80   4
  -5 -20  -6 1001.36 1010.23   4
   5 -25  -6 2634.47 1412.97   2
  -5 -20  -6 1203.69 1275.46   2
 -25  20  -3 1250.18 920.649   1
  20   5  -3 1662.35 684.497   3
  25  -5  -3-484.243 606.604   3
   5 -25  -3 2104.97 816.450   3
 -20  25  -3 2326.42 898.680   1
   5 -25  -3 2023.09 1025.87   4
  -5 -20  -3 1861.45 942.020   4
   5 -25  -3 878.223 976.126   2
  -5 -20  -3 975.942 965.479   2
 -25  20   0 1385.50 808.110   1
  25  -5   0 674.435 570.142   3
   5 -25   0 28.8161 864.172   4
  -5 -20   0 1151.95 881.373   4
 -20  25   0 642.341 689.807   1
   5 -25   0 1214.75 897.255   2
  -5 -20   0 2217.65 1128.53   2
   5 -25   3 623.062 613.635   2
  -5 -20   3 335.633 686.541   2
 -20  25   3 1055.61 638.984   1
 -25  20   3 823.609 601.611   1
   5 -25   3 1218.71 852.223   4
  -5 -20   3 1967.08 872.773   4
  -5 -20   6 163.083 798.374   2
   5 -25   6-53.4816 827.640   4
  -5 -20   6 205.209 774.660   4
  21   4  -4 935.659 686.366   3
 -25  21  -4-80.0711 835.965   1
  25  -4  -4 804.118 757.664   3
   4 -25  -4 403.463 681.679   3
  -4 -21  -4 450.737 487.056   3
 -21  25  -4 2662.30 1068.31   1
   4 -25  -4 537.864 1025.97   4
  -4 -21  -4 512.316 928.235   4
   4 -25  -4 604.387 1020.50   2
  -4 -21  -4 875.032 1080.14   2
 -25  21  -1 2358.08 941.400   1
  21   4  -1 1554.87 491.064   3
  25  -4  -1 1865.98 672.738   3
   4 -25  -1 1155.39 831.438   3
 -21  25  -1 1978.45 867.412   1
   4 -25  -1 2145.62 1013.87   4
  -4 -21  -1 1671.95 856.757   4
   4 -25  -1 503.426 1022.03   2
  -4 -21  -1 2669.06 1234.87   2
  -4 -21   2 868.487 740.610   2
 -25  21   2 903.799 658.377   1
   4 -25   2 123.310 804.520   4
  -4 -21   2 209.663 811.608   4
 -21  25   2 686.046 663.721   1
   4 -25   2 988.783 802.342   2
   4 -25   5 474.585 682.674   2
  -4 -21   5 139.661 836.884   2
   4 -25   5 1295.75 970.207   4
  -4 -21   5 1191.89 859.270   4
  22   3  -5 365.293 921.142   3
  25  -3  -5 1469.17 945.400   3
 -25  22  -5 1002.51 934.242   1
   3 -25  -5 26.9888 658.491   3
  -3 -22  -5-199.652 478.993   3
 -22  25  -5 155.555 806.796   1
   3 -25  -5-257.167 913.649   4
  -3 -22  -5-1018.23 920.544   4
   3 -25  -5 23.9662 1073.24   2
  -3 -22  -5-72.3481 1159.51   2
 -25  22  -2 924.187 814.154   1
  22   3  -2 485.856 527.589   3
  25  -3  -2 697.490 669.292   3
   3 -25  -2 1552.42 828.890   3
 -22  25  -2 616.667 705.301   1
   3 -25  -2 1211.59 972.609   4
  -3 -22  -2 1105.54 882.758   4
   3 -25  -2-796.164 1052.71   2
  -3 -22  -2 1147.90 1024.15   2
  -3 -22   1 1348.78 975.972   2
 -25  22   1 1183.03 716.786   1
  25  -3   1 376.165 484.795   3
   3 -25   1 46.7980 830.373   4
  -3 -22   1-35.9924 757.892   4
 -22  25   1 1282.78 716.414   1
   3 -25   1 1610.58 1007.88   2
   3 -25   4-418.885 742.087   2
  -3 -22   4-194.522 702.331   2
 -22  25   4 932.532 501.279   1
 -25  22   4 921.234 530.570   1
   3 -25   4 1231.40 1002.54   4
  -3 -22   4-6.36566 801.811   4
  23   2  -3 398.962 623.297   3
 -25  23  -3 1469.01 933.388   1
  25  -2  -3 1421.18 747.557   3
 -23  25  -3 1392.72 858.062   1
   2 -25  -3 1050.93 747.412   3
   2 -25  -3 601.794 908.187   4
  -2 -23  -3 109.919 827.692   4
   2 -25  -3-552.039 1072.48   2
  -2 -23  -3 525.706 1126.15   2
 -25  23   0-772.980 723.922   1
  25  -2   0 285.281 489.762   3
  23   2   0 798.276 312.268   3
 -23  25   0-27.8561 656.871   1
   2 -25   0 1554.82 949.489   4
  -2 -23   0 1240.58 946.990   4
   2 -25   0 1574.44 1118.33   2
  -2 -23   0 178.257 1076.33   2
   2 -25   3 304.759 680.930   2
  -2 -23   3 827.165 727.667   2
 -25  23   3 685.046 555.962   1
   2 -25   3 1558.75 1002.38   4
  -2 -23   3-730.953 831.142   4
 -23  25   3 342.548 524.044   1
  24   1  -4 659.059 698.057   3
  25  -1  -4 658.866 710.525   3
 -25  24  -4 1445.71 934.066   1
 -24  25  -4 1321.39 878.783   1
   1 -25  -4-138.699 648.415   3
  -1 -24  -4 1424.43 705.854   3
   1 -25  -4 1503.14 1080.15   4
  -1 -24  -4-349.125 831.441   4
   1 -25  -4 1852.90 1276.17   2
  -1 -24  -4 2082.40 1303.23   2
  24   1  -1 1740.15 598.774   3
  25  -1  -1 473.814 522.133   3
 -25  24  -1 726.950 753.380   1
 -24  25  -1 3273.40 949.514   1
   1 -25  -1-269.543 851.175   4
  -1 -24  -1 417.430 904.303   4
   1 -25  -1 1018.05 1194.12   2
  -1 -24  -1 824.069 1006.64   2
   1 -25   2 1191.23 939.605   2
  -1 -24   2 1301.91 882.456   2
 -25  24   2 1092.72 752.271   1
   1 -25   2 849.298 988.264   4
  -1 -24   2 1327.57 905.192   4
 -24  25   2 1398.58 703.308   1
   1 -25   5-1267.96 949.677   2
  -1 -24   5 686.306 971.784   2
   1 -25   5 270.372 900.372   4
  -1 -24   5 737.699 906.350   4
  25   0  -2 1372.79 639.520   3
 -25  25  -2 1889.98 935.804   1
   0 -25  -2-933.754 920.154   4
   0 -25  -2 1865.69 1296.26   2
 -25  25   1-399.203 647.748   1
   0 -25   1-302.536 846.427   4
   0 -25   1 91.3283 1005.73   2
 -25  25   4 1474.31 588.949   1
   0 -25   4 751.498 804.313   2
   0 -25   4 2464.33 1134.65   4
 -26   0  -2 2338.68 1120.41   2
  26 -26  -2 492.115 843.794   3
   0  26  -2 1462.61 960.965   1
 -26   0  -2 1844.31 939.850   4
 -26   0   1 1430.47 1141.01   2
  26 -26   1-1149.74 996.908   3
   0  26   1 655.687 758.290   1
 -26   0   1 2452.46 1072.54   4
 -25  -1  -3 1727.73 1062.72   2
 -26   1  -3 2366.40 1122.77   2
  -1  26  -3 36.1948 747.182   1
  26 -25  -3 261.219 778.272   3
  25 -26  -3-661.508 854.755   3
   1  25  -3 424.767 739.706   1
 -25  -1  -3 1506.47 1007.90   4
 -26   1  -3 243.271 806.334   4
   1  25   0 1243.95 832.438   1
 -25  -1   0-1255.25 871.638   2
 -26   1   0 1579.24 1083.09   2
  26 -25   0 213.400 919.300   3
  25 -26   0 928.543 780.690   3
  -1  26   0-411.222 705.568   1
 -25  -1   0-334.197 817.309   4
 -26   1   0 2201.89 1079.49   4
  -1  26   3 339.249 699.005   1
 -25  -1   3-99.1588 800.709   2
 -26   1   3 1139.87 1002.71   2
   1  25   3 908.000 851.004   1
  26 -25   3-1133.19 891.297   3
  25 -26   3-294.267 828.971   3
 -25  -1   3 731.482 950.282   4
 -26   1   3-108.636 951.082   4
  -2  26  -4-1314.48 905.854   1
 -24  -2  -4 143.875 872.604   2
 -26   2  -4-1104.72 1032.51   2
   2  24  -4 529.279 874.725   1
  26 -24  -4 1045.63 910.190   3
  24 -26  -4 2000.91 1087.85   3
 -24  -2  -4 876.064 877.835   4
 -26   2  -4 351.640 794.735   4
 -24  -2  -1 884.750 1010.23   2
 -26   2  -1 2897.27 1142.15   2
  26 -24  -1-736.205 800.812   3
  -2  26  -1-4.98096 688.566   1
  24 -26  -1-35.4907 720.533   3
 -24  -2  -1 1775.49 955.909   4
 -26   2  -1 1360.85 1002.06   4
   2  24  -1 74.8681 717.467   1
 -24  -2   2 1021.87 820.425   2
 -26   2   2 378.340 807.007   2
  26 -24   2 1105.97 829.399   3
  24 -26   2-321.218 927.760   3
  -2  26   2 758.607 791.926   1
 -24  -2   2-1527.76 943.775   4
   2  24   2-914.345 804.993   1
 -26   2   2 715.139 781.960   4
  -3  26  -2 1177.18 779.923   1
 -23  -3  -2 320.186 897.356   2
 -26   3  -2 2372.13 1106.54   2
  26 -23  -2 970.720 827.466   3
  23 -26  -2 728.783 864.784   3
   3  23  -2 988.213 850.407   1
 -23  -3  -2 1476.50 832.009   4
 -26   3  -2 1580.05 921.984   4
   3  23   1 1200.02 773.282   1
 -23  -3   1 647.117 784.876   2
 -26   3   1 96.7325 797.450   2
  26 -23   1-986.309 866.214   3
  23 -26   1-216.509 791.193   3
  -3  26   1 1010.38 821.772   1
 -23  -3   1-613.191 919.458   4
 -26   3   1 2101.98 908.471   4
 -23  -3   4 762.535 872.154   2
 -26   3   4 560.083 798.754   2
 -23  -3   4 2821.62 1221.26   4
 -26   3   4 924.570 993.044   4
  -3  26   4 2163.91 841.378   1
 -22  -4  -3 795.360 1021.82   2
 -26   4  -3-156.902 836.223   2
  26 -22  -3 679.943 839.454   3
  22 -26  -3 1008.58 850.317   3
   4  22  -3 1399.56 831.055   1
 -22  -4  -3 2357.88 1082.60   4
 -26   4  -3 923.423 836.559   4
  -4  26  -3 2528.69 1015.00   1
 -22  -4   0 2181.45 1018.96   2
 -26   4   0 2590.20 969.013   2
  -4  26   0 2530.93 926.357   1
  26 -22   0 3750.06 1098.36   3
  22 -26   0 1753.39 931.451   3
   4  22   0 616.315 701.615   1
 -22  -4   0 2678.79 1063.24   4
 -26   4   0 3338.91 1056.96   4
 -22  -4   3-903.566 810.387   2
 -26   4   3 962.003 777.273   2
  26 -22   3-51.9122 853.284   3
  -4  26   3 802.069 719.826   1
 -22  -4   3 1868.48 1062.84   4
 -26   4   3-274.341 860.989   4
 -21  -5  -4 1454.59 962.142   2
 -26   5  -4-689.961 884.802   2
  26 -21  -4 1.77795 726.193   3
  21 -26  -4 187.574 718.267   3
   5  21  -4-569.304 777.276   1
  -5  26  -4 963.167 901.482   1
 -21  -5  -4 1906.20 1012.47   4
 -26   5  -4 959.425 757.218   4
  -5  26  -1 56.6668 660.546   1
 -21  -5  -1-353.829 887.861   2
 -26   5  -1 832.722 869.521   2
   5  21  -1 1013.34 783.595   1
  26 -21  -1-295.729 699.196   3
  21 -26  -1 692.621 737.732   3
 -21  -5  -1 259.631 796.755   4
 -26   5  -1 1515.79 886.934   4
 -21  -5   2 561.750 728.273   2
 -26   5   2 1479.64 924.408   2
   5  21   2 1320.47 836.414   1
  26 -21   2 680.364 874.576   3
  21 -26   2 352.567 776.443   3
 -21  -5   2 614.213 812.523   4
 -26   5   2 942.302 852.729   4
  -5  26   2-502.132 606.443   1
 -21  -5   5 1318.17 992.675   2
 -26   5   5 767.565 824.698   2
 -21  -5   5-1017.77 923.940   4
 -26   5   5 2081.53 1112.52   4
 -20  -6  -5-968.985 1175.26   2
 -26   6  -5 336.694 924.281   2
  26 -20  -5-555.140 810.371   3
  20 -26  -5 141.321 816.381   3
   6  20  -5 1375.15 857.142   1
  -6  26  -5-349.359 779.950   1
 -20  -6  -5 847.455 865.291   4
 -26   6  -5 1765.15 930.520   4
 -20  -6  -2 1240.34 1015.04   2
   6  20  -2 1149.74 916.508   1
 -26   6  -2 781.645 843.688   2
  26 -20  -2 498.726 795.659   3
  20 -26  -2 1778.90 822.658   3
  -6  26  -2 2156.29 968.895   1
 -20  -6  -2 2190.89 995.447   4
 -26   6  -2 1606.92 834.288   4
 -20  -6   1 1286.83 918.453   2
 -26   6   1 2159.55 991.636   2
  -6  26   1 1061.35 714.982   1
   6  20   1 298.281 762.213   1
  26 -20   1 711.057 781.566   3
  20 -26   1 339.377 788.595   3
 -20  -6   1 1116.26 836.389   4
 -26   6   1 264.496 751.240   4
 -20  -6   4 1122.46 857.524   2
 -26   6   4 1492.05 883.779   2
  -6  26   4-51.5932 701.180   1
 -20  -6   4 2105.72 1024.45   4
 -26   6   4 1825.42 985.166   4
 -19  -7  -3 1079.45 880.826   2
   7  19  -3 1353.40 835.714   1
 -26   7  -3 1247.60 872.815   2
  26 -19  -3 706.631 874.037   3
  19 -26  -3-1224.64 832.181   3
  -7  26  -3 1027.12 815.390   1
 -19  -7  -3-21.7566 820.656   4
 -26   7  -3 1553.08 797.375   4
  -7  26   0 1453.25 807.794   1
 -19  -7   0 1617.62 1011.75   2
 -26   7   0 2527.74 1031.29   2
   7  19   0 902.260 600.399   3
  26 -19   0 1382.20 883.307   3
  19 -26   0 471.368 686.763   3
   7  19   0 1691.52 815.723   1
 -19  -7   0 1520.49 903.579   4
 -26   7   0 3532.95 1079.11   4
  -7  26   3 744.400 667.211   1
 -19  -7   3 445.242 759.366   2
 -26   7   3 961.457 862.594   2
  26 -19   3 51.7151 815.994   3
  19 -26   3 245.410 460.778   2
 -19  -7   3 402.170 870.444   4
 -26   7   3 902.303 857.878   4
 -18  -8  -4 1376.70 1022.68   2
   8  18  -4 1574.75 829.468   1
 -26   8  -4 548.206 732.022   2
  26 -18  -4 579.013 800.343   3
  18 -26  -4 805.975 723.404   3
  -8  26  -4 740.322 772.649   1
 -26   8  -4 1149.67 995.132   1
 -18  -8  -4 398.897 761.763   4
 -26   8  -4 333.547 725.446   4
 -18  -8  -1-918.116 881.553   2
   8  18  -1 1059.58 731.634   1
 -26   8  -1 225.427 708.456   2
  26 -18  -1 666.294 721.862   3
  18 -26  -1 995.456 768.900   3
  -8  26  -1-503.743 690.302   1
 -18  -8  -1 527.366 893.718   4
 -26   8  -1 222.446 695.370   4
 -18  -8   2 1468.47 985.814   2
 -26   8   2 1956.82 847.258   2
  -8  26   2 1761.98 787.407   1
  26 -18   2 69.8387 798.559   3
  18 -26   2 2403.62 906.080   3
  18 -26   2 894.520 651.875   2
 -18  -8   2 327.426 731.300   4
 -26   8   2 1540.09 811.610   4
 -18  -8   5 618.558 840.793   2
 -26   8   5 1310.31 959.678   2
  18 -26   5 2323.16 982.296   4
 -18  -8   5 536.830 863.964   4
 -26   8   5 302.480 835.601   4
   9  17  -5 1219.82 881.795   1
   9  17  -5 377.479 768.244   3
 -26   9  -5 720.782 790.401   2
  26 -17  -5-321.251 844.580   3
  -9  26  -5 436.283 761.515   1
  17 -26  -5 28.2409 837.738   3
 -26   9  -5 2206.31 1214.66   1
 -17  -9  -5-196.906 766.764   4
 -26   9  -5 3270.23 996.851   4
 -17  -9  -5 1271.07 1133.96   2
 -17  -9  -2 1045.76 880.920   2
 -26   9  -2 2290.33 885.478   2
  26 -17  -2-2167.67 868.192   3
  17 -26  -2-140.408 705.472   3
  -9  26  -2 1495.71 873.492   1
 -17  -9  -2 3297.55 1113.08   4
   9  17  -2 1694.18 856.444   1
 -26   9  -2-206.503 732.374   4
  -9  26   1 893.787 673.605   1
 -17  -9   1 125.332 722.382   2
   9  17   1-56.3937 350.200   3
 -26   9   1 612.440 760.474   2
  26 -17   1 1831.04 801.059   3
  17 -26   1-689.883 780.365   3
 -17  -9   1-179.462 759.130   4
 -26   9   1 2089.78 927.761   4
 -17  -9   4-132.550 809.166   2
 -26   9   4 1197.58 833.806   2
  -9  26   4-215.097 594.489   1
  17 -26   4 1178.52 890.257   4
 -17  -9   4 921.025 851.413   4
 -26   9   4 958.112 912.825   4
  10  16  -6 1775.53 961.004   1
  10  16  -6 1054.71 923.874   3
 -26  10  -6 1114.72 793.035   2
 -10  26  -6 2832.49 1116.47   1
  26 -16  -6 1667.20 887.152   3
  16 -26  -6 404.110 849.671   3
 -16 -10  -6 3426.82 1072.59   4
 -26  10  -6 2497.10 1391.26   1
 -16 -10  -6 826.948 1052.78   2
 -26  10  -6 2439.72 997.075   4
 -16 -10  -3 1424.11 1053.60   2
  10  16  -3 1595.41 761.323   3
 -26  10  -3 918.039 748.637   2
  26 -16  -3 793.868 693.401   3
 -10  26  -3 645.366 758.314   1
  16 -26  -3 742.715 806.477   3
 -26  10  -3 471.601 1129.93   1
  10  16  -3 951.526 830.890   1
 -16 -10  -3 1793.76 946.006   4
 -26  10  -3 1410.14 873.837   4
 -16 -10   0 3335.86 1129.64   2
  10  16   0 1181.67 778.354   1
 -26  10   0 2403.40 902.933   2
  10  16   0 2144.16 510.729   3
  26 -16   0 2511.39 970.508   3
  16 -26   0 3245.87 976.888   3
 -10  26   0 2921.95 869.269   1
 -16 -10   0 4191.37 1150.44   4
 -26  10   0 2248.56 894.359   4
 -16 -10   3 119.671 746.826   2
 -26  10   3-423.313 788.737   2
 -10  26   3 668.636 642.197   1
  26 -16   3 113.404 856.613   3
  16 -26   3-73.5761 361.787   2
 -16 -10   3-1037.40 902.845   4
 -26  10   3-621.398 753.686   4
 -26  10   6 1716.88 1059.50   4
 -16 -10   6 2010.29 1101.78   2
 -26  10   6 1410.68 974.639   2
  16 -26   6 1196.37 872.252   4
 -16 -10   6 2708.98 1064.85   4
  11  15  -4 655.832 734.770   3
 -11  26  -4 754.324 820.059   1
 -26  11  -4-15.4105 642.782   2
  26 -15  -4 233.738 668.051   3
  15 -26  -4 67.2139 710.414   3
  11  15  -4 794.225 859.843   1
 -15 -11  -4-388.822 751.429   4
 -26  11  -4 2570.90 1377.23   1
 -26  11  -4 270.626 714.026   4
 -15 -11  -4 802.608 868.405   2
  11  15  -1 1934.72 655.239   3
 -15 -11  -1 2129.35 1024.61   2
  11  15  -1 3291.32 995.768   1
 -26  11  -1-108.237 682.588   2
  26 -15  -1 1513.60 885.954   3
  11  15  -1 1282.57 446.708   3
 -11  26  -1 2060.85 784.608   1
  15 -26  -1 3189.99 948.346   3
 -26  11  -1 2801.12 1110.75   1
 -15 -11  -1 1871.21 885.588   4
 -26  11  -1 2708.16 853.359   4
 -11  26   2 1329.62 744.286   1
 -15 -11   2 1107.30 720.068   2
 -26  11   2 903.235 816.232   2
  15 -26   2 446.310 499.484   2
  26 -15   2-536.052 793.107   3
  15 -26   2 1108.21 820.895   3
  15 -26   2 1067.48 718.916   2
 -15 -11   2-114.432 739.336   4
 -26  11   2 1119.70 782.628   4
 -26  11   5-439.450 810.362   4
 -15 -11   5 378.199 775.101   2
 -11  26   5 394.165 598.280   1
 -26  11   5 438.635 937.979   2
  15 -26   5 322.087 788.096   4
 -15 -11   5 475.177 832.347   4
  12  14  -5 1425.98 795.123   3
 -12  26  -5-93.9272 788.591   1
 -26  12  -5-292.996 697.413   2
  26 -14  -5 344.606 799.097   3
  14 -26  -5 1823.92 816.632   3
  12  14  -5 348.720 679.096   1
 -14 -12  -5 1273.74 934.847   4
 -26  12  -5 294.696 1180.80   1
 -14 -12  -5-373.455 1090.98   2
 -26  12  -5 556.258 738.134   4
 -14 -12  -2 372.264 874.037   2
  12  14  -2 470.555 550.661   3
 -12  26  -2 512.701 765.096   1
 -26  12  -2 398.119 687.547   2
  26 -14  -2 1063.53 734.510   3
  14 -26  -2 484.923 754.258   3
  12  14  -2 285.194 786.463   1
 -14 -12  -2-67.3245 756.524   4
 -26  12  -2 1540.36 1081.35   1
 -26  12  -2 360.830 661.823   4
 -14 -12   1-374.473 724.736   2
 -26  12   1 1753.40 854.423   2
  26 -14   1 2351.10 900.937   3
  14 -26   1 1241.91 918.213   3
 -12  26   1 701.249 627.592   1
  14 -26   1-152.591 707.479   2
 -26  12   1 227.438 675.186   1
 -14 -12   1 308.781 779.777   4
 -26  12   1 1288.81 742.923   4
 -26  12   4-6.63122 884.967   4
 -14 -12   4-319.305 744.604   2
 -26  12   4 1076.96 845.863   2
  14 -26   4 447.459 839.451   4
 -26  12   4 625.104 674.206   1
 -12  26   4 504.393 585.277   1
 -14 -12   4 576.721 795.421   4
 -13  26  -6 1136.95 947.349   1
  13  13  -6 3087.23 1166.17   3
 -26  13  -6 1343.86 713.410   2
  26 -13  -6 3664.65 1200.42   3
  13 -26  -6 1191.25 817.290   3
  13  13  -6 2580.51 1086.53   1
 -13 -13  -6 3244.20 1052.48   4
 -13 -13  -6 2475.96 1260.59   2
 -26  13  -6 2105.86 1310.98   1
  13  13  -3 959.115 687.184   3
  13  13  -3-143.010 688.979   1
 -13  26  -3 344.304 729.352   1
 -26  13  -3 155.728 639.666   2
  26 -13  -3 543.920 707.230   3
  13 -26  -3-282.837 720.848   3
 -13 -13  -3 166.679 708.922   4
 -26  13  -3 2221.48 1120.37   1
 -13 -13  -3 930.453 938.699   2
 -26  13  -3-77.1658 682.976   4
 -13 -13   0 3120.04 1039.96   2
  13  13   0 1034.50 277.912   3
  13  13   0 1018.19 264.876   3
 -26  13   0 844.970 726.762   2
 -13  26   0 2942.86 870.594   1
  26 -13   0 2996.56 927.205   3
  13 -26   0 355.419 737.213   3
  13 -26   0 2721.66 965.802   2
 -13 -13   0 2123.31 975.506   4
 -26  13   0 2910.22 1042.13   1
 -26  13   0 3534.66 1012.33   4
 -26  13   3 544.356 846.649   4
 -13  26   3 611.553 604.934   1
 -13 -13   3-205.800 755.523   2
 -26  13   3 1112.95 846.914   2
  13 -26   3 571.772 785.525   4
 -26  13   3 34.2674 566.582   1
 -13 -13   3 265.719 810.677   4
  13 -26   3-95.9437 391.356   2
 -13 -13   6 1421.83 1002.44   2
  13 -26   6 252.030 772.731   4
 -13 -13   6 2708.57 997.828   4
 -26  14  -4 1203.20 856.159   4
 -14  26  -4-93.5756 815.224   1
  14  12  -4 1081.67 908.467   1
  14  12  -4 785.821 828.484   3
 -26  14  -4 1050.60 667.062   2
  26 -12  -4 114.457 721.078   3
  12 -26  -4-664.933 856.535   3
 -12 -14  -4 220.811 717.025   4
 -26  14  -4 967.989 1083.95   1
 -12 -14  -4 39.4545 1070.82   2
 -26  14  -1 526.206 625.059   4
 -12 -14  -1 376.004 870.242   2
  14  12  -1 545.162 402.492   3
 -14  26  -1-468.447 721.269   1
 -26  14  -1 1459.95 775.130   2
  26 -12  -1-84.6217 703.668   3
  14  12  -1 301.654 307.189   3
  12 -26  -1 1440.58 745.701   3
  12 -26  -1 1066.65 829.566   2
 -12 -14  -1 139.210 714.802   4
 -26  14  -1 737.078 822.174   1
 -26  14   2 813.498 822.856   4
 -12 -14   2 591.703 831.359   2
 -26  14   2-560.092 785.376   2
  26 -12   2 1417.87 896.291   3
  12 -26   2 355.121 729.147   4
 -14  26   2-41.2494 599.069   1
  12 -26   2 1351.55 785.914   2
 -26  14   2-317.476 615.538   1
 -12 -14   5 896.852 863.457   2
 -14  26   5 97.8361 550.404   1
  12 -26   5 1237.41 905.213   4
 -12 -14   5 525.792 848.683   4
 -26  14   5 1151.08 646.063   1
 -26  15  -5 1759.74 1391.22   1
  15  11  -5 1575.87 933.748   3
  15  11  -5 971.789 827.951   1
  26 -11  -5 43.3566 736.071   3
 -26  15  -5 779.552 627.234   2
  11 -26  -5-1792.04 1010.25   3
 -11 -15  -5 911.785 901.577   4
 -11 -15  -5 183.191 1024.42   2
 -15  26  -5 503.742 843.960   1
 -26  15  -2 1943.33 834.027   4
 -15  26  -2 961.658 769.384   1
  15  11  -2 1575.42 584.596   3
  26 -11  -2 837.720 673.843   3
 -26  15  -2 628.951 717.027   2
  11 -26  -2 1430.50 878.810   3
  11 -26  -2 1075.62 878.715   2
 -11 -15  -2-246.215 753.342   4
 -26  15  -2 508.454 831.172   1
 -11 -15  -2 429.032 842.577   2
 -26  15   1 1901.79 841.172   4
 -11 -15   1 1564.78 904.452   2
 -15  26   1 2863.82 825.636   1
  26 -11   1 2360.00 827.880   3
 -26  15   1 1929.95 879.308   2
  11 -26   1-407.688 715.037   3
  11 -26   1 35.6549 766.398   4
  11 -26   1 2143.66 1032.02   2
 -11 -15   1 689.447 727.827   4
 -26  15   1 2603.12 859.482   1
  11 -26   4 590.433 278.482   2
 -11 -15   4-511.346 789.445   2
 -15  26   4 750.126 571.193   1
 -26  15   4 756.432 896.851   2
  11 -26   4 1606.50 960.670   4
 -11 -15   4 832.866 781.628   4
 -26  15   4-335.066 580.858   1
 -26  16  -6 1065.53 1136.03   1
  16  10  -6 2546.30 1121.99   3
  26 -10  -6 2683.20 1143.26   3
 -26  16  -6 7.29777 569.398   2
  10 -26  -6-448.948 790.833   3
  16  10  -6 2013.85 975.554   1
  10 -26  -6 1875.66 1282.59   4
  10 -26  -6 2497.56 1363.10   2
 -10 -16  -6 1010.63 1025.40   4
 -16  26  -6 3642.63 1197.30   1
 -10 -16  -6 589.512 1190.80   2
  16  10  -3 1024.94 659.846   3
  26 -10  -3 900.455 742.682   3
 -26  16  -3-295.604 585.066   2
  10 -26  -3-1418.34 952.981   3
  10 -26  -3-21.9006 824.890   4
  10 -26  -3 1586.77 1030.14   2
 -10 -16  -3 2164.39 962.802   4
 -16  26  -3 1029.78 742.947   1
 -10 -16  -3 256.230 993.324   2
 -26  16  -3 1090.72 1020.22   1
 -10 -16   0 2339.61 1164.52   2
 -26  16   0 5631.45 1149.57   2
 -16  26   0 2055.59 821.727   1
  26 -10   0 2708.30 814.069   3
  10 -26   0 2838.99 984.858   3
  10 -26   0 3632.77 1054.02   4
  10 -26   0 4355.58 1146.43   2
 -10 -16   0 3076.36 1007.88   4
 -26  16   0 4651.76 1078.04   1
 -26  16   3 1385.22 715.325   1
 -10 -16   3 1536.57 916.422   2
 -26  16   3 2028.52 1029.88   2
  10 -26   3 1495.69 894.334   4
 -16  26   3 937.784 631.924   1
 -10 -16   3 2737.59 1030.23   4
  10 -26   3 488.957 496.508   2
 -10 -16   6 2484.96 1162.08   2
  10 -26   6 1716.37 970.381   4
 -10 -16   6 790.182 855.914   4
 -26  17  -4 628.630 1030.15   1
  17   9  -4 747.375 741.800   3
  26  -9  -4 1118.64 763.889   3
 -26  17  -4 659.919 545.900   2
   9 -26  -4-504.208 855.337   3
   9 -26  -4 3242.06 1236.67   4
   9 -26  -4 772.907 988.905   2
  -9 -17  -4 631.911 857.711   4
 -17  26  -4-456.202 784.708   1
  -9 -17  -4 265.901 1153.15   2
  -9 -17  -1 1788.23 977.786   2
 -26  17  -1 240.415 691.309   1
  17   9  -1 482.899 328.646   3
  26  -9  -1 842.813 687.339   3
 -26  17  -1 685.284 654.884   2
   9 -26  -1-39.9481 697.485   3
   9 -26  -1-788.524 916.054   4
   9 -26  -1 145.450 868.672   2
  -9 -17  -1 3040.44 1110.96   4
 -17  26  -1 36.7337 667.458   1
 -26  17   2 457.403 662.806   1
  -9 -17   2 789.730 846.993   2
 -17  26   2 437.485 661.441   1
  26  -9   2 1107.17 711.571   3
 -26  17   2 766.127 701.871   2
   9 -26   2-175.207 799.970   4
  -9 -17   2 1202.15 890.242   4
   9 -26   2 1314.11 823.038   2
 -26  17   5 77.6787 394.939   1
  -9 -17   5 636.474 851.482   2
   9 -26   5 1397.57 956.629   4
 -17  26   5 904.514 538.490   1
  -9 -17   5 2126.75 939.362   4
 -26  18  -5 1232.03 1073.55   1
  18   8  -5-1221.13 844.650   3
  26  -8  -5 949.752 884.914   3
 -26  18  -5 1018.04 584.529   2
   8 -26  -5 1237.84 873.580   3
   8 -26  -5 262.135 959.361   4
   8 -26  -5 946.901 1166.13   2
  -8 -18  -5 1732.98 1028.90   4
 -18  26  -5-376.865 827.418   1
  -8 -18  -5 1497.21 1247.63   2
 -26  18  -2 969.841 870.441   1
  18   8  -2 572.762 442.161   3
  26  -8  -2 664.385 625.033   3
 -26  18  -2-378.849 602.606   2
   8 -26  -2 1493.43 896.301   3
   8 -26  -2 1080.09 866.032   4
   8 -26  -2 839.492 830.223   2
  -8 -18  -2 335.651 726.665   4
 -18  26  -2 725.152 773.478   1
  -8 -18  -2 1265.85 1007.92   2
  -8 -18   1 369.267 779.667   2
 -26  18   1 1605.87 839.727   1
 -18  26   1-31.2797 557.187   1
  26  -8   1 401.443 648.155   3
 -26  18   1-618.435 787.021   2
   8 -26   1 625.677 850.447   4
  -8 -18   1 1842.42 911.365   4
   8 -26   1-204.359 848.933   2
   8 -26   4 301.958 485.643   2
 -26  18   4 682.382 566.740   1
  -8 -18   4-98.8339 787.380   2
   8 -26   4 966.566 811.376   4
  -8 -18   4-386.461 846.386   4
 -18  26   4 230.003 511.699   1
   7 -26  -6 2088.58 1495.10   2
  -7 -19  -6 180.983 1139.10   2
 -26  19  -3 912.892 985.308   1
  19   7  -3 1108.74 652.027   3
  26  -7  -3-624.279 710.903   3
   7 -26  -3-9.07638 742.070   3
   7 -26  -3 2106.39 1175.93   4
   7 -26  -3 303.343 888.715   2
  -7 -19  -3 2175.67 1058.92   4
 -19  26  -3 1743.76 858.798   1
  -7 -19  -3 2607.67 1376.12   2
  -7 -19   0 3863.55 1338.17   2
 -26  19   0 2533.91 853.682   1
  26  -7   0-468.663 684.696   3
 -26  19   0 829.206 712.731   2
   7 -26   0 1315.21 868.759   3
   7 -26   0 1263.57 913.610   4
  -7 -19   0 2153.32 1026.12   4
   7 -26   0 446.593 962.138   2
 -19  26   0 1814.15 792.254   1
   7 -26   3-397.266 584.311   2
  -7 -19   3 872.259 856.826   2
 -26  19   3 918.497 618.348   1
 -19  26   3 842.905 657.238   1
   7 -26   3 903.247 987.245   4
  -7 -19   3 757.523 872.011   4
 -26  20  -4 1412.46 1021.54   1
  20   6  -4-91.6165 673.157   3
  26  -6  -4 1766.23 841.294   3
   6 -26  -4 1833.02 890.967   3
 -26  20  -4 109.332 497.250   2
   6 -26  -4 3375.93 1204.30   4
 -20  26  -4 946.445 781.407   1
  -6 -20  -4 1106.91 907.240   4
   6 -26  -4 1085.13 1109.60   2
  -6 -20  -4 1038.42 1177.97   2
 -26  20  -1 1352.32 865.821   1
  20   6  -1 1189.61 361.735   3
  26  -6  -1 1052.28 638.011   3
   6 -26  -1-1084.29 854.097   3
   6 -26  -1 2560.46 1082.71   4
  -6 -20  -1 922.390 843.672   4
 -20  26  -1-80.1825 685.025   1
   6 -26  -1-1427.42 1136.99   2
  -6 -20  -1-856.995 992.000   2
  -6 -20   2-44.1484 711.726   2
 -20  26   2 717.336 630.622   1
 -26  20   2 1220.53 733.751   1
   6 -26   2 2449.62 992.852   4
  -6 -20   2 1500.26 881.795   4
   6 -26   2 1387.60 863.876   2
  -6 -20   5 704.928 894.426   2
   6 -26   5 1292.92 945.321   4
  -6 -20   5 684.558 901.058   4
  21   5  -5 1922.24 963.193   3
 -26  21  -5 1022.48 1143.28   1
  26  -5  -5-45.9040 767.894   3
   5 -26  -5 867.710 764.522   3
 -21  26  -5 1497.49 924.341   1
   5 -26  -5 1920.10 1069.09   4
  -5 -21  -5 336.271 841.833   4
   5 -26  -5 845.763 1188.20   2
  -5 -21  -5-1444.82 1251.74   2
 -26  21  -2 1444.84 874.977   1
  21   5  -2 242.256 469.090   3
  26  -5  -2 317.112 574.447   3
   5 -26  -2 736.028 727.693   3
   5 -26  -2-289.746 811.666   4
 -21  26  -2 1518.33 874.035   1
  -5 -21  -2 742.463 856.528   4
   5 -26  -2 2616.55 1199.78   2
  -5 -21  -2-1173.35 1018.66   2
  -5 -21   1 1343.45 1002.77   2
 -26  21   1 694.411 721.490   1
  26  -5   1 387.249 513.761   3
   5 -26   1 278.147 793.533   4
  -5 -21   1 1558.94 882.315   4
   5 -26   1 1232.82 1073.51   2
 -21  26   1 914.112 594.978   1
   5 -26   4 577.462 655.861   2
  -5 -21   4-11.3493 736.562   2
 -26  21   4 1128.63 565.191   1
 -21  26   4 1188.17 578.178   1
   5 -26   4-384.161 926.480   4
  -5 -21   4-75.9894 881.555   4
 -26  22  -3 240.104 780.992   1
  22   4  -3 666.347 646.829   3
  26  -4  -3 953.703 804.725   3
   4 -26  -3-223.393 718.706   3
 -22  26  -3 595.429 891.688   1
   4 -26  -3 585.980 956.135   4
  -4 -22  -3 1599.30 939.355   4
   4 -26  -3-170.427 966.973   2
  -4 -22  -3 855.266 1164.45   2
 -26  22   0 3636.03 993.945   1
  26  -4   0 684.484 602.284   3
   4 -26   0 820.591 894.203   4
  -4 -22   0 713.211 950.865   4
 -22  26   0 922.250 750.421   1
   4 -26   0-313.519 1000.00   2
  -4 -22   0-395.920 944.852   2
   4 -26   3 543.597 693.101   2
  -4 -22   3-30.4936 745.828   2
 -22  26   3 1015.35 628.257   1
 -26  22   3 142.452 553.043   1
   4 -26   3 290.314 954.656   4
  -4 -22   3-698.696 875.249   4
  23   3  -4 973.556 726.533   3
 -26  23  -4 3490.79 1228.85   1
  26  -3  -4 1749.91 931.376   3
   3 -26  -4 800.474 667.776   3
 -23  26  -4 1892.18 1020.30   1
  -3 -23  -4 172.152 520.396   3
   3 -26  -4 1749.48 1125.59   4
  -3 -23  -4 416.805 889.733   4
   3 -26  -4 2043.81 1128.89   2
  -3 -23  -4 2231.64 1559.80   2
 -26  23  -1 1107.84 826.372   1
  23   3  -1 354.211 399.823   3
  26  -3  -1 123.288 603.319   3
 -23  26  -1 619.762 746.199   1
   3 -26  -1 41.7566 854.866   4
  -3 -23  -1 1034.37 965.959   4
   3 -26  -1-185.305 995.574   2
  -3 -23  -1-786.776 1209.69   2
   3 -26   2 2791.01 975.592   2
  -3 -23   2 1393.30 958.385   2
 -26  23   2 1389.14 764.293   1
   3 -26   2 1253.39 936.716   4
  -3 -23   2 2888.07 1246.46   4
 -23  26   2 1344.65 737.429   1
  24   2  -2-88.0382 517.703   3
 -26  24  -2 434.258 714.051   1
  26  -2  -2 249.332 578.781   3
 -24  26  -2 1421.27 898.189   1
   2 -26  -2-799.860 717.747   3
   2 -26  -2-652.692 983.592   4
  -2 -24  -2-461.566 851.693   4
   2 -26  -2-336.420 1129.00   2
  -2 -24  -2-603.071 1047.31   2
  -2 -24   1 1438.09 1152.99   2
 -26  24   1 304.004 691.090   1
  26  -2   1-351.274 357.044   3
   2 -26   1 1018.28 932.505   4
 -24  26   1 798.950 711.130   1
  -2 -24   1-620.135 884.014   4
   2 -26   1 545.079 907.274   2
   2 -26   4-9.36559 723.302   2
  -2 -24   4-165.897 815.917   2
 -24  26   4 24.9205 507.738   1
   2 -26   4 149.904 897.324   4
  -2 -24   4 2306.77 1117.76   4
 -26  24   4 1000.71 532.586   1
  25   1  -3 156.968 632.028   3
  26  -1  -3 1179.58 735.136   3
 -26  25  -3 1242.67 943.918   1
 -25  26  -3-179.150 851.532   1
   1 -26  -3-477.386 600.728   3
   1 -26  -3 1495.07 1153.92   4
  -1 -25  -3-469.937 945.770   4
   1 -26  -3 5.06113 1075.51   2
  -1 -25  -3 48.8838 1020.63   2
  26  -1   0 940.694 473.121   3
 -26  25   0 2468.79 964.651   1
 -25  26   0 899.171 855.026   1
   1 -26   0 550.902 911.899   4
  -1 -25   0 801.632 1017.19   4
   1 -26   0 2180.13 1147.32   2
  -1 -25   0 1234.92 1195.52   2
   1 -26   3-13.1844 700.757   2
  -1 -25   3-178.696 735.157   2
   1 -26   3-787.344 1050.55   4
  -1 -25   3 598.366 863.619   4
 -26  25   3 1275.30 696.775   1
 -25  26   3 198.417 593.125   1
  26   0  -1-114.311 481.862   3
 -26  26  -1-877.987 828.667   1
   0 -26  -1-601.825 957.552   4
   0 -26  -1 277.083 1134.99   2
   0 -26   2 86.8558 832.273   2
 -26  26   2 2923.70 902.833   1
   0 -26   2 2342.95 1181.23   4
   0  27   0 1546.59 895.683   1
 -27   0   0 926.146 882.646   2
  27 -27   0-729.380 1001.21   3
 -27   0   0 999.907 919.441   4
 -26  -1  -1 1857.83 1046.56   2
 -27   1  -1 178.988 889.965   2
  27 -26  -1 539.957 865.181   3
  26 -27  -1 1898.47 1091.24   3
  -1  27  -1 333.415 764.014   1
 -26  -1  -1-359.331 864.316   4
 -27   1  -1 564.889 895.808   4
   1  26  -1-50.2815 756.436   1
  -1  27   2-864.159 789.243   1
 -26  -1   2 53.7829 808.620   2
 -27   1   2 798.142 942.984   2
  27 -26   2-51.5006 950.788   3
  26 -27   2 699.342 953.420   3
   1  26   2 1840.84 891.164   1
 -26  -1   2-969.509 910.194   4
 -27   1   2 2311.93 1170.74   4
 -25  -2  -2 1530.56 991.425   2
 -27   2  -2 1681.48 1051.18   2
  -2  27  -2 2032.28 980.358   1
  27 -25  -2 2207.80 1080.64   3
  25 -27  -2 994.631 933.944   3
   2  25  -2 795.663 937.642   1
 -25  -2  -2 729.618 853.546   4
 -27   2  -2 1512.70 946.534   4
   2  25   1 2449.11 975.882   1
  -2  27   1 1309.49 895.973   1
 -25  -2   1 1572.14 979.724   2
 -27   2   1 36.5932 846.445   2
  27 -25   1 498.123 897.027   3
  25 -27   1-13.2459 834.735   3
 -25  -2   1 639.259 870.010   4
 -27   2   1 1566.21 1073.00   4
  -3  27  -3 869.065 830.236   1
 -24  -3  -3 42.7443 908.704   2
 -27   3  -3-195.901 896.645   2
  27 -24  -3-68.9514 778.313   3
  24 -27  -3 782.160 756.973   3
   3  24  -3 1377.85 857.496   1
 -24  -3  -3 2070.10 1042.17   4
 -27   3  -3 1066.29 874.951   4
 -24  -3   0 479.827 1011.14   2
 -27   3   0 2071.71 1083.98   2
  27 -24   0 1324.13 836.878   3
  24 -27   0 1797.73 1002.30   3
   3  24   0 1461.95 929.391   1
  -3  27   0 1446.01 772.783   1
 -24  -3   0 102.006 815.044   4
 -27   3   0 2474.84 989.621   4
 -24  -3   3 947.505 990.500   2
  -3  27   3-440.291 719.187   1
 -27   3   3 1221.41 888.363   2
  27 -24   3 685.463 1041.51   3
 -24  -3   3-544.602 870.255   4
 -27   3   3 2197.84 1040.85   4
 -23  -4  -4 2077.77 1104.05   2
 -27   4  -4 189.735 933.348   2
  27 -23  -4 110.688 783.340   3
  23 -27  -4-524.700 797.504   3
   4  23  -4 1577.28 905.709   1
 -23  -4  -4-25.7527 819.801   4
  -4  27  -4 654.481 930.952   1
 -27   4  -4 1422.30 1060.90   4
 -23  -4  -1 191.941 831.086   2
 -27   4  -1 1184.13 970.398   2
  -4  27  -1 1397.40 926.384   1
   4  23  -1 1130.02 814.959   1
  27 -23  -1-206.059 740.003   3
  23 -27  -1 309.718 767.862   3
 -23  -4  -1 235.119 878.936   4
 -27   4  -1 587.621 797.441   4
  -4  27   2 233.917 768.989   1
 -23  -4   2 1233.38 1050.97   2
 -27   4   2 661.740 914.452   2
  27 -23   2 272.619 844.221   3
  23 -27   2 238.909 860.627   3
   4  23   2 557.258 809.023   1
 -23  -4   2 117.742 914.381   4
 -27   4   2 1082.25 888.421   4
  -5  27  -2 1732.33 928.509   1
   5  22  -2 2333.99 960.542   1
 -22  -5  -2 2037.76 1116.06   2
 -27   5  -2-991.940 862.782   2
  27 -22  -2 1179.43 807.204   3
  22 -27  -2 2379.12 1096.21   3
 -22  -5  -2 635.014 758.909   4
 -27   5  -2 1851.81 955.883   4
 -22  -5   1 3045.62 1147.91   2
 -27   5   1 2688.38 1087.31   2
  27 -22   1 902.791 897.134   3
  22 -27   1 1321.40 973.610   3
  -5  27   1-203.545 697.178   1
 -22  -5   1 2559.17 1151.95   4
 -27   5   1 708.245 783.966   4
   5  22   1 1634.65 877.790   1
  -5  27   4 940.281 840.385   1
 -22  -5   4-53.3550 851.140   2
 -27   5   4 121.593 802.007   2
 -22  -5   4-190.043 870.681   4
 -27   5   4-171.118 832.822   4
   6  21  -3 1500.47 879.013   1
 -21  -6  -3 420.763 905.645   2
 -27   6  -3-172.554 850.921   2
  27 -21  -3 1077.85 893.909   3
  21 -27  -3 659.297 953.076   3
  -6  27  -3 1297.01 782.472   1
 -21  -6  -3 1.93388 767.116   4
 -27   6  -3 163.555 770.643   4
 -21  -6   0-1126.73 906.294   2
  -6  27   0 378.895 730.742   1
   6  21   0 1108.20 759.967   1
 -27   6   0 426.161 770.697   2
  27 -21   0 167.699 769.208   3
  21 -27   0-157.354 719.677   3
 -21  -6   0-325.014 751.031   4
 -27   6   0 678.711 751.067   4
 -21  -6   3 797.362 1012.24   2
 -27   6   3 942.594 816.348   2
  -6  27   3 883.853 719.425   1
  27 -21   3 1748.84 1107.53   3
 -21  -6   3 2931.29 1105.49   4
 -27   6   3 201.165 780.787   4
 -20  -7  -4 863.637 980.786   2
 -27   7  -4 1319.04 944.777   2
  27 -20  -4-535.181 752.069   3
  20 -27  -4 477.826 854.492   3
  -7  27  -4-152.040 939.027   1
 -20  -7  -4-1.93160 785.818   4
   7  20  -4-1121.27 910.209   1
 -27   7  -4 115.906 754.765   4
 -20  -7  -1 273.772 888.609   2
 -27   7  -1 1375.66 790.556   2
  27 -20  -1 2039.87 1030.20   3
  20 -27  -1 770.289 837.479   3
 -20  -7  -1 2033.16 978.762   4
   7  20  -1 1348.13 868.134   1
  -7  27  -1 1691.77 785.734   1
 -27   7  -1-138.078 691.711   4
 -20  -7   2 919.243 789.333   2
 -27   7   2-304.205 729.470   2
  27 -20   2-176.118 822.749   3
  20 -27   2 38.3573 749.209   3
  -7  27   2 352.424 683.665   1
 -20  -7   2 1057.09 952.115   4
 -27   7   2 625.484 812.878   4
 -20  -7   5 1532.78 1026.89   2
 -27   7   5-1116.57 953.164   2
 -20  -7   5-943.513 921.375   4
 -27   7   5 613.769 949.350   4
 -19  -8  -5-493.150 1040.45   2
 -27   8  -5 1822.04 926.223   2
  27 -19  -5-1104.55 904.247   3
  19 -27  -5-776.442 942.233   3
  -8  27  -5 513.445 808.646   1
 -27   8  -5-190.189 1225.33   1
 -19  -8  -5 505.169 837.091   4
   8  19  -5 203.825 742.595   1
 -27   8  -5 1159.88 860.972   4
 -19  -8  -2 1877.29 1006.68   2
 -27   8  -2 411.103 817.275   2
  27 -19  -2 199.555 707.942   3
  19 -27  -2 179.729 723.663   3
   8  19  -2 1506.31 818.205   1
  -8  27  -2 1660.28 862.205   1
 -19  -8  -2 1313.03 912.603   4
 -27   8  -2 1047.55 766.908   4
 -19  -8   1 652.930 808.933   2
  -8  27   1 1692.97 804.590   1
 -27   8   1 1727.95 963.545   2
  27 -19   1 622.689 824.380   3
  19 -27   1 1846.51 931.107   3
 -19  -8   1-1262.81 919.063   4
   8  19   1-369.356 710.144   1
 -27   8   1 1063.80 859.110   4
 -19  -8   4 67.6326 776.071   2
 -27   8   4 1043.91 860.896   2
  -8  27   4 503.313 642.124   1
 -19  -8   4 1663.65 1070.48   4
 -27   8   4 1132.15 887.014   4
 -18  -9  -3 1121.57 957.928   2
 -27   9  -3-203.520 732.961   2
  27 -18  -3 1540.96 784.702   3
  18 -27  -3 1148.64 825.318   3
  -9  27  -3 1490.61 959.832   1
   9  18  -3 1403.86 892.791   1
 -27   9  -3 1557.33 1225.93   1
 -18  -9  -3 1122.53 836.329   4
 -27   9  -3 257.038 793.994   4
 -18  -9   0 763.031 918.252   2
   9  18   0 921.403 718.096   1
 -27   9   0 740.039 796.352   2
  27 -18   0 695.442 777.643   3
  18 -27   0-180.528 762.962   3
 -18  -9   0 609.360 781.823   4
  -9  27   0 1793.29 752.589   1
 -27   9   0 1769.94 872.549   4
 -18  -9   3 1088.06 792.542   2
 -27   9   3 658.102 815.101   2
  27 -18   3 981.926 971.699   3
  18 -27   3 925.707 479.743   2
  -9  27   3 1289.12 717.961   1
 -18  -9   3 516.840 889.533   4
 -27   9   3 1011.36 951.107   4
 -17 -10  -4 178.171 1056.76   2
  10  17  -4 687.712 751.918   3
 -27  10  -4 485.233 778.790   2
  27 -17  -4-1346.42 873.079   3
 -10  27  -4 582.646 904.804   1
  17 -27  -4-551.036 757.843   3
  10  17  -4 809.306 906.000   1
 -27  10  -4 1414.62 1228.30   1
 -17 -10  -4 348.779 802.809   4
 -27  10  -4 377.506 744.409   4
 -17 -10  -1 416.976 860.907   2
  10  17  -1 3290.71 1012.45   1
 -27  10  -1-130.568 660.586   2
  27 -17  -1 1037.81 787.273   3
  17 -27  -1 1102.28 725.822   3
 -10  27  -1 1365.78 874.083   1
 -17 -10  -1 253.474 787.645   4
 -27  10  -1 1600.22 800.909   4
 -17 -10   2 1794.77 973.584   2
 -10  27   2-554.266 583.582   1
 -27  10   2 341.506 708.211   2
  27 -17   2 542.568 866.622   3
  17 -27   2 2006.83 951.002   3
  17 -27   2 385.084 764.702   2
 -17 -10   2 752.049 879.440   4
 -27  10   2 321.338 811.935   4
 -17 -10   5-665.111 788.646   2
 -27  10   5 60.6241 788.147   2
  17 -27   5 1008.39 969.840   4
 -17 -10   5-429.169 900.617   4
 -10  27   5 547.406 772.845   1
 -27  10   5 1380.08 995.446   4
  11  16  -5 582.702 874.052   3
 -27  11  -5 1536.47 892.062   2
 -11  27  -5-312.695 802.783   1
  27 -16  -5 265.327 762.325   3
  16 -27  -5 1594.69 906.170   3
  11  16  -5-95.6083 828.339   1
 -16 -11  -5 913.454 887.325   4
 -27  11  -5 458.296 1127.18   1
 -16 -11  -5 2170.18 1256.69   2
 -27  11  -5 959.296 803.874   4
 -16 -11  -2 3759.05 1293.75   2
  11  16  -2 1301.85 653.994   3
 -27  11  -2 811.383 778.097   2
  27 -16  -2 482.250 646.040   3
 -11  27  -2 1454.43 895.825   1
  16 -27  -2 355.376 728.772   3
 -27  11  -2 2398.44 1206.10   1
 -16 -11  -2 2219.51 1033.21   4
  11  16  -2 540.223 762.005   1
 -27  11  -2 908.755 744.948   4
 -16 -11   1 530.370 769.893   2
  11  16   1-4.37849 113.277   3
 -27  11   1 1159.41 860.907   2
  27 -16   1 1180.41 839.930   3
  16 -27   1-261.969 755.109   3
  16 -27   1-338.215 777.670   2
 -11  27   1 377.041 605.910   1
 -27  11   1-130.556 681.798   4
 -11  27   4 669.659 621.503   1
 -16 -11   4-943.785 847.347   2
 -27  11   4 1765.03 993.417   2
  16 -27   4 1207.49 895.860   4
 -16 -11   4 979.203 920.040   4
 -27  11   4 1130.53 900.910   4
 -15 -12  -3 1424.64 883.302   2
  12  15  -3 864.239 729.710   3
 -12  27  -3 3549.27 1036.90   1
 -27  12  -3 62.9474 737.229   2
  27 -15  -3 1690.45 822.791   3
  15 -27  -3 730.217 781.480   3
  12  15  -3 1195.44 791.676   1
 -15 -12  -3 422.131 770.904   4
 -27  12  -3 4613.94 1481.13   1
 -27  12  -3 1576.77 855.285   4
 -15 -12   0 360.459 965.533   2
  12  15   0-66.1011 298.381   3
 -27  12   0 1491.07 751.669   2
  27 -15   0 1513.68 856.836   3
  15 -27   0-594.577 778.197   3
 -12  27   0 1097.86 747.460   1
  15 -27   0-21.5346 686.546   2
 -27  12   0 1602.74 1008.12   1
 -15 -12   0 815.666 878.487   4
 -27  12   0-130.093 691.477   4
 -15 -12   3 1951.36 950.036   2
 -12  27   3 1037.08 686.365   1
 -27  12   3 1156.48 910.205   2
  27 -15   3 3685.29 1088.86   3
  15 -27   3 1965.78 955.581   4
 -27  12   3 2110.67 834.708   1
 -15 -12   3 2149.79 1028.44   4
  15 -27   3 557.737 423.129   2
 -27  12   3 1617.38 979.956   4
 -27  13  -4 1112.45 869.823   4
  13  14  -4 721.241 769.582   3
 -13  27  -4 990.504 972.775   1
 -27  13  -4 640.939 682.154   2
  27 -14  -4 2366.56 910.599   3
  14 -27  -4 240.091 777.727   3
  13  14  -4 1215.17 857.535   1
 -14 -13  -4 222.954 751.733   4
 -27  13  -4 638.876 1108.28   1
 -14 -13  -4 1185.14 1126.27   2
 -14 -13  -1 772.771 903.590   2
  13  14  -1-295.098 427.805   3
 -27  13  -1 74.7452 712.726   2
 -13  27  -1 1087.89 791.336   1
  27 -14  -1 1178.75 808.097   3
  14 -27  -1 961.191 794.447   3
  14 -27  -1-266.229 721.199   2
 -14 -13  -1 1542.34 797.953   4
 -27  13  -1-313.145 903.304   1
 -27  13  -1 1787.82 879.658   4
 -27  13   2 3.53872 728.782   4
 -14 -13   2 2071.32 946.048   2
 -27  13   2 293.009 693.128   2
  27 -14   2 389.074 826.416   3
  14 -27   2 349.698 711.189   4
 -27  13   2 476.543 715.297   1
  14 -27   2-153.897 695.436   2
 -14 -13   2 896.842 902.479   4
 -13  27   2-776.247 648.220   1
 -27  13   5-637.747 1006.45   4
 -14 -13   5-329.427 794.438   2
 -27  13   5 126.229 863.544   2
  14 -27   5-284.228 825.510   4
 -13  27   5 398.053 627.666   1
 -27  13   5 964.705 673.309   1
 -14 -13   5 1869.03 936.728   4
 -14  27  -5 94.1434 873.795   1
  14  13  -5 462.234 824.044   3
 -27  14  -5-38.5783 620.504   2
  27 -13  -5 664.364 842.818   3
  13 -27  -5-146.081 814.024   3
  14  13  -5 862.949 882.487   1
 -13 -14  -5 426.018 894.605   4
 -13 -14  -5-508.126 994.614   2
 -27  14  -5 175.312 1253.75   1
 -27  14  -2-499.985 659.554   4
 -13 -14  -2-138.403 922.975   2
  14  13  -2 449.510 517.971   3
 -14  27  -2-468.320 703.919   1
 -27  14  -2-543.641 674.366   2
  27 -13  -2-857.744 859.004   3
  13 -27  -2-896.152 748.281   3
  13 -27  -2 560.046 809.361   2
 -13 -14  -2 891.811 841.894   4
 -27  14  -2 1030.10 1018.02   1
 -27  14   1 861.652 798.029   4
 -13 -14   1-161.167 784.210   2
 -27  14   1 815.443 836.223   2
  27 -13   1-836.371 791.714   3
  13 -27   1-1039.17 920.115   3
 -14  27   1 575.998 696.805   1
  13 -27   1-1156.68 841.996   4
  13 -27   1 304.533 808.012   2
 -13 -14   1 1283.44 1004.20   4
 -27  14   1 1019.20 761.793   1
 -27  14   4 103.654 759.118   4
 -13 -14   4 403.961 759.720   2
 -27  14   4-239.860 905.853   2
 -14  27   4 446.505 590.882   1
  13 -27   4 159.626 876.292   4
 -13 -14   4 70.8204 791.048   4
 -27  14   4 3.80904 595.476   1
 -27  15  -3 921.079 780.327   4
 -15  27  -3 2000.25 988.932   1
  15  12  -3 1478.12 714.603   3
  27 -12  -3 2156.14 867.338   3
 -27  15  -3 2394.43 761.254   2
  12 -27  -3 1918.40 895.809   3
  12 -27  -3 545.242 973.809   2
 -12 -15  -3 2028.92 1060.18   4
 -27  15  -3 2942.60 1344.73   1
 -12 -15  -3 2154.26 1275.40   2
 -27  15   0 955.167 736.404   4
 -12 -15   0 719.271 822.607   2
 -15  27   0 1331.97 779.278   1
  27 -12   0-70.1271 671.238   3
 -27  15   0 1800.63 838.547   2
  12 -27   0 440.757 877.568   3
  12 -27   0-88.8386 766.203   4
  12 -27   0 983.150 847.682   2
 -12 -15   0 199.280 831.544   4
 -27  15   0 1150.79 845.441   1
 -27  15   3 2250.39 1013.25   4
 -12 -15   3 906.876 877.394   2
 -27  15   3 526.107 769.730   2
  12 -27   3 1322.02 903.157   4
 -12 -15   3 2397.42 984.734   4
 -27  15   3 887.420 709.637   1
  12 -27   3 701.824 534.069   2
 -15  27   3 2546.60 739.178   1
 -27  16  -4 1876.73 1260.49   1
  16  11  -4 1097.81 778.273   3
  27 -11  -4 798.102 891.658   3
 -27  16  -4 461.298 577.048   2
  11 -27  -4-689.144 806.660   3
  11 -27  -4 2405.06 1263.94   2
 -11 -16  -4 195.228 752.451   4
 -11 -16  -4-287.088 997.468   2
 -16  27  -4 943.265 813.634   1
 -27  16  -1 733.124 751.618   4
 -11 -16  -1-123.175 878.317   2
 -16  27  -1 2545.68 936.693   1
  16  11  -1 79.6127 303.283   3
  27 -11  -1 430.289 739.910   3
 -27  16  -1 60.6123 707.343   2
  11 -27  -1 176.163 807.188   3
  11 -27  -1 1853.60 1007.79   4
  11 -27  -1 89.5030 821.249   2
 -11 -16  -1 904.377 825.881   4
 -27  16  -1 467.361 811.438   1
 -11 -16   2 117.833 789.066   2
 -27  16   2 389.335 753.917   2
  27 -11   2 608.349 704.613   3
 -16  27   2 982.089 610.226   1
  11 -27   2 1516.72 975.875   4
 -11 -16   2 2999.12 1084.92   4
  11 -27   2 1112.44 815.544   2
 -27  16   2 566.656 698.344   1
 -27  16   5-434.075 537.249   1
 -16  27   5-94.0618 582.508   1
 -11 -16   5-370.469 832.468   2
  11 -27   5 55.3679 879.186   4
 -11 -16   5 1555.98 1063.98   4
 -27  17  -5 1476.15 1143.32   1
  17  10  -5 1415.57 947.567   3
  27 -10  -5 227.492 828.579   3
 -27  17  -5 440.858 627.900   2
  10 -27  -5 406.277 728.669   3
  10 -27  -5 1694.76 1238.89   4
  10 -27  -5-1463.54 1293.43   2
 -10 -17  -5 1579.92 947.885   4
 -17  27  -5 900.947 979.077   1
 -10 -17  -5 630.185 1028.09   2
 -27  17  -2 1304.54 1003.13   1
  17  10  -2 517.919 518.098   3
  27 -10  -2 416.659 701.728   3
 -27  17  -2 305.842 618.898   2
  10 -27  -2-1090.83 966.071   3
  10 -27  -2 1776.79 969.678   4
  10 -27  -2-1735.66 1070.88   2
 -10 -17  -2 1577.78 952.826   4
 -10 -17  -2 1718.96 1222.71   2
 -17  27  -2-114.596 692.114   1
 -10 -17   1-48.5529 781.163   2
 -17  27   1 839.436 716.173   1
  27 -10   1 566.391 726.961   3
 -27  17   1 711.508 751.664   2
  10 -27   1-920.263 808.794   4
 -10 -17   1 1487.37 1011.97   4
  10 -27   1 1605.87 1098.55   2
 -27  17   1 986.325 745.725   1
 -27  17   4 120.683 586.844   1
 -17  27   4 304.743 532.138   1
 -10 -17   4-340.643 822.772   2
  10 -27   4 1909.39 951.433   4
 -10 -17   4 840.293 766.564   4
 -27  18  -3 1924.79 1027.78   1
  18   9  -3 1607.90 767.931   3
  27  -9  -3 2147.56 866.898   3
 -27  18  -3 609.904 636.480   2
   9 -27  -3 1912.07 858.749   3
   9 -27  -3 1189.27 1075.97   4
   9 -27  -3 351.222 895.571   2
  -9 -18  -3 1338.65 909.352   4
 -18  27  -3 747.218 879.651   1
  -9 -18  -3 1050.12 1056.50   2
 -27  18   0 1889.18 905.357   1
  -9 -18   0 1486.75 1017.87   2
 -18  27   0 193.427 632.575   1
  27  -9   0 2060.08 913.694   3
 -27  18   0 675.943 714.337   2
   9 -27   0 789.669 939.311   3
   9 -27   0 1447.95 933.262   4
  -9 -18   0 2643.08 1075.96   4
   9 -27   0 255.923 983.953   2
   9 -27   3 123.285 575.755   2
 -27  18   3 1213.89 743.117   1
  -9 -18   3 1479.39 919.370   2
 -18  27   3 1392.55 697.734   1
   9 -27   3 1688.44 996.283   4
  -9 -18   3 2430.25 1044.80   4
 -27  19  -4-277.525 941.318   1
  19   8  -4 1143.40 766.215   3
  27  -8  -4-104.623 729.339   3
   8 -27  -4 2002.38 940.072   3
 -27  19  -4 610.162 584.958   2
   8 -27  -4 252.892 879.754   4
   8 -27  -4 1438.03 1288.16   2
  -8 -19  -4 1289.47 924.506   4
 -19  27  -4 2655.60 1053.64   1
  -8 -19  -4 2561.34 1436.54   2
 -27  19  -1 3190.60 988.382   1
  19   8  -1 37.6503 290.672   3
  27  -8  -1 232.753 647.047   3
 -27  19  -1 541.327 736.223   2
   8 -27  -1 25.6155 852.057   3
   8 -27  -1 1926.18 940.145   4
  -8 -19  -1 2171.00 985.735   4
   8 -27  -1 1044.58 898.861   2
 -19  27  -1 1611.90 879.868   1
  -8 -19  -1-133.103 959.240   2
  -8 -19   2 1740.54 920.202   2
 -27  19   2 466.683 692.093   1
 -19  27   2 1181.99 618.990   1
  27  -8   2 813.834 719.904   3
   8 -27   2 1177.28 931.734   4
  -8 -19   2 1326.90 1019.48   4
   8 -27   2-561.981 722.979   2
  -8 -19   5 870.998 952.398   2
 -19  27   5 879.110 574.945   1
   8 -27   5-337.686 881.149   4
  -8 -19   5 636.244 811.666   4
 -27  20  -5 776.897 1096.47   1
  20   7  -5 1857.77 997.283   3
  27  -7  -5 21.7805 754.227   3
   7 -27  -5 228.384 725.705   3
   7 -27  -5-687.535 1156.69   4
   7 -27  -5 1658.50 1242.36   2
 -20  27  -5 591.800 886.365   1
  -7 -20  -5 336.756 941.587   4
  -7 -20  -5 1973.25 1323.49   2
 -27  20  -2 2177.66 999.714   1
  20   7  -2 347.348 463.474   3
  27  -7  -2 542.435 657.100   3
   7 -27  -2-379.761 797.247   3
 -27  20  -2 1310.83 741.807   2
   7 -27  -2 426.746 870.372   4
  -7 -20  -2 1243.77 878.022   4
   7 -27  -2-205.051 881.588   2
 -20  27  -2 1226.55 795.589   1
  -7 -20  -2 2707.03 1303.69   2
  -7 -20   1-96.1883 912.777   2
 -20  27   1 576.022 652.335   1
 -27  20   1 781.001 775.014   1
  27  -7   1-106.217 629.319   3
   7 -27   1 298.982 779.158   4
  -7 -20   1 1163.56 944.935   4
   7 -27   1-789.050 923.644   2
   7 -27   4 563.078 677.328   2
  -7 -20   4 162.475 812.988   2
 -27  20   4-151.287 543.433   1
   7 -27   4 493.158 899.914   4
 -20  27   4-358.583 584.696   1
  -7 -20   4-341.208 829.552   4
 -27  21  -3 1492.64 1052.21   1
  21   6  -3 309.865 601.559   3
  27  -6  -3 1042.05 816.973   3
   6 -27  -3 1496.33 915.267   3
   6 -27  -3-647.859 972.814   4
 -21  27  -3 1390.53 998.487   1
  -6 -21  -3 2769.22 1094.36   4
   6 -27  -3 1904.91 1172.51   2
  -6 -21  -3 427.987 1022.43   2
  -6 -21   0 2651.80 1290.57   2
 -27  21   0 964.475 807.767   1
  27  -6   0 706.625 679.010   3
   6 -27   0 247.564 828.840   4
  -6 -21   0 524.352 882.158   4
   6 -27   0-1194.46 1113.62   2
 -21  27   0 596.068 725.989   1
   6 -27   3 1118.90 692.722   2
  -6 -21   3 1064.57 866.958   2
 -27  21   3 1467.71 723.743   1
 -21  27   3 1735.52 657.117   1
   6 -27   3 1386.35 995.223   4
  -6 -21   3 1123.51 945.953   4
 -27  22  -4 1283.20 1077.41   1
  22   5  -4 613.841 742.104   3
  27  -5  -4 575.521 853.943   3
   5 -27  -4 866.765 777.900   3
 -22  27  -4 963.972 934.064   1
   5 -27  -4 154.760 895.593   4
  -5 -22  -4 117.799 869.408   4
   5 -27  -4 300.406 1025.49   2
  -5 -22  -4-249.271 1017.09   2
 -27  22  -1 2529.44 956.998   1
  22   5  -1 961.457 392.058   3
  27  -5  -1 1226.69 719.536   3
   5 -27  -1 1227.46 921.526   3
   5 -27  -1 2948.01 1176.48   4
  -5 -22  -1 1830.46 946.205   4
 -22  27  -1 2376.66 968.395   1
   5 -27  -1 5472.91 1329.14   2
  -5 -22  -1 1470.37 1220.08   2
 -22  27   2 887.037 699.616   1
  -5 -22   2 140.736 913.707   2
 -27  22   2 828.928 722.271   1
   5 -27   2 947.594 971.119   4
  -5 -22   2 1589.66 939.775   4
   5 -27   2 1732.04 886.031   2
 -27  23  -2 1611.66 955.339   1
  23   4  -2 552.741 504.538   3
  27  -4  -2 91.5442 595.047   3
   4 -27  -2 591.045 722.189   3
 -23  27  -2-508.624 825.540   1
   4 -27  -2 885.415 854.660   4
  -4 -23  -2-135.615 815.675   4
   4 -27  -2 941.192 1036.00   2
  -4 -23  -2-306.938 1046.96   2
  -4 -23   1 837.003 988.623   2
 -27  23   1 77.5344 710.247   1
  27  -4   1 267.150 489.304   3
   4 -27   1 1856.27 1068.05   4
  -4 -23   1 267.605 962.243   4
 -23  27   1 1155.59 821.783   1
   4 -27   1 840.428 1069.49   2
   4 -27   4 535.569 756.308   2
  -4 -23   4 614.286 795.707   2
 -23  27   4 1741.29 653.564   1
 -27  23   4-284.661 505.048   1
   4 -27   4 1502.65 914.177   4
  -4 -23   4 1168.91 1046.06   4
  24   3  -3 767.643 692.269   3
 -27  24  -3 123.224 842.559   1
  27  -3  -3 179.883 720.639   3
   3 -27  -3 1144.77 809.134   3
 -24  27  -3 2120.98 1083.06   1
   3 -27  -3 1535.20 1029.34   4
  -3 -24  -3 1099.17 1031.28   4
   3 -27  -3-523.858 1127.66   2
  -3 -24  -3 1300.53 1154.06   2
 -27  24   0 1166.71 856.681   1
  27  -3   0 780.439 578.166   3
   3 -27   0 2664.60 1152.20   4
 -24  27   0 1842.42 910.077   1
  -3 -24   0 748.909 916.912   4
   3 -27   0 939.537 1185.39   2
  -3 -24   0 981.836 1131.25   2
   3 -27   3-398.416 707.927   2
 -24  27   3-374.474 609.285   1
  -3 -24   3-590.134 805.591   2
 -27  24   3 663.651 676.259   1
   3 -27   3 847.992 987.330   4
  -3 -24   3 151.467 987.306   4
  25   2  -1 821.997 469.512   3
 -27  25  -1-253.393 798.048   1
  27  -2  -1 1603.99 673.146   3
 -25  27  -1 1457.91 905.318   1
   2 -27  -1 2149.40 1129.33   4
  -2 -25  -1 995.282 985.915   4
   2 -27  -1 2332.42 1231.78   2
  -2 -25  -1 3145.71 1455.46   2
   2 -27   2 1023.76 990.000   2
  -2 -25   2 60.0970 841.000   2
 -27  25   2 1787.54 881.090   1
   2 -27   2 1791.85 1129.47   4
  -2 -25   2-541.798 910.183   4
 -25  27   2 3032.33 913.605   1
  26   1  -2 478.973 558.622   3
  27  -1  -2 1375.38 662.796   3
 -27  26  -2 240.441 848.876   1
 -26  27  -2 1141.36 976.354   1
   1 -27  -2 1610.09 1102.43   4
  -1 -26  -2-1258.51 1021.36   4
   1 -27  -2 350.006 1219.75   2
  -1 -26  -2 985.838 1237.18   2
  -1 -26   1-261.982 974.919   2
 -27  26   1 1689.03 851.871   1
 -26  27   1 1617.76 894.702   1
   1 -27   1 1015.50 1059.62   4
  -1 -26   1 627.962 987.157   4
   1 -27   1 17.4961 1060.12   2
 -27  27   0 857.484 792.331   1
   0 -27   0 1120.77 1040.31   4
   0 -27   0 1725.80 1348.09   2
 -26  -2   0-943.717 969.267   2
 -28   2   0-984.715 1092.24   2
  28 -26   0 1015.06 911.372   3
  26 -28   0 499.623 868.020   3
   2  26   0 955.622 924.727   1
  -2  28   0 1010.57 890.294   1
 -26  -2   0-1051.05 877.830   4
 -28   2   0 1513.66 938.771   4
 -25  -3  -1 1585.10 975.283   2
   3  25  -1-710.131 859.793   1
 -28   3  -1 1912.69 1084.21   2
  28 -25  -1 1437.51 961.693   3
  25 -28  -1-1209.71 888.436   3
  -3  28  -1 1114.40 889.433   1
 -25  -3  -1 1146.63 863.564   4
 -28   3  -1 144.779 776.488   4
   3  25   2 493.576 787.742   1
 -25  -3   2 1024.94 990.412   2
 -28   3   2 2982.70 1186.08   2
  28 -25   2 1134.14 1115.50   3
  25 -28   2-913.944 857.805   3
  -3  28   2-245.649 738.268   1
 -25  -3   2-940.867 963.369   4
 -28   3   2 1560.63 1007.35   4
   4  24  -2 1582.56 1005.79   1
 -24  -4  -2 2367.68 1215.56   2
  -4  28  -2 7.21536 793.249   1
 -28   4  -2 3883.12 1334.04   2
  28 -24  -2-871.962 864.356   3
  24 -28  -2-128.176 798.667   3
 -24  -4  -2-111.982 880.466   4
 -28   4  -2 1466.87 1003.23   4
 -24  -4   1 1560.25 948.049   2
 -28   4   1 3045.19 1237.09   2
  28 -24   1 3457.58 1148.68   3
  24 -28   1 1926.18 1031.42   3
   4  24   1 643.401 767.891   1
  -4  28   1 806.808 725.171   1
 -24  -4   1 1319.56 1020.53   4
 -28   4   1 1512.22 958.620   4
 -23  -5  -3-1259.25 1063.78   2
 -28   5  -3 46.5179 935.315   2
  28 -23  -3 914.490 945.362   3
  23 -28  -3 1797.01 977.489   3
 -23  -5  -3 105.288 849.325   4
 -28   5  -3 445.726 824.195   4
  -5  28  -3-124.618 756.138   1
   5  23  -3 1305.44 1036.97   1
   5  23   0 1508.59 920.268   1
 -23  -5   0 1736.52 1058.08   2
 -28   5   0 620.717 784.923   2
  -5  28   0 269.969 769.333   1
  28 -23   0 243.534 815.927   3
  23 -28   0-21.9766 752.199   3
 -23  -5   0 735.506 842.185   4
 -28   5   0 1871.13 950.947   4
 -23  -5   3 186.483 903.191   2
 -28   5   3 1808.55 1112.15   2
  28 -23   3 1234.75 1153.50   3
  -5  28   3 1657.77 852.482   1
 -23  -5   3 2096.03 1183.76   4
 -28   5   3 2488.15 1105.99   4
 -22  -6  -4 991.506 1081.20   2
 -28   6  -4 35.1570 846.159   2
  28 -22  -4-1868.80 986.763   3
  22 -28  -4 494.948 920.853   3
  -6  28  -4 978.602 903.240   1
 -22  -6  -4 724.091 955.608   4
   6  22  -4 285.775 766.766   1
 -28   6  -4 1555.43 957.150   4
  -6  28  -1 661.552 702.646   1
 -22  -6  -1 1181.75 1022.52   2
 -28   6  -1 485.107 821.179   2
  28 -22  -1 742.892 894.233   3
  22 -28  -1-386.863 804.312   3
   6  22  -1 1061.13 823.392   1
 -22  -6  -1 773.827 948.744   4
 -28   6  -1 971.513 859.876   4
 -22  -6   2 551.014 901.253   2
 -28   6   2 1587.38 966.562   2
  28 -22   2-222.308 918.058   3
  22 -28   2-213.590 874.642   3
 -22  -6   2 443.227 833.069   4
  -6  28   2 450.948 676.790   1
 -28   6   2 574.186 913.196   4
 -21  -7  -2 511.017 873.117   2
 -28   7  -2 1773.21 945.554   2
  28 -21  -2-47.0617 831.244   3
  21 -28  -2 968.139 793.335   3
   7  21  -2-294.019 721.522   1
 -21  -7  -2 20.9151 782.491   4
  -7  28  -2 1330.13 961.153   1
 -28   7  -2 1685.46 884.069   4
   7  21   1 1171.10 891.368   1
 -21  -7   1 212.967 829.007   2
 -28   7   1 1234.24 889.627   2
  -7  28   1 670.436 696.343   1
  28 -21   1 677.782 811.883   3
  21 -28   1-65.7883 841.260   3
 -21  -7   1 3375.41 1103.24   4
 -28   7   1 980.711 880.285   4
 -21  -7   4 26.0259 812.714   2
  -7  28   4 553.879 779.434   1
 -28   7   4-63.8875 832.101   2
 -21  -7   4 2436.26 1132.57   4
 -28   7   4-912.224 916.090   4
 -20  -8  -3 907.457 902.701   2
 -28   8  -3-293.826 767.118   2
   8  20  -3 2025.58 949.887   1
  28 -20  -3-70.1534 758.823   3
  20 -28  -3 98.1024 794.883   3
  -8  28  -3 777.995 781.266   1
 -20  -8  -3 1702.11 1084.58   4
 -28   8  -3 2691.64 1014.16   4
  -8  28   0 786.527 761.973   1
 -20  -8   0 2202.55 1049.32   2
 -28   8   0 2203.98 1000.58   2
   8  20   0 1040.33 746.685   1
  28 -20   0-1079.19 832.497   3
  20 -28   0 336.513 838.644   3
 -20  -8   0 999.522 776.319   4
 -28   8   0 1406.32 925.443   4
  -8  28   3 517.986 644.344   1
 -20  -8   3 408.493 821.536   2
 -28   8   3-593.080 814.154   2
  28 -20   3 2461.41 1091.10   3
 -20  -8   3 1631.86 1062.22   4
 -28   8   3 506.640 796.908   4
 -19  -9  -4-704.096 1118.04   2
 -28   9  -4 174.532 773.046   2
   9  19  -4-573.837 778.286   1
  28 -19  -4 344.481 760.585   3
  19 -28  -4 234.040 781.184   3
  -9  28  -4 553.427 951.426   1
 -28   9  -4-180.726 1158.12   1
 -19  -9  -4 211.142 889.840   4
 -28   9  -4 897.393 853.159   4
 -19  -9  -1-451.156 881.801   2
 -28   9  -1 774.749 933.723   2
  28 -19  -1 70.3031 718.851   3
  19 -28  -1 252.381 817.985   3
   9  19  -1 1565.01 876.134   1
  -9  28  -1 572.555 681.158   1
 -19  -9  -1 739.605 888.370   4
 -28   9  -1 361.107 699.920   4
 -19  -9   2-444.763 807.888   2
 -28   9   2-641.316 779.820   2
  -9  28   2-101.096 635.709   1
  28 -19   2 20.8213 865.439   3
  19 -28   2-1235.38 893.731   3
  19 -28   2-348.385 707.292   2
 -19  -9   2 292.123 794.389   4
 -28   9   2 625.128 744.572   4
 -18 -10  -5-428.803 1050.89   2
  10  18  -5 7.81540 872.055   3
 -28  10  -5 642.876 849.277   2
  10  18  -5 2424.00 1022.96   1
  28 -18  -5 978.688 917.620   3
  18 -28  -5 256.782 905.566   3
 -10  28  -5 896.347 923.561   1
 -18 -10  -5 34.9822 892.887   4
 -28  10  -5 87.0401 1128.98   1
 -28  10  -5 1113.20 916.995   4
 -18 -10  -2-1467.33 1108.34   2
 -28  10  -2 692.003 792.400   2
  10  18  -2 1060.40 916.294   1
  28 -18  -2-104.712 794.026   3
  18 -28  -2 1322.48 838.969   3
 -10  28  -2 723.055 774.132   1
 -28  10  -2 1151.46 1088.15   1
 -18 -10  -2 1006.87 864.065   4
 -28  10  -2-322.630 750.328   4
 -10  28   1 1087.21 837.509   1
 -18 -10   1-243.424 895.968   2
 -28  10   1 426.599 722.862   2
  28 -18   1-145.109 831.317   3
  18 -28   1 2165.90 976.129   3
  18 -28   1 177.763 711.232   2
 -18 -10   1 194.461 842.776   4
 -28  10   1 1617.67 885.143   4
 -18 -10   4 459.869 874.557   2
 -10  28   4 261.928 689.678   1
 -28  10   4 1730.47 1085.45   2
  18 -28   4 1448.92 933.324   4
 -18 -10   4 818.796 855.142   4
 -28  10   4 1156.54 993.597   4
 -17 -11  -3 826.578 1120.75   2
  11  17  -3-189.074 722.186   3
  11  17  -3 2215.25 925.065   1
 -28  11  -3 919.469 766.901   2
  28 -17  -3 1354.53 896.016   3
 -11  28  -3 1655.28 922.740   1
  17 -28  -3 477.109 771.457   3
 -28  11  -3 431.673 1100.40   1
 -17 -11  -3 556.789 838.620   4
 -28  11  -3 2771.88 987.958   4
  11  17   0-16.8962 369.975   3
 -17 -11   0 519.550 890.898   2
 -28  11   0 391.832 795.467   2
  28 -17   0 1477.49 906.494   3
  17 -28   0 2314.09 1077.49   3
 -11  28   0 286.975 700.419   1
 -17 -11   0 413.449 790.605   4
 -28  11   0 1876.20 932.149   4
 -17 -11   3 39.0809 814.445   2
 -28  11   3 2478.76 966.446   2
  28 -17   3 821.692 919.972   3
 -11  28   3 447.671 603.614   1
  17 -28   3 1550.01 891.670   4
 -17 -11   3 1699.07 953.099   4
 -28  11   3 2888.57 1119.91   4
 -16 -12  -4 2051.70 1155.63   2
  12  16  -4 1063.79 826.132   3
  12  16  -4 334.611 793.482   1
 -28  12  -4 1866.28 904.527   2
 -12  28  -4 1084.35 945.433   1
  28 -16  -4-121.982 733.144   3
  16 -28  -4 949.444 850.636   3
 -16 -12  -4-824.457 851.086   4
 -28  12  -4-421.670 1106.25   1
 -28  12  -4 272.560 834.794   4
 -16 -12  -1 1715.34 1186.55   2
  12  16  -1-47.2455 490.284   3
 -28  12  -1 793.565 787.298   2
  28 -16  -1 1584.92 941.242   3
  16 -28  -1-265.180 721.985   3
 -12  28  -1-7.71333 704.213   1
  12  16  -1 1123.88 901.062   1
 -28  12  -1 1287.84 1031.06   1
 -16 -12  -1 199.318 749.302   4
 -28  12  -1 2118.31 937.747   4
 -12  28   2 126.333 596.532   1
 -16 -12   2 1029.74 890.714   2
 -28  12   2 217.303 706.410   2
  28 -16   2 328.007 936.680   3
 -28  12   2 225.328 688.930   1
  16 -28   2-221.155 797.246   2
 -16 -12   2 1155.69 980.964   4
 -28  12   2 69.9425 743.867   4
 -28  12   5 1092.40 929.253   4
 -12  28   5 54.6423 639.087   1
 -16 -12   5-1245.79 872.231   2
 -28  12   5-1459.57 1025.20   2
  16 -28   5 473.470 935.310   4
 -28  12   5 1488.98 718.379   1
 -16 -12   5 1554.32 1042.71   4
 -28  13  -5-1044.12 812.357   4
  13  15  -5 1043.68 981.718   3
  13  15  -5 184.691 767.524   1
 -13  28  -5 1978.12 1097.08   1
 -28  13  -5 1006.26 800.579   2
  28 -15  -5 143.984 796.926   3
  15 -28  -5-268.458 809.857   3
 -15 -13  -5 1512.07 1004.89   4
 -28  13  -5 1594.11 1381.65   1
 -15 -13  -5 419.083 1147.97   2
 -15 -13  -2-262.123 1074.09   2
  13  15  -2 495.249 575.791   3
  13  15  -2 437.708 716.680   1
 -28  13  -2-1013.94 695.093   2
 -13  28  -2 66.8002 753.029   1
  28 -15  -2 434.965 700.758   3
  15 -28  -2-72.6284 812.586   3
 -15 -13  -2 665.268 790.583   4
 -28  13  -2-656.731 987.805   1
 -28  13  -2 1516.21 842.582   4
 -15 -13   1 369.453 775.966   2
 -28  13   1 476.502 783.257   2
  28 -15   1-246.781 788.475   3
  15 -28   1-74.4515 839.922   3
  15 -28   1 63.8165 843.687   2
 -13  28   1 47.1145 657.251   1
 -28  13   1 720.457 754.734   1
 -15 -13   1 1218.04 891.700   4
 -28  13   1 1569.04 932.021   4
 -28  13   4 1701.70 982.405   4
 -15 -13   4-27.1752 791.799   2
 -28  13   4-592.917 842.599   2
  15 -28   4 211.412 969.069   4
 -28  13   4 349.735 645.643   1
 -13  28   4 673.984 659.848   1
 -15 -13   4 786.297 885.336   4
 -28  14  -3 442.402 766.772   4
 -14 -14  -3 1737.16 1198.75   2
  14  14  -3 1565.43 773.658   3
 -14  28  -3 827.853 922.795   1
 -28  14  -3-333.096 700.294   2
  28 -14  -3 1858.08 904.789   3
  14 -28  -3 199.776 817.263   3
  14  14  -3 1193.65 818.655   1
 -14 -14  -3 1463.17 1005.42   4
 -28  14  -3 1431.49 1089.44   1
 -28  14   0 2973.36 1060.13   4
 -14 -14   0 1727.59 982.858   2
 -28  14   0 438.370 786.499   2
  28 -14   0 480.869 719.900   3
 -14  28   0 1965.36 770.567   1
  14 -28   0-14.6235 880.275   3
  14 -28   0 1632.02 994.848   2
 -14 -14   0 1963.11 967.605   4
 -28  14   0 1886.43 947.274   1
 -28  14   3 3543.19 1114.30   4
 -14  28   3 1727.22 742.770   1
 -14 -14   3 3061.65 1157.68   2
 -28  14   3 3018.00 1095.30   2
  14 -28   3 590.547 857.782   4
 -14 -14   3 2613.00 1065.81   4
 -28  14   3 1290.38 770.234   1
  14 -28   3 74.7452 419.695   2
 -15  28  -4-561.328 983.226   1
  15  13  -4 937.602 857.055   3
  15  13  -4-340.374 801.408   1
 -28  15  -4 665.186 659.578   2
  28 -13  -4-402.951 731.775   3
  13 -28  -4 1214.66 888.023   3
 -13 -15  -4-872.222 892.558   4
 -28  15  -4 1834.40 1282.14   1
 -13 -15  -4-593.070 1044.23   2
 -28  15  -1 2991.28 1007.99   4
 -13 -15  -1 1167.16 999.227   2
  15  13  -1 528.113 383.645   3
 -15  28  -1 2030.49 903.764   1
 -28  15  -1 329.270 643.724   2
  28 -13  -1 1372.40 779.610   3
  13 -28  -1 2004.96 1018.21   3
  13 -28  -1 1081.16 940.665   2
 -13 -15  -1 474.111 735.690   4
 -28  15  -1 2347.13 1050.57   1
 -28  15   2-39.2758 721.790   4
 -13 -15   2 1003.71 869.922   2
 -28  15   2-59.5185 837.775   2
  28 -13   2 355.411 794.223   3
  13 -28   2-666.649 875.038   4
 -15  28   2 194.534 580.184   1
 -13 -15   2-795.080 903.490   4
  13 -28   2 87.5897 747.526   2
 -28  15   2 78.1743 649.087   1
 -13 -15   5-1034.10 967.151   2
 -15  28   5-46.3031 598.170   1
 -13 -15   5 759.068 914.865   4
 -28  15   5 670.569 618.320   1
 -28  16  -5 1607.70 1302.16   1
 -16  28  -5 160.275 832.059   1
  16  12  -5 774.989 848.516   3
  28 -12  -5 254.783 918.449   3
 -28  16  -5-986.379 733.805   2
  12 -28  -5 367.132 831.694   3
  12 -28  -5 661.176 1130.52   2
  16  12  -5 392.836 831.969   1
 -12 -16  -5 19.1278 800.986   4
 -12 -16  -5 1458.34 1317.72   2
 -12 -16  -2 203.562 1081.41   2
 -28  16  -2 1268.44 825.872   4
 -16  28  -2-208.545 744.953   1
  16  12  -2 42.3535 499.508   3
  28 -12  -2 569.170 677.173   3
 -28  16  -2 754.919 746.803   2
  12 -28  -2 578.563 892.445   3
  12 -28  -2 733.831 1002.16   4
  12 -28  -2-848.321 918.526   2
 -12 -16  -2-587.344 833.081   4
 -28  16  -2-627.392 925.156   1
 -28  16   1 886.946 835.796   4
 -12 -16   1 778.072 777.057   2
 -16  28   1-85.1211 684.352   1
  28 -12   1 731.122 877.479   3
 -28  16   1-873.182 895.727   2
  12 -28   1-158.308 854.715   3
  12 -28   1-292.028 802.436   4
  12 -28   1-562.885 968.245   2
 -12 -16   1-460.929 803.137   4
 -28  16   1 311.252 709.708   1
 -28  16   4 617.302 673.185   1
 -12 -16   4 44.9817 895.721   2
 -16  28   4 161.612 616.998   1
 -28  16   4-467.986 1023.05   2
  12 -28   4 685.932 948.245   4
 -12 -16   4 548.721 887.646   4
 -28  17  -3 1345.61 1055.45   1
 -17  28  -3 1968.33 968.727   1
  17  11  -3 857.531 671.348   3
  28 -11  -3 1602.56 792.981   3
 -28  17  -3 1903.03 711.589   2
  11 -28  -3 2384.20 932.065   3
  11 -28  -3 2792.69 1107.01   4
  11 -28  -3 2637.58 1231.61   2
 -11 -17  -3 1114.39 975.627   4
 -11 -17  -3 1813.75 1215.13   2
 -11 -17   0 1130.14 1039.47   2
 -17  28   0 1727.61 851.754   1
  28 -11   0 1354.01 827.573   3
 -28  17   0 1574.83 838.391   2
  11 -28   0 4120.96 1216.46   3
  11 -28   0 140.630 802.491   4
  11 -28   0 1415.54 1063.12   2
 -11 -17   0 1884.98 945.151   4
 -28  17   0 2509.92 940.038   1
 -28  17   3 283.690 677.115   1
 -11 -17   3-144.869 808.349   2
 -28  17   3 1864.35 1019.54   2
  11 -28   3 2040.51 1009.75   4
 -11 -17   3-235.240 844.108   4
 -17  28   3 1409.91 672.554   1
  11 -28   3 766.515 526.722   2
 -28  18  -4-28.8570 994.314   1
  18  10  -4-253.885 712.938   3
  28 -10  -4 394.349 815.651   3
 -28  18  -4 732.333 652.372   2
  10 -28  -4 83.7336 786.398   3
  10 -28  -4 41.7044 1020.44   4
  10 -28  -4-1126.43 1290.99   2
 -10 -18  -4 224.259 801.229   4
 -18  28  -4 616.562 873.513   1
 -10 -18  -4 1404.28 1110.65   2
 -10 -18  -1 1108.03 1166.15   2
 -28  18  -1-295.203 824.828   1
 -18  28  -1 2730.41 989.550   1
  18  10  -1-172.208 274.049   3
  28 -10  -1 1181.76 834.890   3
 -28  18  -1 1013.80 664.345   2
  10 -28  -1-1144.05 1024.00   3
  10 -28  -1-568.767 889.969   4
  10 -28  -1 1577.42 1133.62   2
 -10 -18  -1 1053.47 869.451   4
 -28  18   2 1573.91 821.753   1
 -10 -18   2-1441.38 954.353   2
 -18  28   2 1056.95 737.135   1
  28 -10   2 509.925 712.791   3
 -28  18   2 1496.27 1011.05   2
  10 -28   2 546.069 871.418   4
 -10 -18   2-474.265 820.615   4
  10 -28   2-41.9326 739.467   2
 -10 -18   5-217.076 881.022   2
  10 -28   5 2743.98 1145.30   4
 -18  28   5 975.321 684.387   1
 -10 -18   5 2516.71 1102.36   4
 -28  19  -2-468.214 873.985   1
  19   9  -2 634.331 481.161   3
  28  -9  -2 618.963 757.309   3
 -28  19  -2 234.184 686.018   2
   9 -28  -2 23.6463 776.311   3
   9 -28  -2 163.204 875.704   4
   9 -28  -2 385.362 913.518   2
  -9 -19  -2-166.261 821.597   4
 -19  28  -2 124.240 744.816   1
  -9 -19  -2 1522.47 1235.90   2
  -9 -19   1 527.269 826.359   2
 -28  19   1 634.645 696.486   1
 -19  28   1-419.296 665.492   1
  28  -9   1 614.204 751.609   3
 -28  19   1-889.483 819.562   2
   9 -28   1 1143.46 913.646   4
  -9 -19   1-115.967 853.278   4
   9 -28   1 1089.82 1034.14   2
 -19  28   4 287.901 570.783   1
 -28  19   4-542.960 647.482   1
  -9 -19   4-840.239 866.006   2
   9 -28   4-268.369 897.078   4
  -9 -19   4 1070.73 868.333   4
 -28  20  -3 1537.70 1015.17   1
  20   8  -3 790.764 629.092   3
  28  -8  -3 575.895 695.654   3
   8 -28  -3 1938.18 959.000   3
 -28  20  -3 920.186 678.257   2
   8 -28  -3 1372.90 991.822   4
   8 -28  -3 83.1838 1036.11   2
  -8 -20  -3 2714.55 1117.36   4
 -20  28  -3 1029.05 942.282   1
  -8 -20  -3-50.9163 1266.53   2
  -8 -20   0 3315.55 1265.46   2
 -20  28   0 1431.39 762.473   1
 -28  20   0 1119.38 790.258   1
  28  -8   0 823.763 701.379   3
 -28  20   0 267.661 685.747   2
   8 -28   0 1460.86 1044.36   4
  -8 -20   0 1320.20 931.895   4
   8 -28   0 1147.26 1177.27   2
   8 -28   3 2431.66 816.010   2
  -8 -20   3 698.305 956.317   2
 -28  20   3 1472.11 768.891   1
 -20  28   3 1517.55 689.967   1
   8 -28   3 2743.23 1152.84   4
  -8 -20   3 1725.47 1036.08   4
 -28  21  -4 1278.34 1111.37   1
  21   7  -4 1150.59 789.955   3
  28  -7  -4 1851.31 899.367   3
   7 -28  -4 183.178 774.374   3
 -28  21  -4 890.763 662.483   2
   7 -28  -4-117.874 989.926   4
  -7 -21  -4 350.575 960.817   4
   7 -28  -4 924.960 1109.90   2
 -21  28  -4 1993.31 996.509   1
  -7 -21  -4-98.3160 1200.29   2
 -28  21  -1 1283.61 864.052   1
  28  -7  -1 184.166 658.567   3
   7 -28  -1-419.210 769.717   3
   7 -28  -1-892.609 1025.05   4
  -7 -21  -1-248.802 974.121   4
   7 -28  -1 827.700 1123.24   2
 -21  28  -1 839.786 834.738   1
  -7 -21  -1 638.410 1032.17   2
  -7 -21   2 2252.21 1087.29   2
 -28  21   2 1167.54 705.872   1
 -21  28   2 268.631 603.873   1
   7 -28   2 130.607 992.900   4
  -7 -21   2 963.442 868.117   4
   7 -28   2 603.874 763.908   2
 -28  22  -2 263.121 829.615   1
  22   6  -2 570.503 521.197   3
  28  -6  -2 143.953 628.615   3
   6 -28  -2 469.945 861.878   3
   6 -28  -2 109.738 844.989   4
  -6 -22  -2-983.603 939.182   4
 -22  28  -2 1023.01 853.921   1
   6 -28  -2 1783.16 1166.65   2
  -6 -22  -2-89.2953 1083.08   2
 -22  28   1 217.816 682.350   1
  -6 -22   1 429.357 891.042   2
 -28  22   1 246.668 749.322   1
  28  -6   1 1645.77 677.660   3
   6 -28   1 574.306 859.178   4
  -6 -22   1 64.7170 889.713   4
   6 -28   1 2023.85 1158.21   2
   6 -28   4 251.667 666.022   2
  -6 -22   4 870.216 931.161   2
 -28  22   4 1731.46 652.832   1
 -22  28   4 2128.30 704.709   1
   6 -28   4 636.212 941.529   4
  -6 -22   4 611.063 859.016   4
 -28  23  -3 1890.53 1078.29   1
  23   5  -3 1153.37 705.938   3
  28  -5  -3 655.434 740.494   3
   5 -28  -3 1194.90 772.892   3
   5 -28  -3 264.223 923.339   4
 -23  28  -3 1160.18 895.138   1
  -5 -23  -3 1083.63 1029.92   4
   5 -28  -3 7.32670 1043.28   2
  -5 -23  -3-1156.69 1134.61   2
  -5 -23   0-673.909 1053.97   2
 -28  23   0 992.359 804.791   1
  28  -5   0-135.379 602.964   3
   5 -28   0 1107.41 1056.37   4
  -5 -23   0 25.0632 929.950   4
 -23  28   0-329.757 685.200   1
   5 -28   0-38.2549 1121.47   2
   5 -28   3 311.996 681.125   2
  -5 -23   3 769.538 940.548   2
 -23  28   3 698.617 654.728   1
 -28  23   3 1733.17 740.996   1
   5 -28   3-214.611 914.602   4
  -5 -23   3 441.807 880.169   4
 -28  24  -1 3008.72 1012.52   1
  28  -4  -1 1076.28 721.405   3
   4 -28  -1 1580.37 1087.16   4
 -24  28  -1 75.0778 788.616   1
  -4 -24  -1 1636.14 1064.16   4
   4 -28  -1 1519.83 1100.50   2
  -4 -24  -1 2296.74 1301.17   2
   4 -28   2 584.192 855.746   2
 -24  28   2 660.947 718.929   1
  -4 -24   2 1347.42 1038.31   2
 -28  24   2 709.035 764.300   1
   4 -28   2 1658.04 1151.73   4
  -4 -24   2 1761.44 1209.11   4
  25   3  -2 511.985 613.428   3
 -28  25  -2 2016.20 1028.10   1
  28  -3  -2 1394.28 747.404   3
 -25  28  -2 1098.21 931.260   1
   3 -28  -2 1359.16 1126.17   4
  -3 -25  -2 1092.83 1006.26   4
   3 -28  -2-211.634 1253.58   2
  -3 -25  -2 785.703 1253.96   2
  -3 -25   1 1915.72 1118.60   2
 -28  25   1 1007.90 782.226   1
   3 -28   1-234.644 936.583   4
  -3 -25   1 1168.70 1088.49   4
 -25  28   1 1020.91 837.619   1
   3 -28   1 783.452 1063.11   2
 -28  26   0 1487.59 944.895   1
 -26  28   0 1732.81 792.626   1
   2 -28   0 1386.27 1076.02   4
  -2 -26   0 2489.87 1282.63   4
   2 -28   0-1066.55 1242.64   2
  -2 -26   0-949.265 1285.67   2
   4  25   0-378.225 834.348   1
 -25  -4   0 2269.00 1224.45   2
 -29   4   0 879.842 916.090   2
  29 -25   0 496.958 910.131   3
  25 -29   0 260.677 848.638   3
  -4  29   0 2150.85 974.060   1
 -25  -4   0 195.464 922.519   4
 -29   4   0 314.655 866.392   4
 -24  -5  -1-957.590 997.490   2
 -29   5  -1-743.080 953.841   2
  -5  29  -1 394.191 823.968   1
  29 -24  -1 1328.90 1032.47   3
  24 -29  -1-378.842 884.213   3
   5  24  -1 174.028 814.574   1
 -24  -5  -1-843.109 883.052   4
 -29   5  -1 913.871 884.306   4
  -5  29   2-646.298 810.630   1
 -24  -5   2 686.317 894.868   2
 -29   5   2 87.1948 879.458   2
  29 -24   2-182.133 941.467   3
  24 -29   2-1357.90 965.399   3
 -24  -5   2-1033.30 1001.93   4
 -29   5   2-116.175 826.858   4
  -6  29  -2 850.636 855.574   1
 -23  -6  -2 960.296 1047.99   2
 -29   6  -2 1246.48 878.504   2
  29 -23  -2 2029.47 984.307   3
   6  23  -2 3003.57 1129.01   1
  23 -29  -2 1570.82 896.827   3
 -23  -6  -2 2641.49 1168.53   4
 -29   6  -2 7.80208 806.074   4
   6  23   1-212.393 738.540   1
 -23  -6   1 258.393 972.960   2
 -29   6   1 65.0837 864.836   2
  29 -23   1-90.7603 947.999   3
  23 -29   1-127.548 822.840   3
  -6  29   1 298.546 723.277   1
 -23  -6   1-396.904 934.512   4
 -29   6   1 1151.88 982.457   4
 -22  -7  -3 571.520 990.653   2
 -29   7  -3 1728.13 1054.91   2
   7  22  -3 655.387 804.795   1
  29 -22  -3-534.955 839.270   3
  22 -29  -3 1090.27 995.525   3
  -7  29  -3 1373.34 1059.29   1
 -22  -7  -3 101.377 899.432   4
 -29   7  -3 318.387 795.093   4
 -22  -7   0 1553.05 1141.58   2
  -7  29   0 979.297 809.504   1
 -29   7   0 162.524 882.056   2
  29 -22   0 334.961 1038.66   3
  22 -29   0 2158.38 1065.86   3
 -22  -7   0 2819.24 1217.66   4
   7  22   0-348.651 770.132   1
 -29   7   0 912.705 925.646   4
 -22  -7   3 1483.69 1085.22   2
  -7  29   3-549.397 779.584   1
 -29   7   3-366.847 922.844   2
  29 -22   3 1279.66 1070.34   3
 -22  -7   3-568.003 966.805   4
 -29   7   3-472.120 843.879   4
 -21  -8  -1-2729.63 1339.99   2
 -29   8  -1 559.062 865.206   2
   8  21  -1 705.958 832.582   1
  29 -21  -1-572.607 852.643   3
  21 -29  -1-35.3591 773.117   3
 -21  -8  -1-34.0736 794.121   4
 -29   8  -1 587.023 862.600   4
  -8  29  -1 602.349 830.143   1
 -21  -8   2-314.438 984.306   2
 -29   8   2 444.869 756.992   2
  29 -21   2 1176.01 1003.99   3
  21 -29   2 427.135 756.315   3
  21 -29   2-471.834 764.250   2
  -8  29   2 1058.80 662.233   1
 -21  -8   2-489.814 846.847   4
 -29   8   2 1380.29 946.719   4
 -20  -9  -2 1458.16 1168.08   2
   9  20  -2 182.498 745.998   1
 -29   9  -2-1459.17 985.711   2
  29 -20  -2 1465.01 927.966   3
  20 -29  -2 534.184 833.127   3
  -9  29  -2 234.072 785.138   1
 -20  -9  -2-1603.03 1044.33   4
 -29   9  -2 1625.51 933.773   4
 -20  -9   1-1143.78 872.204   2
  -9  29   1 1421.23 788.537   1
 -29   9   1 2239.19 1038.63   2
  29 -20   1-782.643 865.245   3
  20 -29   1 1277.10 1045.72   3
 -20  -9   1-9.26316 850.045   4
 -29   9   1 1825.58 985.818   4
 -19 -10  -3 625.758 1058.84   2
 -29  10  -3 430.756 916.405   2
  29 -19  -3 1226.35 1015.58   3
  19 -29  -3-162.099 949.384   3
 -10  29  -3 179.107 897.447   1
 -29  10  -3 1016.43 1210.74   1
 -19 -10  -3 891.704 984.750   4
  10  19  -3 498.649 758.035   1
 -29  10  -3 1893.14 1028.41   4
 -19 -10   0 1659.65 1114.32   2
 -29  10   0 336.655 797.628   2
  10  19   0 3140.98 931.282   1
  29 -19   0 2077.72 1005.83   3
  19 -29   0-219.928 914.715   3
 -19 -10   0 2947.68 1081.56   4
 -10  29   0 2803.19 961.962   1
 -29  10   0 3119.78 1131.26   4
 -19 -10   3-57.1447 902.376   2
 -29  10   3-194.136 809.254   2
  29 -19   3 2622.64 1172.08   3
 -10  29   3 1326.60 819.329   1
 -19 -10   3 1118.38 858.407   4
 -29  10   3 578.928 933.715   4
 -18 -11  -4-1014.50 1245.03   2
  11  18  -4 810.428 822.098   3
 -29  11  -4 794.741 834.334   2
  29 -18  -4 454.181 863.427   3
  18 -29  -4 1087.24 868.850   3
 -11  29  -4 1302.39 942.295   1
 -18 -11  -4-131.396 830.277   4
 -29  11  -4 1224.73 1180.96   1
  11  18  -4-622.244 784.556   1
 -29  11  -4 1175.17 830.731   4
  11  18  -1-40.4040 572.606   3
 -18 -11  -1 691.749 879.698   2
 -29  11  -1 701.908 775.705   2
  29 -18  -1 1222.60 885.664   3
  18 -29  -1-673.615 861.677   3
 -11  29  -1 1863.75 971.741   1
 -29  11  -1 1171.75 1090.50   1
  11  18  -1 131.780 799.996   1
 -18 -11  -1-142.628 824.931   4
 -29  11  -1-417.231 735.940   4
 -18 -11   2-297.368 811.328   2
 -11  29   2-159.040 629.381   1
 -29  11   2 79.8268 783.412   2
  29 -18   2 128.408 870.664   3
  18 -29   2 475.556 975.024   3
  18 -29   2 416.691 834.995   2
 -18 -11   2 656.604 854.505   4
 -29  11   2 2057.12 980.323   4
 -17 -12  -2 795.870 961.406   2
  12  17  -2 700.741 673.448   3
 -29  12  -2 1769.17 938.708   2
  29 -17  -2 1203.07 821.048   3
  17 -29  -2 248.594 906.153   3
 -12  29  -2 174.137 812.910   1
  12  17  -2 2057.10 945.586   1
 -29  12  -2 2157.35 1128.53   1
 -17 -12  -2 1467.15 980.788   4
 -29  12  -2 692.209 796.698   4
 -17 -12   1 1070.19 1079.14   2
 -29  12   1 287.889 809.268   2
  29 -17   1 733.977 924.967   3
  17 -29   1-736.769 933.351   3
  17 -29   1 497.827 844.334   2
 -29  12   1 1998.55 1045.76   1
 -17 -12   1-677.593 919.473   4
 -12  29   1-279.514 721.062   1
 -29  12   1 270.697 784.589   4
 -29  12   4 1280.75 1052.32   4
 -12  29   4-474.009 686.228   1
 -17 -12   4 1984.45 1001.88   2
 -29  12   4 365.448 859.604   2
  17 -29   4 2177.08 1157.52   4
 -29  12   4 1361.31 802.473   1
 -17 -12   4-354.116 912.729   4
 -16 -13  -3 994.188 1212.77   2
  13  16  -3 49.8520 708.028   3
 -29  13  -3-545.525 689.735   2
 -13  29  -3 1201.00 1051.68   1
  29 -16  -3 672.092 876.137   3
  13  16  -3-225.074 811.422   1
  16 -29  -3-2195.56 1180.92   3
 -16 -13  -3 543.652 858.335   4
 -29  13  -3 1171.24 1159.09   1
 -29  13  -3 165.443 777.385   4
 -16 -13   0 2718.46 1171.10   2
 -29  13   0 669.484 771.622   2
  29 -16   0 1333.12 851.374   3
  16 -29   0 794.989 849.818   3
 -13  29   0 2120.33 888.852   1
  16 -29   0 1165.69 871.057   2
 -29  13   0 2365.02 1112.43   1
 -16 -13   0 2538.63 1098.33   4
 -29  13   0 2518.72 1031.74   4
 -29  13   3 477.149 940.591   4
 -16 -13   3-913.003 762.770   2
 -13  29   3-593.021 609.767   1
 -29  13   3 1509.86 991.342   2
  16 -29   3 661.652 947.648   4
 -29  13   3 387.566 804.175   1
 -16 -13   3-531.644 842.959   4
 -29  14  -4 3899.21 1177.38   4
  14  15  -4 68.8073 730.366   3
 -14  29  -4 1086.59 935.064   1
  14  15  -4-480.486 952.883   1
 -29  14  -4 1790.77 804.553   2
  29 -15  -4-267.448 767.831   3
  15 -29  -4-1882.25 996.380   3
 -15 -14  -4-866.445 1002.90   4
 -29  14  -4-446.310 1207.72   1
 -15 -14  -4 1330.85 1064.25   2
 -29  14  -1-395.168 746.174   4
 -15 -14  -1-1872.58 1152.21   2
  14  15  -1-359.587 414.126   3
 -29  14  -1 1195.03 876.037   2
  29 -15  -1 752.507 744.437   3
 -14  29  -1 1251.96 831.922   1
  15 -29  -1 313.426 815.779   3
  15 -29  -1 734.763 859.917   2
 -15 -14  -1 454.987 741.849   4
 -29  14  -1 517.380 925.848   1
 -29  14   2 2715.43 1046.84   4
 -15 -14   2 267.115 895.141   2
 -29  14   2 1722.73 1116.84   2
  29 -15   2 674.793 866.068   3
  15 -29   2 870.924 831.244   4
  15 -29   2 1333.65 913.146   2
 -29  14   2 275.403 747.227   1
 -15 -14   2-416.730 794.665   4
 -14  29   2 412.729 611.353   1
 -29  15  -2-185.993 870.341   4
 -14 -15  -2-852.672 984.763   2
  15  14  -2-357.224 553.500   3
 -15  29  -2 48.9664 825.135   1
 -29  15  -2 1457.60 805.721   2
  29 -14  -2-142.902 742.870   3
  14 -29  -2-201.805 798.071   3
  14 -29  -2 1571.73 1066.59   2
 -14 -15  -2-360.806 815.800   4
 -29  15  -2 2580.81 1285.12   1
 -29  15   1 382.869 854.996   4
 -14 -15   1 682.688 881.987   2
 -29  15   1-355.157 769.097   2
  29 -14   1 465.522 798.000   3
  14 -29   1 1091.58 1007.29   3
  14 -29   1 1706.46 980.115   4
 -15  29   1 286.063 754.961   1
  14 -29   1 1618.20 1011.17   2
 -14 -15   1 759.590 815.351   4
 -29  15   1 56.2257 708.718   1
 -29  15   4 1612.13 1004.40   4
 -14 -15   4 692.929 902.438   2
 -29  15   4 962.113 944.626   2
 -15  29   4 114.678 640.158   1
  14 -29   4 186.892 919.662   4
 -14 -15   4 1120.78 1004.96   4
 -29  15   4-57.7995 667.999   1
  16  13  -3 212.936 628.381   3
 -16  29  -3-43.2456 797.306   1
  29 -13  -3 1465.46 957.427   3
 -29  16  -3 346.157 694.296   2
  13 -29  -3-263.028 840.455   3
  13 -29  -3-475.774 913.621   2
 -13 -16  -3 3536.98 1102.08   4
 -29  16  -3 870.054 1252.34   1
 -13 -16  -3-1378.74 1170.47   2
 -29  16   0 1320.34 810.959   4
 -13 -16   0 598.792 936.670   2
 -16  29   0 2557.32 965.960   1
  29 -13   0-323.510 747.207   3
 -29  16   0 1330.23 856.692   2
  13 -29   0 3234.20 1180.82   3
  13 -29   0 3066.07 1160.57   4
  13 -29   0 691.804 1077.31   2
 -13 -16   0 1960.37 1071.47   4
 -29  16   0 1989.30 990.739   1
 -16  29   3 309.205 636.703   1
 -13 -16   3 277.626 885.704   2
 -29  16   3-1283.44 968.693   2
  13 -29   3 169.545 838.797   4
 -13 -16   3 613.317 923.017   4
 -29  16   3-212.377 706.043   1
  13 -29   3 157.869 478.172   2
 -29  17  -4 797.734 1239.04   1
 -17  29  -4 2177.61 1135.38   1
  17  12  -4-874.667 816.058   3
  29 -12  -4 299.348 762.305   3
 -29  17  -4-95.0046 606.177   2
  12 -29  -4 275.479 820.576   3
  12 -29  -4 2261.02 1338.76   4
  12 -29  -4 2347.43 1401.19   2
 -12 -17  -4 1292.91 989.951   4
 -12 -17  -4 1306.66 1351.70   2
 -12 -17  -1 1376.73 1202.83   2
 -17  29  -1 1279.67 870.662   1
  29 -12  -1 1308.48 885.216   3
 -29  17  -1 576.736 747.224   2
  12 -29  -1 39.3808 939.079   3
  12 -29  -1 842.922 1035.78   4
  12 -29  -1 1290.45 951.469   2
 -12 -17  -1 674.986 850.371   4
 -29  17  -1 69.0703 865.749   1
 -12 -17   2 2326.89 1106.35   2
 -29  17   2 244.252 867.993   2
  29 -12   2 790.149 890.962   3
  12 -29   2 1328.10 1021.97   4
 -17  29   2 1575.53 752.190   1
 -12 -17   2 508.169 881.159   4
  12 -29   2 1030.00 872.048   2
 -29  17   2 1760.04 834.177   1
 -11 -18  -2-77.3734 1049.74   2
 -29  18  -2-171.962 854.854   1
 -18  29  -2 1426.78 926.021   1
  18  11  -2-52.8027 467.459   3
  29 -11  -2 1147.97 849.512   3
 -29  18  -2-454.624 657.318   2
  11 -29  -2-259.251 816.680   3
  11 -29  -2 723.701 1003.46   4
  11 -29  -2-222.833 912.259   2
 -11 -18  -2 475.141 855.856   4
 -29  18   1 1761.58 781.950   1
 -11 -18   1 1097.87 1111.44   2
 -18  29   1 1022.77 739.359   1
  29 -11   1 246.808 724.365   3
 -29  18   1-506.042 818.083   2
  11 -29   1 310.733 769.832   4
 -11 -18   1 1260.71 965.638   4
  11 -29   1-420.368 1008.99   2
 -29  18   4-782.154 705.771   1
 -18  29   4 81.9176 612.484   1
 -11 -18   4 2181.74 1095.43   2
  11 -29   4 723.439 923.287   4
 -11 -18   4-165.712 876.703   4
 -29  19  -3 218.168 951.818   1
  19  10  -3 498.637 656.878   3
  29 -10  -3 559.129 825.216   3
 -29  19  -3 249.694 654.605   2
  10 -29  -3 1245.92 947.377   3
  10 -29  -3 1465.58 1158.39   4
  10 -29  -3 424.910 1001.07   2
 -10 -19  -3 1356.92 1011.65   4
 -10 -19  -3 2762.37 1323.46   2
 -19  29  -3 2815.58 1086.96   1
 -29  19   0 2626.60 1026.53   1
 -10 -19   0 2040.39 1182.40   2
 -19  29   0 2950.21 997.723   1
  29 -10   0 480.738 712.284   3
 -29  19   0 2116.40 855.940   2
  10 -29   0 3038.07 1213.61   3
  10 -29   0 3496.38 1212.41   4
 -10 -19   0 1828.07 990.616   4
  10 -29   0 1512.44 1143.48   2
  10 -29   3 272.956 622.253   2
 -29  19   3 862.492 706.191   1
 -10 -19   3 402.230 879.784   2
  10 -29   3 1686.17 1035.19   4
 -19  29   3-749.096 653.454   1
 -10 -19   3-581.278 886.752   4
   9 -29  -4 1587.69 1063.82   2
  -9 -20  -4 1257.60 1367.39   2
  -9 -20  -1 1338.26 1077.17   2
 -20  29  -1 1548.34 909.333   1
 -29  20  -1-486.616 790.788   1
  29  -9  -1 152.662 659.028   3
 -29  20  -1 1264.55 839.244   2
   9 -29  -1 1151.90 885.557   3
   9 -29  -1 1255.52 904.376   4
  -9 -20  -1 38.4411 854.237   4
   9 -29  -1 1072.96 1059.98   2
  -9 -20   2 922.654 903.227   2
 -29  20   2 938.431 813.189   1
 -20  29   2 568.398 633.270   1
  29  -9   2 658.959 698.591   3
   9 -29   2 1161.26 1060.44   4
  -9 -20   2 228.454 861.841   4
   9 -29   2-77.7263 783.873   2
 -29  21  -2 864.190 848.902   1
  21   8  -2 503.613 537.372   3
  29  -8  -2-640.652 727.214   3
   8 -29  -2 298.199 842.936   3
 -29  21  -2 1467.88 833.073   2
   8 -29  -2 494.025 985.450   4
  -8 -21  -2-540.975 827.346   4
   8 -29  -2 93.1697 1002.77   2
 -21  29  -2 317.476 760.503   1
  -8 -21  -2 990.809 1120.89   2
  -8 -21   1-442.394 922.353   2
 -29  21   1 1211.82 861.509   1
 -21  29   1 342.995 704.902   1
  29  -8   1-346.668 680.062   3
   8 -29   1 1366.34 880.823   4
  -8 -21   1 325.444 951.059   4
   8 -29   1 655.043 1080.15   2
 -29  22  -3 1514.36 1126.79   1
  22   7  -3 938.775 691.922   3
  29  -7  -3 480.308 771.297   3
   7 -29  -3 871.635 836.682   3
   7 -29  -3 103.363 961.987   4
  -7 -22  -3-451.618 887.651   4
   7 -29  -3 1483.08 1063.52   2
 -22  29  -3 1017.42 970.802   1
  -7 -22  -3-680.364 1075.22   2
  -7 -22   0 573.944 1026.30   2
 -29  22   0 1000.27 885.460   1
  29  -7   0 1529.77 782.498   3
   7 -29   0 1584.00 1097.53   4
  -7 -22   0-93.8963 860.456   4
   7 -29   0 782.918 1121.79   2
 -22  29   0 847.753 853.651   1
   7 -29   3-395.375 672.193   2
  -7 -22   3 654.357 903.625   2
 -29  22   3 737.526 702.060   1
 -22  29   3 155.057 601.129   1
   7 -29   3-1457.42 1148.29   4
  -7 -22   3 419.359 923.835   4
 -29  23  -1 1221.81 989.671   1
  29  -6  -1-24.8573 643.519   3
   6 -29  -1 1283.74 1091.00   4
  -6 -23  -1 1584.67 978.961   4
   6 -29  -1 2525.11 1437.13   2
 -23  29  -1 676.302 862.559   1
  -6 -23  -1 286.140 1196.39   2
  -6 -23   2 2396.42 1135.38   2
 -23  29   2 1347.72 803.438   1
 -29  23   2 2591.21 915.025   1
   6 -29   2 1484.69 1066.06   4
  -6 -23   2 142.539 946.824   4
   6 -29   2 2132.72 1071.72   2
 -29  24  -2 2328.95 1066.91   1
  29  -5  -2 556.068 656.180   3
   5 -29  -2 892.912 785.909   3
   5 -29  -2 1268.89 1024.57   4
  -5 -24  -2 924.301 1015.65   4
 -24  29  -2 893.297 877.736   1
   5 -29  -2 1165.81 1363.70   2
  -5 -24  -2 330.220 1143.73   2
  -5 -24   1 763.296 1136.92   2
 -29  24   1 576.805 763.596   1
  29  -5   1 63.0215 572.717   3
   5 -29   1 388.882 1031.48   4
  -5 -24   1 2070.06 1123.63   4
   5 -29   1 1899.49 1203.97   2
 -24  29   1-352.262 718.943   1
  -4 -25   0 496.785 1181.24   2
 -29  25   0 1331.21 901.323   1
  29  -4   0-77.1920 613.255   3
   4 -29   0 501.407 940.337   4
  -4 -25   0 1086.63 1079.31   4
 -25  29   0-41.8471 761.254   1
   4 -29   0 2781.25 1394.93   2
  -7  30  -1 484.823 734.306   1
 -23  -7  -1-1001.42 1058.14   2
   7  23  -1 2870.47 1138.67   1
 -30   7  -1 386.494 929.104   2
  30 -23  -1 1470.10 866.501   3
  23 -30  -1-966.568 967.456   3
 -23  -7  -1-1744.95 1032.50   4
 -30   7  -1 2278.83 1028.36   4
 -22  -8  -2 1224.68 1075.40   2
 -30   8  -2 2112.73 1150.26   2
  30 -22  -2 665.472 811.467   3
  22 -30  -2 871.325 872.461   3
 -22  -8  -2-590.980 859.130   4
  -8  30  -2 964.538 938.186   1
 -30   8  -2 52.3226 815.576   4
   8  22  -2 776.691 826.128   1
 -22  -8   1 495.205 1110.43   2
 -30   8   1 1129.11 963.501   2
  -8  30   1-189.998 733.090   1
  30 -22   1-293.429 927.492   3
  22 -30   1-910.245 924.719   3
 -22  -8   1 1296.54 1034.41   4
 -30   8   1 760.368 904.032   4
   9  21   0 2196.34 1055.61   1
  -9  30   0 1412.47 997.663   1
 -21  -9   0-634.740 885.278   2
 -30   9   0 275.690 922.215   2
  30 -21   0 1555.78 1112.80   3
  21 -30   0 1309.69 1058.68   3
 -21  -9   0 1524.25 978.253   4
 -30   9   0 185.373 805.174   4
 -20 -10  -1-116.862 1034.92   2
 -30  10  -1 665.766 897.721   2
  30 -20  -1-77.4419 887.512   3
  20 -30  -1 484.053 907.308   3
  10  20  -1-165.138 749.487   1
 -20 -10  -1 8.46498 849.609   4
 -10  30  -1 870.981 827.282   1
 -30  10  -1-151.234 797.847   4
 -20 -10   2-189.076 939.972   2
 -30  10   2-1460.21 924.000   2
 -10  30   2 720.545 749.831   1
  30 -20   2-963.075 1002.50   3
  20 -30   2 77.5136 813.710   3
  20 -30   2 635.364 833.227   2
 -20 -10   2 911.302 863.487   4
 -30  10   2 1249.55 978.665   4
  11  19  -2 648.988 738.279   3
  11  19  -2 944.624 906.733   1
 -19 -11  -2 1131.08 1123.33   2
 -30  11  -2-1679.03 930.441   2
  30 -19  -2-962.382 817.661   3
  19 -30  -2 3376.50 1239.04   3
 -11  30  -2 37.5064 750.850   1
 -30  11  -2 1575.02 1102.10   1
 -19 -11  -2-160.293 903.248   4
 -30  11  -2 2503.40 1066.24   4
 -11  30   1 253.192 704.023   1
 -19 -11   1 599.212 879.400   2
 -30  11   1 775.266 831.855   2
  30 -19   1 2498.90 1236.10   3
  19 -30   1 576.743 864.761   3
  19 -30   1-543.194 884.847   2
 -19 -11   1 1784.28 1118.98   4
 -30  11   1 660.749 904.186   4
 -18 -12  -3 42.1058 1026.63   2
  12  18  -3 2077.73 953.627   3
 -30  12  -3 456.862 769.306   2
  30 -18  -3 746.913 829.263   3
  18 -30  -3-305.556 863.714   3
 -12  30  -3 1947.07 1103.52   1
 -30  12  -3 593.950 1224.26   1
 -18 -12  -3 2841.18 1168.59   4
  12  18  -3 1212.45 1027.01   1
 -30  12  -3 3159.59 1114.28   4
 -18 -12   0 1050.02 1102.01   2
 -30  12   0 561.355 833.246   2
  30 -18   0 221.303 885.935   3
  18 -30   0 1041.68 959.336   3
  18 -30   0 1268.15 943.156   2
 -30  12   0-679.635 918.548   1
 -12  30   0 1104.30 868.850   1
 -18 -12   0 1144.73 892.920   4
 -30  12   0 1789.81 926.541   4
 -18 -12   3 1797.37 1030.31   2
 -30  12   3 1663.63 1061.99   2
  30 -18   3 272.862 1074.85   3
  18 -30   3 1702.22 945.616   4
 -12  30   3 1231.55 738.058   1
 -30  12   3 865.468 840.679   1
 -18 -12   3 2819.52 1245.32   4
 -30  12   3 3102.53 1282.93   4
 -17 -13  -1-116.301 933.269   2
  13  17  -1 357.340 524.263   3
 -30  13  -1 771.975 879.847   2
  30 -17  -1 1145.88 851.202   3
  17 -30  -1 1417.68 1002.52   3
 -13  30  -1 40.7256 731.437   1
  17 -30  -1 438.474 900.910   2
 -30  13  -1 1363.75 1154.32   1
 -17 -13  -1 1050.99 956.955   4
 -30  13  -1 162.526 771.820   4
 -13  30   2 121.767 667.146   1
 -17 -13   2 765.946 951.914   2
 -30  13   2-145.973 873.696   2
  30 -17   2 2264.06 1145.56   3
  17 -30   2 1596.28 1018.42   4
 -30  13   2 429.017 735.593   1
  17 -30   2 1868.57 959.931   2
 -17 -13   2 1064.26 938.605   4
 -30  13   2 1874.57 1041.19   4
 -16 -14  -2 688.941 969.806   2
  14  16  -2 1235.27 665.595   3
 -30  14  -2-134.369 682.616   2
  30 -16  -2 1959.40 955.719   3
 -14  30  -2 725.229 825.974   1
  16 -30  -2 323.305 821.474   3
  16 -30  -2 659.567 945.093   2
 -16 -14  -2 2027.31 1092.28   4
 -30  14  -2-321.881 1038.41   1
 -30  14  -2 308.000 852.568   4
 -30  14   1-392.385 770.961   4
 -16 -14   1-985.238 1004.87   2
 -30  14   1 660.560 791.429   2
  30 -16   1 708.886 969.968   3
  16 -30   1-936.085 849.736   3
  16 -30   1 1342.51 1051.10   4
  16 -30   1-298.309 940.905   2
 -14  30   1 55.1730 705.818   1
 -30  14   1 1564.63 1010.46   1
 -16 -14   1 265.488 875.201   4
 -30  15  -3 2076.99 1024.95   4
 -15 -15  -3-53.7761 1026.46   2
  15  15  -3 1585.52 805.744   3
 -15  30  -3 164.352 855.921   1
 -30  15  -3 873.669 786.738   2
  30 -15  -3 604.608 837.565   3
  15 -30  -3-1036.19 1008.65   3
  15 -30  -3 1327.59 1219.47   2
 -15 -15  -3 422.905 918.535   4
 -30  15  -3 793.739 1286.68   1
 -30  15   0 1300.65 947.407   4
 -15 -15   0-394.864 905.936   2
 -30  15   0-297.444 809.105   2
  30 -15   0 249.658 818.879   3
  15 -30   0 1517.11 1033.31   3
 -15  30   0 279.475 779.649   1
  15 -30   0 616.871 937.827   4
  15 -30   0-254.114 898.762   2
 -15 -15   0 646.476 834.859   4
 -30  15   0 100.153 907.902   1
 -30  15   3 1217.01 982.223   4
 -15 -15   3 933.913 981.149   2
 -15  30   3 860.834 760.327   1
 -30  15   3 3385.47 1153.81   2
  15 -30   3-177.537 906.976   4
 -15 -15   3 1359.08 1117.30   4
 -30  15   3 452.045 762.041   1
 -30  16  -1-243.888 737.816   4
 -14 -16  -1 1111.39 1146.35   2
 -16  30  -1 903.043 824.642   1
  30 -14  -1 1397.96 1000.25   3
 -30  16  -1 11.8669 705.331   2
  14 -30  -1 634.475 933.691   3
  14 -30  -1 663.030 888.759   4
  14 -30  -1 2045.02 1023.55   2
 -14 -16  -1 441.445 835.286   4
 -30  16  -1 479.744 939.025   1
 -30  16   2 2044.54 1032.96   4
 -14 -16   2 1654.12 1177.57   2
 -30  16   2 433.714 869.469   2
  30 -14   2 218.285 925.224   3
  14 -30   2-523.459 961.487   4
 -14 -16   2-338.024 823.092   4
 -16  30   2 1123.83 822.924   1
  14 -30   2 8.18979 885.295   2
 -30  16   2 2766.14 1016.44   1
 -13 -17  -2-796.655 1148.75   2
  17  13  -2 632.756 497.423   3
 -17  30  -2 678.443 888.319   1
  30 -13  -2 831.932 895.513   3
 -30  17  -2 619.202 798.314   2
  13 -30  -2 191.327 809.331   3
  13 -30  -2 1140.47 1033.52   4
  13 -30  -2 293.180 894.948   2
 -13 -17  -2 1052.94 1028.39   4
 -30  17  -2 1011.87 1023.04   1
 -13 -17   1-331.778 935.248   2
  30 -13   1 507.158 902.363   3
 -30  17   1-121.652 792.598   2
 -17  30   1 663.273 724.973   1
  13 -30   1 1247.18 933.590   4
 -13 -17   1 1257.39 1026.34   4
  13 -30   1 494.503 1014.48   2
 -30  17   1 1013.94 883.111   1
 -30  18  -3 2202.95 1211.82   1
 -18  30  -3 1352.64 930.657   1
  18  12  -3 1311.19 732.784   3
  30 -12  -3 707.344 872.158   3
 -30  18  -3-488.750 679.172   2
  12 -30  -3-444.391 912.762   3
  12 -30  -3 2870.01 1290.59   4
  12 -30  -3 1885.46 1266.69   2
 -12 -18  -3 2448.27 1142.14   4
 -12 -18  -3 3058.07 1400.28   2
 -12 -18   0 1297.22 1212.36   2
 -18  30   0 984.604 776.925   1
  30 -12   0-834.940 742.388   3
 -30  18   0 1746.24 944.369   2
  12 -30   0 1408.60 1024.47   3
  12 -30   0 308.153 837.058   4
  12 -30   0 965.751 1122.07   2
 -12 -18   0 1834.57 1018.36   4
 -30  18   0 1526.96 980.746   1
 -30  18   3 2143.46 835.588   1
 -12 -18   3 2677.53 1124.60   2
 -30  18   3 2685.65 1092.91   2
  12 -30   3 2041.14 1135.84   4
 -12 -18   3 806.388 846.306   4
 -18  30   3 794.753 707.525   1
 -11 -19  -1 1890.99 1406.21   2
 -30  19  -1 2005.48 994.554   1
 -19  30  -1 1968.89 909.010   1
  30 -11  -1-207.802 692.021   3
 -30  19  -1 312.285 761.685   2
  11 -30  -1 1140.19 1113.37   3
  11 -30  -1 2205.62 1208.46   4
  11 -30  -1 643.584 1163.09   2
 -11 -19  -1 1198.98 1024.36   4
 -30  19   2 779.142 766.535   1
 -11 -19   2 1074.56 1051.74   2
  30 -11   2 8.97039 715.389   3
 -30  19   2 107.170 877.640   2
 -19  30   2 489.545 674.562   1
  11 -30   2-1087.47 1021.04   4
 -11 -19   2 20.1739 819.403   4
  11 -30   2 1076.93 879.469   2
 -20  30  -2 231.421 811.997   1
 -30  20  -2-1306.14 1084.53   1
  30 -10  -2 790.755 819.094   3
 -30  20  -2 1227.53 744.265   2
  10 -30  -2-1685.44 1023.80   3
  10 -30  -2 107.765 936.376   4
  10 -30  -2 1623.94 1269.31   2
 -10 -20  -2 106.154 838.289   4
 -10 -20  -2 750.718 1171.03   2
 -10 -20   1-95.9069 876.594   2
 -30  20   1 1076.42 887.518   1
 -20  30   1 315.896 735.809   1
  30 -10   1-102.146 729.460   3
 -30  20   1 1422.34 1025.31   2
  10 -30   1-749.905 890.814   4
 -10 -20   1 1527.99 1087.65   4
  10 -30   1 1118.28 1023.79   2
  -9 -21   0 729.632 1105.66   2
 -21  30   0 1764.35 947.404   1
 -30  21   0 1739.56 951.161   1
  30  -9   0 840.158 778.594   3
   9 -30   0-1740.04 1059.99   4
  -9 -21   0 1256.74 1097.39   4
   9 -30   0 1468.53 1255.79   2
  -8 -22  -1 501.034 1145.22   2
 -30  22  -1 895.300 914.768   1
  30  -8  -1 1301.28 770.764   3
   8 -30  -1 703.573 971.304   3
   8 -30  -1 749.454 947.311   4
  -8 -22  -1 355.066 968.091   4
   8 -30  -1-272.025 1153.63   2
 -22  30  -1 2427.56 1072.94   1
  -8 -22   2 927.488 1182.19   2
 -30  22   2 676.341 785.161   1
 -22  30   2 618.212 760.411   1
   8 -30   2 260.717 987.224   4
  -8 -22   2 941.071 1075.79   4
   8 -30   2 1362.51 976.640   2
  -7 -23   1-26.7094 972.301   2
 -23  30   1-825.079 792.770   1
 -30  23   1-165.037 771.335   1
  30  -7   1 733.468 719.558   3
   7 -30   1-159.640 910.984   4
  -7 -23   1 1453.08 994.356   4
   7 -30   1-1405.84 1131.58   2
 -11  31   0 780.529 875.112   1
 -20 -11   0 1273.92 1073.53   2
 -31  11   0 974.371 949.691   2
  31 -20   0 168.765 907.673   3
  20 -31   0 304.242 893.748   3
 -20 -11   0 397.793 869.144   4
 -31  11   0 1098.51 967.095   4
 -19 -12  -1-334.384 922.906   2
 -31  12  -1 970.198 931.015   2
  31 -19  -1 276.393 908.127   3
  19 -31  -1 752.990 1056.85   3
 -12  31  -1 729.038 852.176   1
 -31  12  -1-314.716 1039.17   1
 -19 -12  -1 1524.48 981.259   4
 -31  12  -1-615.530 828.747   4
 -18 -13  -2 1030.76 1241.23   2
  13  18  -2 957.156 760.305   3
 -31  13  -2 2616.79 1057.46   2
  31 -18  -2 1969.08 1031.97   3
  18 -31  -2 1712.27 1046.68   3
 -13  31  -2 642.049 929.499   1
 -18 -13  -2 1097.55 1036.82   4
 -31  13  -2 1544.93 1184.21   1
 -31  13  -2 171.217 801.790   4
  13  18  -2 143.838 925.207   1
 -13  31   1-207.494 727.493   1
 -18 -13   1-146.565 922.868   2
 -31  13   1 1448.02 973.862   2
  31 -18   1 655.789 922.679   3
  18 -31   1-651.162 894.737   3
  18 -31   1 1028.55 1033.51   2
 -31  13   1 1855.92 1035.21   1
 -18 -13   1 435.485 1138.32   4
 -31  13   1 1425.01 1018.06   4
 -17 -14   0-606.116 1007.91   2
 -31  14   0 981.352 882.047   2
  31 -17   0 240.507 924.772   3
  17 -31   0 2004.94 1123.38   3
  17 -31   0 1466.06 1037.25   2
 -14  31   0-253.297 752.383   1
 -31  14   0 1757.29 1091.87   1
 -17 -14   0 661.623 984.309   4
 -31  14   0 776.046 951.626   4
 -31  15  -1-246.361 823.389   4
 -16 -15  -1 673.157 1146.80   2
 -31  15  -1 55.1764 747.631   2
  31 -16  -1 328.660 951.402   3
  16 -31  -1 2025.46 1141.48   3
 -15  31  -1 532.911 763.024   1
  16 -31  -1 63.1048 948.632   2
 -16 -15  -1 310.569 887.256   4
 -31  15  -1 988.344 1115.03   1
 -31  15   2 89.1714 928.996   4
 -15  31   2 599.812 742.778   1
 -16 -15   2 1195.12 1112.52   2
 -31  15   2-100.365 843.160   2
  31 -16   2-36.6709 978.149   3
  16 -31   2 210.633 896.142   4
  16 -31   2 1941.74 948.417   2
 -16 -15   2 578.764 972.534   4
 -31  15   2 1422.49 936.002   1
 -31  16  -2 153.083 867.044   4
 -15 -16  -2 876.776 1289.90   2
 -16  31  -2 1064.33 982.053   1
 -31  16  -2 129.838 803.464   2
  31 -15  -2-261.127 766.565   3
  15 -31  -2 2508.58 1161.69   3
  15 -31  -2 824.434 1122.04   2
 -15 -16  -2-591.013 853.068   4
 -31  16  -2 1537.46 1199.24   1
 -31  16   1 636.089 912.126   4
 -15 -16   1 1421.67 1182.14   2
 -31  16   1-738.476 867.120   2
  31 -15   1 851.996 846.455   3
  15 -31   1-111.584 904.167   3
  15 -31   1 394.894 877.272   4
 -16  31   1-678.637 773.991   1
  15 -31   1 989.252 1056.01   2
 -15 -16   1 1887.23 979.314   4
 -31  16   1-212.651 831.433   1
 -31  17   0 230.554 856.756   4
 -14 -17   0 644.877 1108.03   2
  31 -14   0-751.420 908.153   3
 -31  17   0 154.930 812.598   2
 -17  31   0-178.582 796.136   1
  14 -31   0 209.423 929.743   3
  14 -31   0 858.424 1006.35   4
  14 -31   0 1365.33 1222.28   2
 -14 -17   0 1952.42 1102.89   4
 -31  17   0-390.257 951.697   1
 -13 -18  -1 760.013 1127.57   2
 -18  31  -1 1880.35 1065.55   1
  31 -13  -1 1006.65 883.735   3
 -31  18  -1 1839.47 914.602   2
  13 -31  -1-576.687 906.794   3
  13 -31  -1 1464.28 1025.50   4
  13 -31  -1-1986.14 1103.09   2
 -13 -18  -1 814.180 982.184   4
 -31  18  -1 691.445 971.686   1
 -31  18   2 721.820 864.400   1
 -13 -18   2 968.030 988.221   2
 -31  18   2 3621.24 1296.01   2
  31 -13   2 430.700 915.749   3
  13 -31   2 1071.65 987.487   4
 -18  31   2-274.720 674.828   1
 -13 -18   2 449.130 971.722   4
  13 -31   2 260.153 807.923   2
 -31  19   1 785.266 867.599   1
 -12 -19   1 824.773 1062.55   2
 -19  31   1 87.0514 814.298   1
  31 -12   1 568.410 819.233   3
 -31  19   1 451.454 919.567   2
  12 -31   1-281.938 893.063   4
 -12 -19   1-411.814 1003.15   4
  12 -31   1 313.698 1110.54   2
 -11 -20   0-356.827 1047.42   2
 -31  20   0 1931.32 1023.27   1
 -20  31   0 2592.11 1023.79   1
  31 -11   0 1017.96 797.780   3
 -31  20   0 1439.38 954.165   2
  11 -31   0 2200.52 1097.63   4
 -11 -20   0 1748.62 1062.38   4
  11 -31   0 1847.97 1245.80   2
   0   0   0    0.00    0.00   0

TITL YY_Zn_Gly_Pyr_Benzene_Heat_5_16_150K in R3c
REM R3c (#161 in standard setting)
CELL 0.71073  28.538920  28.538920  10.152781  90.0000  90.0000 120.0000
ZERR   18.00   0.002692   0.002692   0.000570   0.0000   0.0000   0.0000
LATT -3
SYMM -y, x-y, z
SYMM -x+y,-x, z
SYMM -y,-x, z+1/2
SYMM -x+y, y, z+1/2
SYMM  x, x-y, z+1/2
SFAC C H N O Zn
UNIT 108.00 144.00 54.00 90.00 18.00
TREF
HKLF 4
END
;
_shelx_hkl_checksum              32463
_olex2_submission_special_instructions 'No special instructions were received'
_oxdiff_exptl_absorpt_empirical_details
;
Empirical correction (ABSPACK) includes:
- Absorption correction using spherical harmonics
- Frame scaling
;
_oxdiff_exptl_absorpt_empirical_full_max 1.641
_oxdiff_exptl_absorpt_empirical_full_min 0.778
loop_
_space_group_symop_operation_xyz
'x, y, z'
'-y, x-y, z'
'-x+y, -x, z'
'-x+y, y, z+1/2'
'x, x-y, z+1/2'
'-y, -x, z+1/2'
'x+2/3, y+1/3, z+1/3'
'-y+2/3, x-y+1/3, z+1/3'
'-x+y+2/3, -x+1/3, z+1/3'
'-x+y+2/3, y+1/3, z+5/6'
'x+2/3, x-y+1/3, z+5/6'
'-y+2/3, -x+1/3, z+5/6'
'x+1/3, y+2/3, z+2/3'
'-y+1/3, x-y+2/3, z+2/3'
'-x+y+1/3, -x+2/3, z+2/3'
'-x+y+1/3, y+2/3, z+7/6'
'x+1/3, x-y+2/3, z+7/6'
'-y+1/3, -x+2/3, z+7/6'
loop_
_atom_site_label
_atom_site_type_symbol
_atom_site_fract_x
_atom_site_fract_y
_atom_site_fract_z
_atom_site_U_iso_or_equiv
_atom_site_adp_type
_atom_site_occupancy
_atom_site_site_symmetry_order
_atom_site_calc_flag
_atom_site_refinement_flags_posn
_atom_site_refinement_flags_adp
_atom_site_refinement_flags_occupancy
_atom_site_disorder_assembly
_atom_site_disorder_group
Zn1 Zn 0.30924(9) -0.00419(11) 0.1653(3) 0.0394(8) Uani 1 1 d . U . . .
N1 N 0.3867(7) 0.0290(7) 0.2205(15) 0.036(2) Uani 1 1 d . U . . .
O2 O 0.2814(6) -0.0810(6) 0.1456(13) 0.045(2) Uani 1 1 d . . . . .
O3 O 0.5439(6) 0.0876(6) 0.0651(12) 0.044(2) Uani 1 1 d . U . . .
N2 N 0.2931(7) 0.0291(7) 0.0151(14) 0.036(2) Uani 1 1 d . U . . .
N3 N 0.5706(7) 0.0970(7) 0.2750(17) 0.044(2) Uani 1 1 d . U . . .
H3 H 0.5618 0.0954 0.3565 0.053 Uiso 1 1 calc R . . . .
O1 O 0.2634(6) 0.0003(6) 0.3053(11) 0.045(2) Uani 1 1 d . U . . .
C4 C 0.5305(9) 0.0837(9) 0.1838(18) 0.044(2) Uani 1 1 d . U . . .
C2 C 0.2736(8) 0.0609(8) 0.0177(18) 0.036(2) Uani 1 1 d . U . . .
H2 H 0.2639 0.0716 0.0948 0.043 Uiso 1 1 calc R . . . .
C3 C 0.4757(8) 0.0648(8) 0.2283(17) 0.036(2) Uani 1 1 d . U . . .
C5 C 0.6241(8) 0.1129(9) 0.2475(19) 0.044(2) Uani 1 1 d . U . . .
H5A H 0.6467 0.1364 0.3177 0.053 Uiso 1 1 calc R . . . .
H5B H 0.6346 0.1338 0.1667 0.053 Uiso 1 1 calc R . . . .
C1 C 0.4300(8) 0.0436(8) 0.1447(19) 0.036(2) Uani 1 1 d . U . . .
H1 H 0.4301 0.0406 0.0535 0.043 Uiso 1 1 calc R . . . .
C6 C 0.3013(9) -0.0999(9) 0.0667(19) 0.045(2) Uani 1 1 d . U . . .
loop_
_atom_site_aniso_label
_atom_site_aniso_U_11
_atom_site_aniso_U_22
_atom_site_aniso_U_33
_atom_site_aniso_U_23
_atom_site_aniso_U_13
_atom_site_aniso_U_12
Zn1 0.0577(18) 0.0558(17) 0.0062(11) -0.0001(9) -0.0013(11) 0.0296(15)
N1 0.044(4) 0.048(4) 0.015(3) 0.003(3) 0.000(3) 0.022(3)
O2 0.053(5) 0.065(6) 0.009(4) -0.001(4) 0.002(4) 0.025(4)
O3 0.049(5) 0.063(5) 0.017(4) 0.002(4) 0.001(3) 0.026(4)
N2 0.044(4) 0.048(4) 0.015(3) 0.003(3) 0.000(3) 0.022(3)
N3 0.049(5) 0.063(5) 0.017(4) 0.002(4) 0.001(3) 0.026(4)
O1 0.053(5) 0.065(6) 0.009(4) -0.001(4) 0.002(4) 0.025(4)
C4 0.049(5) 0.063(5) 0.017(4) 0.002(4) 0.001(3) 0.026(4)
C2 0.044(4) 0.048(4) 0.015(3) 0.003(3) 0.000(3) 0.022(3)
C3 0.044(4) 0.048(4) 0.015(3) 0.003(3) 0.000(3) 0.022(3)
C5 0.049(5) 0.063(5) 0.017(4) 0.002(4) 0.001(3) 0.026(4)
C1 0.044(4) 0.048(4) 0.015(3) 0.003(3) 0.000(3) 0.022(3)
C6 0.053(5) 0.065(6) 0.009(4) -0.001(4) 0.002(4) 0.025(4)
loop_
_atom_type_symbol
_atom_type_description
_atom_type_scat_dispersion_real
_atom_type_scat_dispersion_imag
_atom_type_scat_source
C C 0.0033 0.0016 'International Tables Vol C Tables 4.2.6.8 and 6.1.1.4'
H H 0.0000 0.0000 'International Tables Vol C Tables 4.2.6.8 and 6.1.1.4'
N N 0.0061 0.0033 'International Tables Vol C Tables 4.2.6.8 and 6.1.1.4'
O O 0.0106 0.0060 'International Tables Vol C Tables 4.2.6.8 and 6.1.1.4'
Zn Zn 0.2839 1.4301 'International Tables Vol C Tables 4.2.6.8 and 6.1.1.4'
loop_
_geom_angle_atom_site_label_1
_geom_angle_atom_site_label_2
_geom_angle_atom_site_label_3
_geom_angle
_geom_angle_site_symmetry_1
_geom_angle_site_symmetry_3
_geom_angle_publ_flag
O2 Zn1 N1 107.2(7) . . ?
O2 Zn1 N2 113.9(6) . . ?
O2 Zn1 O1 103.8(6) . . ?
N2 Zn1 N1 117.3(7) . . ?
N2 Zn1 O1 101.7(6) . . ?
O1 Zn1 N1 112.2(6) . . ?
N2 N1 Zn1 122.6(13) 9 . ?
C1 N1 Zn1 128.1(13) . . ?
C1 N1 N2 109.2(16) . 9 ?
C6 O2 Zn1 122.6(14) . . ?
N1 N2 Zn1 124.6(13) 14_544 . ?
C2 N2 Zn1 128.0(13) . . ?
C2 N2 N1 107.3(15) . 14_544 ?
C4 N3 C5 125.8(17) . . ?
C6 O1 Zn1 140.8(14) 9 . ?
O3 C4 N3 116.8(19) . . ?
O3 C4 C3 123.9(18) . . ?
N3 C4 C3 119.3(17) . . ?
N2 C2 C3 112.7(17) . 14_544 ?
C2 C3 C4 132.2(18) 9 . ?
C2 C3 C1 103.3(18) 9 . ?
C1 C3 C4 124.5(17) . . ?
N3 C5 C6 114.0(19) . 17_544 ?
N1 C1 C3 107.4(17) . . ?
O2 C6 O1 121(2) . 14_544 ?
O2 C6 C5 120.9(19) . 11_444 ?
O1 C6 C5 118.4(19) 14_544 11_444 ?
loop_
_geom_bond_atom_site_label_1
_geom_bond_atom_site_label_2
_geom_bond_distance
_geom_bond_site_symmetry_2
_geom_bond_publ_flag
Zn1 N1 2.002(18) . ?
Zn1 O2 1.932(15) . ?
Zn1 N2 1.969(16) . ?
Zn1 O1 1.978(13) . ?
N1 N2 1.36(2) 9 ?
N1 C1 1.33(3) . ?
O2 C6 1.25(2) . ?
O3 C4 1.25(2) . ?
N2 N1 1.36(2) 14_544 ?
N2 C2 1.28(3) . ?
N3 C4 1.37(3) . ?
N3 C5 1.39(3) . ?
O1 C6 1.30(2) 9 ?
C4 C3 1.45(3) . ?
C2 C3 1.37(3) 14_544 ?
C3 C2 1.37(3) 9 ?
C3 C1 1.41(3) . ?
C5 C6 1.47(3) 17_544 ?
C6 O1 1.30(2) 14_544 ?
C6 C5 1.47(3) 11_444 ?
