#------------------------------------------------------------------------------
#$Date: 2020-08-22 01:58:23 +0300 (Sat, 22 Aug 2020) $
#$Revision: 255539 $
#$URL: file:///home/coder/svn-repositories/cod/cif/4/13/51/4135186.cif $
#------------------------------------------------------------------------------
#
# This file is available in the Crystallography Open Database (COD),
# http://www.crystallography.net/
#
# All data on this site have been placed in the public domain by the
# contributors.
#
data_4135186
loop_
_publ_author_name
'Yan, Yong'
'Carrington, Elliot J.'
'P\'etuya, R\'emi'
'Whitehead, George F. S.'
'Verma, Ajay'
'Hylton, Rebecca K.'
'Tang, Chiu C.'
'Berry, Neil G.'
'Darling, George R.'
'Dyer, Matthew S.'
'Antypov, Dmytro'
'Katsoulidis, Alexandros P.'
'Rosseinsky, Matthew J.'
_publ_section_title
;
 Amino Acid Residues Determine the Response of Flexible Metal-Organic
 Frameworks to Guests.
;
_journal_name_full               'Journal of the American Chemical Society'
_journal_paper_doi               10.1021/jacs.0c03853
_journal_year                    2020
_chemical_absolute_configuration syn
_chemical_formula_moiety         'C7 H7 N3 O3 Zn'
_chemical_formula_sum            'C7 H7 N3 O3 Zn'
_chemical_formula_weight         246.53
_space_group_crystal_system      trigonal
_space_group_IT_number           146
_space_group_name_Hall           'R 3'
_space_group_name_H-M_alt        'R 3 :H'
_atom_sites_solution_hydrogens   geom
_atom_sites_solution_primary     dual
_audit_creation_date             2019-07-01
_audit_creation_method
;
Olex2 1.2
(compiled 2018.05.29 svn.r3508 for OlexSys, GUI svn.r5506)
;
_cell_angle_alpha                90
_cell_angle_beta                 90
_cell_angle_gamma                120
_cell_formula_units_Z            18
_cell_length_a                   28.3671(9)
_cell_length_b                   28.3671(9)
_cell_length_c                   10.1749(4)
_cell_measurement_reflns_used    6533
_cell_measurement_temperature    150
_cell_measurement_theta_max      25.044
_cell_measurement_theta_min      2.487
_cell_volume                     7090.7(4)
_computing_cell_refinement       'SAINT V8.38A (?, 2016)'
_computing_data_reduction        'SAINT V8.38A (?, 2016)'
_computing_molecular_graphics    'Olex2 (Dolomanov et al., 2009)'
_computing_publication_material  'Olex2 (Dolomanov et al., 2009)'
_computing_structure_refinement  'ShelXL (Sheldrick, 2015)'
_computing_structure_solution    'XT (Sheldrick, 2015)'
_diffrn_ambient_temperature      150.0
_diffrn_measured_fraction_theta_full 0.998
_diffrn_measured_fraction_theta_max 0.998
_diffrn_measurement_device_type  'Bruker APEX-II CCD'
_diffrn_measurement_method       '\f and \w scans'
_diffrn_radiation_type           MoK\a
_diffrn_radiation_wavelength     0.71073
_diffrn_reflns_av_R_equivalents  0.0462
_diffrn_reflns_av_unetI/netI     0.0508
_diffrn_reflns_Laue_measured_fraction_full 0.998
_diffrn_reflns_Laue_measured_fraction_max 0.998
_diffrn_reflns_limit_h_max       33
_diffrn_reflns_limit_h_min       -33
_diffrn_reflns_limit_k_max       33
_diffrn_reflns_limit_k_min       -32
_diffrn_reflns_limit_l_max       12
_diffrn_reflns_limit_l_min       -12
_diffrn_reflns_number            16491
_diffrn_reflns_point_group_measured_fraction_full 0.993
_diffrn_reflns_point_group_measured_fraction_max 0.993
_diffrn_reflns_theta_full        25.048
_diffrn_reflns_theta_max         25.048
_diffrn_reflns_theta_min         2.166
_diffrn_standards_number         0
_exptl_absorpt_coefficient_mu    1.549
_exptl_absorpt_correction_T_max  0.7452
_exptl_absorpt_correction_T_min  0.6745
_exptl_absorpt_correction_type   multi-scan
_exptl_absorpt_process_details
'SADABS-2016/2 (Bruker,2016/2) was used for absorption correction. wR2(int) was 0.0912 before and 0.0482 after correction. The Ratio of minimum to maximum transmission is 0.9051. The \l/2 correction factor is Not present.'
_exptl_crystal_colour            white
_exptl_crystal_colour_primary    white
_exptl_crystal_density_diffrn    1.039
_exptl_crystal_description       needle
_exptl_crystal_F_000             2232
_exptl_crystal_preparation       'Solvent Exchange P-xylene'
_exptl_crystal_size_max          0.22
_exptl_crystal_size_mid          0.05
_exptl_crystal_size_min          0.03
_refine_diff_density_max         1.495
_refine_diff_density_min         -0.549
_refine_diff_density_rms         0.193
_refine_ls_abs_structure_details
;
 Flack x determined using 2060 quotients [(I+)-(I-)]/[(I+)+(I-)]
 (Parsons, Flack and Wagner, Acta Cryst. B69 (2013) 249-259).
;
_refine_ls_abs_structure_Flack   0.016(9)
_refine_ls_extinction_method     none
_refine_ls_goodness_of_fit_ref   1.099
_refine_ls_hydrogen_treatment    constr
_refine_ls_matrix_type           full
_refine_ls_number_parameters     243
_refine_ls_number_reflns         5544
_refine_ls_number_restraints     37
_refine_ls_restrained_S_all      1.096
_refine_ls_R_factor_all          0.0694
_refine_ls_R_factor_gt           0.0572
_refine_ls_shift/su_max          0.000
_refine_ls_shift/su_mean         0.000
_refine_ls_structure_factor_coef Fsqd
_refine_ls_weighting_details
'w=1/[\s^2^(Fo^2^)+(0.1187P)^2^+40.5491P] where P=(Fo^2^+2Fc^2^)/3'
_refine_ls_weighting_scheme      calc
_refine_ls_wR_factor_gt          0.1781
_refine_ls_wR_factor_ref         0.1877
_reflns_Friedel_coverage         0.991
_reflns_Friedel_fraction_full    0.989
_reflns_Friedel_fraction_max     0.989
_reflns_number_gt                4808
_reflns_number_total             5544
_reflns_threshold_expression     'I > 2\s(I)'
_cod_data_source_file            ZnAlaPyr_P-xylene_150K.cif
_cod_data_source_block           ZnAlaPyr_P-xylene_150K
_cod_original_cell_volume        7090.7(5)
_cod_original_sg_symbol_H-M      'R 3'
_cod_database_code               4135186
_shelx_shelxl_version_number     2014/7
_shelx_space_group_comment
;
The symmetry employed for this shelxl refinement is uniquely defined
by the following loop, which should always be used as a source of
symmetry information in preference to the above space-group names.
They are only intended as comments.
;
_shelx_estimated_absorpt_t_max   0.955
_shelx_estimated_absorpt_t_min   0.727
_olex2_refinement_description
;
1. Fixed Uiso
 At 1.2 times of:
  All C(H) groups, All N(H) groups
 At 1.5 times of:
  All C(H,H,H) groups
2. Uiso/Uaniso restraints and constraints
C11 \\sim O6: within 2A with sigma of 0.04 and sigma for terminal atoms of 0.08
C2 \\sim C3 \\sim C1 \\sim N1 \\sim N2: within 2A with sigma of 0.01 and sigma
for terminal atoms of 0.02
Uanis(C11) = Uanis(O6)
Uanis(N4) = Uanis(N5)
3.a Ternary CH refined with riding coordinates:
 C12(H12), C5(H5)
3.b Aromatic/amide H refined with riding coordinates:
 N3(H3), N6(H6), C8(H8), C2(H2), C10(H10), C1(H1)
3.c Idealised Me refined as rotating group:
 C14(H14A,H14B,H14C), C7(H7A,H7B,H7C)
;
_shelx_res_file
;
    mjr_yy_znalapyr_pxylene_0m.res created by SHELXL-2014/7

TITL mjr_yy_znalapyr_pxylene_0m_a.res in R3
REM Old TITL MJR_YY_ZnAlaPyr_pxylene_0m in R3
REM SHELXT solution in R3
REM R1 0.107, Rweak 0.021, Alpha 0.003, Orientation as input
REM Flack x = 0.040 ( 0.008 ) from Parsons' quotients
REM Formula found by SHELXT: C16 N5 O5 Zn2
CELL 0.71073 28.3671 28.3671 10.1749 90 90 120
ZERR 18 0.0009 0.0009 0.0004 0 0 0
LATT -3
SYMM -Y,+X-Y,+Z
SYMM +Y-X,-X,+Z
SFAC C H N O Zn
UNIT 126 126 54 54 18
SIMU C11 O6
SIMU 0.01 0.02 2 C2 C3 C1 N1 N2
EADP C11 O6
EADP N4 N5

L.S. 16
PLAN  20
SIZE 0.22 0.05 0.03
TEMP -123.15
BOND $H
list 4
fmap 2
acta
OMIT -3 3 0
REM <olex2.extras>
REM <HklSrc "%.\\MJR_YY_ZnAlaPyr_pxylene_0m.hkl">
REM </olex2.extras>

WGHT    0.118700   40.549099
FVAR       0.16010
ZN01  5    0.669909    0.645654    0.708480    11.00000    0.02254    0.02251 =
         0.00842   -0.00040    0.00055    0.01078
ZN02  5    0.338064    0.357626    0.542430    11.00000    0.02288    0.02613 =
         0.00843    0.00047    0.00021    0.01319
O1    4    0.748266    0.695828    0.687477    11.00000    0.02242    0.03255 =
         0.01998    0.00308   -0.00424    0.01241
O4    4    0.416925    0.386911    0.525060    11.00000    0.01988    0.03060 =
         0.01980   -0.00556    0.00165    0.00947
O5    4    0.403723    0.334714    0.349855    11.00000    0.03621    0.02962 =
         0.01440   -0.00038   -0.00316    0.01934
O2    4    0.740175    0.737140    0.510634    11.00000    0.03629    0.03048 =
         0.01389   -0.00319   -0.00847    0.01637
O3    4    0.871540    0.749412    0.447071    11.00000    0.04947    0.08061 =
         0.01298   -0.00830   -0.01116    0.04599
O6    4    0.545018    0.454409    0.274484    11.00000    0.04261    0.03080 =
         0.00881   -0.00268   -0.00394    0.00512
N4    3    0.637857    0.597649    0.556129    11.00000    0.03068    0.02995 =
         0.00531    0.00017    0.00040    0.01278
N3    3    0.860875    0.764364    0.660075    11.00000    0.02681    0.03977 =
         0.01284   -0.00047   -0.00418    0.01841
AFIX  43
H3    2    0.870984    0.764211    0.741767    11.00000   -1.20000
AFIX   0
N6    3    0.527299    0.429353    0.488244    11.00000    0.02903    0.03019 =
         0.00595    0.00029    0.00112    0.00993
AFIX  43
H6    2    0.534614    0.438913    0.571294    11.00000   -1.20000
AFIX   0
N5    3    0.643632    0.613684    0.426696    11.00000    0.03068    0.02995 =
         0.00531    0.00017    0.00040    0.01278
N2    3    0.973717    0.693365    0.596649    11.00000    0.03420    0.03095 =
         0.00603   -0.00018    0.00140    0.01403
N1    3    0.971164    0.706172    0.724605    11.00000    0.02948    0.03466 =
         0.01038   -0.00268   -0.00050    0.01855
C3    1    0.919693    0.728791    0.606705    11.00000    0.02588    0.03064 =
         0.00965   -0.00084   -0.00333    0.01299
C4    1    0.882274    0.747943    0.565725    11.00000    0.02322    0.03360 =
         0.01855   -0.00513   -0.00343    0.01158
C12   1    0.489756    0.373825    0.455922    11.00000    0.03185    0.03869 =
         0.01504   -0.00258    0.00116    0.01938
AFIX  13
H12   2    0.501190    0.364008    0.372128    11.00000   -1.20000
AFIX   0
C9    1    0.589510    0.524660    0.436009    11.00000    0.02506    0.02686 =
         0.01292   -0.00647   -0.00204    0.00657
C5    1    0.821927    0.782438    0.635654    11.00000    0.02351    0.03321 =
         0.02056    0.00001    0.00550    0.01247
AFIX  13
H5    2    0.817680    0.796332    0.722602    11.00000   -1.20000
AFIX   0
C8    1    0.614512    0.569303    0.355182    11.00000    0.03973    0.03044 =
         0.01101    0.00318    0.00142    0.01266
AFIX  43
H8    2    0.611412    0.568505    0.262139    11.00000   -1.20000
AFIX   0
C2    1    0.943885    0.707110    0.526854    11.00000    0.02888    0.03879 =
         0.00891    0.00040   -0.00694    0.01792
AFIX  43
H2    2    0.939333    0.702882    0.434296    11.00000   -1.20000
AFIX   0
C13   1    0.432627    0.365261    0.440623    11.00000    0.01871    0.02135 =
         0.01211    0.00397   -0.00329    0.00643
C6    1    0.766221    0.734616    0.606353    11.00000    0.01969    0.02294 =
         0.01131   -0.00161   -0.00088    0.01222
C10   1    0.605583    0.543995    0.560829    11.00000    0.03264    0.02041 =
         0.00995    0.00049    0.00091    0.00593
AFIX  43
H10   2    0.595305    0.522491    0.638416    11.00000   -1.20000
AFIX   0
C11   1    0.551795    0.467490    0.393257    11.00000    0.04261    0.03080 =
         0.00881   -0.00268   -0.00394    0.00512
C1    1    0.938137    0.727242    0.729937    11.00000    0.02580    0.03759 =
         0.01446   -0.00211   -0.00166    0.01987
AFIX  43
H1    2    0.928914    0.739309    0.807779    11.00000   -1.20000
AFIX   0
C14   1    0.487659    0.336264    0.566012    11.00000    0.03961    0.03120 =
         0.04069    0.00459   -0.00450    0.01831
AFIX 137
H14A  2    0.524086    0.341300    0.579838    11.00000   -1.50000
H14B  2    0.462466    0.298343    0.541683    11.00000   -1.50000
H14C  2    0.475077    0.345036    0.647194    11.00000   -1.50000
AFIX   0
C7    1    0.842881    0.830674    0.545847    11.00000    0.05703    0.06108 =
         0.07695    0.02152   -0.01146    0.01223
AFIX 137
H7A   2    0.876978    0.860436    0.581103    11.00000   -1.50000
H7B   2    0.815897    0.842516    0.539264    11.00000   -1.50000
H7C   2    0.849467    0.820603    0.458464    11.00000   -1.50000
AFIX   0
HKLF 4

REM  mjr_yy_znalapyr_pxylene_0m_a.res in R3
REM R1 =  0.0572 for    4808 Fo > 4sig(Fo)  and  0.0694 for all    5544 data
REM    243 parameters refined using     37 restraints

END

WGHT      0.1188     40.4311

REM Highest difference peak  1.495,  deepest hole -0.549,  1-sigma level  0.193
Q1    1   0.4389  0.1822  0.4426  11.00000  0.05    1.49
Q2    1   0.3873  0.1627  0.4619  11.00000  0.05    1.17
Q3    1   0.7699  0.9194  0.5996  11.00000  0.05    1.11
Q4    1   0.7362  0.8913  0.4841  11.00000  0.05    1.07
Q5    1   1.0831  0.8443  0.7193  11.00000  0.05    0.99
Q6    1   0.4803  0.1952  0.5318  11.00000  0.05    0.98
Q7    1   0.4014  0.1810  0.3769  11.00000  0.05    0.98
Q8    1   0.8252  0.9482  0.5424  11.00000  0.05    0.96
Q9    1   0.8658  0.9747  0.6001  11.00000  0.05    0.95
Q10   1   0.8243  0.8231  0.7271  11.00000  0.05    0.93
Q11   1   0.7564  0.9027  0.5265  11.00000  0.05    0.92
Q12   1   0.5319  0.3188  0.0800  11.00000  0.05    0.89
Q13   1   0.4282  0.2012  0.3203  11.00000  0.05    0.81
Q14   1   0.4788  0.2887  0.1425  11.00000  0.05    0.80
Q15   1   0.6698  0.4497  0.4054  11.00000  0.05    0.80
Q16   1   0.8677  0.8874  0.1768  11.00000  0.05    0.79
Q17   1   0.7883  0.8548  0.9962  11.00000  0.05    0.75
Q18   1   0.4125  0.2256  0.2368  11.00000  0.05    0.69
Q19   1   0.7350  0.8297  0.7923  11.00000  0.05    0.68
Q20   1   0.7278  0.8410  0.6577  11.00000  0.05    0.64
;
_shelx_res_checksum              16798
_shelx_hkl_file
;
   0  -3   0   -0.80    0.60
   3  -3   0 5999.90  103.89
  -3   0   0 5376.36  104.09
  -4   2   0 2299.17   44.10
   2  -4   0 2184.08   43.40
   4  -2   0 2359.86   45.80
  -2   4   0 2326.77   43.90
  -2  -2   0 2324.67   43.70
  -2   4   0 2358.76   44.80
   4  -5   0 1780.32   36.70
  -5   1   0 1817.52   37.90
  -1  -4   0 1401.06   27.60
  -4   5   0 1512.15   30.90
   5  -1   0 1517.45   32.10
   4   1   0 1476.75   31.60
  -5   4   0 1440.26   31.00
  -4  -1   0 1724.43   34.70
  -1   5   0 1690.33   32.80
   5  -4   0 1711.03   35.60
   3   3   0 9855.91  176.58
   3  -6   0 9569.74  177.38
  -6   3   0 9907.21  179.18
  -3   6   0 9953.20  180.18
  -3  -3   0 9843.21  178.28
   6  -3   0 9999.00  182.78
   6   0   0 2256.47   46.80
  -6   6   0 2189.48   45.30
   0  -6   0 2158.08   40.70
   6  -6   0 2751.72   55.39
   0   6   0 2749.72   51.79
   2   5   0 2247.28   43.20
   5  -7   0 2178.28   45.50
  -5   7   0 2252.57   50.39
  -5   7   0 2154.38   44.30
   7  -2   0 2121.19   45.90
  -2  -5   0 2078.39   40.10
  -7   5   0 1977.70   42.30
  -5  -2   0 2034.10   41.40
  -2   7   0 2053.09   40.00
  -2   7   0 2000.30   41.90
   7  -5   0 2054.99   43.70
   7  -8   0  628.44   18.50
   1   7   0  620.34   15.40
  -8   1   0  642.54   20.10
  -1  -7   0  589.34   12.30
  -7   8   0  585.84   17.50
   8  -1   0  599.24   19.00
   4   4   0 1785.62   37.50
   4  -8   0 1828.32   38.80
  -8   4   0 1814.02   40.50
   8  -4   0 1822.22   41.00
  -4  -4   0 1832.62   36.60
  -4   8   0 1855.61   37.80
  -4   8   0 1823.32   39.00
  -8   7   0  547.05   17.50
   7   1   0  575.44   18.40
  -1   8   0  564.94   14.10
  -7  -1   0  570.84   17.00
   8  -7   0  542.65   17.50
   3   6   0 2263.47   45.20
  -9   3   0 2213.38   49.60
  -3  -6   0 1793.42   35.00
  -6   9   0 1834.92   39.30
   9  -3   0 1874.41   42.70
  -6   9   0 1828.22   40.10
  -9   6   0 2570.94   54.99
  -3   9   0 3138.89   59.99
  -6  -3   0 3089.89   60.89
   9  -6   0 3004.70   64.09
  -3   9   0 3108.89   62.29
  -9   9   0 1049.59   27.80
   9   0   0 1050.59   29.20
   0   9   0 1254.57   27.30
   9  -9   0 1231.38   31.50
   8 -10   0 1123.69   29.20
 -10   2   0 1128.89   31.20
   2   8   0 1128.39   25.80
  -8  10   0 1021.80   26.40
  -8  10   0  945.51   25.20
  10  -2   0  986.50   28.20
 -10   5   0  202.38   12.00
   5 -10   0  195.98   15.10
   5   5   0  189.98    9.50
  -5  10   0  192.98   10.40
  -5  -5   0  187.28    8.00
  -5  10   0  195.98    8.90
  10  -5   0  185.58   11.20
 -10   8   0 1115.89   30.00
   8   2   0 1171.28   31.00
  -2  10   0 1344.37   29.30
  10  -8   0 1250.27   32.70
  -8  -2   0 1257.37   30.90
   1  10   0   76.89    8.50
  10 -11   0   82.99    9.10
  11  -1   0   75.69    9.90
 -10  11   0   95.49    9.00
 -10  11   0   91.99   10.50
   4   7   0  136.59    8.20
   7 -11   0  129.79    9.40
 -11   4   0  144.99   12.00
  -7  11   0  106.99    7.90
  11  -4   0  106.09   10.00
  -7  11   0  102.89    9.30
  -4  -7   0  113.89    5.10
   7   4   0  176.08   10.10
 -11   7   0  172.68   12.00
  -7  -4   0  192.98    9.80
  -4  11   0  194.08    9.00
  -4  11   0  192.48   11.10
  11  -7   0  205.58   12.20
  10   1   0   33.20    7.50
 -11  10   0   22.90    6.90
  -1  11   0   27.90    4.80
 -10  -1   0   29.70    6.40
  11 -10   0   23.60    6.40
 -12   3   0  292.97   16.70
   3   9   0  314.37   15.60
   9 -12   0  326.47   15.00
  -9  12   0  322.37   14.00
  -9  12   0  314.87   15.00
  12  -3   0  324.77   16.10
   6 -12   0 1842.42   42.70
   6   6   0 1877.01   41.70
 -12   6   0 1873.61   45.60
  12  -6   0 1851.11   45.80
  -6  -6   0 1875.51   38.50
  -6  12   0 1879.21   41.20
  -6  12   0 1878.41   42.90
   9   3   0  200.78   13.50
 -12   9   0  200.28   13.60
  -3  12   0  188.38    9.50
  -3  12   0  191.08   12.10
  -9  -3   0  189.58   11.40
  12  -9   0  176.68   12.40
  12   0   0  115.09   12.50
 -12  12   0   85.09    9.80
 -12  12   0   92.49   11.30
   0  12   0  135.29    8.70
  12 -12   0  149.19   12.20
   2  11   0   -6.00    3.40
  11 -13   0    4.80    5.70
 -11  13   0    4.50    4.90
 -11  13   0   -5.50    5.60
  13  -2   0   -4.90    5.60
 -13   5   0 1753.72   45.30
   5   8   0 1758.42   39.90
   8 -13   0 1784.42   42.60
  -8  13   0 1859.61   42.30
  -8  13   0 1841.02   43.40
  -5  -8   0 1777.72   35.50
  13  -5   0 1899.51   47.10
 -13   8   0 2047.20   49.70
  -8  -5   0 1924.61   41.80
  13  -8   0 1922.01   47.80
  -5  13   0 1967.70   45.00
  -5  13   0 1892.81   42.10
 -13  11   0    3.60    4.80
  11   2   0    2.30    5.30
 -13  11   0   11.70    7.00
  13 -11   0    6.00    5.50
  -2  13   0   11.70    4.10
 -11  -2   0   -5.20    5.20
  13 -14   0   95.89   11.90
   1  13   0  109.19    8.90
 -13  14   0   81.29   10.40
 -13  14   0   97.49   12.20
  14  -1   0  113.39   13.30
   4  10   0  111.19    8.90
  10 -14   0  108.49   10.60
 -14   4   0  101.89   14.30
 -10  14   0  127.79   10.30
 -10  14   0  100.99   11.40
  14  -4   0  135.99   13.30
   7   7   0  129.59   10.10
   7 -14   0  128.99   10.60
 -14   7   0  122.59   13.40
  -7  -7   0  136.49    7.90
  -7  14   0  151.28   10.00
  -7  14   0  136.49   11.90
  14  -7   0  142.59   12.60
 -14  10   0   80.49   11.40
  10   4   0   82.39   11.10
  -4  14   0   72.69    7.80
 -10  -4   0   70.09    8.40
  14 -10   0   79.49   10.80
  -4  14   0   84.09   11.20
 -14  13   0   20.20    6.70
 -14  13   0    8.90    7.60
  13   1   0    5.70    5.80
  14 -13   0   12.40    6.80
  -1  14   0   16.90    4.90
 -13  -1   0   15.20    7.20
  12 -15   0   84.99   10.50
   3  12   0   83.89    8.60
 -12  15   0   97.49   10.70
  15  -3   0   89.39   12.10
 -12  15   0   95.39   11.30
 -15   6   0  432.56   21.50
   9 -15   0  449.86   18.50
   6   9   0  442.86   16.90
  -9  15   0  411.16   18.20
  15  -6   0  386.86   19.70
  -9  15   0  409.96   16.60
  -6  -9   0  389.56    9.70
   9   6   0  405.96   19.20
 -15   9   0  445.86   21.10
  -9  -6   0  453.85   15.90
  -6  15   0  490.15   17.00
  15  -9   0  478.85   21.20
  -6  15   0  487.05   19.80
 -15  12   0   49.40    8.30
 -15  12   0   83.49   11.20
  12   3   0   82.79   11.60
  15 -12   0   88.49   11.90
  -3  15   0   84.89    8.50
 -12  -3   0   98.99   11.80
  -3  15   0   70.09   10.10
  15   0   0  311.57   19.30
 -15  15   0  345.47   17.70
 -15  15   0  315.57   19.20
  15 -15   0  322.57   18.80
 -15   0   0  352.86   19.50
   0  15   0  332.97   14.50
   2  14   0  344.17   14.90
  14 -16   0  283.87   17.80
 -14  16   0  320.17   18.70
 -14  16   0  330.97   17.30
  16  -2   0  304.17   19.40
   5  11   0  602.64   20.20
  11 -16   0  598.34   22.80
 -16   5   0  571.04   26.00
  16  -5   0  508.25   23.80
 -11  16   0  543.65   20.50
 -11  16   0  540.65   21.80
 -16   8   0   29.00    8.90
   8   8   0   35.20    6.40
  16  -8   0   28.20    7.90
  -8  16   0   22.70    7.90
  -8  -8   0   34.20    4.80
  -8  16   0   37.40    6.00
  11   5   0  561.24   23.50
 -16  11   0  577.54   25.00
 -16  11   0  569.74   22.40
 -11  -5   0  626.34   20.80
  -5  16   0  603.04   23.30
  -5  16   0  638.64   20.40
  16 -11   0  620.64   25.20
  14   2   0  400.96   21.40
 -16  14   0  392.96   19.20
 -16  14   0  373.96   20.50
 -14  -2   0  357.36   18.60
  16 -14   0  333.07   19.20
  -2  16   0  349.37   14.90
  16 -17   0  206.78   17.00
   1  16   0  151.58   12.10
 -16  17   0  213.08   16.10
 -16  17   0  177.68   18.00
  17  -1   0  178.38   17.00
   4  13   0  146.79   11.50
  13 -17   0  177.68   14.30
  17  -4   0  144.69   15.60
 -13  17   0  134.39   14.60
 -13  17   0  159.38   13.30
 -17   7   0   87.69   12.90
  10 -17   0   80.29   11.10
   7  10   0   81.79    9.50
  17  -7   0  103.29   13.90
 -10  17   0  127.39   14.10
 -10  17   0  104.19   10.80
  10   7   0  335.17   18.80
 -17  10   0  299.07   19.90
  17 -10   0  268.17   17.70
  -7  17   0  271.07   14.00
  -7  17   0  244.38   16.80
 -10  -7   0  264.07   12.50
 -17  13   0  173.08   14.50
  13   4   0  182.18   15.70
 -17  13   0  184.18   17.50
  17 -13   0  204.48   16.70
  -4  17   0  191.38   16.80
 -13  -4   0  170.08   14.40
  -4  17   0  208.98   12.40
 -17  16   0  257.07   16.90
  16   1   0  256.17   18.80
 -17  16   0  229.28   19.00
  -1  17   0  263.17   13.70
  17 -16   0  237.08   18.10
 -16  -1   0  226.88   17.90
   3  15   0  274.87   14.90
  15 -18   0  282.87   18.70
  18  -3   0  262.57   20.00
 -15  18   0  293.27   19.90
 -15  18   0  294.37   18.00
   6  12   0   45.70    7.60
  12 -18   0   32.90    8.60
 -18   6   0   40.70   12.20
 -12  18   0   45.40   10.20
 -12  18   0   25.70    7.40
  18  -6   0   47.70    9.40
 -18   9   0   30.60   10.50
   9   9   0   40.30    7.60
  -9  18   0   35.10    9.10
  -9  18   0   23.80    6.40
  -9  -9   0   36.60    4.40
  -9  -9   0   53.19    6.20
  18  -9   0   22.70    8.50
 -18  12   0   17.70    7.20
  12   6   0   22.70    8.20
 -18  12   0   16.30   10.00
  -6  18   0   25.50    9.20
  -6  18   0    6.40    5.70
  18 -12   0   21.30    8.70
 -12  -6   0   18.20    6.90
 -18  15   0  321.47   21.50
 -18  15   0  327.17   19.20
  15   3   0  365.26   21.80
  -3  18   0  341.67   21.10
 -15  -3   0  346.77   19.80
  18 -15   0  355.16   21.40
  -3  18   0  351.36   16.20
 -18  18   0  200.28   17.30
 -18  18   0  222.08   20.80
  18   0   0  196.08   18.60
 -18   0   0  200.18   14.00
   0  18   0  203.38   13.90
 -18   0   0  182.08   19.40
  18 -18   0  212.38   18.50
   2  17   0   15.60    6.90
  17 -19   0   20.40   10.10
 -19   2   0    7.90    7.20
 -17  19   0    8.20    8.30
 -17  19   0    3.80   10.70
  19  -2   0   -4.90    9.10
   5  14   0   97.09   11.60
  14 -19   0   90.59   12.70
 -14  19   0  102.49   13.40
  19  -5   0  125.19   16.30
 -14  19   0  108.99   13.10
 -19   8   0  422.86   20.40
 -19   8   0  449.76   24.90
   8  11   0  448.86   19.40
  11 -19   0  419.26   20.40
 -11  19   0  471.25   20.10
 -11  19   0  477.95   22.40
  19  -8   0  438.36   23.70
 -19  11   0  398.56   24.10
  11   8   0  396.56   21.80
 -19  11   0  427.56   20.90
  -8  19   0  396.66   21.50
  -8  19   0  396.96   17.80
 -11  -8   0  369.46   12.30
  19 -11   0  374.26   21.70
 -11  -8   0  394.96   14.50
  14   5   0   66.59   11.90
 -19  14   0   72.29   13.80
 -19  14   0  101.09   13.30
 -14  -5   0   56.79    7.10
  -5  19   0   46.70   11.30
 -14  -5   0   51.89    9.90
  -5  19   0   58.79    8.30
  19 -14   0   50.29   10.50
 -19  17   0   12.40    8.80
 -19  17   0    4.10   10.30
  17   2   0   17.70    9.30
 -17  -2   0   10.30   10.00
  19 -17   0   12.80    9.40
 -17  -2   0   17.10    6.00
  -2  19   0    0.60   10.40
   1  19   0   57.19   10.20
  19 -20   0   68.89   13.20
 -20   1   0   44.90   14.70
 -20   1   0   84.09   11.60
 -19  20   0   53.39   14.20
 -19  20   0   79.09   13.20
  20  -1   0   58.39   15.10
  16 -20   0  317.77   20.10
 -20   4   0  288.27   18.10
   4  16   0  282.67   16.80
 -16  20   0  316.87   21.70
 -16  20   0  314.17   19.90
  13 -20   0  600.64   25.50
   7  13   0  634.04   23.60
 -20   7   0  579.34   24.70
 -20   7   0  622.14   30.30
 -13  20   0  632.14   25.10
  20  -7   0  628.94   29.40
 -13  20   0  623.24   26.60
  10  10   0  132.49   14.80
 -20  10   0  163.08   19.60
  10  10   0  167.58   14.30
 -20  10   0  163.48   15.30
 -10  20   0  158.28   17.10
 -10  20   0  147.09   13.50
  20 -10   0  180.58   17.60
 -20  13   0  633.14   30.10
 -20  13   0  654.23   27.30
  13   7   0  656.43   28.70
 -13  -7   0  580.84   17.70
  -7  20   0  587.54   26.50
 -13  -7   0  599.24   21.00
  20 -13   0  633.74   28.50
  -7  20   0  597.14   22.60
 -20  16   0  405.06   25.60
  16   4   0  387.16   24.50
  -4  20   0  373.96   18.20
 -16  -4   0  365.96   20.70
  20 -16   0  357.66   23.10
 -16  -4   0  343.07   15.60
  -4  20   0  355.96   23.50
 -20  19   0  138.79   17.60
  19   1   0  143.89   18.30
 -20  19   0  160.08   22.20
  20 -19   0  176.98   19.90
 -19  -1   0  127.19   13.40
 -19  -1   0  136.59   16.80
  -1  20   0  180.68   14.80
 -21   3   0  253.07   17.90
  18 -21   0  243.48   20.20
   3  18   0  272.27   17.40
  21  -3   0  333.17   25.10
 -18  21   0  274.57   23.90
 -18  21   0  248.18   23.50
   6  15   0  490.15   21.60
 -21   6   0  478.95   22.80
  15 -21   0  467.65   24.00
 -15  21   0  505.15   26.10
 -15  21   0  488.15   23.70
  21  -6   0  487.65   27.20
 -21   9   0  175.88   16.40
 -21   9   0  234.98   22.20
   9  12   0  190.98   15.90
  21  -9   0  139.59   17.30
 -12  21   0  150.18   14.60
 -12  21   0  159.68   18.10
 -21  12   0   19.30   16.40
 -21  12   0   36.60   13.30
  12   9   0   41.70   11.30
  -9  21   0   44.60   11.80
 -12  -9   0   46.30    6.00
 -12  -9   0   48.10    6.60
  21 -12   0   47.00   11.90
  -9  21   0   49.30    9.10
 -21  15   0  389.56   22.50
 -21  15   0  365.96   25.20
  15   6   0  402.16   24.70
  -6  21   0  367.66   18.70
 -15  -6   0  350.36   19.10
  -6  21   0  333.27   22.90
  21 -15   0  378.96   23.90
 -15  -6   0  333.77   14.20
 -21  18   0  209.08   19.10
  18   3   0  202.98   20.90
 -21  18   0  220.08   23.30
 -18  -3   0  190.18   19.90
  -3  21   0  180.08   15.20
 -18  -3   0  189.08   13.50
  21 -18   0  191.68   21.20
  -3  21   0  194.68   21.80
  21   0   0  573.84   31.80
 -21  21   0  576.74   29.60
 -21  21   0  588.04   32.40
  21 -21   0  674.73   32.80
 -21   0   0  610.94   31.80
 -21   0   0  591.54   24.20
   0  21   0  582.74   25.00
 -22   2   0   52.49   15.80
 -22   2   0   48.10   10.10
  20 -22   0   57.89   12.90
   2  20   0   57.49   11.30
 -20  22   0   53.49   15.60
  22  -2   0   61.49   15.00
 -20  22   0   33.70   11.10
  17 -22   0  115.69   15.70
   5  17   0  130.29   15.00
 -22   5   0  113.89   13.80
  22  -5   0   88.39   14.60
 -17  22   0   99.99   15.70
  14 -22   0  258.07   19.00
   8  14   0  225.58   17.30
 -22   8   0  169.28   23.40
  22  -8   0  198.18   20.60
 -14  22   0  209.98   17.20
 -14  22   0  199.48   20.50
  11  11   0   14.90    9.50
 -22  11   0   13.40    9.30
 -22  11   0   45.40   13.90
  11  11   0   31.10    9.00
 -11  22   0   29.70    8.50
  22 -11   0   43.70   15.00
 -11  22   0   44.60   11.60
  14   8   0  272.17   22.00
 -22  14   0  227.98   23.40
 -22  14   0  258.07   19.70
  22 -14   0  297.67   23.80
 -14  -8   0  260.57   14.70
  -8  22   0  264.87   21.60
  -8  22   0  266.37   17.60
 -14  -8   0  279.77   11.50
 -22  17   0  202.28   18.90
  17   5   0  189.18   20.80
 -22  17   0  186.88   22.00
  -5  22   0  170.58   20.50
 -17  -5   0  163.08   17.80
  -5  22   0  170.18   15.80
  22 -17   0  175.58   20.60
 -17  -5   0  155.48   12.10
 -22  20   0   39.90   16.50
  20   2   0   33.50   12.10
 -22  20   0   49.30   13.10
  -2  22   0   43.70   14.50
 -20  -2   0   36.00   14.20
  -2  22   0   50.89   10.60
  22 -20   0   46.00   13.70
 -20  -2   0   52.09    9.20
  22 -23   0  207.78   24.00
 -23   1   0  173.38   22.10
   1  22   0  218.28   19.50
 -23   1   0  231.18   18.60
 -22  23   0  194.68   26.70
 -22  23   0  218.38   22.90
 -23   4   0  522.05   29.70
   4  19   0  519.65   24.20
  19 -23   0  456.85   27.50
 -19  23   0  431.06   25.70
 -19  23   0  493.85   29.70
 -23   7   0  727.13   29.90
  16 -23   0  731.03   31.20
   7  16   0  739.43   28.50
  23  -7   0  712.43   34.10
 -16  23   0  678.23   30.90
 -16  23   0  589.04   41.60
  10  13   0  290.47   21.30
 -23  10   0  337.07   21.70
  10  13   0  326.87   20.50
 -23  10   0  308.97   31.40
 -13  23   0  348.17   21.20
  23 -10   0  371.26   26.10
 -13  23   0  331.47   23.10
 -23  13   0  419.96   29.80
  13  10   0  416.36   25.80
 -23  13   0  461.25   24.90
 -10  23   0  377.06   24.30
 -10  23   0  394.16   21.50
  23 -13   0  413.16   27.10
 -23  16   0  750.32   32.10
  16   7   0  859.21   36.70
 -23  16   0  823.12   37.20
  -7  23   0  876.61   30.90
  23 -16   0  852.71   36.90
  -7  23   0  857.91   34.20
 -16  -7   0  850.51   27.50
 -16  -7   0  814.82   23.50
 -23  19   0  524.15   33.80
  19   4   0  519.25   31.10
 -23  19   0  497.45   27.60
  23 -19   0  514.45   32.60
  -4  23   0  487.05   29.10
  -4  23   0  496.85   23.70
 -19  -4   0  501.05   26.50
 -19  -4   0  516.05   20.50
  22   1   0  290.97   26.90
 -23  22   0  315.07   24.60
 -23  22   0  316.57   30.40
  23 -22   0  360.66   28.50
 -22  -1   0  311.07   19.30
 -22  -1   0  294.27   27.60
  -1  23   0  278.57   20.80
  -1  23   0  315.67   28.30
 -24   3   0  362.76   22.20
   3  21   0  349.67   22.70
  21 -24   0  330.57   26.50
 -24   3   0  359.86   31.60
 -21  24   0  355.46   29.10
 -21  24   0  405.76   26.30
   6  18   0  264.87   19.90
 -24   6   0  225.48   19.80
  18 -24   0  283.37   22.90
 -18  24   0  231.58   23.30
 -18  24   0  217.48   21.00
 -24   9   0   91.99   13.70
  15 -24   0  108.89   15.50
   9  15   0   90.59   13.70
  24  -9   0  159.18   20.60
 -15  24   0  118.09   17.00
 -15  24   0  133.59   24.30
 -24  12   0  137.49   21.10
 -24  12   0  146.49   18.50
 -12  24   0  157.28   20.10
  24 -12   0  164.48   20.70
 -12  24   0  161.38   18.00
 -24  15   0  184.48   19.50
 -24  15   0  201.78   25.70
  15   9   0  192.58   20.90
 -15  -9   0  169.18    9.00
  -9  24   0  157.48   20.80
  24 -15   0  169.68   22.50
 -15  -9   0  181.18   12.00
  -9  24   0  195.38   17.80
  18   6   0  205.48   23.40
  24 -18   0  272.47   25.70
 -18  -6   0  254.77   14.20
  -6  24   0  237.78   19.00
 -18  -6   0  248.38   19.90
  -6  24   0  247.38   24.40
 -24  21   0  518.45   29.60
  21   3   0  498.45   32.10
  24 -21   0  436.96   30.00
 -21  -3   0  490.45   28.70
 -21  -3   0  478.15   21.40
  -3  24   0  429.56   31.20
  -3  24   0  449.76   24.60
 -24  24   0  267.67   26.70
  24   0   0  322.57   30.80
 -24  24   0  298.67   37.90
 -24   0   0  238.48   31.00
 -24   0   0  291.07   29.50
   0  24   0  260.57   23.30
   0  24   0  290.27   32.30
  24 -24   0  324.37   29.20
   2  23   0   30.10   13.00
  23 -25   0   33.80   15.50
 -25   2   0   22.80   11.00
 -25   2   0   39.00   18.60
 -23  25   0   13.50   13.90
 -23  25   0    1.80   16.30
   5  20   0   45.60   12.20
 -25   5   0   43.50   11.30
  20 -25   0   69.49   14.90
 -20  25   0   43.80   13.10
 -20  25   0   63.19   16.80
   8  17   0  141.09   16.20
 -25   8   0  128.89   16.00
  17 -25   0  107.39   16.00
 -17  25   0   89.39   16.80
 -17  25   0   98.59   14.80
 -25  11   0  145.99   19.30
 -25  11   0  143.19   21.00
  11  14   0  130.89   20.00
  11  14   0  142.59   19.20
 -14  25   0  137.79   17.30
  25 -11   0  182.08   23.10
 -25  14   0  139.79   17.10
  14  11   0  177.08   21.20
 -25  14   0  149.79   20.40
 -11  25   0  154.98   18.60
 -11  25   0  160.98   18.80
  25 -14   0  201.58   23.60
  17   8   0  107.69   18.50
 -25  17   0  112.69   20.80
  -8  25   0   96.39   14.50
  25 -17   0  107.49   17.80
 -17  -8   0  125.19    9.70
 -17  -8   0  112.89   11.40
  -8  25   0  101.59   17.50
  20   5   0   85.69   17.30
 -25  20   0  117.39   22.40
  -5  25   0  104.49   15.00
  25 -20   0  130.89   19.70
  -5  25   0  136.49   19.40
 -20  -5   0  126.69   16.50
 -20  -5   0  116.49   13.40
  23   2   0   84.59   17.80
 -25  23   0   72.39   21.00
 -25  23   0   81.09   16.90
 -23  -2   0   82.19   17.80
 -23  -2   0   63.19   11.40
  25 -23   0   74.19   18.40
  -2  25   0   76.69   19.80
  -2  25   0   61.79   13.40
   1  25   0   79.59   23.20
 -26   1   0   69.29   13.90
 -26   1   0   61.19   20.90
  25 -26   0   78.89   19.50
   1  25   0   93.09   17.60
 -25  26   0   27.80   15.90
  26  -1   0   70.79   20.40
 -25  26   0   91.49   21.70
   4  22   0  201.68   22.90
 -26   4   0  182.98   21.20
 -22  26   0  151.28   19.10
 -22  26   0  208.48   24.30
  19 -26   0  275.67   24.40
   7  19   0  295.47   23.40
 -26   7   0  282.47   22.60
 -19  26   0  300.97   24.90
 -19  26   0  322.07   27.10
  10  16   0  489.05   26.90
 -26  10   0  506.65   28.10
  10  16   0  483.05   28.40
 -16  26   0  544.25   28.80
 -16  26   0  538.15   29.60
 -26  13   0  487.95   35.90
 -26  13   0  502.75   27.90
  13  13   0  509.35   29.60
 -13  26   0  485.65   28.70
  26 -13   0  497.15   32.20
 -26  16   0  613.54   37.50
  16  10   0  652.03   34.50
 -10  26   0  612.64   31.60
 -10  26   0  608.04   28.60
  26 -16   0  626.24   35.10
  19   7   0  406.86   30.60
 -26  19   0  415.86   34.80
 -19  -7   0  432.36   17.20
  -7  26   0  456.65   26.40
 -19  -7   0  431.16   22.40
  -7  26   0  479.05   31.80
  26 -19   0  395.16   31.90
  22   4   0  293.07   30.10
 -26  22   0  358.66   27.80
 -26  22   0  359.16   35.60
 -22  -4   0  356.26   18.80
  26 -22   0  282.17   28.70
  -4  26   0  323.17   31.70
  -4  26   0  273.07   24.20
 -22  -4   0  345.37   27.00
  25   1   0   94.29   20.90
 -26  25   0   85.89   22.80
 -26  25   0   95.79   19.50
  -1  26   0   81.69   16.30
  26 -25   0   68.59   19.70
 -25  -1   0  123.09   21.60
  -1  26   0   85.89   24.00
 -27   3   0  236.58   23.00
   3  24   0  348.27   29.10
 -27   3   0  264.17   35.20
  24 -27   0  278.07   30.60
 -24  27   0  265.97   29.20
  27  -3   0  175.88   27.40
 -24  27   0  283.27   33.40
  21 -27   0  106.89   18.70
 -27   6   0   79.69   14.40
   6  21   0  113.79   17.20
 -21  27   0   77.29   16.30
 -21  27   0  100.49   20.40
  18 -27   0  231.98   24.00
 -27   9   0  196.28   22.30
   9  18   0  249.28   23.50
 -18  27   0  213.48   23.90
 -18  27   0  213.08   26.10
  12  15   0   72.19   15.80
  12  15   0   78.79   15.20
  27 -12   0    7.20   14.90
 -15  27   0   71.29   16.90
 -15  27   0   45.00   14.10
  15  12   0   75.79   16.10
 -27  15   0   69.59   21.10
  27 -15   0   19.00   15.20
 -12  27   0   54.19   13.60
 -12  27   0   65.69   17.10
  18   9   0  252.67   26.40
 -27  18   0  204.68   26.20
 -18  -9   0  227.48   13.20
  -9  27   0  224.98   27.20
  27 -18   0  200.48   27.50
 -18  -9   0  237.58   10.30
  -9  27   0  242.08   23.10
  21   6   0  111.39   19.40
 -27  21   0  171.08   26.90
  -6  27   0   87.89   21.10
  27 -21   0  123.59   21.20
  -6  27   0  113.59   15.70
 -21  -6   0   93.59   10.90
 -21  -6   0  109.59   15.40
 -27  24   0  207.28   26.80
  24   3   0  204.08   25.40
 -27  24   0  223.88   29.40
  -3  27   0  241.08   25.50
  27 -24   0  253.47   31.50
 -24  -3   0  254.67   19.20
  -3  27   0  249.58   27.70
 -24  -3   0  243.68   28.20
 -27  27   0  128.99   22.00
  27   0   0  118.49   23.80
 -27  27   0  154.18   27.70
   0  27   0  167.68   27.90
  27 -27   0   96.09   22.50
   0  27   0  186.08   28.40
 -27   0   0  169.18   17.50
 -27   0   0  154.38   25.10
   2  26   0   62.99   17.80
 -28   2   0   10.90   12.70
 -28   2   0   16.50   22.00
  26 -28   0   51.59   20.40
  28  -2   0   65.19   21.20
 -26  28   0   68.69   19.70
 -26  28   0   29.90   23.70
 -28   5   0   21.50   12.80
   5  23   0   11.30   15.30
 -28   5   0    3.40   21.70
  23 -28   0   29.20   17.40
 -23  28   0   50.89   16.90
   8  20   0  121.79   18.10
  20 -28   0  132.49   19.50
 -20  28   0  117.39   19.20
 -20  28   0  144.99   22.50
  11  17   0  157.98   20.10
  11  17   0  199.68   24.70
 -17  28   0  226.08   28.00
 -17  28   0  216.38   25.40
 -28  14   0  335.07   35.20
  14  14   0  267.17   27.50
 -14  28   0  265.37   28.60
 -14  28   0  215.18   23.80
 -28  17   0  168.88   27.80
  17  11   0  226.58   26.50
 -11  28   0  169.08   19.50
 -11  28   0  160.08   22.30
  20   8   0  111.59   21.70
 -28  20   0  127.19   24.80
  -8  28   0  135.09   22.00
 -20  -8   0  108.59   10.70
 -20  -8   0  158.98   15.20
 -28  23   0  -13.40   20.50
 -28  23   0   51.19   17.70
  23   5   0   32.10   18.10
 -23  -5   0   30.10   14.60
  -5  28   0   13.00   19.60
  28 -23   0  -20.60   15.90
 -23  -5   0   32.10    9.50
  -5  28   0   34.00   22.80
 -28  26   0   30.10   18.60
 -28  26   0   54.09   23.80
  26   2   0   51.39   22.20
  -2  28   0   47.80   23.90
 -26  -2   0   19.70   18.40
  -2  28   0   71.79   30.70
  28 -26   0  -21.20   18.90
 -29   1   0   36.80   23.30
   1  28   0    1.60   21.60
 -29   1   0   11.60   13.90
   1  28   0   16.90   28.70
 -28  29   0   45.20   19.00
 -28  29   0   63.29   27.20
  29  -1   0   18.10   20.60
   4  25   0   28.60   18.80
 -29   4   0    8.60   13.20
  25 -29   0   20.10   19.50
 -29   4   0   58.29   25.40
 -25  29   0   12.60   22.30
 -25  29   0   32.50   19.00
  29  -4   0   41.90   22.00
  22 -29   0   85.79   19.40
   7  22   0   90.29   18.50
  29  -7   0   55.59   24.60
 -22  29   0  106.39   20.90
 -22  29   0  135.19   24.10
  10  19   0  612.84   33.50
  10  19   0  532.75   32.90
  29 -10   0  523.95   38.50
 -19  29   0  528.75   33.70
 -19  29   0  562.34   35.60
  13  16   0  370.16   30.20
  29 -13   0  306.47   32.40
 -16  29   0  381.26   32.00
 -16  29   0  395.06   28.70
 -29  16   0  460.35   31.40
  16  13   0  484.05   34.00
 -29  16   0  505.75   42.50
 -13  29   0  482.95   30.30
 -13  29   0  482.55   33.60
  19  10   0  633.24   38.40
 -29  19   0  662.13   45.40
 -10  29   0  667.73   34.90
 -10  29   0  659.43   37.60
  22   7   0  196.18   26.50
 -29  22   0  214.88   27.10
 -29  22   0  173.68   29.60
 -22  -7   0  145.89   15.20
  -7  29   0  168.18   24.40
  -7  29   0  146.39   19.40
 -22  -7   0  144.69   13.30
 -29  25   0   24.10   23.80
  25   4   0   25.60   22.80
 -29  25   0   40.70   19.70
  -4  29   0   45.80   18.40
 -25  -4   0   62.69   17.20
 -25  -4   0   64.19   11.30
  -4  29   0   49.80   24.40
 -29  28   0   28.60   29.60
  28   1   0   35.80   21.00
 -29  28   0    0.80   18.80
  -1  29   0   32.20   29.00
 -28  -1   0   18.70   13.00
 -28  -1   0   -2.40   20.20
  -1  29   0   12.20   20.60
  27 -30   0    4.80   21.10
   3  27   0   30.90   21.90
 -30   3   0   43.70   25.30
 -30   3   0   -0.30   16.30
 -27  30   0   89.39   27.00
  30  -3   0    9.80   22.40
 -27  30   0   30.80   21.80
 -30   6   0   83.09   27.50
  24 -30   0   76.39   19.40
  30  -6   0   34.60   22.60
 -24  30   0  111.39   25.00
 -24  30   0   93.79   21.70
   9  21   0  163.98   22.60
 -30   9   0  115.49   23.30
  21 -30   0  125.29   21.50
   9  21   0   88.29   19.40
 -21  30   0   94.19   22.90
 -21  30   0   93.69   20.00
  30  -9   0  103.19   23.40
  12  18   0   75.79   17.30
 -30  12   0   53.79   16.70
 -18  30   0   93.39   18.40
 -18  30   0   49.30   19.70
  30 -12   0  108.19   21.00
  15  15   0   68.09   18.30
 -30  15   0   39.90   17.30
 -15  30   0   54.19   19.30
 -15  30   0   48.30   16.20
  30 -15   0   45.90   20.30
  18  12   0  102.49   22.30
 -30  18   0   78.19   17.40
 -30  18   0   83.39   27.10
  30 -18   0   92.19   22.40
 -12  30   0   73.49   20.10
 -12  30   0  113.09   19.50
 -30  21   0  174.98   30.70
  21   9   0  128.69   24.90
 -30  21   0  129.69   21.60
  -9  30   0  186.28   26.00
  30 -21   0  145.79   25.00
 -30  24   0   91.49   20.80
 -30  24   0  148.89   29.30
  24   6   0  102.29   23.30
 -24  -6   0  101.99   11.60
 -24  -6   0  124.69   15.90
  -6  30   0  119.69   21.20
  30 -24   0   70.89   24.00
  -6  30   0  112.89   25.90
 -30  27   0   33.00   19.30
 -30  27   0   39.90   28.90
  27   3   0   39.40   21.60
  30 -27   0   67.09   25.90
 -27  -3   0   65.99   14.00
 -27  -3   0   85.49   19.80
  -3  30   0   89.49   21.80
  -3  30   0   71.69   26.70
 -31   5   0   20.00   21.70
  26 -31   0   85.69   21.70
   5  26   0   -1.60   20.50
 -31   5   0   69.79   28.00
 -26  31   0   43.50   26.10
 -26  31   0   58.69   22.40
 -31   8   0   41.40   16.00
   8  23   0   43.00   20.60
   8  23   0   -9.50   17.30
  23 -31   0   62.89   19.00
 -23  31   0   32.30   20.10
 -23  31   0  -29.30   22.10
  31  -8   0   68.89   24.50
  11  20   0  105.29   21.90
 -31  11   0  155.68   21.30
  11  20   0  108.39   20.90
  31 -11   0  107.19   24.70
 -20  31   0  146.89   21.50
 -20  31   0  193.68   25.90
 -31  14   0  142.69   20.30
  14  17   0  195.98   24.60
  31 -14   0  196.28   28.60
 -17  31   0  163.98   22.70
 -17  31   0  209.28   26.10
 -31  17   0  164.08   31.90
  17  14   0  177.08   25.20
 -31  17   0  137.49   20.60
  31 -17   0  213.48   29.40
 -14  31   0  173.08   22.60
 -14  31   0  170.78   24.70
 -31  20   0  128.59   31.60
  20  11   0  111.99   24.10
 -31  20   0  134.79   21.60
 -11  31   0  123.39   24.80
  31 -20   0  160.88   25.40
 -11  31   0  108.49   20.90
  23   8   0   17.80   21.60
 -31  23   0   72.69   21.60
 -31  23   0   30.00   26.00
 -23  -8   0   41.60    8.60
  -8  31   0   31.30   19.40
 -23  -8   0   39.80    6.90
  -8  31   0   16.40   22.30
  31 -23   0    5.10   22.20
 -31  26   0    6.10   28.10
  26   5   0   18.20   21.70
  -5  31   0    0.50   19.70
 -26  -5   0   48.40   15.80
  -5  31   0   49.30   26.90
  31 -26   0   24.50   26.50
 -26  -5   0   25.20   11.20
   7  25   0   36.90   20.10
   7  25   0   71.79   23.40
  25 -32   0    3.10   20.90
 -32   7   0   32.70   30.10
 -32   7   0   62.69   18.00
 -25  32   0   83.79   27.40
 -25  32   0    2.90   21.90
 -32  10   0  156.28   21.40
  10  22   0  173.18   25.60
  10  22   0  170.58   24.30
  32 -10   0  143.59   24.50
 -22  32   0  177.88   29.90
 -22  32   0  289.17   35.90
  13  19   0  311.07   34.90
 -32  13   0  313.27   32.20
 -19  32   0  379.06   37.40
  32 -13   0  326.77   40.80
 -19  32   0  294.07   34.90
 -32  16   0  504.85   37.00
  16  16   0  458.15   38.40
  32 -16   0  447.66   43.60
 -16  32   0  510.65   39.00
 -16  32   0  554.64   38.00
 -32  19   0  371.06   47.20
 -32  19   0  288.97   33.90
  19  13   0  362.86   37.60
 -13  32   0  353.76   34.00
  32 -19   0  228.08   30.10
 -13  32   0  318.97   36.40
 -32  22   0  239.68   31.00
  22  10   0  169.38   28.30
 -32  22   0  235.98   36.80
  32 -22   0  337.97   42.40
 -10  32   0  195.28   24.30
 -10  32   0  248.38   29.30
 -32  25   0   73.39   29.60
  25   7   0   40.70   21.80
 -25  -7   0   82.19   13.10
  -7  32   0   81.39   27.90
  -7  32   0   45.50   22.90
 -25  -7   0  101.29   12.20
  32 -25   0   29.00   28.40
  12  21   0  106.19   24.50
 -33  12   0   46.60   19.40
  12  21   0   40.80   23.00
  33 -12   0   57.59   28.50
 -21  33   0   63.59   23.40
  15  18   0   58.19   21.80
 -33  15   0   80.99   21.30
 -18  33   0   90.09   25.40
 -18  33   0   60.89   21.40
  33 -15   0   26.20   23.90
  18  15   0   45.90   22.90
 -33  18   0   54.89   19.40
 -15  33   0   16.20   23.00
  33 -18   0   42.10   25.50
 -15  33   0   40.70   21.00
  21  12   0   48.30   25.10
 -33  21   0   68.69   33.30
 -12  33   0   80.09   25.20
 -12  33   0   29.00   22.10
  33 -21   0   56.79   26.60
   1   0   1   38.10    4.50
  -2  -1  -1  377.96   10.00
  -1   3  -1  369.26   10.70
  -1   3  -1  392.36   11.90
   2   1   1  375.46    8.30
   1  -3   1  376.96   10.70
   2   1   1  370.06   10.00
  -2   2  -1   25.40    3.40
  -2   2  -1   23.80    3.00
   2  -2   1   25.00    3.10
   0   2   1   24.70    2.00
  -2   0   1   25.10    3.30
   2  -2   1   19.40    2.90
  -3  -2  -1  216.08    8.30
  -2   5  -1  226.58    8.80
  -2   5  -1  218.88   10.20
   5  -3  -1  221.68    8.70
   2  -5   1  238.18   10.30
   3   2   1  235.08    8.80
   2  -5   1  249.48    9.00
   3   2   1  242.58    6.10
   1   2  -1  700.43   17.00
  -3   1  -1  696.23   15.60
  -3   1  -1  715.23   17.10
   3  -1   1  722.03   16.20
  -1  -2   1  744.83   17.60
   3  -1   1  742.33   17.80
  -3   4  -1  149.79    8.20
  -3   4  -1  142.59    6.80
  -1  -3  -1  143.19    5.30
   3  -4   1  169.68    7.10
   1   3   1  147.39    6.20
  -3   7  -1 1954.70   40.70
   7  -4  -1 1938.91   41.20
  -4  -3  -1 1890.51   40.30
  -3   7  -1 1893.81   42.60
   4   3   1 1831.72   41.00
   4   3   1 2064.19   38.10
   3  -7   1 2044.20   41.60
   4   3   1 2059.79   42.50
   3  -7   1 2101.99   45.10
   4  -4  -1   55.39    4.10
  -4   0  -1   46.90    3.70
  -4   0  -1   50.59    5.60
   0   4  -1   56.19    5.30
   0  -4   1   46.20    5.20
   4   0   1   51.99    4.10
   4   0   1   52.29    5.40
   3   1  -1  228.58    9.00
  -4   3  -1  214.88    9.30
   4  -3   1  195.28    8.60
  -3  -1   1  188.18    8.50
   4  -3   1  193.48    7.70
  -4   6  -1  227.68    9.40
  -4   6  -1  218.18   10.70
   4  -6   1  150.28    7.60
   2   4   1  142.39    6.50
   9  -5  -1 1764.82   40.20
  -4   9  -1 1745.93   38.90
  -4   9  -1 1789.92   41.50
  -9   5   1 1759.82   40.00
   5   4   1 1717.53   38.60
   4  -9   1 1757.52   37.40
   5   4   1 1688.23   34.90
   4  -9   1 1703.63   40.70
  -5  -1  -1 4768.12   88.99
   6  -5  -1 4851.31   91.59
  -1   6  -1 4988.30   93.29
  -5  -1  -1 4881.91   92.99
   1  -6   1 4873.31   89.69
   5   1   1 4848.21   87.69
  -6   5   1 4811.42   89.59
   5   1   1 4487.85   94.09
   3  -5  -1  558.34   11.80
  -5   2  -1  558.74   14.40
   2   3  -1  566.84   15.70
  -5   2  -1  554.54   16.10
  -3   5   1  594.04   12.40
  -2  -3   1  594.14   16.20
   5  -2   1  609.44   15.20
   5  -2   1  595.14   17.00
  -5   5  -1   87.69    6.50
  -5   5  -1   90.39    7.80
   5  -5   1  105.89   12.90
   5  -5   1   98.59    6.60
  -5   8  -1 1105.99   28.80
   8  -3  -1 1115.79   28.30
  -5   8  -1 1108.69   26.90
   5  -8   1 1157.88   27.00
   3   5   1 1143.19   26.40
   5  -8   1 1147.09   29.60
  -5  11  -1  989.10   28.50
  -5  11  -1  952.00   25.40
  11  -6  -1  924.81   27.00
   6   5   1  838.12   21.10
 -11   6   1  867.31   26.00
   5 -11   1  861.31   22.60
   6   5   1  893.01   24.80
  -2   8  -1 1391.36   31.60
  -6  -2  -1 1368.86   27.60
  -6  -2  -1 1348.17   28.50
  -6  -2  -1 1384.56   32.70
  -2   8  -1 1387.36   34.10
   8  -6  -1 1372.46   31.80
   2  -8   1 1236.58   27.80
   6   2   1 1233.98   30.10
  -8   6   1 1221.48   29.40
  -6   1  -1 4066.59   77.99
  -6   1  -1 4203.58   81.29
   5  -6  -1 4083.09   77.29
   1   5  -1 4248.17   80.09
  -1  -5   1 4254.67   80.89
  -5   6   1 4195.98   78.79
   6  -1   1 4263.37   79.99
   6  -1   1 4256.07   82.89
  -6   4  -1  145.79    9.20
  -6   4  -1  156.58    7.80
   4   2  -1  171.38   13.70
  -4  -2   1   87.49    7.50
   6  -4   1  100.39    6.80
  -2   6   1   96.09    3.80
   6  -4   1  100.09    7.80
  -6   7  -1  272.57   12.50
  -6   7  -1  263.47   10.80
   6  -7   1  237.58   11.60
   6  -7   1  234.38   10.10
  -6  10  -1   -0.40    4.70
  -6  10  -1    1.60    3.70
  10  -4  -1    6.40    4.50
   6 -10   1    4.40    3.70
   6 -10   1    1.30    4.30
   4   6   1   -2.10    3.40
   4   6   1    6.40    2.20
  13  -7  -1  241.68   14.40
  -6  13  -1  236.78   12.60
  -6  13  -1  234.08   15.50
   6 -13   1  239.88   12.00
 -13   7   1  247.98   15.70
   7   6   1  243.88   13.70
  -7  -3  -1  302.07    9.70
  -3  10  -1  278.67   14.60
  -3  10  -1  304.97   12.30
  10  -7  -1  295.07   13.00
  -7  -3  -1  299.77    8.50
   7   3   1  290.07   13.20
   3 -10   1  275.57   10.80
 -10   7   1  283.07   13.30
   0   7  -1   43.40    5.60
  -7   0  -1   41.40    6.40
   7  -7  -1   37.80    5.10
  -7   0  -1   41.40    4.70
   7   0   1   53.39    7.10
  -7   7   1   47.20    5.80
   0  -7   1   40.90    5.40
  -7   3  -1 1931.71   42.50
   3   4  -1 2004.90   49.99
   4  -7  -1 1844.12   37.50
  -7   3  -1 1919.71   40.30
   7  -3   1 2024.30   42.30
  -4   7   1 2040.70   38.90
  -3  -4   1 2049.79   42.80
   7  -3   1 2026.10   44.80
  -7   6  -1  729.33   21.60
  -7   6  -1  766.52   20.20
   7  -6   1  660.13   20.30
   7  -6   1  646.84   18.30
  -6  -1   1  672.93   19.70
  -7   9  -1  593.24   18.30
  -7   9  -1  566.34   19.70
   9  -2  -1  597.54   19.70
   7  -9   1  586.74   20.00
   7  -9   1  604.54   18.00
  -7  12  -1  362.16   17.30
  12  -5  -1  336.57   16.30
  -7  12  -1  336.57   14.70
   7 -12   1  264.47   12.30
   5   7   1  259.87    9.70
   7 -12   1  263.27   14.30
   5   7   1  268.27   13.10
  -7  15  -1 1564.94   39.80
  -7  15  -1 1604.54   42.90
  15  -8  -1 1585.44   42.90
   8   7   1 1737.33   40.40
 -15   8   1 1807.72   47.00
   8   7   1 1733.73   44.60
  -4  12  -1 3430.46   69.89
  12  -8  -1 3398.46   71.89
  -8  -4  -1 3307.07   63.89
  -8  -4  -1 3330.77   62.89
  -4  12  -1 3406.56   73.09
   8   4   1 3288.47   70.29
   4 -12   1 3238.28   65.39
 -12   8   1 3291.67   70.39
  -1   9  -1 1582.94   35.30
  -8  -1  -1 1452.35   37.00
   9  -8  -1 1528.15   35.20
  -8  -1  -1 1525.75   37.10
   1  -9   1 1469.85   32.40
   8   1   1 1489.25   36.70
  -9   8   1 1496.45   34.50
   2   6  -1 1967.20   42.30
   6  -8  -1 1946.61   39.70
  -8   2  -1 1938.21   44.10
  -8   2  -1 1943.51   41.10
  -6   8   1 1825.72   37.40
   8  -2   1 1823.52   42.10
  -2  -6   1 1857.51   39.20
  -8   5  -1 1199.88   30.60
  -8   5  -1 1174.58   28.50
   5   3  -1 1201.88   29.50
   8  -5   1 1237.38   29.00
  -5  -3   1 1239.78   29.80
   8  -5   1 1238.78   31.40
  -3   8   1 1217.68   25.20
  -8   8  -1   32.00    6.10
  -8   8  -1   22.40    4.50
   8  -8   1   33.00    5.30
   8  -8   1   31.30    6.10
  -8  11  -1  345.77   14.70
  11  -3  -1  351.76   16.20
  -8  11  -1  344.57   16.30
   8 -11   1  333.17   13.70
   3   8   1  292.77   10.50
   8 -11   1  349.07   15.90
  14  -6  -1 1630.24   43.80
  -8  14  -1 1650.93   43.60
  -8  14  -1 1729.63   41.70
   8 -14   1 1629.44   42.90
   6   8   1 1601.74   35.90
   6   8   1 1622.54   40.50
  -8  17  -1 1509.35   43.10
  -8  17  -1 1498.25   40.00
  17  -9  -1 1543.65   43.70
   9   8   1 1539.75   42.40
 -17   9   1 1546.45   44.90
  -9  -5  -1 1954.80   38.90
  14  -9  -1 2023.90   49.10
  -5  14  -1 2012.70   46.40
  -5  14  -1 1978.90   49.60
  -9  -5  -1 1919.91   38.00
 -14   9   1 2002.80   49.10
   9   5   1 1988.30   48.60
   5 -14   1 1894.41   42.80
  11  -9  -1 1931.11   44.60
  -9  -2  -1 1950.90   39.80
  -9  -2  -1 1888.41   45.80
  -2  11  -1 1946.01   43.60
  -9  -2  -1 1915.41   41.30
   9   2   1 1789.32   43.70
 -11   9   1 1810.22   42.10
   2 -11   1 1748.43   38.10
  -9   1  -1 1392.86   35.00
  -9   1  -1 1335.07   30.90
   1   8  -1 1407.96   32.70
   8  -9  -1 1356.46   38.90
   9  -1   1 1291.67   33.20
  -1  -8   1 1234.08   28.50
  -8   9   1 1251.17   29.20
   5  -9  -1 1327.57   28.50
  -9   4  -1 1333.47   31.40
  -9   4  -1 1350.56   34.00
   4   5  -1 1338.77   32.20
   9  -4   1 1322.47   33.90
  -5   9   1 1333.07   28.00
  -4  -5   1 1338.47   31.20
  -9   7  -1  635.54   19.40
  -9   7  -1  635.34   21.00
  -7  -2   1  661.83   20.40
   9  -7   1  628.44   21.20
  10  -1  -1  212.28   13.00
  -9  10  -1  212.28   13.20
  -9  10  -1  196.88   11.20
   1   9   1  152.68    4.80
   9 -10   1  164.08   11.90
  -9  13  -1  517.45   21.60
  -9  13  -1  560.34   19.90
  13  -4  -1  515.45   21.20
   4   9   1  570.04   15.30
   9 -13   1  589.14   22.60
  16  -7  -1  314.87   18.10
  -9  16  -1  318.37   16.20
  -9  16  -1  304.77   18.60
   9 -16   1  346.57   18.30
   7   9   1  347.47   14.00
   7   9   1  320.57   16.70
  -9  19  -1  277.27   21.20
  -9  19  -1  318.27   17.60
  19 -10  -1  282.87   19.40
 -19  10   1  240.68   20.70
  10   9   1  271.27   17.50
  16 -10  -1  510.95   22.10
  -6  16  -1  538.15   23.70
  -6  16  -1  529.45   20.20
  10   6   1  526.75   22.50
 -16  10   1  524.85   23.50
  13 -10  -1  448.56   18.70
 -10  -3  -1  438.26   15.30
  -3  13  -1  462.85   17.30
 -10  -3  -1  437.36   13.20
  -3  13  -1  435.16   20.20
   3 -13   1  428.16   14.60
  10   3   1  438.96   19.20
 -13  10   1  425.26   18.70
 -10   0  -1   21.40    4.30
 -10   0  -1   24.30    6.80
  10 -10  -1   25.20    5.20
   0  10  -1   27.00    5.60
  10   0   1   25.20    6.50
   0 -10   1   21.30    4.40
 -10  10   1   21.70    6.00
 -10   3  -1  614.14   18.60
   7 -10  -1  627.24   17.40
   3   7  -1  639.64   19.60
 -10   3  -1  658.03   22.00
  10  -3   1  595.94   21.00
  -7  10   1  630.44   16.90
  -3  -7   1  612.54   17.80
 -10   6  -1   69.99    9.80
 -10   6  -1   57.39    7.10
   6   4  -1   78.49    8.10
  10  -6   1   61.09    7.90
  -4  10   1   51.59    5.50
  -6  -4   1   62.09    8.00
 -10   9  -1   64.59    7.90
 -10   9  -1   50.69    7.80
  10  -9   1   43.70    7.80
  -9  -1   1   35.90    7.10
  12  -2  -1    3.30    5.70
 -10  12  -1   -1.20    6.30
 -10  12  -1    6.50    5.10
  10 -12   1    9.00    5.70
   2  10   1    8.40    2.50
 -10  15  -1  960.70   29.00
 -10  15  -1  933.81   31.00
  15  -5  -1  928.21   31.20
   5  10   1  939.21   23.90
  10 -15   1  973.70   31.40
  18  -8  -1  919.31   33.40
 -10  18  -1  939.91   30.50
 -10  18  -1 1015.00   34.00
   8  10   1 1047.00   32.70
   8  10   1 1050.19   28.90
  10 -18   1 1021.90   34.50
  21 -11  -1  321.87   21.30
 -10  21  -1  297.37   18.80
 -10  21  -1  294.77   23.00
 -21  11   1  330.17   23.90
  11  10   1  290.67   19.90
  -7  18  -1  896.21   32.90
  18 -11  -1  907.71   32.00
  -7  18  -1  904.31   29.00
 -18  11   1  951.70   34.00
  11   7   1  938.31   32.40
  15 -11  -1 1111.49   33.80
  -4  15  -1 1137.69   31.30
  -4  15  -1 1104.09   34.60
 -11  -4  -1 1115.19   27.40
 -11  -4  -1 1142.19   25.60
   4 -15   1 1104.49   27.50
  11   4   1 1120.89   34.40
 -15  11   1 1115.59   33.70
  12 -11  -1 3227.08   69.39
  -1  12  -1 3285.37   68.49
 -11  -1  -1 3296.87   65.39
 -11  -1  -1 3231.08   72.09
  11   1   1 3179.08   71.09
 -12  11   1 3259.87   67.89
   1 -12   1 3102.39   62.79
   9 -11  -1 1668.43   38.30
 -11   2  -1 1704.23   42.60
   2   9  -1 1669.93   39.40
 -11   2  -1 1653.23   38.10
  -9  11   1 1474.25   34.40
  -2  -9   1 1474.05   33.20
  11  -2   1 1533.05   39.70
   5   6  -1 1302.57   32.80
 -11   5  -1 1273.97   32.20
   6 -11  -1 1292.87   29.30
 -11   5  -1 1314.47   35.20
  11  -5   1 1186.58   33.10
  -6  11   1 1191.18   26.80
  -5  -6   1 1182.98   29.30
 -11   8  -1  302.37   15.80
 -11   8  -1  280.97   13.50
  -8  -3   1  311.17   14.90
  -3  11   1  304.17   11.40
  11  -8   1  297.07   15.60
  11   0  -1   14.60    6.60
 -11  11  -1    9.70    4.80
 -11  11  -1   19.80    6.90
 -11   0   1    8.50    6.70
   0  11   1    8.30    2.40
  11 -11   1   16.50    6.70
 -11  14  -1  169.38   14.50
 -11  14  -1  175.88   12.40
  14  -3  -1  168.88   14.10
  11 -14   1  147.29   13.60
   3  11   1  156.38    7.70
 -11  17  -1 1147.49   33.90
  17  -6  -1 1143.89   37.10
 -11  17  -1 1135.59   36.30
  11 -17   1 1183.48   37.50
   6  11   1 1259.97   35.00
   6  11   1 1204.48   30.30
 -11  20  -1  613.74   28.80
 -11  20  -1  634.44   25.60
  20  -9  -1  630.44   28.60
   9  11   1  651.43   26.60
   9  11   1  631.44   22.60
 -11  23  -1  535.55   26.00
  23 -12  -1  512.65   28.70
 -11  23  -1  547.75   30.40
  12  11   1  554.84   27.50
  20 -12  -1  917.41   34.50
  -8  20  -1  902.41   30.70
  -8  20  -1  896.21   34.70
  12   8   1  899.51   33.20
 -20  12   1  875.61   35.10
  -5  17  -1  677.33   27.90
  17 -12  -1  686.93   26.50
  -5  17  -1  654.13   23.50
 -12  -5  -1  647.94   19.20
 -12  -5  -1  676.03   17.40
 -17  12   1  711.73   27.90
  12   5   1  692.13   27.40
  14 -12  -1 1080.19   31.80
 -12  -2  -1 1041.60   28.70
  -2  14  -1 1060.69   29.90
 -12  -2  -1 1092.29   26.50
 -14  12   1 1100.49   32.30
   2 -14   1 1089.09   26.40
  12   2   1 1109.59   34.30
 -12   1  -1 2882.81   65.79
  11 -12  -1 2916.11   62.09
   1  11  -1 2882.81   62.09
 -12   1  -1 2854.21   60.09
  12  -1   1 2855.91   65.29
  -1 -11   1 2759.62   56.39
 -11  12   1 2850.21   60.39
 -12   4  -1 3647.54   76.69
   4   8  -1 3611.44   73.39
 -12   4  -1 3498.35   72.49
   8 -12  -1 3303.57   73.69
  12  -4   1 3543.15   77.59
  -8  12   1 3555.14   70.49
  -4  -8   1 3585.14   70.99
   7   5  -1  520.55   19.10
 -12   7  -1  508.55   18.70
 -12   7  -1  522.85   21.20
  12  -7   1  387.96   18.10
  -7  -5   1  395.26   16.20
  -5  12   1  412.06   13.60
 -12  10  -1   61.29    9.80
 -12  10  -1   53.19    8.20
  12 -10   1   88.89   11.30
  -2  12   1   89.59    5.60
 -10  -2   1   94.79   11.60
 -12  13  -1  308.37   15.80
 -12  13  -1  326.57   18.10
  13  -1  -1  304.57   17.70
   1  12   1  348.27   10.70
  12 -13   1  350.96   18.70
  16  -4  -1  109.19   13.70
 -12  16  -1  131.49   12.50
 -12  16  -1  145.99   14.80
  12 -16   1  124.79   13.80
 -12  19  -1  214.08   16.10
  19  -7  -1  195.38   17.80
 -12  19  -1  192.58   19.30
  12 -19   1  165.58   16.10
   7  12   1  171.68   14.70
   7  12   1  185.08   12.00
 -12  22  -1  198.98   17.90
  22 -10  -1  217.88   25.30
 -12  22  -1  205.28   22.90
  10  12   1  203.38   15.60
  10  12   1  201.28   18.40
 -12  25  -1   72.59   16.50
  25 -13  -1   75.39   16.10
 -12  25  -1   49.40   14.40
  13  12   1   63.89   17.10
  22 -13  -1  136.79   18.40
  -9  22  -1  125.99   17.90
  -9  22  -1  158.58   16.60
  13   9   1  131.49   17.60
 -22  13   1  161.48   20.30
 -13  -6  -1  120.69    8.80
  -6  19  -1  111.29   15.20
  19 -13  -1  101.59   13.50
  -6  19  -1  110.29   13.10
  13   6   1  115.99   15.10
 -19  13   1  112.39   15.30
  16 -13  -1   33.10    8.30
  -3  16  -1    8.80    5.70
 -13  -3  -1   26.80    5.10
  -3  16  -1   29.10   10.10
 -13  -3  -1   30.60    7.10
 -16  13   1   31.30    8.90
  13   3   1   20.60    8.50
   3 -16   1   29.20    5.60
 -13   0  -1    3.00    3.80
  13 -13  -1    7.00    5.40
 -13   0  -1    7.20    7.30
   0  13  -1    0.00    5.00
   0 -13   1    6.40    4.00
 -13  13   1    9.50    6.40
  13   0   1   16.70    7.60
  10 -13  -1  459.65   17.00
   3  10  -1  442.36   17.50
 -13   3  -1  446.36   20.70
 -13   3  -1  439.16   17.00
  13  -3   1  424.66   20.20
 -10  13   1  460.95   16.80
  -3 -10   1  427.06   14.50
 -13   6  -1  160.48   11.40
   6   7  -1  148.09   11.50
   7 -13  -1  139.99   10.70
 -13   6  -1  162.28   14.80
  -7  13   1  150.38    9.50
  -6  -7   1  139.39   10.50
  13  -6   1  152.58   12.70
 -13   9  -1  274.57   14.50
 -13   9  -1  256.07   16.60
  -4  13   1  260.97   10.50
  -4  13   1  278.87   12.20
  13  -9   1  263.07   15.70
  -9  -4   1  305.07   15.50
  12   1  -1  294.87   17.40
 -13  12  -1  279.17   15.50
 -13  12  -1  287.57   17.70
  -1  13   1  286.47    9.70
 -12  -1   1  291.47   17.20
  13 -12   1  276.97   17.00
 -13  15  -1  354.66   19.90
 -13  15  -1  371.96   18.10
  15  -2  -1  343.87   19.70
  13 -15   1  362.96   19.70
   2  13   1  349.47   12.00
 -13  18  -1  682.03   26.10
  18  -5  -1  677.63   28.50
 -13  18  -1  651.53   28.10
  13 -18   1  672.93   28.00
   5  13   1  633.64   20.30
 -13  21  -1   94.29   15.20
 -13  21  -1   92.69   13.30
  21  -8  -1  109.69   17.00
   8  13   1  113.59   12.40
  13 -21   1   96.49   13.60
   8  13   1   93.69   12.50
 -13  24  -1   88.09   16.70
  24 -11  -1  104.79   16.80
  11  13   1  116.79   15.40
  27 -14  -1   40.60   15.00
 -13  27  -1   46.40   17.70
 -13  27  -1   30.30   14.00
  14  13   1   63.99   15.90
 -10  24  -1  377.56   23.40
  24 -14  -1  288.87   24.10
 -10  24  -1  311.67   27.50
  -7  21  -1  429.46   21.90
  21 -14  -1  436.66   24.40
  -7  21  -1  451.25   26.70
  14   7   1  397.36   24.50
 -21  14   1  423.36   26.20
  18 -14  -1  886.51   31.60
 -14  -4  -1  857.11   22.60
  -4  18  -1  900.31   33.70
  -4  18  -1  854.31   28.60
 -14  -4  -1  883.31   25.80
 -18  14   1  972.80   34.00
  14   4   1 1002.50   35.20
 -14  -1  -1 1096.39   28.50
  15 -14  -1 1085.29   33.10
  -1  15  -1 1081.69   31.40
 -14  -1  -1 1118.79   31.80
  14   1   1 1207.08   37.60
 -15  14   1 1130.59   33.70
   1 -15   1 1086.09   26.50
 -14   2  -1 1234.18   32.40
  12 -14  -1 1201.78   33.30
 -14   2  -1 1229.08   37.40
   2  12  -1 1293.27   33.80
 -12  14   1 1334.67   34.70
  -2 -12   1 1294.67   29.90
  14  -2   1 1349.96   39.60
   5   9  -1 2484.65   55.59
 -14   5  -1 2370.26   58.59
 -14   5  -1 2399.96   54.89
   9 -14  -1 2489.15   53.19
  -5  -9   1 2404.16   51.39
  -9  14   1 2469.35   52.19
  14  -5   1 2458.25   59.79
 -14   8  -1 2008.30   50.69
 -14   8  -1 1917.91   47.20
   8   6  -1 1972.60   47.80
  -6  14   1 1987.00   43.00
  14  -8   1 1925.01   50.29
  -8  -6   1 1970.60   45.50
 -14  11  -1  175.98   13.20
 -14  11  -1  183.48   15.20
  14 -11   1  222.08   15.80
 -11  -3   1  209.28   15.20
  -3  14   1  213.28   12.60
  -3  14   1  218.58    9.60
 -14  14  -1   11.00    5.90
 -14  14  -1    7.70    8.30
  14   0  -1    4.80    7.10
 -14   0   1   -4.20    7.90
  14 -14   1   16.90    7.90
   0  14   1    8.40    4.10
  17  -3  -1  286.77   19.60
 -14  17  -1  274.27   17.00
 -14  17  -1  282.87   19.90
   3  14   1  285.37   12.20
  14 -17   1  260.37   18.20
 -14  20  -1  139.79   15.60
  20  -6  -1  157.08   18.00
 -14  20  -1  173.98   19.80
  14 -20   1  196.08   18.80
   6  14   1  196.38   12.90
   6  14   1  199.78   15.00
 -14  23  -1  173.78   21.00
  23  -9  -1  150.98   19.30
 -14  23  -1  168.98   20.30
   9  14   1  136.29   14.90
  14 -23   1  152.98   18.50
   9  14   1  173.98   18.30
 -14  26  -1  109.29   16.40
 -14  26  -1  131.69   19.50
  26 -12  -1  129.09   19.70
  12  14   1   88.49   15.60
 -14  29  -1   13.90   18.90
 -14  29  -1   31.30   15.50
  15  14   1   18.80   15.40
 -29  15   1    4.30   13.90
 -11  26  -1  349.77   25.70
 -11  26  -1  338.37   29.40
  26 -15  -1  280.47   25.80
  15  11   1  331.77   26.70
  -8  23  -1  424.66   23.80
  -8  23  -1  443.36   29.10
 -23  15   1  354.76   28.20
 -15  -5  -1  747.13   20.30
  -5  20  -1  781.62   32.80
 -15  -5  -1  740.63   23.10
  -5  20  -1  762.12   27.80
  20 -15  -1  758.02   30.90
  15   5   1  770.12   31.90
 -20  15   1  768.92   32.90
 -15  -2  -1  657.63   20.60
  17 -15  -1  682.73   26.80
  -2  17  -1  641.54   24.20
 -15  -2  -1  640.04   23.90
  -2  17  -1  700.53   29.80
  15   2   1  778.12   30.80
 -17  15   1  774.52   29.20
 -15   1  -1 1374.16   35.10
   1  14  -1 1396.66   37.00
  14 -15  -1 1425.76   38.30
 -15   1  -1 1315.97   41.20
  -1 -14   1 1449.46   32.40
 -14  15   1 1499.75   39.60
  15  -1   1 1499.15   43.80
   4  11  -1 1589.24   40.10
  11 -15  -1 1516.15   38.60
 -15   4  -1 1509.15   39.10
 -15   4  -1 1577.04   44.10
 -11  15   1 1492.95   37.00
  -4 -11   1 1499.15   33.80
  15  -4   1 1515.95   43.30
 -15   7  -1 1456.45   39.00
 -15   7  -1 1534.15   43.00
   8 -15  -1 1498.45   35.90
   7   8  -1 1491.95   39.20
  15  -7   1 1680.93   46.50
  -8  15   1 1704.73   39.10
  -7  -8   1 1736.03   40.20
 -15  10  -1 1366.26   39.70
 -15  10  -1 1322.87   37.00
 -10  -5   1 1356.96   36.40
  15 -10   1 1344.87   40.30
  -5  15   1 1395.16   33.60
  -5  15   1 1362.06   31.70
  13   2  -1  208.48   16.10
 -15  13  -1  212.78   17.10
 -15  13  -1  209.08   14.80
  15 -13   1  220.98   16.60
  -2  15   1  220.68    9.80
 -13  -2   1  210.38   16.30
 -15  16  -1  138.19   16.30
 -15  16  -1   96.69   12.40
  16  -1  -1  138.09   15.40
  15 -16   1  107.99   13.80
   1  15   1  106.59    8.20
 -16   1   1  118.39   15.80
 -15  19  -1   22.50    8.50
 -15  19  -1    9.30   10.80
  19  -4  -1   14.00    9.20
   4  15   1   16.50    5.60
  15 -19   1   23.80    9.40
 -15  22  -1    5.40   10.20
 -15  22  -1    3.50   12.10
  22  -7  -1   10.10   10.70
  15 -22   1    7.30    9.30
   7  15   1   14.30    7.60
   7  15   1   10.30    8.60
 -15  25  -1   90.19   17.60
  25 -10  -1   90.69   16.30
 -15  25  -1  103.39   15.90
  10  15   1   97.99   15.60
  10  15   1   86.99   12.60
 -15  28  -1   96.39   21.00
 -15  28  -1   93.59   17.10
  13  15   1  119.69   19.00
 -15  31  -1   33.90   22.30
  31 -16  -1  -16.60   19.50
 -15  31  -1   15.80   17.00
  16  15   1   30.60   18.80
 -31  16   1   23.00   16.50
 -12  28  -1    5.50   14.00
  28 -16  -1  -23.40   14.50
 -12  28  -1    2.20   17.00
  16  12   1   20.30   14.50
  -9  25  -1   38.00   16.00
  -9  25  -1   67.09   13.90
  25 -16  -1   79.59   15.70
 -25  16   1   31.40   18.20
  16   9   1   46.50   14.50
  -6  22  -1   51.49   15.60
  -6  22  -1   43.80   10.80
  22 -16  -1   49.20   11.90
 -16  -6  -1   37.30    5.10
 -16  -6  -1   38.30    7.40
 -22  16   1   37.40   14.40
  -3  19  -1   43.80    9.10
  -3  19  -1   39.50   13.30
 -16  -3  -1   57.29    7.30
 -16  -3  -1   54.69   10.00
  19 -16  -1   68.59   11.70
 -19  16   1   61.69   13.20
  16   3   1   56.29   12.30
  16 -16  -1   11.50    7.30
 -16   0  -1   17.10    5.40
   0  16  -1   13.00    6.70
 -16  16   1   22.90    9.50
  16   0   1   27.40    9.20
   0 -16   1   12.70    4.70
   3  13  -1   50.69    8.40
 -16   3  -1   61.39   12.20
 -16   3  -1   43.30    7.50
  13 -16  -1   56.09    8.90
  16  -3   1   55.89   10.70
 -13  16   1   47.20    9.30
  -3 -13   1   44.40    6.00
   6  10  -1  505.95   20.50
  10 -16  -1  496.65   18.60
 -16   6  -1  494.45   20.30
 -16   6  -1  490.95   24.30
  -6 -10   1  499.55   16.80
 -10  16   1  502.35   18.80
  16  -6   1  513.55   23.70
 -16   9  -1  433.96   22.50
   9   7  -1  421.56   19.20
 -16   9  -1  401.16   18.90
  16  -9   1  456.55   22.10
  -7  16   1  439.56   17.10
  -7  16   1  433.76   15.80
  -9  -7   1  425.76   17.90
 -16  12  -1   86.69   11.60
 -16  12  -1   84.09   12.30
  12   4  -1   81.19   11.30
  -4  16   1   81.79    9.50
 -12  -4   1   81.99   11.20
  16 -12   1   63.99   11.90
  -4  16   1   73.09    7.40
  15   1  -1  183.18   16.80
 -16  15  -1  187.58   17.30
 -16  15  -1  179.18   14.90
  16 -15   1  177.28   17.30
 -15  -1   1  160.88   16.60
  -1  16   1  167.28    9.50
 -16  18  -1   59.49   10.60
  18  -2  -1   36.70   11.10
 -16  18  -1   27.60   11.70
   2  16   1   35.60    6.40
  16 -18   1   40.60   10.00
  21  -5  -1    6.60   10.40
 -16  21  -1   17.90   12.70
 -16  21  -1   23.60   10.60
  16 -21   1   23.00   11.40
   5  16   1   16.40    7.00
 -16  24  -1   27.30   15.20
 -16  24  -1   23.80   11.10
  24  -8  -1   31.80   12.80
   8  16   1   30.60    9.50
   8  16   1   16.30   10.20
  16 -24   1   16.60   10.70
 -16  27  -1   83.59   15.20
 -16  27  -1   85.69   19.30
  11  16   1   61.29   14.30
  11  16   1   73.69   15.30
 -16  30  -1   52.99   22.00
  30 -14  -1   76.19   21.00
 -16  30  -1   45.60   18.00
 -30  14   1   44.30   18.30
  14  16   1   17.20   16.20
 -16  33  -1   31.10   22.40
 -16  33  -1    1.20   26.40
  33 -17  -1   13.50   24.20
 -33  17   1   46.50   18.20
  17  16   1   31.30   22.00
  30 -17  -1    7.60   17.90
 -13  30  -1   34.20   16.90
 -13  30  -1   35.60   21.40
  17  13   1   42.70   18.10
 -30  17   1   62.59   16.10
 -10  27  -1  176.98   20.50
  27 -17  -1  176.98   22.40
 -10  27  -1  161.68   23.10
 -27  17   1  152.08   23.90
  17  10   1  127.99   20.30
  -7  24  -1  138.39   20.30
  24 -17  -1  153.78   20.30
  -7  24  -1  128.89   15.70
  17   7   1  126.79   18.50
 -24  17   1  116.09   21.40
  -4  21  -1  614.94   32.30
  -4  21  -1  630.84   26.80
 -17  -4  -1  637.24   20.00
  21 -17  -1  695.23   30.60
 -17  -4  -1  615.14   23.80
  17   4   1  531.45   35.50
 -21  17   1  676.03   31.50
  -1  18  -1  529.75   22.70
 -17  -1  -1  524.15   23.70
 -17  -1  -1  541.75   19.60
  18 -17  -1  529.55   25.00
  17   1   1  578.84   28.10
 -18  17   1  515.55   25.80
 -17   2  -1 1000.70   29.60
   2  15  -1 1010.00   31.40
 -17   2  -1 1016.20   36.30
  15 -17  -1  995.70   32.40
  -2 -15   1 1106.29   25.40
  17  -2   1 1110.09   38.50
 -15  17   1 1148.09   34.40
  12 -17  -1  913.71   28.00
 -17   5  -1  899.91   33.30
 -17   5  -1  873.41   28.30
   5  12  -1  880.31   28.70
 -12  17   1  863.51   26.60
  17  -5   1  872.91   32.40
  -5 -12   1  827.42   21.90
 -17   8  -1 1339.97   37.80
 -17   8  -1 1325.07   41.30
   8   9  -1 1341.87   37.80
  -9  17   1 1369.56   34.70
  17  -8   1 1383.76   42.20
  -9  17   1 1345.87   34.30
  -8  -9   1 1345.67   33.90
 -17  11  -1 1345.67   39.20
 -17  11  -1 1406.66   42.30
  -6  17   1 1523.75   35.80
  17 -11   1 1507.15   45.00
 -11  -6   1 1476.15   39.30
  -6  17   1 1481.85   37.00
  14   3  -1  312.47   20.00
 -17  14  -1  298.27   17.90
 -17  14  -1  304.07   20.90
 -14  -3   1  286.87   19.30
  -3  17   1  307.57   17.00
  -3  17   1  307.47   12.60
  17 -14   1  311.67   20.50
 -17  17  -1   -1.80    6.70
 -17  17  -1   -8.20    9.40
  17   0  -1   10.90    8.50
  17 -17   1    4.60    9.00
   0  17   1   -0.30    4.60
 -17   0   1    3.50    9.60
  20  -3  -1   30.90   10.80
 -17  20  -1   34.60   15.20
 -17  20  -1   38.50   13.90
   3  17   1   53.59    8.00
  17 -20   1   30.50   10.70
 -17  23  -1   19.00   14.20
  23  -6  -1   15.00   12.50
 -17  23  -1   -0.50    9.80
  17 -23   1    1.70   10.00
   6  17   1    9.60    8.30
   6  17   1   -1.20    7.90
 -17  26  -1   17.90   12.60
 -17  26  -1   28.60   16.20
  17 -26   1   58.89   14.90
   9  17   1   33.60   11.70
   9  17   1   34.50   11.50
 -17  29  -1  133.69   24.80
 -17  29  -1  161.48   21.30
  29 -12  -1  150.48   22.90
  12  17   1  121.59   18.90
 -29  12   1  145.09   20.90
  32 -15  -1   21.10   21.90
 -17  32  -1   44.50   21.00
 -17  32  -1   29.00   25.80
 -32  15   1   72.99   20.30
  15  17   1   43.40   20.30
  32 -18  -1   51.29   23.30
 -14  32  -1   29.40   20.80
 -32  18   1   41.80   18.50
  18  14   1   27.10   20.40
 -11  29  -1   55.49   16.90
 -11  29  -1  113.59   23.10
  18  11   1  106.99   19.80
  -8  26  -1   83.69   19.10
  26 -18  -1  102.79   18.50
 -26  18   1   79.39   20.10
  18   8   1   61.89   15.30
 -18  -5  -1  414.26   19.70
  -5  23  -1  403.76   29.40
  23 -18  -1  455.85   28.00
 -18  -5  -1  410.86   15.50
  -5  23  -1  438.66   24.50
 -23  18   1  418.06   25.40
 -23  18   1  459.75   31.20
  18   5   1  450.75   28.10
  -2  20  -1 1014.10   33.90
  20 -18  -1 1069.49   37.40
 -18  -2  -1  997.60   28.60
  -2  20  -1 1013.40   39.60
 -18  -2  -1  939.21   32.70
 -20  18   1 1051.39   38.50
  18   2   1 1039.80   42.30
   1  17  -1  685.83   26.20
 -18   1  -1  713.53   24.30
  17 -18  -1  706.83   27.90
 -17  18   1  725.13   28.90
  18  -1   1  745.03   32.30
  14 -18  -1  764.52   27.00
 -18   4  -1  763.92   26.40
 -18   4  -1  795.62   33.00
   4  14  -1  777.22   27.40
  -4 -14   1  785.32   20.00
  18  -4   1  792.42   32.10
 -14  18   1  810.62   27.30
 -14  18   1  831.22   27.90
  11 -18  -1 1440.36   37.90
   7  11  -1 1469.75   40.50
 -18   7  -1 1424.16   44.60
 -18   7  -1 1441.76   40.00
  18  -7   1 1553.64   47.00
 -11  18   1 1517.95   39.50
 -11  18   1 1559.54   38.90
  -7 -11   1 1525.15   35.50
 -18  10  -1  849.02   30.00
  10   8  -1  891.51   30.50
 -18  10  -1  973.10   34.60
 -10  -8   1  938.31   28.40
  -8  18   1  977.20   27.50
  18 -10   1 1009.60   35.60
  -8  18   1  973.70   28.30
  13   5  -1  787.22   30.70
 -18  13  -1  757.12   31.70
 -18  13  -1  765.72   28.60
  -5  18   1  790.62   26.10
  18 -13   1  815.52   32.10
 -13  -5   1  837.82   28.70
  -5  18   1  793.72   23.00
 -18  16  -1  118.49   14.70
 -18  16  -1  104.79   15.20
  16   2  -1  120.99   15.90
 -16  -2   1   94.89   14.10
  18 -16   1   98.69   13.90
  -2  18   1  120.89   15.50
  -2  18   1  103.79    9.60
  19  -1  -1   74.49   14.00
 -18  19  -1   92.69   16.40
  18 -19   1  128.59   17.30
 -19   1   1  120.99   17.60
   1  18   1  103.49   10.70
 -18  22  -1  107.79   17.30
 -18  22  -1   97.49   14.80
  22  -4  -1   97.79   16.50
   4  18   1  142.99   13.80
  18 -22   1  143.29   18.40
  25  -7  -1  153.18   22.30
 -18  25  -1  170.88   21.70
 -18  25  -1  185.38   22.30
   7  18   1  150.98   16.80
  18 -25   1  192.78   23.00
   7  18   1  142.19   17.30
 -18  28  -1  162.68   23.40
 -18  28  -1  158.88   20.20
  10  18   1  186.48   22.40
  10  18   1  131.89   18.60
 -18  31  -1   80.59   20.60
  31 -13  -1   77.39   22.70
 -18  31  -1   85.39   29.80
 -31  13   1   93.89   18.70
  13  18   1  136.79   21.60
  31 -19  -1   92.09   23.00
 -12  31  -1   48.90   23.40
 -12  31  -1    0.60   18.20
 -31  19   1   53.09   18.30
  19  12   1   77.59   20.10
  -9  28  -1   95.29   23.00
  -9  28  -1  102.79   17.10
  19   9   1  146.09   22.40
 -28  19   1   99.49   23.80
  -6  25  -1    6.00   15.30
 -19  -6  -1   11.90    7.90
  -6  25  -1   18.60   11.60
 -19  -6  -1    9.00    5.10
  25 -19  -1  -14.50   12.60
 -25  19   1  -12.50   10.70
 -25  19   1   -4.80   16.00
  19   6   1   20.70   13.50
 -19  -3  -1   29.60   11.30
  -3  22  -1   23.20   14.80
 -19  -3  -1   30.70    7.00
  -3  22  -1   29.70   10.70
  22 -19  -1   21.70   11.70
 -22  19   1   40.10   12.70
 -22  19   1   32.00   14.40
  19   3   1   40.90   14.10
 -19   0  -1    5.20    6.20
 -19   0  -1   -2.30   10.10
  19 -19  -1    2.80    9.10
   0  19  -1    6.40    8.00
  19   0   1    7.90   10.20
 -19  19   1    7.30   11.00
  16 -19  -1   10.00    7.90
 -19   3  -1   19.30    7.10
 -19   3  -1   17.90   10.50
   3  16  -1    2.50    7.40
  -3 -16   1   11.10    3.90
  19  -3   1   13.40    9.70
 -16  19   1    9.10    9.70
 -16  19   1   21.70    8.00
   6  13  -1  165.98   14.60
 -19   6  -1  160.98   14.20
 -19   6  -1  141.99   18.50
  13 -19  -1  172.58   13.90
 -13  19   1  138.59   14.40
  19  -6   1  159.38   17.30
 -13  19   1  150.28   13.50
  -6 -13   1  138.29    9.20
   9  10  -1  223.48   16.60
 -19   9  -1  248.88   16.90
 -19   9  -1  241.78   21.10
  19  -9   1  225.08   18.70
 -10  19   1  201.88   15.00
  -9 -10   1  254.77   13.80
 -10  19   1  248.28   14.20
 -19  12  -1   78.89   11.20
 -19  12  -1   91.29   14.10
  -7  19   1   92.19    9.80
  -7  19   1  102.49   13.00
 -12  -7   1  101.29   12.10
  19 -12   1   91.99   13.30
  15   4  -1   63.19   12.70
 -19  15  -1   46.60   13.20
 -19  15  -1   59.39   10.80
  -4  19   1   52.89    7.20
  19 -15   1   34.90   10.80
 -15  -4   1   34.80   11.30
  -4  19   1   50.69   10.30
 -19  18  -1   42.30   14.10
  18   1  -1   53.29   12.90
 -19  18  -1   37.20   10.30
  19 -18   1   72.99   13.90
 -18  -1   1   71.79   13.80
  -1  19   1   68.79    8.70
 -19  21  -1  216.78   24.70
  21  -2  -1  193.08   21.00
 -19  21  -1  230.28   20.50
   2  19   1  181.68   14.00
  19 -21   1  217.98   21.10
 -21   2   1  176.08   20.80
 -19  24  -1  190.68   26.70
 -19  24  -1  174.38   21.80
   5  19   1  225.18   17.40
  19 -24   1  221.78   24.20
 -19  27  -1  218.68   29.10
 -19  27  -1  196.68   25.10
  19 -27   1  162.68   26.90
   8  19   1  155.58   20.00
   8  19   1  191.88   22.20
 -19  30  -1   86.39   28.30
 -19  30  -1   52.49   18.40
  30 -11  -1   77.49   21.10
  11  19   1  105.89   19.40
  11  19   1   78.69   17.60
  33 -14  -1   56.69   23.50
 -19  33  -1  126.69   25.90
 -19  33  -1  120.39   29.20
 -33  14   1   80.29   21.10
  14  19   1  129.89   25.30
 -13  33  -1   43.10   27.50
  33 -20  -1   45.20   24.90
 -13  33  -1   13.80   21.20
  20  13   1    2.30   22.20
 -10  30  -1   23.70   21.40
 -10  30  -1   61.49   18.00
 -30  20   1   -0.50   15.20
  20  10   1    6.10   17.90
  -7  27  -1   97.09   22.70
  -7  27  -1   76.79   17.00
  27 -20  -1  115.39   18.10
 -27  20   1   88.79   23.30
  20   7   1   83.29   18.60
  24 -20  -1  201.48   22.60
 -20  -4  -1  247.48   14.10
  -4  24  -1  222.28   21.50
  -4  24  -1  243.58   29.00
 -20  -4  -1  248.18   19.70
 -24  20   1  265.07   29.70
  20   4   1  238.38   26.10
 -24  20   1  293.47   24.10
 -20  -1  -1  633.34   29.00
  -1  21  -1  632.94   34.80
  21 -20  -1  625.14   29.80
 -20  -1  -1  652.83   23.50
  -1  21  -1  650.83   28.40
  20   1   1  767.82   35.90
 -21  20   1  692.23   31.40
 -21  20   1  746.63   33.80
  18 -20  -1 1301.17   41.20
 -20   2  -1 1312.67   36.90
   2  18  -1 1226.08   38.80
  20  -2   1 1335.47   45.90
 -18  20   1 1314.97   41.30
 -18  20   1 1308.27   41.40
 -20   5  -1  650.13   32.10
  15 -20  -1  629.44   25.30
 -20   5  -1  654.03   25.50
   5  15  -1  592.84   25.60
 -15  20   1  603.44   24.80
  -5 -15   1  600.24   15.40
 -15  20   1  601.24   25.50
 -20   8  -1 1349.27   44.90
   8  12  -1 1286.87   39.20
 -20   8  -1 1330.57   39.60
  12 -20  -1 1311.47   36.80
  -8 -12   1 1285.47   31.00
  20  -8   1 1333.57   44.50
 -12  20   1 1297.17   36.10
 -12  20   1 1303.67   36.60
 -20  11  -1  875.21   31.50
  11   9  -1  831.82   31.00
 -20  11  -1  850.21   34.90
  -9  20   1  829.72   26.40
  -9  20   1  850.31   27.40
 -11  -9   1  878.51   27.40
  20 -11   1  883.41   35.20
 -20  14  -1  207.08   18.10
  14   6  -1  202.08   18.60
 -20  14  -1  179.88   20.70
  20 -14   1  237.08   20.50
 -14  -6   1  241.98   18.60
  -6  20   1  246.88   17.40
  -6  20   1  229.48   13.40
  17   3  -1  115.99   16.30
 -20  17  -1  143.69   16.80
 -20  17  -1  146.99   18.40
  20 -17   1  123.69   16.60
  -3  20   1  124.19   14.20
  -3  20   1  127.39   11.30
 -17  -3   1  148.89   17.60
 -20  20  -1   25.70   14.50
  20   0  -1   16.20   12.40
 -20  20  -1   12.30    9.60
  20 -20   1   13.80   11.30
   0  20   1    9.30    6.80
 -20   0   1    8.90   13.20
 -20  23  -1   16.40   11.70
 -20  23  -1   -7.70   14.20
 -23   3   1   14.00   16.10
   3  20   1   -8.00    7.80
  20 -23   1    4.70   11.00
 -20  26  -1   65.49   16.10
 -20  26  -1   82.39   19.60
   6  20   1   45.20   11.60
   6  20   1   84.99   14.20
  20 -26   1   73.59   16.20
  29  -9  -1   73.39   19.40
 -20  29  -1   89.79   25.40
 -20  29  -1  130.89   21.60
   9  20   1   81.69   16.80
 -29   9   1   77.79   29.70
   9  20   1   77.99   17.00
  20 -29   1   69.19   20.00
 -20  32  -1   67.79   22.30
 -20  32  -1   28.40   25.10
  32 -12  -1    3.00   23.10
  12  20   1   48.60   20.20
 -32  12   1   38.10   18.70
 -11  32  -1   94.09   21.60
  32 -21  -1   75.59   23.50
 -32  21   1   73.49   18.10
  21  11   1   14.90   22.30
  -8  29  -1    0.30   15.30
  -8  29  -1   13.60   21.80
  21   8   1    4.30   17.50
 -29  21   1   50.19   16.30
 -29  21   1   16.40   23.40
  -5  26  -1   46.40   24.70
  -5  26  -1   50.79   18.40
  26 -21  -1   58.39   17.20
 -21  -5  -1   40.00    7.60
 -21  -5  -1   47.00   10.90
 -26  21   1   39.50   14.20
 -26  21   1   31.40   18.80
  21   5   1   13.90   16.40
  -2  23  -1  327.27   30.40
  23 -21  -1  381.26   26.60
  -2  23  -1  348.07   23.60
 -21  -2  -1  356.96   18.20
 -21  -2  -1  366.16   24.60
 -23  21   1  380.46   25.80
  21   2   1  414.76   28.90
 -23  21   1  375.96   30.10
  20 -21  -1  714.43   31.80
 -21   1  -1  675.13   31.80
 -21   1  -1  685.13   25.80
   1  20  -1  676.23   29.30
 -20  21   1  809.32   34.10
  21  -1   1  809.62   37.00
 -20  21   1  778.92   32.60
   4  17  -1  824.22   31.10
  17 -21  -1  831.22   31.30
 -21   4  -1  827.72   29.30
 -17  21   1  806.32   31.50
 -17  21   1  862.61   31.60
  21  -4   1  801.92   35.20
  14 -21  -1  654.73   26.00
   7  14  -1  630.94   27.00
 -21   7  -1  663.43   27.10
 -21   7  -1  694.73   33.80
 -14  21   1  643.24   25.20
  -7 -14   1  616.44   16.80
  21  -7   1  651.23   31.60
 -14  21   1  646.44   25.50
  10  11  -1  367.86   21.30
 -21  10  -1  376.96   21.40
 -21  10  -1  408.36   26.40
  21 -10   1  386.26   34.10
 -11  21   1  418.56   19.00
 -10 -11   1  367.06   16.40
 -11  21   1  380.06   19.70
 -21  13  -1  201.08   22.70
  13   8  -1  177.58   18.40
 -21  13  -1  231.68   30.50
  -8  21   1  233.08   14.40
 -13  -8   1  224.28   17.00
  21 -13   1  241.98   21.10
  -8  21   1  202.48   16.50
 -21  16  -1   20.70    9.80
 -21  16  -1   16.50   12.60
  16   5  -1   19.40   10.90
  -5  21   1   -2.80    5.90
  21 -16   1   16.40   11.30
  -5  21   1    9.20    9.30
 -16  -5   1    6.50   10.20
 -21  19  -1  164.88   18.80
 -21  19  -1  175.58   21.80
  19   2  -1  174.78   20.80
 -19  -2   1  170.18   19.60
  21 -19   1  161.98   20.00
  -2  21   1  164.78   13.30
  -2  21   1  156.68   17.00
 -21  22  -1  373.76   25.10
 -21  22  -1  356.66   30.30
   1  21   1  357.16   19.10
 -22   1   1  382.96   30.60
 -21  25  -1  413.66   29.60
 -21  25  -1  456.55   33.30
  21 -25   1  439.36   31.20
 -25   4   1  444.16   36.50
   4  21   1  420.46   23.30
  28  -7  -1  266.37   33.20
 -21  28  -1  163.88   22.10
 -21  28  -1  229.78   30.90
  21 -28   1  249.78   29.60
   7  21   1  168.28   22.60
  31 -10  -1  123.99   24.90
 -21  31  -1  193.58   28.30
 -21  31  -1  144.79   23.20
  10  21   1  176.78   22.50
  10  21   1  139.29   21.90
 -31  10   1  147.69   21.30
  -9  31  -1   34.40   30.00
  31 -22  -1   56.69   22.70
  -9  31  -1   29.80   19.20
 -31  22   1   25.30   18.70
  22   9   1   35.40   21.30
  -6  28  -1  108.79   24.80
 -22  -6  -1   97.69    9.70
 -22  -6  -1   96.49   10.20
  -6  28  -1  131.79   19.70
  28 -22  -1   58.49   18.70
  22   6   1  125.19   22.30
 -28  22   1  103.59   19.30
 -28  22   1   80.09   23.80
 -22  -3  -1   51.89   14.10
  -3  25  -1   54.49   14.70
  25 -22  -1   39.70   15.70
 -22  -3  -1   48.60    9.00
  -3  25  -1   35.80   19.00
 -25  22   1   22.90   33.50
  22   3   1   38.80   17.00
 -25  22   1   70.39   15.20
 -22   0  -1    7.70   13.20
  22 -22  -1   21.20   12.10
 -22   0  -1    9.10    8.10
   0  22  -1   11.90   11.20
  22   0   1   17.80   12.70
 -22  22   1    1.40   11.60
 -22  22   1   15.60   14.40
 -22   3  -1   44.00   10.10
   3  19  -1   27.20   11.20
  19 -22  -1   36.70   11.70
  22  -3   1   34.30   12.70
 -19  22   1   29.90   10.60
 -19  22   1   31.00   13.10
 -22   6  -1   29.40    9.20
   6  16  -1   10.10    9.90
 -22   6  -1   42.80   15.60
  16 -22  -1   19.50    8.80
  22  -6   1   33.20   12.40
 -16  22   1   21.60    9.20
 -16  22   1   26.30   11.00
 -22   9  -1  151.08   28.40
   9  13  -1  168.48   18.00
  22  -9   1  177.08   20.30
 -13  22   1  148.89   16.50
 -13  22   1  148.69   14.90
  -9 -13   1  171.88   10.40
 -22  12  -1  203.18   18.10
 -22  12  -1  193.18   22.60
 -10  22   1  199.18   15.10
 -10  22   1  203.88   17.00
 -12 -10   1  205.78   15.00
  22 -12   1  189.18   20.80
 -22  15  -1   28.70   11.00
  15   7  -1   21.20   11.90
 -22  15  -1    9.20   12.90
  -7  22   1    9.10    9.50
  -7  22   1    7.40    7.00
 -15  -7   1    6.50    9.90
  22 -15   1   30.40   13.30
 -22  18  -1  143.89   19.80
  18   4  -1  162.58   20.50
 -22  18  -1  121.69   17.20
 -18  -4   1  151.98   17.90
  -4  22   1  174.88   18.80
  -4  22   1  188.18   14.30
  22 -18   1  146.09   19.30
  21   1  -1  393.16   27.50
 -22  21  -1  438.86   26.60
 -22  21  -1  402.16   31.20
  -1  22   1  438.66   27.00
 -21  -1   1  456.65   31.50
  22 -21   1  453.45   31.40
  -1  22   1  434.86   20.70
 -22  24  -1  472.25   30.30
   2  22   1  481.85   23.30
 -24   2   1  448.76   35.80
  22 -24   1  504.25   32.10
 -22  27  -1  365.96   31.20
 -22  27  -1  401.16   34.70
   5  22   1  343.17   24.90
   5  22   1  337.17   25.10
 -27   5   1  368.56   38.50
  22 -27   1  447.06   32.20
  30  -8  -1  224.98   29.20
 -22  30  -1  301.87   38.10
 -22  30  -1  288.27   33.40
   8  22   1  238.68   28.50
  22 -30   1  270.87   32.80
   8  22   1  278.47   28.80
 -30   8   1  254.17   27.60
 -22  33  -1  231.98   32.80
 -22  33  -1  181.58   28.30
 -33  11   1  134.69   22.40
  11  22   1  179.98   28.00
  11  22   1  201.38   26.60
  -7  30  -1  -12.90   17.50
  -7  30  -1   19.20   25.20
  23   7   1   39.20   21.10
 -30  23   1   36.00   18.30
 -30  23   1   34.30   25.40
  -4  27  -1  106.79   18.90
 -23  -4  -1  141.59   14.00
  27 -23  -1  118.09   21.40
 -23  -4  -1  116.89   14.80
  -4  27  -1  102.59   23.90
  23   4   1  100.29   20.30
 -27  23   1   98.09   22.60
 -27  23   1  158.08   22.40
 -23  -1  -1  301.57   27.30
 -23  -1  -1  311.57   19.20
  -1  24  -1  341.07   34.40
  24 -23  -1  356.06   28.90
  -1  24  -1  387.26   27.10
 -24  23   1  323.27   31.10
  23   1   1  359.76   30.90
 -24  23   1  368.06   26.90
 -23   2  -1  360.26   28.60
  21 -23  -1  377.36   25.80
   2  21  -1  347.27   24.60
 -23   2  -1  343.07   20.20
  23  -2   1  308.67   27.10
 -21  23   1  378.16   25.10
 -21  23   1  298.57   25.90
 -23   5  -1  560.24   25.50
   5  18  -1  478.95   26.30
  18 -23  -1  490.25   25.70
 -18  23   1  591.64   28.40
 -18  23   1  557.94   27.50
 -23   8  -1  622.94   27.60
   8  15  -1  609.14   28.40
  15 -23  -1  626.84   26.70
 -23   8  -1  644.24   35.40
 -15  23   1  562.54   25.70
 -15  23   1  565.54   25.40
  23  -8   1  578.04   31.90
 -23  11  -1  451.95   29.70
  11  12  -1  463.35   25.20
 -23  11  -1  454.45   24.70
 -12  23   1  464.15   22.00
 -11 -12   1  446.76   16.80
 -12  23   1  439.76   22.00
  23 -11   1  430.66   28.30
 -23  14  -1  220.78   20.30
 -23  14  -1  206.08   36.80
  14   9  -1  217.28   22.30
 -14  -9   1  256.07   18.10
  -9  23   1  228.58   18.90
  23 -14   1  274.67   23.80
  -9  23   1  259.57   17.00
 -23  17  -1   24.40    9.60
  17   6  -1   44.30   14.40
  -6  23   1   34.30    8.70
 -17  -6   1   35.80   12.40
  -6  23   1   32.10   11.50
  23 -17   1   51.79   15.10
 -23  20  -1   -1.30   10.80
  20   3  -1    5.30   12.00
 -23  20  -1    3.40   18.60
  23 -20   1    1.40   13.40
  -3  23   1  -11.10   11.70
  -3  23   1    8.00    8.00
 -20  -3   1   15.40   13.90
 -23  23  -1    4.70   12.20
 -23  23  -1    8.40   17.00
   0  23   1    1.80   14.30
 -23   0   1   -8.60   16.20
  23 -23   1   13.80   14.40
   0  23   1    5.50    9.60
 -23  26  -1  -10.80   15.30
 -23  26  -1   38.00   19.00
 -26   3   1   28.70   20.70
   3  23   1   18.90   11.70
 -26   3   1   23.50   11.20
  23 -26   1   50.39   16.90
 -23  29  -1   65.19   20.20
 -23  29  -1   59.19   24.70
  29  -6  -1   45.70   18.90
 -29   6   1   29.80   24.60
   6  23   1   35.70   15.00
   6  23   1   54.09   16.20
  23 -29   1   17.40   17.30
 -23  32  -1  102.29   25.50
 -23  32  -1  103.89   28.70
   9  23   1   71.29   19.30
 -32   9   1   92.99   19.90
  23 -32   1   60.09   21.40
  32 -24  -1   63.29   25.90
  -8  32  -1   42.20   29.40
  -8  32  -1   55.99   24.00
  24   8   1   86.99   26.30
 -24  -5  -1   10.20    7.70
  -5  29  -1   10.00   24.10
 -24  -5  -1   18.20   10.50
  29 -24  -1    7.10   19.70
  -5  29  -1   -8.40   16.80
 -29  24   1   -1.00   21.30
  24   5   1   21.40   19.30
 -29  24   1   10.10   17.40
  -2  26  -1   65.09   19.80
 -24  -2  -1   65.19   10.50
 -24  -2  -1   64.29   15.60
  26 -24  -1   72.99   17.50
  -2  26  -1   61.29   22.90
 -26  24   1   48.40   15.50
 -26  24   1   43.70   19.90
  24   2   1   77.09   19.90
  23 -24  -1  260.07   26.90
 -24   1  -1  262.97   19.40
 -24   1  -1  318.87   29.00
   1  23  -1  317.27   26.10
 -23  24   1  343.67   29.10
  24  -1   1  263.57   28.20
 -23  24   1  329.17   25.90
   4  20  -1  168.68   21.70
  20 -24  -1  207.18   21.70
 -20  24   1  163.08   20.80
 -20  24   1  248.28   23.50
  17 -24  -1  194.58   19.10
 -24   7  -1  169.28   22.20
 -24   7  -1  165.98   18.40
   7  17  -1  147.19   19.60
 -17  24   1  157.48   20.30
 -17  24   1  142.19   18.40
 -24  10  -1  332.07   29.30
 -24  10  -1  338.07   22.80
  10  14  -1  317.07   23.40
 -14  24   1  356.06   21.30
  24 -10   1  272.87   24.40
 -10 -14   1  295.87   10.20
 -14  24   1  276.77   20.30
 -24  13  -1   81.19   13.10
 -24  13  -1   91.79   19.70
 -11  24   1   94.79   13.20
  24 -13   1   64.99   15.80
 -13 -11   1   92.49   10.60
 -11  24   1   85.19   11.90
 -24  16  -1   35.10   11.60
 -24  16  -1   24.20   16.30
  16   8  -1   18.10   11.90
  -8  24   1   38.00   11.30
  -8  24   1   44.40    9.90
  24 -16   1   27.40   13.30
 -16  -8   1   15.70   10.90
  19   5  -1  210.98   24.00
 -24  19  -1  141.39   22.80
 -19  -5   1  166.78   19.30
  -5  24   1  154.38   16.10
  -5  24   1  155.88   20.80
  24 -19   1  180.58   23.70
  22   2  -1  407.66   30.30
 -24  22  -1  419.96   33.70
 -24  22  -1  361.76   26.70
  -2  24   1  394.66   21.80
  -2  24   1  439.86   29.30
 -22  -2   1  422.66   32.50
  24 -22   1  393.76   30.80
 -24  25  -1  313.77   35.00
 -24  25  -1  340.57   30.00
   1  24   1  335.77   23.10
  24 -25   1  299.57   30.80
 -25   1   1  313.37   47.60
 -25   1   1  324.17   22.80
  28  -4  -1  323.37   39.20
 -24  28  -1  326.17   33.90
 -24  28  -1  335.07   38.00
   4  24   1  289.17   25.70
  24 -28   1  401.46   35.80
 -28   4   1  331.67   41.00
   4  24   1  310.77   27.00
 -24  31  -1  171.18   26.70
 -24  31  -1  200.18   31.60
 -31   7   1  152.68   33.70
   7  24   1  183.08   22.90
 -31   7   1  218.18   28.20
   7  24   1  219.48   23.70
  -6  31  -1  108.49   30.80
  31 -25  -1   51.79   24.40
  -6  31  -1   47.00   20.80
 -31  25   1   46.10   29.30
  25   6   1  106.79   26.10
 -31  25   1   59.09   18.60
 -25  -3  -1   53.09   10.30
 -25  -3  -1   46.90   15.30
  28 -25  -1   45.20   20.40
  -3  28  -1   52.59   17.40
 -28  25   1   41.80   22.10
  25   3   1   81.69   23.70
 -28  25   1    5.60   16.40
   0  25  -1  -18.90   20.20
  25 -25  -1   21.70   16.50
 -25   0  -1  -13.00   15.80
 -25  25   1  -16.30   13.80
  25   0   1   10.00   17.30
   3  22  -1   64.59   15.90
  22 -25  -1   99.29   17.00
 -25   3  -1   69.99   13.20
 -25   3  -1   53.79   19.00
  25  -3   1   46.40   15.50
 -22  25   1   85.39   16.70
 -22  25   1   82.89   17.70
  19 -25  -1   10.60   11.30
   6  19  -1   17.00   11.80
 -25   6  -1  -13.20    9.60
 -19  25   1  -20.80    9.90
 -19  25   1    6.30   12.60
  16 -25  -1  139.89   16.20
 -25   9  -1  135.09   21.20
   9  16  -1  110.59   16.40
 -25   9  -1  131.09   16.10
 -16  25   1  138.59   19.20
 -16  25   1  105.29   18.80
  12  13  -1   27.10   12.10
 -25  12  -1   40.50   12.60
 -25  12  -1   37.30   15.90
 -13  25   1   26.50   10.80
  25 -12   1   39.10   14.20
 -13  25   1   30.50   10.40
 -12 -13   1   24.00    6.20
 -25  15  -1   57.69   12.50
 -25  15  -1   55.69   17.80
  15  10  -1   49.99   15.30
 -10  25   1   67.19   11.60
 -15 -10   1   91.29   12.00
  25 -15   1   77.59   17.40
 -10  25   1   81.29   13.40
 -25  18  -1   93.89   19.60
  18   7  -1   87.19   16.70
  -7  25   1  116.69   13.50
  25 -18   1  148.19   22.20
  -7  25   1  137.79   16.70
 -18  -7   1  116.19   16.10
  21   4  -1  376.06   30.30
 -25  21  -1  345.37   34.70
  -4  25   1  384.36   27.80
  25 -21   1  328.97   30.10
  -4  25   1  298.87   20.80
 -21  -4   1  343.37   28.90
 -25  24  -1  346.07   29.30
  24   1  -1  225.98   28.00
 -25  24  -1  326.27   35.90
  -1  25   1  312.37   23.30
 -24  -1   1  351.86   22.10
  -1  25   1  309.77   31.10
 -24  -1   1  301.57   33.30
  25 -24   1  297.97   30.80
 -25  27  -1  300.57   36.70
 -25  27  -1  320.67   33.70
  27  -2  -1  432.36   38.40
 -27   2   1  294.37   24.90
 -27   2   1  374.16   39.10
  25 -27   1  358.86   33.90
   2  25   1  395.96   27.10
 -25  30  -1  179.38   31.20
  30  -5  -1  106.79   23.10
 -25  30  -1  129.29   23.10
   5  25   1  144.99   19.90
 -30   5   1  150.68   30.60
   5  25   1  137.59   21.40
 -30   5   1  138.49   19.40
 -26  -4  -1   73.59   11.00
  -4  30  -1   98.69   30.50
  -4  30  -1   94.69   23.10
 -26  -4  -1  105.09   14.80
 -30  26   1   80.49   29.30
  26   4   1   98.69   25.60
 -26  -1  -1  118.99   19.20
  -1  27  -1   93.69   20.30
  -1  27  -1   62.19   26.90
 -26  -1  -1  106.49   13.70
  27 -26  -1   73.89   19.80
 -27  26   1   84.49   20.20
 -27  26   1   78.59   24.00
  26   1   1   88.09   21.90
  24 -26  -1   91.89   19.00
 -26   2  -1  101.69   14.20
   2  24  -1  121.29   24.00
 -26   2  -1   79.39   20.50
  26  -2   1   67.79   19.20
 -24  26   1  103.29   18.30
 -24  26   1  106.49   21.40
   5  21  -1   28.60   14.70
  21 -26  -1   71.19   15.90
 -26   5  -1   60.39   12.50
 -21  26   1   51.39   16.80
 -21  26   1   37.80   13.90
  18 -26  -1   31.50   12.40
 -26   8  -1   46.80   12.30
   8  18  -1   46.80   14.20
 -18  26   1   42.50   14.70
 -18  26   1   29.90   12.20
 -26  11  -1  341.67   24.40
 -26  11  -1  338.47   31.80
  11  15  -1  347.97   26.10
 -15  26   1  336.37   23.40
 -15  26   1  231.18   29.30
 -26  14  -1  130.69   17.40
 -26  14  -1  128.09   22.60
  14  12  -1   97.19   16.80
 -14 -12   1  117.39    9.50
 -12  26   1  140.19   18.00
 -12  26   1  121.69   16.10
 -14 -12   1  130.39   12.60
  26 -14   1  168.28   23.40
  17   9  -1   31.10   14.00
 -26  17  -1   20.30   17.70
  26 -17   1   33.80   16.50
  -9  26   1   13.90   10.30
  -9  26   1    4.30   12.30
 -17  -9   1   34.80   11.30
 -26  20  -1  155.88   24.00
  20   6  -1  177.18   23.30
  -6  26   1  135.29   18.20
 -20  -6   1  154.78   19.10
  -6  26   1  143.29   19.20
  26 -20   1  148.69   22.40
  23   3  -1   80.29   19.90
 -26  23  -1   62.69   21.00
 -26  23  -1   65.09   22.60
 -23  -3   1   48.90   18.00
  26 -23   1   52.39   19.40
  -3  26   1   64.79   17.80
  -3  26   1   57.19   13.10
  26   0  -1  -46.10   17.50
 -26  26  -1   10.90   17.10
 -26  26  -1    1.90   20.20
  26 -26   1   -3.40   17.00
   0  26   1   14.90   13.90
 -26   0   1   -5.20   11.70
   0  26   1  -14.10   18.90
 -26   0   1  -30.70   27.30
 -26  29  -1   16.70   25.30
 -26  29  -1  -12.10   19.20
  29  -3  -1   13.20   21.50
   3  26   1   33.90   17.60
   3  26   1    9.80   15.10
 -29   3   1   -5.80   23.70
  26 -29   1   28.00   35.10
 -27  -2  -1   34.10   16.60
  29 -27  -1   13.10   21.50
 -27  -2  -1   32.40   11.50
  -2  29  -1   29.50   20.80
  -2  29  -1   31.80   28.30
 -29  27   1   48.20   20.50
 -29  27   1  -11.70   24.60
  27   2   1   24.30   21.70
  26 -27  -1  138.29   22.20
   1  26  -1  105.09   21.20
   1  26  -1   76.99   27.40
 -27   1  -1  101.29   14.90
 -27   1  -1   97.29   21.40
 -26  27   1  126.19   25.60
 -26  27   1   99.69   20.10
  27  -1   1   83.69   21.60
 -27   4  -1  163.78   25.10
  23 -27  -1  123.59   20.00
 -27   4  -1  137.39   16.80
 -23  27   1  128.69   20.00
  27  -4   1  107.39   21.80
 -23  27   1  170.38   23.30
   7  20  -1  117.49   17.90
 -27   7  -1  174.68   21.00
  20 -27  -1  109.29   16.90
 -20  27   1  100.89   17.10
 -20  27   1  189.08   25.50
 -27  10  -1  184.98   25.50
  10  17  -1  209.58   25.50
 -27  10  -1  180.98   20.60
 -17  27   1  162.08   18.90
 -17  27   1  172.18   19.60
  13  14  -1   14.10   12.60
 -27  13  -1   38.60   17.80
 -27  13  -1  -10.80   10.80
 -14  27   1   30.30   13.70
 -14  27   1   -0.60   14.30
 -27  16  -1  -21.80   17.40
  16  11  -1   10.30   12.80
 -16 -11   1    5.70    5.70
 -16 -11   1   12.60    8.50
  27 -16   1   -5.60   13.00
 -11  27   1   17.20   10.80
 -11  27   1   14.10   13.00
  19   8  -1  139.59   21.80
 -27  19  -1  147.19   25.30
 -19  -8   1  132.39   14.20
  -8  27   1  133.09   15.80
 -19  -8   1  115.79   15.50
  -8  27   1  140.69   18.00
 -27  22  -1  316.87   38.00
  22   5  -1  291.57   32.30
  -5  27   1  231.38   22.70
  -5  27   1  317.67   28.50
 -22  -5   1  281.37   19.90
 -22  -5   1  291.77   29.40
  25   2  -1  402.46   35.10
 -27  25  -1  369.26   34.10
 -27  25  -1  437.26   39.60
 -25  -2   1  345.67   23.40
  -2  27   1  348.17   34.80
 -25  -2   1  407.06   36.20
  -2  27   1  369.76   27.50
  28  -1  -1  169.78   28.50
 -27  28  -1  160.18   23.50
 -27  28  -1  239.78   32.10
 -28   1   1  244.18   31.90
   1  27   1  288.57   29.00
   1  27   1  179.78   28.70
   0  28  -1  -20.20   21.20
   0  28  -1   -6.50   26.70
  28 -28  -1   20.20   20.20
 -28   0  -1   20.30   19.60
 -28   0  -1    0.20   18.80
  28   0   1  -27.70   22.40
 -28  28   1   -0.30   19.40
 -28  28   1  -30.90   23.50
 -28   3  -1   41.30   21.10
 -28   3  -1   36.80   13.00
  25 -28  -1   16.70   16.90
   3  25  -1   14.60   18.60
 -25  28   1   -5.20   16.90
  28  -3   1   37.60   21.00
  22 -28  -1   74.69   16.40
   6  22  -1   52.29   21.60
 -28   6  -1   34.90   13.50
 -22  28   1   60.69   16.80
 -22  28   1   67.39   19.60
  19 -28  -1  164.68   21.80
 -19  28   1  111.19   18.80
 -19  28   1  116.09   18.60
 -28  12  -1   35.00   19.10
  12  16  -1   12.50   17.90
 -16  28   1   28.70   13.80
 -16  28   1   21.70   12.00
  15  13  -1  103.49   18.20
 -28  15  -1   77.49   22.60
 -13  28   1  123.19   16.70
 -13  28   1  114.39   17.20
 -28  18  -1  100.19   19.90
  18  10  -1   85.29   19.00
 -28  18  -1   77.59   23.00
 -18 -10   1   98.09   12.80
 -18 -10   1   94.59   11.70
 -10  28   1  102.49   16.60
 -10  28   1  116.59   15.40
 -28  21  -1  267.77   33.20
  21   7  -1  292.47   31.30
 -21  -7   1  217.88   24.90
 -21  -7   1  241.78   17.10
  -7  28   1  200.48   26.90
  -7  28   1  257.37   24.10
 -28  24  -1  365.76   42.50
  24   4  -1  222.38   28.10
 -28  24  -1  234.78   29.90
 -24  -4   1  314.37   32.70
  -4  28   1  343.57   33.20
  -4  28   1  305.17   26.60
 -28  27  -1  208.28   27.20
  27   1  -1  208.88   29.20
 -28  27  -1  308.67   39.20
 -27  -1   1  217.58   30.20
  -1  28   1  279.47   28.80
 -27  -1   1  213.38   23.20
  -1  28   1  239.28   29.00
 -28  30  -1  138.39   32.00
   2  28   1  146.39   23.00
   2  28   1   89.29   31.00
  28 -30   1  105.29   28.30
 -30   2   1   71.99   30.00
   2  27  -1   36.30   21.00
   2  27  -1   49.99   29.90
 -29   2  -1   21.80   21.80
 -29   2  -1   54.99   14.10
 -27  29   1    1.30   19.30
  29  -2   1   -4.70   21.30
 -27  29   1   23.60   24.40
 -29   5  -1   13.00   13.30
  24 -29  -1   -6.50   17.00
 -29   5  -1  -33.20   21.90
   5  24  -1    3.60   18.20
 -24  29   1  -14.80   16.30
  29  -5   1   28.10   21.60
 -24  29   1   33.30   20.30
   8  21  -1   35.00   17.10
 -29   8  -1   15.90   12.50
  21 -29  -1    2.20   14.10
 -21  29   1  -13.10   14.30
 -21  29   1   19.90   16.90
  11  18  -1   30.40   16.90
 -18  29   1   64.19   15.80
 -18  29   1   61.79   17.30
  29 -11   1   61.29   20.50
  14  15  -1   19.50   15.90
 -29  14  -1   18.30   22.00
 -15  29   1    9.40   14.10
 -15  29   1   38.50   14.70
  29 -14   1   -4.00   16.40
 -29  17  -1  145.69   25.10
 -29  17  -1  146.49   20.30
  17  12  -1  138.49   23.70
 -17 -12   1  137.29   11.90
 -17 -12   1  129.59    9.10
  29 -17   1  105.49   22.30
 -12  29   1  151.58   18.50
 -12  29   1  128.99   18.40
  20   9  -1  181.58   26.10
 -29  20  -1  118.49   20.00
 -29  20  -1  162.58   29.50
  29 -20   1  145.59   31.80
  -9  29   1  147.29   18.80
 -20  -9   1  128.59   13.90
 -20  -9   1  118.69   15.40
  -9  29   1  134.29   20.30
  23   6  -1   19.10   21.70
 -29  23  -1   76.09   27.40
 -29  23  -1   73.29   20.50
  -6  29   1   66.69   15.60
  29 -23   1  102.99   25.30
 -23  -6   1   73.29   17.70
 -23  -6   1   49.10   11.40
  -6  29   1   61.59   20.10
  26   3  -1   40.40   22.70
 -29  26  -1  -42.50   23.80
 -29  26  -1   -3.70   20.20
  -3  29   1   20.70   21.10
 -26  -3   1   25.40   12.30
  29 -26   1   35.40   22.70
  -3  29   1   -4.10   16.60
 -26  -3   1   -3.40   19.90
 -29  29  -1  -14.00   27.80
 -29   0   1  -15.20   14.10
  29 -29   1    0.50   24.40
 -29   0   1   49.20   25.60
   0  29   1  -10.10   20.90
   0  29   1   -8.90   25.70
 -30   4  -1   37.50   14.40
 -30   4  -1   76.69   24.00
  26 -30  -1   62.89   21.30
   4  26  -1   73.59   21.80
  30  -4   1   69.29   23.10
 -26  30   1   62.09   20.60
 -26  30   1   52.09   26.10
   7  23  -1   13.60   19.20
  23 -30  -1   45.70   22.40
 -23  30   1   31.80   18.50
 -23  30   1   44.50   21.50
  30  -7   1   24.80   22.80
  10  20  -1   12.40   18.60
 -20  30   1    6.30   15.10
  30 -10   1  -23.50   18.80
 -20  30   1   16.50   18.20
  13  17  -1   32.10   17.40
  13  17  -1  -13.50   16.70
 -30  13  -1    9.80   15.10
 -30  13  -1   24.90   24.70
  30 -13   1   -5.10   18.90
 -17  30   1   47.80   17.20
 -17  30   1    3.50   14.50
 -30  16  -1   30.50   16.10
 -30  16  -1   37.00   23.40
  16  14  -1   25.20   17.50
 -14  30   1   20.00   15.60
  30 -16   1   -5.60   18.40
 -14  30   1   16.40   14.10
  19  11  -1   61.49   20.70
 -30  19  -1   34.70   25.30
 -30  19  -1   35.40   16.70
 -11  30   1   49.40   15.40
 -19 -11   1   27.70    9.60
  30 -19   1  -17.00   19.60
 -19 -11   1   36.40    7.00
 -11  30   1   15.70   16.20
 -30  22  -1  222.58   33.10
 -30  22  -1  173.38   23.00
  22   8  -1  185.98   27.30
 -22  -8   1  210.48   16.90
  30 -22   1  150.88   27.90
 -22  -8   1  178.08   23.50
  -8  30   1  182.38   30.00
  -8  30   1  203.68   22.90
 -30  25  -1  166.68   25.50
  25   5  -1   75.39   22.00
 -30  25  -1  117.89   30.80
  30 -25   1  150.28   27.80
  -5  30   1  130.09   23.80
 -25  -5   1  149.19   22.60
 -30  28  -1  137.59   34.30
 -28  -2   1  155.28   17.80
  -2  30   1  141.09   31.00
 -28  -2   1   98.39   34.00
  -2  30   1  154.88   27.80
  30 -28   1   83.79   26.80
   6  25  -1   95.19   23.40
 -31   6  -1   54.39   27.20
  25 -31  -1   84.39   20.00
 -25  31   1   86.89   22.70
  31  -6   1   57.69   24.20
 -25  31   1   56.69   25.70
   9  22  -1   23.30   20.30
 -31   9  -1   23.10   16.00
  22 -31  -1   52.89   17.10
  31  -9   1  -23.60   21.50
 -22  31   1   28.20   20.70
 -22  31   1   39.30   19.00
  12  19  -1   49.60   18.10
 -31  12  -1   48.00   17.60
  12  19  -1   85.49   22.50
 -19  31   1   84.19   20.10
 -19  31   1   48.60   19.40
  31 -12   1   41.70   22.50
 -31  15  -1  -20.60   24.50
 -31  15  -1    0.60   16.00
  15  16  -1    5.80   17.50
 -16  31   1   -4.20   15.40
 -16  31   1    3.20   15.20
  31 -15   1   36.80   21.90
 -31  18  -1   36.50   18.90
  18  13  -1   24.50   19.50
 -31  18  -1   62.89   27.00
 -13  31   1   58.39   17.90
 -13  31   1   34.50   15.90
  31 -18   1   59.69   24.30
 -31  21  -1   88.69   29.70
 -31  21  -1  110.29   21.40
  21  10  -1  113.49   24.90
  31 -21   1   94.09   25.90
 -21 -10   1   95.99   12.30
 -10  31   1  127.79   20.40
 -21 -10   1  106.39   13.10
 -10  31   1   93.39   18.80
 -31  24  -1   32.80   19.10
  24   7  -1   49.50   22.70
 -31  24  -1   91.09   31.60
  -7  31   1   92.59   22.90
  31 -24   1  122.79   27.40
 -24  -7   1  112.19   17.50
 -24  -7   1   83.29   12.70
  -7  31   1   88.99   19.70
 -32   8  -1   36.40   17.70
   8  24  -1   76.29   24.30
  24 -32  -1   45.90   19.80
 -24  32   1   36.80   24.70
 -24  32   1   28.30   20.10
 -32  11  -1   57.09   18.00
  11  21  -1   -0.60   18.10
  11  21  -1   37.80   21.80
 -21  32   1   55.49   20.40
  32 -11   1   83.49   23.20
 -21  32   1   28.50   20.20
 -32  14  -1   17.70   17.30
  14  18  -1  -24.30   18.20
 -18  32   1   11.90   19.20
  32 -14   1   20.40   22.30
 -18  32   1   24.60   18.90
 -32  17  -1   42.30   19.10
 -32  17  -1   57.09   28.50
  17  15  -1   46.80   21.80
  32 -17   1   -4.70   21.90
 -15  32   1   60.19   18.50
 -15  32   1   59.29   18.90
 -32  20  -1   41.60   19.50
  20  12  -1   14.70   21.50
 -32  20  -1   -1.30   28.90
 -12  32   1   21.10   18.60
 -12  32   1   26.50   18.60
  32 -20   1    2.20   24.80
  23   9  -1   99.59   25.70
 -32  23  -1   91.79   25.00
 -32  23  -1  114.99   33.10
  -9  32   1  105.59   21.20
  32 -23   1   74.49   26.50
  -9  32   1  169.28   23.00
 -23  -9   1  165.58   19.00
 -23  -9   1  126.99   15.20
 -33  13  -1    2.70   17.60
  13  20  -1   50.59   22.40
  33 -13   1  -33.80   36.50
 -20  33   1   -6.70   20.60
 -20  33   1  -10.70   21.00
 -33  16  -1    7.50   19.60
  16  17  -1   39.60   22.50
 -33  16  -1   24.50   26.70
 -17  33   1   10.90   18.90
  33 -16   1    8.70   22.90
 -17  33   1   17.10   20.20
  19  14  -1  110.79   25.90
 -33  19  -1   50.89   17.90
 -33  19  -1  128.49   37.50
  33 -19   1   67.19   25.90
 -14  33   1   76.29   19.80
 -14  33   1   70.09   21.30
 -33  22  -1  154.98   36.70
  22  11  -1  147.69   27.30
  33 -22   1   62.59   26.20
 -11  33   1  141.69   24.20
 -11  33   1  120.69   21.30
  -1   1  -2 1206.48   27.90
   0  -1  -2 1184.58   25.10
   0  -1  -2 1168.98   26.20
   1   0  -2 1169.18   26.70
  -1   1  -2 1193.18   26.70
   0   1   2 1165.38   26.30
   1  -1   2 1171.68   27.70
  -1   0   2 1203.48   27.40
   0   1   2 1205.88   25.90
   1  -1   2 1215.78   27.00
  -2   0  -2 1198.38   27.70
   0   2  -2 1272.07   31.50
  -2   0  -2 1208.08   26.00
   0  -2   2 1126.09   26.70
   2   0   2 1103.59   26.10
   2   0   2 1139.09   24.80
  -2   3  -2  634.44   20.20
  -2   3  -2  660.43   19.50
  -1  -2  -2  653.93   16.10
   2  -3   2  660.33   18.50
   1   2   2  679.13   16.80
  -3   1   2  707.93   19.00
   1   2   2  673.83   15.20
   2  -3   2  664.03   20.50
  -1   4  -2   21.00    4.80
  -3  -1  -2   17.80    2.40
  -3  -1  -2   14.10    3.60
  -1   4  -2   15.80    5.00
   3   1   2    8.30    2.90
   3   1   2   12.80    3.50
   1  -4   2   11.40    4.30
   2   1  -2 1302.77   31.10
  -3   2  -2 1303.57   29.30
  -3   2  -2 1335.77   31.00
   1  -3  -2 1312.87   27.00
   3  -2   2 1333.87   30.00
  -2  -1   2 1376.66   31.60
  -3   5  -2 2010.90   45.10
  -2  -3  -2 1904.91   39.50
  -3   5  -2 1990.10   43.00
   2   3   2 1844.32   37.20
   3  -5   2 1824.42   39.60
   3  -5   2 1737.33   41.50
  -4  -2  -2 1012.60   24.90
  -2   6  -2 1048.30   26.90
  -2   6  -2 1051.09   28.90
   4   2   2 1101.79   32.50
   4   2   2 1027.30   22.20
   2  -6   2 1055.79   26.70
  -4   1  -2   78.99    5.80
  -4   1  -2   71.69    7.10
   1   3  -2   88.59    7.50
   4  -1   2   86.49    6.20
   4  -1   2   83.99    9.00
  -1  -3   2   94.89    8.00
  -4   4  -2  276.47   12.80
   0  -4  -2  260.97    7.60
  -4   0   2  216.48   10.90
   0   4   2  200.08    6.90
   4  -4   2  187.58    9.50
   4  -4   2  197.48   10.80
  -4   7  -2  929.41   27.30
  -4   7  -2  938.71   25.10
  -3  -4  -2  925.21   22.20
   4  -7   2 1047.10   29.50
   3   4   2 1093.19   25.10
   4  -7   2 1070.69   27.10
  -5  -3  -2  304.87   12.30
   8  -5  -2  313.77   12.40
  -3   8  -2  303.07   15.30
  -3   8  -2  298.07   13.30
   3  -8   2  262.17   12.00
   5   3   2  238.58   11.00
   5   3   2  250.27    8.00
  -5   0  -2 1682.43   34.20
  -5   0  -2 1660.13   37.40
   0   5  -2 1663.33   38.30
   5   0   2 1726.23   38.60
   0  -5   2 1721.43   38.80
   5   0   2 1685.63   35.40
  -5   3  -2 1679.83   36.80
   3   2  -2 1700.13   38.60
  -5   3  -2 1712.43   39.10
   5  -3   2 1566.44   34.50
   5  -3   2 1581.64   37.10
  -3  -2   2 1581.64   36.70
  -1  -5  -2  222.18    7.50
  -5   6  -2  224.08   10.70
  -5   6  -2  228.78   13.00
   5  -6   2  279.47   11.70
   1   5   2  272.37    8.50
   5  -6   2  270.57   13.30
  -5   9  -2  273.57   12.90
  -4  -5  -2  259.97   11.00
  -5   9  -2  273.17   15.10
   5  -9   2  322.37   13.60
   5  -9   2  292.77   15.00
   4   5   2  311.47   12.00
  10  -6  -2  996.50   27.10
  -4  10  -2 1035.80   31.00
  -4  10  -2  961.40   27.70
  -6  -4  -2  999.70   26.80
   6   4   2 1168.68   24.70
   6   4   2 1149.58   30.00
   4 -10   2 1186.58   30.00
  -6  -1  -2  231.48    7.70
  -6  -1  -2  222.68   11.30
  -1   7  -2  231.68   11.60
   7  -6  -2  243.98    9.90
   6   1   2  213.48   10.80
   1  -7   2  211.78   11.10
   6   1   2  207.08    8.40
  -6   2  -2  941.41   22.40
   2   4  -2  965.40   25.10
  -6   2  -2  932.71   24.80
   4  -6  -2  782.62   20.80
   6  -2   2  965.20   26.20
   6  -2   2  962.30   23.40
  -2  -4   2  970.40   25.80
  -6   5  -2  372.16   15.50
  -6   5  -2  352.36   13.10
   5   1  -2  339.37   14.00
   6  -5   2  418.56   16.40
  -1   6   2  425.56    9.00
   6  -5   2  412.26   14.40
  -5  -1   2  409.36   16.00
  -6   8  -2 1218.68   31.20
  -6   8  -2 1248.78   33.90
   6  -8   2 1310.37   32.00
   6  -8   2 1313.87   35.30
   2   6   2 1308.07   28.50
  11  -5  -2  875.21   26.30
  -6  11  -2  873.31   28.80
  -6  11  -2  839.62   25.90
   6 -11   2  855.91   24.90
   5   6   2  867.71   17.80
   6 -11   2  841.32   28.10
   5   6   2  907.41   19.40
   5   6   2  873.91   24.30
  -5  12  -2   81.39    9.80
  12  -7  -2   83.89    9.90
  -5  12  -2  100.59   13.40
   5 -12   2  126.19   10.50
   7   5   2  116.39    7.00
   7   5   2  125.29   10.90
  -2   9  -2  587.24   22.30
  -2   9  -2  590.74   19.80
   9  -7  -2  566.14   17.60
  -7  -2  -2  569.74   13.50
  -7  -2  -2  590.14   13.20
  -7  -2  -2  576.04   19.30
   2  -9   2  566.94   18.60
   7   2   2  591.94   19.60
   7   2   2  582.54   15.50
  -7   1  -2  253.47   12.50
   1   6  -2  267.77   12.50
   6  -7  -2  266.17    8.70
  -7   1  -2  247.08   10.00
   7  -1   2  252.17   10.30
   7  -1   2  259.57   12.50
  -1  -6   2  255.67   12.30
  -7   4  -2  453.75   14.90
  -7   4  -2  447.96   16.80
   4   3  -2  453.55   16.50
   7  -4   2  589.94   17.50
  -4  -3   2  589.14   19.40
   7  -4   2  564.14   19.50
  -7   7  -2  920.91   27.60
  -7   7  -2  952.90   25.70
   7  -7   2 1054.89   30.20
  -7   0   2 1073.09   29.50
   0   7   2 1055.99   21.80
   7  -7   2 1033.50   27.10
  -7  10  -2 1762.12   45.00
  -7  10  -2 1787.52   42.60
   7 -10   2 1664.53   38.20
   7 -10   2 1684.73   42.50
   3   7   2 1415.36   40.40
  -7  13  -2 1537.75   40.40
  13  -6  -2 1562.54   41.00
  -7  13  -2 1618.04   44.10
   6   7   2 1565.34   38.50
   6   7   2 1563.84   31.20
   7 -13   2 1538.65   43.10
   7 -13   2 1558.64   38.50
   6   7   2 1563.54   32.40
  -6  14  -2  235.28   18.00
  -6  14  -2  242.48   14.80
  14  -8  -2  247.88   14.90
   6 -14   2  233.88   13.50
   8   6   2  244.58   14.40
  11  -8  -2 1533.55   37.50
  -3  11  -2 1578.94   39.50
  -8  -3  -2 1541.55   39.00
  -3  11  -2 1558.84   42.40
   8   3   2 1641.04   40.80
   8   3   2 1623.04   34.90
   3 -11   2 1643.64   38.70
  -8   0  -2 2715.93   58.89
   8  -8  -2 2862.31   57.79
   0   8  -2 2710.23   58.79
  -8   0  -2 2522.95   58.99
   0  -8   2 2471.35   53.69
   8   0   2 2528.85   50.99
   8   0   2 2500.25   55.69
  -8   3  -2  530.05   19.10
  -8   3  -2  515.95   16.20
   3   5  -2  533.95   18.40
   8  -3   2  501.25   15.70
   8  -3   2  486.15   18.20
  -3  -5   2  472.95   17.40
   6   2  -2 1589.54   39.30
  -8   6  -2 1632.94   40.40
  -8   6  -2 1624.24   37.80
  -6  -2   2 1714.83   41.40
   8  -6   2 1690.13   38.90
   8  -6   2 1709.43   42.40
  -8   9  -2  389.86   18.20
  -8   9  -2  397.06   16.00
   8  -9   2  357.26   15.00
   1   8   2  382.46   11.30
   8  -9   2  367.16   17.40
  12  -4  -2  186.08   13.40
  -8  12  -2  190.38   15.70
  -8  12  -2  205.18   13.20
   8 -12   2  164.08   14.00
   4   8   2  151.48    9.90
   8 -12   2  144.19   11.40
  -8  15  -2  427.56   22.80
  15  -7  -2  466.75   20.80
  -8  15  -2  439.96   19.70
   7   8   2  369.66   17.00
   8 -15   2  393.16   17.30
   8 -15   2  349.57   19.70
   7   8   2  372.76   12.60
  -7  16  -2  676.43   25.40
  -7  16  -2  713.73   29.10
  16  -9  -2  670.63   25.90
   7 -16   2  790.82   25.00
   9   7   2  778.52   27.00
  -9  -4  -2 1475.15   39.20
  -4  13  -2 1509.05   42.70
  -4  13  -2 1501.35   39.30
  13  -9  -2 1471.75   38.40
   9   4   2 1597.44   41.60
   4 -13   2 1595.74   38.50
  -9  -1  -2  408.86   17.70
  10  -9  -2  418.16   15.20
  -1  10  -2  426.66   17.50
   9   1   2  362.06   13.40
   9   1   2  368.56   16.60
   1 -10   2  370.66   15.20
  -9   2  -2  688.93   22.70
   7  -9  -2  676.63   17.00
  -9   2  -2  673.73   19.20
   2   7  -2  727.63   22.70
   9  -2   2  709.23   19.90
  -2  -7   2  690.23   21.60
   9  -2   2  664.23   22.70
  -9   5  -2  130.29    8.90
   5   4  -2  130.19   10.30
  -9   5  -2  143.09   11.60
   9  -5   2  161.18   10.00
  -5  -4   2  169.58   11.80
   9  -5   2  164.58   11.90
  -9   8  -2  480.45   20.00
  -9   8  -2  457.05   17.30
   9  -8   2  403.06   15.80
   9  -8   2  415.66   18.50
  -8  -1   2  412.26   18.30
  -9  11  -2  828.12   28.60
  -9  11  -2  875.71   26.60
   2   9   2  940.81   25.70
   9 -11   2  898.41   30.10
   9 -11   2  918.41   26.80
  14  -5  -2 1256.67   36.80
  -9  14  -2 1245.28   38.50
  -9  14  -2 1306.77   36.20
   9 -14   2 1413.76   36.70
   9 -14   2 1405.96   41.40
   5   9   2 1413.26   35.40
  -9  17  -2  463.75   25.20
  -9  17  -2  476.05   21.90
  17  -8  -2  510.65   23.10
   9 -17   2  508.05   20.50
   8   9   2  494.65   16.90
   8   9   2  522.05   21.20
  18 -10  -2  264.47   18.50
  -8  18  -2  307.77   22.20
  -8  18  -2  299.27   18.40
   8 -18   2  334.77   17.20
  10   8   2  371.66   19.60
  -5  15  -2  640.84   27.30
  15 -10  -2  620.94   23.80
  -5  15  -2  640.14   23.70
  10   5   2  681.13   25.30
   5 -15   2  650.83   21.80
 -10  -2  -2   52.69    8.90
 -10  -2  -2   57.09    7.10
  -2  12  -2   63.89   10.90
  12 -10  -2   74.69    9.10
 -10  -2  -2   57.29    5.50
  -2  12  -2   63.19    8.90
   2 -12   2   51.29    7.50
  10   2   2   81.99   10.40
   9 -10  -2  518.15   17.80
   1   9  -2  524.75   19.80
 -10   1  -2  566.54   21.30
 -10   1  -2  528.85   16.50
  -1  -9   2  554.24   19.00
  10  -1   2  554.24   17.70
  10  -1   2  522.75   20.90
 -10   4  -2  521.65   20.50
 -10   4  -2  504.35   17.20
   6 -10  -2  528.55   12.90
   4   6  -2  544.45   19.80
  -4  -6   2  611.54   21.10
  10  -4   2  602.54   22.00
  10  -4   2  614.44   19.40
 -10   7  -2 1685.73   43.70
   7   3  -2 1721.63   43.00
 -10   7  -2 1784.42   41.50
  -7  -3   2 1671.13   42.30
  10  -7   2 1717.73   44.20
  10  -7   2 1733.73   40.50
 -10  10  -2 2045.30   50.59
 -10  10  -2 1979.20   47.60
  10 -10   2 1948.31   45.30
  10 -10   2 1889.61   49.20
 -10   0   2 1967.60   48.50
   0  10   2 1916.21   38.90
 -10  13  -2 3514.25   78.59
  13  -3  -2 3489.35   77.59
 -10  13  -2 3413.46   75.29
  10 -13   2 3549.15   74.89
  10 -13   2 3520.65   80.49
   3  10   2 3546.35   71.49
 -10  16  -2 2060.19   51.49
 -10  16  -2 2019.40   53.99
  16  -6  -2 1980.80   52.49
  10 -16   2 1982.20   47.70
   6  10   2 1926.71   40.50
   6  10   2 1991.20   47.30
  10 -16   2 1926.11   53.29
  19  -9  -2  969.50   35.20
 -10  19  -2  961.10   37.00
 -10  19  -2 1013.80   34.10
   9  10   2  981.80   32.40
  20 -11  -2  149.79   16.80
  -9  20  -2  138.99   16.00
  -9  20  -2  151.78   19.20
  11   9   2  114.89   15.10
  17 -11  -2  108.89   12.90
  -6  17  -2   89.19   13.00
  -6  17  -2   80.29   10.50
   6 -17   2  142.69   12.20
  11   6   2  139.19   14.30
  -3  14  -2  269.37   15.60
  -3  14  -2  248.48   18.70
 -11  -3  -2  259.97    9.00
 -11  -3  -2  263.57   10.40
  14 -11  -2  277.47   15.00
 -11  -3  -2  273.87   16.90
   3 -14   2  221.78   12.80
  11   3   2  230.78   15.60
  11 -11  -2   73.29    8.30
 -11   0  -2   89.69   11.30
 -11   0  -2   70.59    7.50
   0  11  -2   86.99   10.30
  11   0   2   64.49    9.50
 -11  11   2   54.89    7.60
   0 -11   2   45.10    7.20
   3   8  -2  977.80   29.40
 -11   3  -2 1011.70   30.80
   8 -11  -2 1008.80   23.70
 -11   3  -2 1006.90   26.60
  11  -3   2 1054.09   28.00
  -8  11   2 1032.00   24.20
  11  -3   2 1042.50   31.80
  -3  -8   2 1053.79   29.10
 -11   6  -2 1199.68   34.90
 -11   6  -2 1241.98   32.20
   6   5  -2 1244.98   34.10
  11  -6   2 1210.28   35.50
  -5  11   2 1208.28   23.50
  11  -6   2 1255.17   32.10
  -6  -5   2 1242.78   33.70
 -11   9  -2  469.35   18.50
 -11   9  -2  460.55   21.00
  -9  -2   2  496.55   21.10
  11  -9   2  530.65   19.40
  -2  11   2  499.35   12.50
  11  -9   2  497.55   21.90
  -2  11   2  491.45   12.60
 -11  12  -2  986.70   32.30
 -11  12  -2  956.90   29.70
   1  11   2 1047.80   27.10
  11 -12   2  955.00   29.00
 -12   1   2  987.90   32.40
  11 -12   2  970.10   32.70
 -11  15  -2  432.76   19.90
  15  -4  -2  393.06   20.40
 -11  15  -2  414.56   22.70
  11 -15   2  381.76   17.80
  11 -15   2  375.26   20.90
   4  11   2  362.56   15.60
  18  -7  -2  699.53   28.70
 -11  18  -2  668.33   30.20
 -11  18  -2  721.23   27.90
   7  11   2  676.63   24.70
  11 -18   2  685.93   29.20
  21 -10  -2  415.66   24.60
 -11  21  -2  375.56   22.80
 -11  21  -2  393.46   27.60
  10  11   2  381.46   21.20
  22 -12  -2  379.16   24.40
 -10  22  -2  330.77   28.30
 -10  22  -2  363.76   23.40
  12  10   2  332.67   21.80
  19 -12  -2  490.15   23.70
  -7  19  -2  506.25   23.40
  -7  19  -2  521.75   28.80
  12   7   2  564.14   25.80
   7 -19   2  566.64   21.80
  -4  16  -2  269.27   20.30
  16 -12  -2  248.08   15.70
  -4  16  -2  260.47   16.20
 -12  -4  -2  237.98    8.30
  12   4   2  285.97   18.10
   4 -16   2  295.07   14.80
 -12  -1  -2    6.00    7.60
  -1  13  -2   14.90    6.10
 -12  -1  -2    8.30    3.90
  13 -12  -2    5.20    5.30
 -13  12   2   14.70    6.80
   1 -13   2    9.70    5.50
  12   1   2   22.00    7.50
 -12   2  -2   52.89    9.70
  10 -12  -2   70.79    7.60
 -12   2  -2   51.39    6.90
   2  10  -2   74.19    9.60
 -10  12   2   65.59    8.40
  12  -2   2   82.99   11.50
  -2 -10   2   63.69    8.20
 -12   5  -2  145.29   14.10
 -12   5  -2  124.89   10.40
   5   7  -2  128.99   12.00
   7 -12  -2  141.59    6.90
  -5  -7   2  150.68   12.20
  12  -5   2  143.39   13.10
  12  -5   2  152.48   11.50
  -7  12   2  140.89    7.10
 -12   8  -2  242.18   16.50
   8   4  -2  228.58   14.50
 -12   8  -2  230.48   13.70
  12  -8   2  201.68   13.40
  -8  -4   2  197.98   14.60
  12  -8   2  206.78   15.10
 -12  11  -2  787.72   28.70
 -12  11  -2  794.12   26.40
 -11  -1   2  761.52   27.60
  -1  12   2  732.43   18.20
  12 -11   2  785.02   28.70
  12 -11   2  737.93   24.80
 -12  14  -2  771.62   29.70
 -12  14  -2  755.72   26.70
  14  -2  -2  750.12   28.30
  12 -14   2  750.12   29.00
   2  12   2  735.73   21.40
  12 -14   2  743.23   25.30
  17  -5  -2  350.96   20.50
 -12  17  -2  353.86   19.20
 -12  17  -2  314.27   21.80
   5  12   2  405.06   17.40
   5  12   2  361.66   11.80
  12 -17   2  339.87   21.80
 -12  20  -2  354.06   22.00
 -12  20  -2  411.26   26.90
  20  -8  -2  387.36   23.40
   8  12   2  408.86   20.80
   8  12   2  380.06   16.00
  12 -20   2  403.86   24.50
  23 -11  -2  377.96   25.20
 -12  23  -2  344.57   25.20
 -12  23  -2  379.16   29.60
  11  12   2  316.87   22.20
  24 -13  -2  313.07   24.60
 -11  24  -2  358.26   25.20
 -11  24  -2  335.57   30.30
  13  11   2  345.27   25.20
  21 -13  -2 1040.30   37.30
  -8  21  -2 1062.19   36.50
  -8  21  -2 1044.00   41.50
  13   8   2 1049.00   37.50
  -5  18  -2  180.88   20.30
  -5  18  -2  193.68   16.00
  18 -13  -2  186.58   15.70
  13   5   2  203.68   17.60
   5 -18   2  183.98   13.40
  -2  15  -2  376.76   18.80
 -13  -2  -2  389.66   21.30
 -13  -2  -2  379.96   15.40
 -13  -2  -2  395.56   13.40
  15 -13  -2  369.56   17.80
  -2  15  -2  419.46   23.20
   2 -15   2  371.76   16.20
  13   2   2  397.46   20.90
 -15  13   2  405.66   20.00
  12 -13  -2   19.40    5.60
   1  12  -2   10.50    6.70
 -13   1  -2   22.10    5.30
 -13   1  -2   15.20    7.70
  13  -1   2   17.80    7.30
 -12  13   2   15.70    6.50
  -1 -12   2   16.80    6.10
   4   9  -2  835.42   27.50
 -13   4  -2  855.01   25.30
 -13   4  -2  852.31   29.50
   9 -13  -2  830.52   21.70
  -9  13   2  916.11   22.80
  13  -4   2  915.11   31.00
  -4  -9   2  907.71   27.10
 -13   7  -2 1240.28   33.70
   7   6  -2 1200.78   35.40
 -13   7  -2 1267.67   37.40
  -6  13   2 1210.38   25.30
  -7  -6   2 1240.58   34.60
  13  -7   2 1267.77   37.90
 -13  10  -2 2912.01   65.29
 -13  10  -2 2862.11   67.69
  -3  13   2 2928.61   56.49
 -10  -3   2 3028.20   67.89
  13 -10   2 2906.71   69.99
  13 -10   2 2940.61   64.89
 -13  13  -2 3650.43   82.69
 -13  13  -2 3621.44   79.99
  13 -13   2 3489.55   81.49
  13 -13   2 3454.05   75.49
 -13   0   2 3582.04   79.99
 -13  16  -2 1694.73   46.20
  16  -3  -2 1662.83   48.20
 -13  16  -2 1678.93   48.60
  13 -16   2 1671.63   48.80
   3  13   2 1670.83   39.60
   3  13   2 1571.44   32.40
 -13  19  -2 1843.92   53.49
  19  -6  -2 1808.02   52.29
 -13  19  -2 1828.22   50.59
  13 -19   2 1852.61   54.29
   6  13   2 1830.52   46.80
  22  -9  -2  719.73   32.70
 -13  22  -2  656.53   34.90
   9  13   2  670.03   27.90
   9  13   2  655.93   22.80
 -13  25  -2   92.59   15.20
  25 -12  -2   53.49   14.90
 -13  25  -2   96.69   19.80
  12  13   2   54.29   14.40
 -12  26  -2   -1.10   17.50
 -12  26  -2  -13.20   12.00
  26 -14  -2   -6.30   13.00
  14  12   2   -7.60   11.90
  -9  23  -2   41.40   16.80
  -9  23  -2   35.50   12.30
  14   9   2   67.69   13.90
  -6  20  -2  132.69   17.90
  -6  20  -2  134.89   15.90
  20 -14  -2  150.58   17.00
   6 -20   2  140.29   13.70
  14   6   2  147.69   18.00
  -3  17  -2  102.49   13.00
  -3  17  -2   86.99   14.10
 -14  -3  -2   86.89    9.80
  17 -14  -2  112.99   12.90
 -14  -3  -2   77.99    7.00
 -17  14   2   81.49   12.80
   3 -17   2   80.19   10.60
  14   3   2   68.59   11.20
  14 -14  -2   40.70    7.30
   0  14  -2   43.90    8.50
 -14   0  -2   35.60   10.10
 -14   0  -2   50.29    6.60
   0 -14   2   30.00    6.60
  14   0   2   29.60    9.10
 -14  14   2   33.00    8.50
 -14   3  -2  197.98   15.90
 -14   3  -2  184.58   11.90
  11 -14  -2  199.88   11.10
   3  11  -2  178.38   14.00
 -11  14   2  167.88   11.40
  14  -3   2  184.48   15.20
  -3 -11   2  173.78   12.40
   8 -14  -2  175.58    8.70
   6   8  -2  174.28   13.80
 -14   6  -2  174.78   15.40
 -14   6  -2  156.58   11.90
  -8  14   2  176.58    8.90
  14  -6   2  154.28   14.60
  -6  -8   2  166.18   13.50
 -14   9  -2 1264.67   38.50
 -14   9  -2 1268.27   35.60
   9   5  -2 1299.67   37.50
  14  -9   2 1439.86   42.70
  -5  14   2 1406.06   29.30
  -9  -5   2 1496.45   40.00
 -14  12  -2  727.93   26.70
 -14  12  -2  822.12   30.10
  -2  14   2  760.52   20.30
  14 -12   2  764.32   29.70
 -12  -2   2  727.83   28.10
 -14  15  -2  670.53   29.00
 -14  15  -2  719.63   26.90
  15  -1  -2  724.83   28.90
   1  14   2  623.54   19.30
 -15   1   2  707.13   29.40
   1  14   2  602.44   14.40
  14 -15   2  617.64   27.30
  18  -4  -2  411.86   23.60
 -14  18  -2  419.66   25.30
 -14  18  -2  445.96   22.70
  14 -18   2  411.96   24.60
   4  14   2  395.66   13.00
   4  14   2  399.66   17.90
 -14  21  -2  337.77   28.60
 -14  21  -2  341.47   26.60
  21  -7  -2  304.27   23.50
   7  14   2  356.76   19.60
   7  14   2  329.17   15.00
  14 -21   2  333.27   24.00
 -14  24  -2  270.77   24.10
 -14  24  -2  275.37   29.60
  24 -10  -2  265.37   24.20
  10  14   2  220.58   16.60
  10  14   2  253.67   21.20
  27 -13  -2  -21.60   12.40
 -14  27  -2  -13.20   13.10
 -14  27  -2   -0.40   17.70
  13  14   2   25.20   13.20
 -13  28  -2   44.10   25.30
  28 -15  -2    1.60   15.60
 -13  28  -2   21.50   14.50
  15  13   2   34.70   15.70
 -10  25  -2   35.50   13.20
 -10  25  -2   74.49   19.70
  25 -15  -2   70.59   15.50
  15  10   2   53.59   14.50
  -7  22  -2  396.76   24.20
  22 -15  -2  411.46   24.90
  -7  22  -2  433.36   30.60
  15   7   2  459.05   26.90
  -4  19  -2  128.99   15.60
  -4  19  -2  151.88   19.60
  19 -15  -2  132.49   15.40
 -15  -4  -2  120.29    9.60
  15   4   2  173.88   18.50
   4 -19   2  153.38   13.10
 -19  15   2  145.19   18.40
 -15  -1  -2   -1.40    4.20
  16 -15  -2    5.00    6.70
 -15  -1  -2    0.90    8.70
 -15  -1  -2    2.40    7.30
  -1  16  -2    8.20    6.60
   1 -16   2    8.80    5.90
  15   1   2  -14.70    6.80
 -16  15   2    2.00    8.10
  13 -15  -2  175.38   12.20
 -15   2  -2  175.18   11.70
   2  13  -2  183.98   14.60
 -15   2  -2  153.88   16.30
  -2 -13   2  169.08   12.00
 -13  15   2  170.48   13.40
  15  -2   2  184.58   16.40
   5  10  -2  753.52   26.90
 -15   5  -2  735.43   29.00
  10 -15  -2  739.13   21.80
 -15   5  -2  751.62   24.70
 -10  15   2  767.62   21.40
  15  -5   2  802.32   29.90
  -5 -10   2  785.92   25.30
 -15   8  -2  123.29   11.60
   8   7  -2   91.49   12.10
 -15   8  -2   94.09   12.50
  15  -8   2   97.09   13.20
  -7  15   2   72.69    6.60
  -8  -7   2   86.49   10.80
 -15  11  -2  464.15   21.20
 -15  11  -2  532.25   24.40
 -11  -4   2  436.56   21.70
  -4  15   2  416.86   13.30
  15 -11   2  433.56   22.40
 -15  14  -2  728.33   29.80
  14   1  -2  666.93   27.80
 -15  14  -2  724.03   27.30
  15 -14   2  660.03   28.70
 -14  -1   2  682.13   28.10
  -1  15   2  638.94   15.60
 -15  17  -2  661.13   30.00
  17  -2  -2  663.63   29.30
 -15  17  -2  660.93   27.30
  15 -17   2  676.73   29.80
   2  15   2  648.34   21.20
 -17   2   2  650.03   30.00
   2  15   2  632.74   16.40
  20  -5  -2  248.48   35.00
 -15  20  -2  310.47   22.60
 -15  20  -2  338.87   26.20
   5  15   2  280.07   16.80
   5  15   2  266.17   13.50
  15 -20   2  291.37   22.70
 -15  23  -2   45.70   16.30
  23  -8  -2   50.69   13.90
 -15  23  -2   52.49   12.80
  15 -23   2   29.00   11.80
   8  15   2   40.00    8.50
   8  15   2   44.10   11.00
 -15  26  -2  183.58   24.60
 -15  26  -2  101.99   17.30
  26 -11  -2  116.39   19.80
  11  15   2  127.69   17.20
 -15  29  -2  -30.30   15.50
 -15  29  -2   28.60   20.60
  14  15   2   -6.40   14.10
  30 -16  -2    5.00   17.90
 -14  30  -2   17.80   18.70
 -14  30  -2   30.60   24.50
  16  14   2   44.00   18.50
 -11  27  -2  157.08   25.00
  27 -16  -2  147.69   21.50
 -11  27  -2  136.99   20.00
  16  11   2   77.39   18.00
  -8  24  -2  149.49   23.10
  24 -16  -2   92.29   15.30
  -8  24  -2   70.59   19.00
  16   8   2   79.69   16.50
  -5  21  -2  517.45   25.90
  -5  21  -2  492.15   31.50
  21 -16  -2  475.55   25.40
  16   5   2  588.84   30.00
   5 -21   2  569.64   21.40
  18 -16  -2  482.25   22.70
 -16  -2  -2  487.85   16.70
 -16  -2  -2  474.35   19.60
  -2  18  -2  477.65   29.10
  -2  18  -2  467.75   23.10
   2 -18   2  463.45   18.40
  16   2   2  456.65   25.40
 -18  16   2  468.95   24.80
   1  15  -2   -1.00    7.00
 -16   1  -2    4.70    5.00
  15 -16  -2    3.80    5.90
 -16   1  -2    5.20    8.60
  16  -1   2    5.60    7.60
  -1 -15   2    2.70    5.50
 -15  16   2   10.00    8.10
  12 -16  -2  146.99   11.00
 -16   4  -2  142.99   16.30
   4  12  -2  143.89   14.00
 -16   4  -2  160.28   12.20
  16  -4   2  138.29   15.20
 -12  16   2  155.88   12.20
  -4 -12   2  170.78   12.30
   7   9  -2  634.34   25.30
   9 -16  -2  622.24   18.20
 -16   7  -2  645.54   23.70
 -16   7  -2  648.64   27.60
  -9  16   2  703.33   19.40
  -7  -9   2  728.03   25.40
  16  -7   2  753.12   30.00
 -16  10  -2 1870.31   48.50
 -16  10  -2 1880.71   51.79
  10   6  -2 1876.31   49.90
  16 -10   2 1871.01   52.39
 -10  -6   2 1871.31   48.10
  -6  16   2 1810.42   37.80
 -16  13  -2 1753.12   50.69
 -16  13  -2 1876.31   49.00
  16 -13   2 1769.62   51.89
 -13  -3   2 1814.52   49.20
  -3  16   2 1746.43   39.00
  16   0  -2 3207.18   79.29
 -16  16  -2 3367.66   77.39
 -16  16  -2 3235.98   78.99
   0  16   2 3208.48   62.29
  16 -16   2 3248.18   80.59
 -16   0   2 3300.37   78.59
  19  -3  -2 1441.56   68.49
 -16  19  -2 1726.43   51.19
 -16  19  -2 1763.72   52.49
   3  16   2 1736.93   43.00
  16 -19   2 1706.43   53.09
   3  16   2 1709.73   38.00
  22  -6  -2  541.55   29.70
 -16  22  -2  587.34   28.90
 -16  22  -2  594.94   33.50
  16 -22   2  505.15   29.30
   6  16   2  478.35   22.70
   6  16   2  444.96   18.20
 -16  25  -2  353.06   26.50
 -16  25  -2  325.47   31.60
  25  -9  -2  298.67   26.30
   9  16   2  299.47   18.60
   9  16   2  297.67   22.70
 -16  28  -2   26.00   20.70
 -16  28  -2   23.50   15.70
  12  16   2   -1.30   12.60
 -16  31  -2   82.19   22.20
 -16  31  -2   90.99   27.40
  31 -15  -2   83.59   22.50
  15  16   2   80.39   20.10
 -15  32  -2  -15.00   20.90
  32 -17  -2  -10.70   20.80
 -15  32  -2  -17.00   25.70
 -32  17   2  -17.60   16.90
  17  15   2   36.50   21.70
 -12  29  -2   97.69   19.30
 -12  29  -2  117.89   26.80
  17  12   2  112.39   20.40
  26 -17  -2  117.49   17.90
  -9  26  -2  121.29   18.40
  -9  26  -2  141.59   23.40
  17   9   2  121.09   19.50
  -6  23  -2   35.00   12.10
  23 -17  -2   -2.10   10.30
  -6  23  -2   27.90   15.90
  17   6   2   18.70   12.50
  -3  20  -2   50.49   15.90
 -17  -3  -2   44.00    8.60
  20 -17  -2   34.80   10.40
  -3  20  -2   46.20   11.10
 -17  -3  -2   37.80    6.30
  17   3   2   67.29   14.20
 -20  17   2   58.59   14.20
   3 -20   2   67.89    9.20
   0  17  -2  179.38   16.40
 -17   0  -2  225.98   12.90
  17 -17  -2  198.48   15.40
 -17   0  -2  191.68   19.70
  17   0   2  203.38   18.80
 -17  17   2  197.48   17.60
   0 -17   2  193.08   13.00
 -17   3  -2  137.19   16.70
 -17   3  -2  142.79   11.70
   3  14  -2  141.79   14.70
  14 -17  -2  118.99   11.40
  -3 -14   2  110.99   11.30
 -14  17   2  100.59   12.80
  17  -3   2  125.29   16.00
  11 -17  -2   40.80    6.40
 -17   6  -2   42.00   10.90
   6  11  -2   34.70    9.30
 -17   6  -2   43.50    9.00
 -11  17   2   75.29    9.90
  17  -6   2   75.49   13.20
  -6 -11   2   78.19    9.80
   9   8  -2  576.64   24.70
 -17   9  -2  594.74   23.80
 -17   9  -2  547.35   27.20
  17  -9   2  599.64   27.40
  -9  -8   2  603.14   23.90
  -8  17   2  583.04   16.80
 -17  12  -2  238.78   16.60
 -17  12  -2  197.48   18.70
  17 -12   2  296.47   20.70
  -5  17   2  272.87   12.10
 -12  -5   2  294.17   19.50
 -17  15  -2  621.94   26.40
 -17  15  -2  617.64   29.90
  15   2  -2  627.04   28.30
 -15  -2   2  606.04   28.30
  17 -15   2  662.13   29.90
  -2  17   2  569.54   20.40
 -17  18  -2  458.25   28.10
 -17  18  -2  448.16   27.30
   1  17   2  424.56   14.70
 -18   1   2  475.15   27.20
   1  17   2  426.76   17.20
  17 -18   2  410.76   24.90
 -17  21  -2  281.67   22.00
 -17  21  -2  240.68   26.40
  21  -4  -2  224.28   22.10
   4  17   2  212.68   15.70
   4  17   2  236.88   12.70
  17 -21   2  270.07   23.90
 -17  24  -2  126.09   18.50
  24  -7  -2  109.09   16.60
 -17  24  -2  110.69   21.80
   7  17   2  114.59   13.30
   7  17   2  161.88   17.70
 -17  27  -2   90.49   17.60
  10  17   2  108.59   16.70
  10  17   2  135.49   18.00
 -17  30  -2   17.70   19.30
 -17  30  -2   25.60   23.70
  30 -13  -2   28.70   18.80
  13  17   2   -1.00   16.30
  33 -16  -2   57.39   25.10
 -17  33  -2   38.30   29.10
 -17  33  -2    7.60   23.70
 -33  16   2   12.10   24.00
  16  17   2   80.39   23.70
 -13  31  -2  102.19   21.90
  31 -18  -2  112.19   23.10
 -13  31  -2  114.39   27.50
  18  13   2  160.98   25.10
 -31  18   2  109.89   20.30
  28 -18  -2   32.30   16.40
 -10  28  -2   21.40   15.70
  18  10   2   52.49   17.50
  -7  25  -2   27.90   18.50
  -7  25  -2   40.20   14.00
  25 -18  -2   30.40   12.90
  18   7   2   63.89   16.60
 -18  -4  -2  106.29    8.60
 -18  -4  -2  114.19   11.50
  -4  22  -2  108.39   20.10
  -4  22  -2  117.89   16.30
  22 -18  -2  102.79   15.10
 -22  18   2  130.19   18.40
  18   4   2  117.99   17.70
 -18  -1  -2   -4.80    8.30
  -1  19  -2   10.70   13.30
 -18  -1  -2    9.60    5.90
  -1  19  -2   20.30    9.50
  19 -18  -2   12.00    8.50
 -19  18   2   -2.90   10.70
   1 -19   2    5.90    6.50
 -18   2  -2  337.57   23.50
 -18   2  -2  349.87   17.00
   2  16  -2  356.36   20.90
  16 -18  -2  309.97   17.90
  -2 -16   2  328.67   15.70
 -16  18   2  304.27   19.10
  18  -2   2  355.96   23.20
 -18   5  -2  205.08   14.60
   5  13  -2  207.38   16.50
  13 -18  -2  182.08   12.50
 -18   5  -2  201.38   20.00
 -13  18   2  214.48   14.20
  18  -5   2  195.88   18.00
  -5 -13   2  191.58   14.00
 -18   8  -2  313.87   18.10
   8  10  -2  330.77   19.60
 -18   8  -2  364.66   23.60
  18  -8   2  414.86   24.10
  -8 -10   2  410.16   19.60
 -10  18   2  387.56   15.10
 -18  11  -2  628.24   29.00
 -18  11  -2  614.14   25.40
  -7  18   2  615.24   17.80
 -11  -7   2  622.04   25.40
  18 -11   2  629.44   29.00
 -18  14  -2  547.25   25.40
 -18  14  -2  582.24   28.50
  18 -14   2  538.45   27.60
  -4  18   2  509.05   17.70
  -4  18   2  518.95   16.30
 -14  -4   2  478.65   25.40
 -18  17  -2  452.25   27.20
  17   1  -2  394.86   37.70
 -17  -1   2  472.05   27.70
  18 -17   2  526.75   28.70
  -1  18   2  458.05   14.90
  20  -2  -2  334.57   24.10
 -18  20  -2  324.07   27.40
 -18  20  -2  356.66   23.30
 -20   2   2  344.17   27.70
  18 -20   2  397.36   26.00
   2  18   2  321.97   13.80
   2  18   2  305.27   16.20
 -18  23  -2  173.08   22.50
 -18  23  -2  165.98   22.00
  23  -5  -2  181.88   21.20
   5  18   2  175.48   13.90
   5  18   2  177.88   16.10
 -18  26  -2  197.68   25.80
   8  18   2  168.38   20.90
   8  18   2  205.38   17.90
  18 -26   2  219.68   26.00
 -18  29  -2   48.40   21.20
  29 -11  -2   20.90   18.20
 -18  29  -2   20.60   18.20
  11  18   2   54.59   15.90
 -18  32  -2    4.40   25.40
 -18  32  -2    5.80   21.50
  32 -14  -2   30.70   23.70
 -32  14   2  -22.20   16.90
  14  18   2   -6.70   18.50
 -14  33  -2    2.00   23.20
  33 -19  -2   49.00   24.80
 -14  33  -2   51.39   31.80
  19  14   2   62.49   24.90
 -11  30  -2   33.00   24.60
 -11  30  -2   17.00   17.50
 -30  19   2   32.80   16.60
  19  11   2    6.80   18.80
  -8  27  -2  125.09   19.10
  -8  27  -2   96.49   22.70
  27 -19  -2  111.19   19.20
  19   8   2   82.99   18.60
  -5  24  -2  467.05   35.40
  19   5   2  505.75   32.00
 -19  -2  -2   58.79    8.10
  -2  21  -2   42.60   12.00
  -2  21  -2   40.20   17.20
  21 -19  -2   39.70   11.70
 -19  -2  -2   39.80   10.50
 -21  19   2   36.50   14.00
  19   2   2   45.70   13.50
   2 -21   2   37.60    8.00
 -19   1  -2   -9.30   11.40
  18 -19  -2   11.60    8.30
   1  18  -2    8.00    8.60
 -19   1  -2   15.00    6.80
  19  -1   2    5.10    9.90
  -1 -18   2   22.60    7.10
 -18  19   2   17.00   10.70
   4  15  -2   41.30   10.70
  15 -19  -2   40.50    8.40
 -19   4  -2   41.00   12.80
 -19   4  -2   42.70    8.60
 -15  19   2   45.80   10.10
  -4 -15   2   49.99    8.70
  19  -4   2   49.00   11.90
 -19   7  -2  283.47   18.00
 -19   7  -2  285.67   22.70
   7  12  -2  272.87   19.00
  12 -19  -2  304.67   14.50
  -7 -12   2  351.56   18.10
  19  -7   2  350.06   23.20
 -12  19   2  349.87   16.00
  10   9  -2  789.02   30.80
 -19  10  -2  780.82   33.60
 -19  10  -2  781.72   29.50
  19 -10   2  812.62   33.60
 -10  -9   2  771.42   27.90
  -9  19   2  753.42   21.20
 -19  13  -2 1629.64   47.40
 -19  13  -2 1685.73   51.09
  -6  19   2 1630.84   38.10
 -13  -6   2 1637.84   46.70
  19 -13   2 1683.63   52.09
  -6  19   2 1617.94   36.70
 -19  16  -2 1549.54   48.50
 -19  16  -2 1322.87   59.89
  19 -16   2 1467.85   48.80
  -3  19   2 1443.96   33.40
 -16  -3   2 1480.65   45.90
  -3  19   2 1411.16   36.20
  19   0  -2  751.92   34.40
 -19  19  -2  770.52   36.00
 -19  19  -2  787.92   32.90
 -19   0   2  818.72   36.50
  19 -19   2  847.12   36.80
   0  19   2  758.22   21.90
  22  -3  -2  752.22   36.00
 -19  22  -2  771.82   37.90
 -19  22  -2  729.33   33.90
  19 -22   2  643.54   37.90
   3  19   2  699.93   26.10
   3  19   2  722.43   22.80
 -22   3   2  762.42   38.60
   6  19   2  115.29   14.50
   6  19   2  133.19   17.60
  19 -25   2  119.39   20.50
  28  -9  -2   31.10   17.00
 -19  28  -2   25.50   16.60
 -19  28  -2    4.40   20.30
   9  19   2   29.80   14.20
  19 -28   2   61.19   17.90
   9  19   2   26.50   12.60
  31 -12  -2   44.30   21.80
 -19  31  -2   64.49   23.30
 -19  31  -2   69.39   28.00
  12  19   2   40.40   18.90
 -12  32  -2   43.60   28.30
  32 -20  -2   23.10   22.60
 -12  32  -2   59.69   22.10
 -32  20   2   48.20   19.00
  20  12   2   71.19   24.40
  -9  29  -2  145.69   28.30
  -9  29  -2  138.49   21.00
 -29  20   2  114.89   19.20
  20   9   2  114.29   23.90
  26 -20  -2  314.47   27.60
  -6  26  -2  249.28   27.10
  -6  26  -2  314.57   34.60
  20   6   2  355.66   30.90
 -20  -3  -2  387.56   19.50
  -3  23  -2  365.96   26.50
 -20  -3  -2  396.96   16.10
  23 -20  -2  363.16   25.30
  -3  23  -2  393.46   34.10
 -23  20   2  363.56   29.20
  20   3   2  380.06   28.80
  20 -20  -2  271.97   20.40
   0  20  -2  211.08   20.50
 -20   0  -2  210.38   14.90
 -20   0  -2  218.58   20.20
   0 -20   2  168.08   12.60
 -20  20   2  171.68   20.90
  20   0   2  152.98   19.20
   3  17  -2   19.30    9.80
 -20   3  -2   21.80    7.90
  17 -20  -2   46.00    9.90
 -20   3  -2   20.20   13.50
 -17  20   2   55.99   11.50
  20  -3   2   47.20   13.20
  -3 -17   2   48.90    8.10
 -20   6  -2   94.79   15.70
   6  14  -2  144.79   17.00
  14 -20  -2   87.99   11.80
 -20   6  -2  109.49   14.20
  -6 -14   2  126.19   13.10
  20  -6   2  105.89   18.60
 -14  20   2  136.79   14.20
   9  11  -2  114.29   14.40
 -20   9  -2   98.89   16.70
 -20   9  -2  111.29   14.00
 -11  20   2  103.29   11.30
  -9 -11   2  113.49   14.00
  20  -9   2  116.39   17.00
 -20  12  -2  305.47   20.10
 -20  12  -2  312.47   24.10
  -8  20   2  283.37   13.40
 -12  -8   2  323.67   21.10
  20 -12   2  316.27   23.30
  -8  20   2  294.47   14.40
 -20  15  -2  333.37   26.10
 -20  15  -2  364.16   22.10
  -5  20   2  328.47   14.00
 -15  -5   2  295.17   23.20
  20 -15   2  315.77   24.20
  -5  20   2  328.17   15.50
 -20  18  -2  254.87   21.30
 -20  18  -2  293.67   25.00
  18   2  -2  236.48   22.20
 -18  -2   2  279.77   25.80
  -2  20   2  255.57   17.60
  -2  20   2  260.77   12.60
 -20  21  -2   76.39   18.70
 -20  21  -2   68.49   13.20
   1  20   2   71.99    9.60
 -21   1   2   78.89   17.70
   1  20   2   65.69    8.60
  20 -21   2   70.99   15.30
 -20  24  -2   41.70   20.30
 -20  24  -2   58.69   15.90
 -24   4   2   28.60   19.30
  20 -24   2   50.69   16.20
   4  20   2   46.00    9.00
   4  20   2   31.50   10.10
  27  -7  -2   53.09   17.40
 -20  27  -2   53.59   20.30
 -20  27  -2   30.50   16.30
   7  20   2   40.90   13.40
  20 -27   2   46.30   16.40
   7  20   2   47.00   11.40
  30 -10  -2   31.70   20.40
 -20  30  -2   61.19   20.20
 -20  30  -2   49.00   25.40
  10  20   2   22.80   16.70
  10  20   2   57.79   15.90
 -20  33  -2  113.99   31.60
  33 -13  -2   30.50   23.10
 -20  33  -2   75.79   27.10
 -33  13   2   54.19   17.60
  13  20   2  114.19   22.90
 -10  31  -2   61.09   28.70
  31 -21  -2   34.70   21.50
 -10  31  -2   62.59   22.30
 -31  21   2   45.30   18.80
  21  10   2   39.20   21.30
  -7  28  -2    6.10   23.10
  28 -21  -2   42.60   17.50
  -7  28  -2   61.59   17.30
 -28  21   2    7.30   14.30
  21   7   2   25.30   17.40
 -21  -4  -2   22.50    5.70
  25 -21  -2   16.50   13.60
 -21  -4  -2    6.40    7.60
  -4  25  -2   16.70   19.10
  -4  25  -2   47.00   15.10
  21   4   2    4.90   14.20
  -1  22  -2  118.19   22.60
 -21  -1  -2  127.39   13.50
  -1  22  -2  122.29   16.90
  22 -21  -2  120.99   16.70
 -21  -1  -2  109.89   14.90
 -22  21   2  105.29   17.80
  21   1   2   92.99   17.70
 -21   2  -2   31.10   14.30
  19 -21  -2   55.79   11.80
 -21   2  -2   28.10    8.70
   2  19  -2   51.79   12.20
 -19  21   2   26.90   11.80
  -2 -19   2   22.60    6.90
  21  -2   2   30.80   12.40
 -21   5  -2  426.66   34.50
   5  16  -2  488.35   25.60
  16 -21  -2  490.65   21.90
 -21   5  -2  462.35   22.30
 -16  21   2  601.44   24.40
  21  -5   2  553.14   30.50
  -5 -16   2  580.14   20.60
 -21   8  -2  986.70   39.70
  13 -21  -2  925.31   28.20
 -21   8  -2  922.31   33.00
   8  13  -2  975.40   35.60
 -13  21   2  966.50   28.40
  -8 -13   2  984.50   30.00
  21  -8   2 1012.60   40.30
 -21  11  -2  325.07   21.70
  11  10  -2  363.66   23.00
 -21  11  -2  370.26   26.20
 -10  21   2  339.17   14.70
 -11 -10   2  312.07   20.30
  21 -11   2  334.77   24.50
 -10  21   2  353.46   16.90
 -21  14  -2  305.97   21.70
 -21  14  -2  353.86   26.80
  21 -14   2  371.96   26.40
 -14  -7   2  345.87   23.40
  -7  21   2  329.67   15.30
  -7  21   2  332.17   14.90
 -21  17  -2  250.57   25.60
 -21  17  -2  256.77   21.40
  17   4  -2  218.18   21.70
  21 -17   2  221.38   23.40
  -4  21   2  218.88   15.30
 -17  -4   2  228.68   24.20
  -4  21   2  258.87   12.70
  20   1  -2    4.60   10.60
 -21  20  -2   78.99   13.20
  21 -20   2  104.99   16.60
  -1  21   2   95.39   11.20
  -1  21   2   86.49   13.20
 -20  -1   2  115.79   19.50
 -21  23  -2  111.19   22.30
 -21  23  -2  131.29   17.50
 -23   2   2  124.99   28.50
  21 -23   2  159.88   22.10
   2  21   2  152.38   15.20
   2  21   2  110.89   13.10
 -21  26  -2   43.60   21.10
 -21  26  -2   64.39   16.70
   5  21   2   16.70    9.70
 -26   5   2   35.10   22.50
   5  21   2   41.50   11.80
  21 -26   2   27.40   16.20
 -21  29  -2   57.69   23.40
  29  -8  -2   98.19   22.50
 -21  29  -2   54.09   19.80
  21 -29   2   65.19   20.20
   8  21   2   85.89   18.50
   8  21   2   56.69   14.10
 -21  32  -2  109.09   26.50
  32 -11  -2   68.59   23.80
 -21  32  -2  103.09   30.10
  11  21   2   43.00   19.60
 -32  11   2   61.19   19.40
  -8  30  -2  109.49   29.60
  -8  30  -2  110.39   23.20
  22   8   2   94.59   24.50
 -30  22   2   56.99   19.40
  -5  27  -2  254.27   29.20
  -5  27  -2  260.97   30.00
  27 -22  -2  305.67   29.50
 -27  22   2  227.78   26.50
  22   5   2  250.77   30.50
 -22  -2  -2  107.99   14.40
  24 -22  -2  129.19   19.10
  -2  24  -2  114.19   17.60
 -22  -2  -2  116.69   13.40
  -2  24  -2  103.19   23.70
 -24  22   2  144.99   21.00
  22   2   2  112.49   19.20
 -22   1  -2  114.59   14.60
  21 -22  -2  166.78   20.20
   1  21  -2  162.08   21.20
 -22   1  -2  102.79   16.30
  -1 -21   2  131.39   11.20
  22  -1   2  120.49   20.00
 -21  22   2  116.09   17.10
   4  18  -2   96.19   15.40
 -22   4  -2  143.59   14.80
  18 -22  -2  120.59   16.30
 -22   4  -2  137.39   20.90
  22  -4   2   97.69   17.50
 -18  22   2  102.49   14.40
  -4 -18   2   95.89   11.30
 -22   7  -2  318.87   26.80
 -22   7  -2  309.87   20.30
   7  15  -2  321.57   22.70
  15 -22  -2  309.57   17.80
  -7 -15   2  331.27   16.90
 -15  22   2  328.67   18.80
  22  -7   2  305.57   25.50
 -22  10  -2  300.57   27.70
  10  12  -2  329.17   22.70
 -12  22   2  281.77   17.10
 -12  22   2  287.77   15.80
 -10 -12   2  281.57   18.80
  22 -10   2  293.47   24.80
 -22  13  -2  596.54   28.60
 -13  -9   2  564.74   26.00
  -9  22   2  522.55   18.40
  22 -13   2  522.55   30.50
  -9  22   2  484.65   20.30
 -22  16  -2  512.35   27.40
  16   6  -2  537.95   29.00
 -22  16  -2  461.55   47.80
  -6  22   2  459.75   18.90
  -6  22   2  479.15   18.40
 -16  -6   2  434.16   27.40
  22 -16   2  499.25   31.00
 -22  19  -2  715.23   38.30
  19   3  -2  774.72   36.50
  22 -19   2  671.63   36.20
  -3  22   2  687.13   22.50
 -19  -3   2  721.93   35.30
  -3  22   2  672.93   25.80
 -22  22  -2  223.68   23.30
 -22  22  -2  342.87   32.70
   0  22   2  255.87   16.20
   0  22   2  283.87   15.70
  22 -22   2  265.67   27.50
 -22   0   2  277.07   30.90
 -22  25  -2   97.79   18.60
 -22  25  -2   85.39   21.70
   3  22   2  116.49   15.70
 -25   3   2  128.69   24.50
  22 -25   2  112.99   21.00
   3  22   2  134.69   17.50
 -22  28  -2   88.89   20.20
  28  -6  -2  108.09   22.20
 -22  28  -2   58.79   22.80
  22 -28   2   89.39   21.20
 -28   6   2   72.89   26.40
   6  22   2   45.60   13.20
   6  22   2   44.00   14.30
 -22  31  -2    7.70   26.70
 -22  31  -2   44.60   22.50
  31  -9  -2   31.70   24.00
   9  22   2    6.10   16.00
  22 -31   2  -19.40   21.10
   9  22   2   40.10   17.50
  32 -23  -2   36.30   24.30
  -9  32  -2   35.40   31.70
  -9  32  -2  104.89   25.00
  23   9   2   55.09   26.30
  -6  29  -2  333.87   34.60
  -6  29  -2  348.27   45.30
 -29  23   2  270.67   28.50
  23   6   2  355.06   36.70
 -23  -3  -2  348.97   19.90
  -3  26  -2  325.67   29.90
  26 -23  -2  398.86   31.80
  -3  26  -2  301.87   38.00
 -23  -3  -2  332.77   15.80
 -26  23   2  310.17   38.30
  23   3   2  307.97   32.10
 -26  23   2  371.06   29.50
 -23   0  -2  246.98   18.00
  23 -23  -2  255.87   24.60
   0  23  -2  325.57   42.60
 -23   0  -2  255.37   24.00
   0  23  -2  256.07   31.90
 -23  23   2  283.27   24.60
  23   0   2  264.97   28.10
 -23  23   2  246.88   27.00
  20 -23  -2  442.76   25.40
 -23   3  -2  413.86   22.20
   3  20  -2  489.75   29.20
 -20  23   2  449.95   26.40
  23  -3   2  495.85   31.60
  -3 -20   2  423.06   15.80
 -23   6  -2   41.00   15.90
 -23   6  -2   55.59   11.10
  17 -23  -2   48.60   10.30
   6  17  -2   43.50   13.10
 -17  23   2   33.30   10.20
 -17  23   2   35.60   11.00
  23  -6   2   23.60   13.00
  -6 -17   2   16.50    7.20
   9  14  -2  124.59   16.60
 -23   9  -2  113.19   14.90
 -23   9  -2   98.29   20.80
 -14  23   2  156.08   14.90
 -14  23   2  131.29   15.70
  -9 -14   2  136.29   14.80
  23  -9   2   99.29   16.30
 -23  12  -2  264.67   21.70
  12  11  -2  222.78   22.30
 -23  12  -2  255.47   26.80
  23 -12   2  224.38   23.10
 -11  23   2  241.58   14.50
 -11  23   2  236.78   16.30
 -12 -11   2  253.47   19.00
 -23  15  -2   46.00   12.80
 -23  15  -2   30.20   15.00
  23 -15   2   72.09   17.00
  -8  23   2   21.70    7.90
 -15  -8   2   13.00   12.00
  -8  23   2   12.10    6.80
 -23  18  -2  125.49   20.80
  18   5  -2  133.89   20.10
 -18  -5   2  152.88   19.50
  23 -18   2  140.19   20.30
  -5  23   2  107.79   12.60
  -5  23   2  133.39   12.60
 -23  21  -2  121.79   22.50
  -2  23   2  144.79   13.60
  23 -21   2  146.19   20.30
 -21  -2   2  147.89   22.60
  -2  23   2  136.99   16.00
 -23  24  -2   62.69   15.90
 -23  24  -2   84.09   22.40
   1  23   2   50.89   10.10
   1  23   2   51.49   10.40
  23 -24   2   61.29   18.40
 -24   1   2   49.99   20.70
 -23  27  -2   21.30   20.60
 -23  27  -2   39.90   19.00
  23 -27   2   19.20   18.10
   4  23   2   43.50   12.40
   4  23   2   72.99   14.10
 -27   4   2   31.50   23.70
 -23  30  -2   14.60   21.50
 -23  30  -2  -10.60   24.40
  30  -7  -2   50.69   22.80
   7  23   2   21.60   14.80
 -30   7   2   12.60   28.20
  -7  31  -2   79.39   30.60
  31 -24  -2   27.10   25.30
  -7  31  -2   90.79   24.10
 -31  24   2   35.70   18.30
  24   7   2   28.00   23.40
  -4  28  -2   66.19   20.00
  -4  28  -2   26.00   25.00
  28 -24  -2   71.89   20.80
  24   4   2   20.20   20.50
 -28  24   2   58.49   20.10
  -1  25  -2  109.49   20.00
  25 -24  -2   97.39   19.30
  -1  25  -2  127.29   26.30
 -24  -1  -2  127.79   16.50
 -24  -1  -2  113.69   12.30
 -25  24   2  103.19   19.20
 -25  24   2  139.89   22.70
  24   1   2   58.79   18.60
  22 -24  -2  118.19   17.60
 -24   2  -2   96.69   18.50
 -24   2  -2  101.99   13.10
   2  22  -2   79.29   28.90
 -22  24   2  114.09   18.50
 -22  24   2  107.39   15.80
  24  -2   2  148.09   22.60
   5  19  -2  455.65   29.20
  19 -24  -2  479.15   25.30
 -24   5  -2  453.75   34.50
 -24   5  -2  509.35   25.60
  -5 -19   2  450.15   15.90
 -19  24   2  442.16   25.60
 -19  24   2  435.06   25.50
 -24   8  -2  109.39   15.00
   8  16  -2   86.19   15.80
 -24   8  -2  126.89   19.80
  16 -24  -2  116.89   13.30
 -16  24   2  102.49   13.10
  -8 -16   2   99.19   10.40
 -16  24   2   80.09   13.20
 -24  11  -2  232.38   21.50
 -24  11  -2  235.88   27.90
  11  13  -2  265.17   23.60
 -11 -13   2  322.47   19.60
  24 -11   2  326.17   26.60
 -13  24   2  285.07   17.50
 -13  24   2  322.77   19.70
 -24  14  -2  277.07   22.70
 -24  14  -2  236.38   27.60
  24 -14   2  253.77   26.20
 -14 -10   2  219.38   21.00
 -10  24   2  226.78   15.20
 -10  24   2  252.57   16.70
  17   7  -2  109.09   17.10
 -24  17  -2   87.79   15.70
 -24  17  -2  128.89   21.30
  24 -17   2   81.39   18.10
 -17  -7   2  100.59   17.30
  -7  24   2  108.39   13.00
  -7  24   2  100.69   11.70
 -24  20  -2   18.20   16.80
  20   4  -2  -12.30   13.80
  -4  24   2   10.40    7.80
  24 -20   2   32.90   15.50
 -20  -4   2   11.80   15.60
  -4  24   2   10.10   11.20
 -24  23  -2   62.79   22.00
  -1  24   2   43.50   14.40
  -1  24   2   63.19   10.30
  24 -23   2   59.59   18.20
 -23  -1   2   63.29   23.80
  -1  24   2   51.99    9.90
 -24  26  -2   15.60   21.30
 -24  26  -2  -13.20   16.40
   2  24   2    3.20   10.90
  24 -26   2  -20.60   17.30
 -26   2   2   34.20   23.40
   2  24   2   28.50   11.60
 -24  29  -2   55.79   21.70
 -24  29  -2   70.79   24.70
  29  -5  -2   63.49   22.40
   5  24   2   29.90   14.50
   5  24   2   77.89   16.50
 -29   5   2   99.89   29.40
 -24  32  -2   57.49   22.90
   8  24   2   54.49   19.20
 -32   8   2   46.20   34.00
  -5  30  -2   54.69   29.50
  -5  30  -2  127.59   25.00
 -30  25   2   59.69   19.50
  25   5   2   28.60   21.50
 -25  -2  -2  216.58   21.60
  -2  27  -2  204.38   25.40
  27 -25  -2  203.48   24.70
  -2  27  -2  236.38   32.80
 -25  -2  -2  227.58   17.00
  25   2   2  203.38   29.60
 -27  25   2  271.17   35.40
 -27  25   2  191.38   23.10
  24 -25  -2   86.29   18.00
 -25   1  -2  111.19   13.90
   1  24  -2   81.89   18.80
 -25   1  -2   83.69   18.20
   1  24  -2   80.59   25.50
 -24  25   2   90.39   17.10
  25  -1   2  147.39   23.20
 -24  25   2   86.89   20.40
  21 -25  -2   33.90   12.50
 -25   4  -2   38.90   13.60
   4  21  -2    2.30   14.50
  25  -4   2    8.30   15.80
 -21  25   2   15.70   12.20
 -21  25   2    8.00   14.30
  18 -25  -2    6.20   10.10
 -25   7  -2   -2.70   15.90
 -25   7  -2   28.30   10.30
   7  18  -2    7.40   15.50
  -7 -18   2   18.00    6.70
 -18  25   2    9.50   11.10
 -18  25   2   26.20   11.90
  10  15  -2   44.30   15.70
 -25  10  -2   38.80   12.10
 -25  10  -2   46.70   18.40
 -15  25   2   41.70   11.00
 -10 -15   2   39.10    9.10
 -15  25   2   36.30   11.00
 -25  13  -2   64.79   19.80
 -25  13  -2   62.39   13.60
 -13 -12   2   65.49   12.70
 -12  25   2   76.09   11.20
  25 -13   2   83.99   17.20
 -12  25   2   72.79   11.40
  16   9  -2  219.28   23.80
 -25  16  -2  152.08   23.90
 -25  16  -2  181.48   22.20
  25 -16   2  227.18   27.20
 -16  -9   2  163.18   18.10
  -9  25   2  144.29   15.40
  -9  25   2  153.98   15.40
 -25  19  -2   90.49   20.70
  19   6  -2  114.59   20.00
 -19  -6   2   89.69   18.00
  25 -19   2  104.19   21.10
  -6  25   2  119.09   15.00
  -6  25   2  116.09   13.60
 -25  22  -2   58.29   22.40
  22   3  -2   83.79   18.60
 -22  -3   2   77.29   20.30
  25 -22   2   60.89   20.20
  -3  25   2  125.49   16.10
  -3  25   2  103.59   12.80
 -25  25  -2  213.68   30.20
 -25  25  -2  191.48   23.70
   0  25   2  240.88   18.70
 -25   0   2  284.67   37.50
   0  25   2  209.68   19.70
   0  25   2  283.67   29.00
  28  -3  -2  105.19   24.20
 -25  28  -2  111.49   28.30
 -25  28  -2  125.09   25.30
   3  25   2  135.89   17.40
   3  25   2  125.79   16.50
 -28   3   2  123.59   28.70
 -25  31  -2   48.10   21.20
  31  -6  -2   78.19   42.00
 -25  31  -2   75.59   31.10
  25 -31   2   38.80   24.80
 -31   6   2   42.40   18.10
   6  25   2   36.00   17.40
 -31   6   2   62.39   30.90
  -3  29  -2  263.67   29.40
  -3  29  -2  318.17   38.10
  29 -26  -2  261.87   35.50
 -26  -3  -2  318.77   15.30
 -26  -3  -2  302.17   17.90
 -29  26   2  290.97   33.40
  26   3   2  195.88   28.70
   0  26  -2  531.05   46.80
  26 -26  -2  513.05   36.40
 -26   0  -2  513.65   24.40
   0  26  -2  503.95   36.70
 -26   0  -2  449.46   30.50
  26   0   2  524.45   41.30
 -26  26   2  494.15   34.00
 -26   3  -2  401.16   32.90
   3  23  -2  401.96   33.30
  23 -26  -2  381.66   28.10
 -26   3  -2  420.66   37.30
 -23  26   2  402.76   32.00
  26  -3   2  353.26   35.00
 -23  26   2  446.36   29.40
 -26   6  -2  448.76   35.50
 -26   6  -2  376.26   24.70
  20 -26  -2  369.36   25.10
   6  20  -2  316.67   29.70
 -20  26   2  366.46   27.40
 -20  26   2  388.26   26.80
   9  17  -2  356.56   28.40
  17 -26  -2  289.97   20.20
 -26   9  -2  313.97   33.20
 -26   9  -2  313.87   23.60
 -17  26   2  281.67   22.80
  -9 -17   2  254.47   14.00
 -17  26   2  295.77   22.00
 -26  12  -2  -17.50   10.80
 -26  12  -2    9.10   17.60
  12  14  -2  -14.30   13.20
 -14  26   2   13.30   10.40
 -14  26   2   -1.70    9.70
 -12 -14   2    8.90    8.90
 -26  15  -2   64.89   20.40
 -26  15  -2    4.30   11.40
 -11  26   2   75.29   11.20
 -11  26   2   84.19   12.70
 -15 -11   2   86.49   13.90
  18   8  -2  183.88   24.60
 -26  18  -2  189.98   26.20
  -8  26   2  121.39   15.70
 -18  -8   2  101.89   17.80
  -8  26   2  154.68   16.60
  21   5  -2   16.00   14.00
 -26  21  -2   29.80   21.20
  -5  26   2   29.30   10.50
  -5  26   2   26.00   12.60
  26 -21   2   12.70   16.60
 -21  -5   2   42.50   17.70
 -26  24  -2    8.30   22.80
  24   2  -2  -14.00   18.20
  -2  26   2   22.60    9.30
  -2  26   2   54.19   15.70
  -2  26   2   18.60   11.00
 -24  -2   2   55.99   25.80
 -26  27  -2   85.39   21.70
 -26  27  -2   58.69   25.50
  27  -1  -2   46.10   20.20
   1  26   2   62.19   13.50
 -27   1   2   42.00   25.90
   1  26   2  105.69   23.00
   1  26   2   78.89   14.50
 -26  30  -2   24.10   29.20
 -26  30  -2  -25.30   19.20
  30  -4  -2   59.69   25.30
   4  26   2  -11.50   16.30
  26 -30   2  -13.80   23.00
 -30   4   2   45.30   29.80
   4  26   2   35.20   16.20
  28 -27  -2   60.09   22.00
  -1  28  -2   65.79   30.10
  -1  28  -2   17.90   22.00
 -27  -1  -2   55.19   12.20
 -27  -1  -2   43.80   15.60
  27   1   2   60.89   24.40
 -28  27   2   51.09   18.70
 -27   2  -2  178.38   22.50
 -27   2  -2  208.58   22.50
   2  25  -2  182.38   31.10
   2  25  -2  147.49   23.10
  27  -2   2  153.48   26.40
 -25  27   2  197.68   25.70
 -25  27   2  219.58   28.30
  22 -27  -2  324.97   26.10
 -27   5  -2  278.37   23.20
   5  22  -2  297.87   31.00
 -22  27   2  264.27   26.40
 -22  27   2  264.07   28.50
  27  -5   2  249.88   31.50
 -27   8  -2  113.39   15.50
  19 -27  -2  105.89   15.00
 -27   8  -2   80.69   21.80
   8  19  -2  106.49   18.70
 -19  27   2   94.89   16.20
 -19  27   2   70.59   15.10
  11  16  -2  127.39   19.70
 -27  11  -2   96.19   16.40
 -27  11  -2  103.59   22.50
 -16  27   2  106.49   15.90
 -16  27   2  102.89   14.20
 -11 -16   2  105.89   10.50
 -27  14  -2   -2.00   16.60
 -27  14  -2   -1.30   12.10
 -13  27   2   10.60   10.00
 -13  27   2   22.60   11.10
 -14 -13   2   18.90   10.30
  17  10  -2   87.19   18.70
 -27  17  -2  126.19   23.90
 -10  27   2  152.58   16.00
 -10  27   2  164.68   18.50
 -17 -10   2  133.09   17.70
  20   7  -2   25.50   16.60
 -27  20  -2   27.90   21.00
 -20  -7   2   56.09   17.10
  -7  27   2   38.00   12.00
  -7  27   2   59.09   12.50
  23   4  -2   56.69   21.40
 -27  23  -2   66.59   25.00
  -4  27   2   51.79   15.60
 -23  -4   2   55.49   20.80
  -4  27   2   39.90   12.20
 -27  26  -2   19.10   25.90
 -27  26  -2   41.40   19.80
  26   1  -2   38.20   21.80
 -26  -1   2   66.49   24.20
  -1  27   2   37.50   11.20
  27 -26   2   35.90   23.80
  -1  27   2   38.50   19.00
  -1  27   2   40.80   14.20
 -27  29  -2   24.20   19.40
  29  -2  -2  -34.00   20.10
 -27  29  -2   37.80   28.20
  27 -29   2    2.10   25.00
   2  27   2    4.80   23.40
   2  27   2   18.00   14.00
   2  27   2    3.60   15.50
 -29   2   2   19.30   28.30
  27 -28  -2   55.59   20.60
   1  27  -2   84.29   23.70
 -28   1  -2   40.70   18.80
 -28   1  -2   45.90   14.10
   1  27  -2   39.30   31.70
 -27  28   2   55.69   20.20
 -27  28   2   82.49   25.60
  28  -1   2   51.29   24.20
  24 -28  -2   78.49   17.70
   4  24  -2   48.80   19.20
 -28   4  -2   37.70   20.90
 -28   4  -2   67.39   14.00
 -24  28   2   90.19   19.40
 -24  28   2  104.49   21.60
  28  -4   2   46.50   22.10
  21 -28  -2   26.50   13.30
   7  21  -2   31.60   17.30
 -28   7  -2   40.10   13.20
 -21  28   2   43.90   16.80
 -21  28   2   39.90   15.80
  28  -7   2   23.60   20.20
 -28  10  -2   85.49   25.60
 -28  10  -2   21.50   12.20
  10  18  -2   35.40   16.70
 -18  28   2   62.29   14.80
 -18  28   2   66.19   15.50
  13  15  -2   23.10   16.00
 -28  13  -2    4.20   18.20
 -15  28   2   33.00   12.60
  28 -13   2   25.00   26.00
 -15  28   2   50.19   12.40
 -13 -15   2   17.80    8.60
 -28  16  -2   -2.00   21.80
  16  12  -2  -35.30   13.60
 -16 -12   2   12.20   11.60
 -12  28   2   18.30   10.30
  28 -16   2  -35.30   19.00
 -12  28   2   10.50   11.40
 -28  19  -2   96.49   17.90
 -28  19  -2   52.89   22.70
  19   9  -2   73.99   19.30
  28 -19   2   24.60   25.10
  -9  28   2   63.09   12.60
  -9  28   2   91.89   14.70
 -19  -9   2   61.49   16.00
  22   6  -2   77.49   21.90
 -28  22  -2   32.80   26.10
 -28  22  -2   85.19   27.60
 -22  -6   2   40.70   19.90
  -6  28   2   90.49   15.20
  28 -22   2   47.90   23.00
  -6  28   2   73.49   14.60
 -28  25  -2  120.59   22.90
 -28  25  -2  101.19   28.40
  25   3  -2  106.29   25.70
 -25  -3   2  132.89   25.60
  -3  28   2  114.59   13.40
  28 -25   2  154.38   26.80
  -3  28   2  125.49   16.80
  -3  28   2  114.09   19.50
 -28  28  -2   10.90   27.30
 -28  28  -2   34.00   19.00
  28   0  -2   62.39   21.10
   0  28   2   39.30   21.80
  28 -28   2   18.00   24.10
 -28   0   2   48.30   26.10
   0  28   2   36.50   16.40
   0  28   2   14.20   12.70
 -29   3  -2  353.36   26.50
 -29   3  -2  344.77   35.80
   3  26  -2  315.07   39.60
  26 -29  -2  374.06   34.20
 -26  29   2  391.06   40.50
 -26  29   2  306.57   34.80
  29  -3   2  267.37   34.30
 -29   6  -2  464.75   29.20
  23 -29  -2  434.36   30.30
   6  23  -2  425.96   37.30
 -23  29   2  425.06   34.10
 -23  29   2  367.66   32.90
  29  -6   2  349.17   38.80
 -29   9  -2  263.27   36.50
   9  20  -2  186.08   24.80
 -20  29   2  155.78   20.00
 -20  29   2  209.28   26.30
 -29  12  -2  136.99   25.90
  12  17  -2  173.48   24.10
 -17  29   2  190.78   22.20
 -17  29   2  187.38   24.00
 -29  15  -2   13.10   16.00
 -29  15  -2    6.40   21.10
 -14  29   2   17.80   12.30
 -14  29   2   14.50   11.90
 -15 -14   2   -1.90    9.00
  29 -15   2   -8.50   19.00
 -29  18  -2   35.40   15.90
 -29  18  -2   38.90   22.30
  18  11  -2   39.40   18.70
 -18 -11   2   47.40   13.90
  29 -18   2   87.39   21.80
 -11  29   2   43.50   14.40
 -11  29   2   36.00   11.70
 -29  21  -2   41.90   17.50
 -29  21  -2  120.19   30.00
  21   8  -2   94.69   21.60
  -8  29   2   56.39   14.70
 -21  -8   2  107.79   18.80
  -8  29   2   86.79   14.20
  29 -21   2  125.69   26.60
 -29  24  -2   53.99   19.60
 -29  24  -2   75.79   28.40
  24   5  -2   36.40   22.10
  29 -24   2   73.79   23.60
 -24  -5   2   40.00   21.10
  -5  29   2   61.09   16.60
  -5  29   2   32.00   15.00
 -29  27  -2   23.70   20.50
  27   2  -2  -25.50   19.80
 -29  27  -2  -11.30   26.20
 -27  -2   2   12.70   23.90
  -2  29   2   27.60   16.90
  -2  29   2   29.10   12.70
  -2  29   2   -5.40   18.10
  29 -27   2    2.60   24.10
 -30   5  -2   70.29   24.70
 -30   5  -2   93.09   17.30
  25 -30  -2   74.79   23.50
   5  25  -2  136.59   27.00
 -25  30   2   95.79   24.10
 -25  30   2   62.99   20.60
  30  -5   2   33.00   20.90
  22 -30  -2   98.19   17.50
   8  22  -2   96.19   22.70
 -22  30   2   79.29   19.70
 -22  30   2  104.89   20.60
  30  -8   2  109.19   25.80
  11  19  -2   52.79   20.70
 -30  11  -2   24.40   24.90
 -19  30   2   21.30   15.20
 -19  30   2    1.70   15.00
  30 -11   2    2.10   19.90
 -30  14  -2    6.40   22.80
 -30  14  -2   57.69   16.90
 -16  30   2   24.70   14.90
 -16  30   2   36.10   13.30
  30 -14   2   22.40   18.70
 -14 -16   2   29.70    7.00
 -30  17  -2   -0.80   23.10
 -30  17  -2   33.00   18.80
  17  13  -2    2.10   17.90
  30 -17   2    5.90   21.60
 -13  30   2   18.50   14.50
 -13  30   2   26.60   12.10
 -17 -13   2   32.50   11.60
 -30  20  -2   52.99   18.60
  20  10  -2   32.60   19.80
 -30  20  -2   58.29   26.40
 -20 -10   2   37.30   15.50
 -10  30   2   59.89   12.90
 -10  30   2   79.29   16.30
 -30  23  -2   73.39   30.20
 -30  23  -2   27.80   18.90
  23   7  -2   23.80   21.50
  -7  30   2   50.59   15.00
  -7  30   2   53.59   16.40
  30 -23   2    4.00   23.60
 -23  -7   2   65.29   20.00
 -30  26  -2    4.60   22.80
 -30  26  -2   20.40   29.00
  26   4  -2  -25.60   21.00
 -26  -4   2   10.70   13.10
  -4  30   2   14.90   10.60
  -4  30   2   12.60   17.30
 -26  -4   2    6.90   23.00
  -4  30   2   -1.10   16.40
  30 -26   2   23.10   23.50
   7  24  -2   43.90   24.00
  24 -31  -2   15.10   17.70
 -24  31   2   12.80   20.70
 -24  31   2   31.70   20.50
  31  -7   2  -29.30   23.00
  10  21  -2  120.99   25.40
 -31  10  -2   86.99   22.10
 -21  31   2  106.99   21.20
  31 -10   2   86.39   24.50
 -21  31   2  112.39   20.60
 -31  13  -2  124.49   20.20
  13  18  -2  103.19   24.30
 -31  13  -2  142.29   30.70
 -18  31   2  160.88   18.70
 -18  31   2  138.79   19.90
  31 -13   2   95.49   24.80
  16  15  -2  155.68   25.30
 -31  16  -2  162.28   22.90
 -31  16  -2  182.98   29.90
 -15  31   2  189.78   22.30
 -15  31   2  190.38   21.50
 -16 -15   2  186.18   13.20
  31 -16   2  287.37   39.50
 -16 -15   2  164.48   11.30
 -31  19  -2   63.09   18.90
 -31  19  -2   51.69   26.50
  19  12  -2  137.49   25.50
 -19 -12   2  105.09   14.70
  31 -19   2  130.89   28.00
 -12  31   2  113.49   14.60
 -12  31   2  102.49   18.20
 -31  22  -2    1.60   19.70
  22   9  -2   24.60   21.70
 -31  22  -2   48.90   30.50
  31 -22   2  -58.19   23.60
 -22  -9   2   -7.80   15.40
  -9  31   2   -6.40   12.20
 -22  -9   2   -2.10   10.60
  25   6  -2   18.60   24.00
 -31  25  -2   15.40   31.20
 -25  -6   2    3.50   12.70
 -25  -6   2    2.80   20.90
  31 -25   2   54.09   26.10
  -6  31   2    0.90    9.00
  -6  31   2   22.50   17.30
  -6  31   2    7.70   14.40
   9  23  -2   78.39   26.70
 -32   9  -2  113.99   20.80
 -23  32   2  129.39   23.80
 -23  32   2  131.89   23.50
 -32  12  -2  142.19   32.20
  12  20  -2  172.08   27.90
 -32  12  -2  113.09   20.20
 -20  32   2  158.08   22.70
  32 -12   2  133.39   24.20
 -20  32   2  141.49   20.50
  15  17  -2   33.90   20.20
 -32  15  -2   26.00   27.70
 -32  15  -2   50.89   19.10
 -17  32   2   26.20   18.30
  32 -15   2   17.00   23.50
 -17  32   2   58.19   15.20
 -32  18  -2   74.49   21.20
  18  14  -2  -24.40   19.90
 -32  18  -2   27.40   27.90
 -18 -14   2   25.60    7.20
 -14  32   2   36.20   18.50
 -18 -14   2   23.80    9.10
 -14  32   2   11.70   12.70
  32 -18   2  -10.10   26.00
 -32  21  -2   19.60   32.30
  21  11  -2   41.70   23.00
 -32  21  -2   -6.60   18.70
  32 -21   2   33.80   26.30
 -11  32   2   51.49   11.80
 -21 -11   2   62.89   14.90
 -11  32   2   58.09   18.80
 -21 -11   2   42.00   11.20
 -24  -8   2   44.70   18.30
  -8  32   2   22.30   19.10
 -24  -8   2   16.40   15.00
 -33  14  -2   60.49   20.70
  14  19  -2   12.70   22.10
 -33  14  -2   28.40   27.50
 -19  33   2   20.80   15.20
 -19  33   2   28.00   20.10
  17  16  -2   11.90   23.30
 -33  17  -2   16.60   21.30
 -33  17  -2    7.90   27.70
 -16  33   2   48.10   20.30
 -16  33   2   49.00   12.30
  33 -17   2   32.00   31.50
 -33  20  -2   70.29   33.80
  20  13  -2    3.50   22.60
 -13  33   2   58.19   19.90
 -20 -13   2   51.99   11.00
 -13  33   2   38.60   10.80
 -20 -13   2   74.39    8.60
  33 -20   2  -36.80   24.20
   0   0  -3  139.59    8.40
   0   0  -3  133.79    9.20
   0   0   3  142.59    9.10
  -1   2  -3 3742.43   78.19
  -1   2  -3 3866.71   76.89
  -1  -1  -3 3819.92   73.39
  -1  -1  -3 3862.51   75.99
   1   1   3 3704.03   80.69
  -2   1   3 3911.41   77.19
   1  -2   3 3958.70   77.69
   1   1   3 3826.32   75.19
  -2   1  -3 4170.68   81.89
   1  -2  -3 4182.48   81.79
   1   1  -3 4161.88   83.29
  -2   1  -3 4242.28   84.19
   2  -1   3 4123.79   82.89
   2  -1   3 4049.29   80.89
  -1  -1   3 4146.98   82.49
  -1   2   3 4110.19   80.09
  -2  -2  -3 2466.35   51.69
  -2   4  -3 2508.45   56.29
  -2   4  -3 2505.75   54.39
   2   2   3 2660.13   53.19
   2  -4   3 2706.23   57.69
  -4   2   3 2664.93   57.29
  -3   0  -3   16.10    3.80
   0   3  -3   16.00    6.10
   0   3  -3   12.40    5.30
  -3   0  -3   13.60    4.60
   0  -3   3   19.30    6.00
   3   0   3   17.30    4.30
   3   0   3   24.40    5.20
   3   0  -3   39.20    5.70
  -3   3  -3   38.50    5.60
  -3   3  -3   51.89    7.60
   0  -3  -3   43.80    5.20
   0   3   3   49.00    6.00
   0   3   3   37.50    5.20
  -3   0   3   49.30    7.40
   3  -3   3   39.00    6.00
   3  -3   3   36.10    6.00
  -3  -3  -3  219.68   10.20
  -3   6  -3  202.38   13.80
  -3   6  -3  210.68   11.80
   3  -6   3  210.38   12.30
   3   3   3  191.18    8.10
   3   3   3  207.58   10.20
  -4  -1  -3 1298.87   31.80
  -1   5  -3 1317.07   34.00
  -1   5  -3 1313.97   35.80
  -4  -1  -3 1318.97   27.80
   1  -5   3 1300.77   34.00
   4   1   3 1380.76   33.10
   4   1   3 1307.07   30.00
  -4   2  -3 3062.39   65.09
   2  -4  -3 3032.40   60.29
   2   2  -3 3114.19   65.09
  -4   2  -3 3087.39   62.69
   4  -2   3 3233.68   66.19
  -2  -2   3 3281.87   68.69
  -4   5  -3 3802.62   78.49
  -1  -4  -3 3738.23   73.69
  -4   5  -3 3991.90   81.69
   1   4   3 3924.41   74.39
   1   4   3 4002.00   76.99
  -5   1   3 3950.40   81.99
   4  -5   3 4024.50   84.09
   4  -5   3 4005.90   80.69
  -4   8  -3 1984.40   50.49
  -4  -4  -3 1981.20   43.40
  -4   8  -3 2026.80   47.90
   4   4   3 2010.10   39.90
   4  -8   3 2049.29   47.40
   4   4   3 2047.40   44.90
  -5  -2  -3 2972.50   62.39
  -2   7  -3 2974.90   65.39
  -2   7  -3 3050.79   68.29
   2  -7   3 3053.89   64.79
   5   2   3 2979.10   58.89
   5   2   3 2939.91   62.99
  -5   1  -3 1302.47   30.40
  -5   1  -3 1338.27   33.60
   1   4  -3 1332.47   34.40
   5  -1   3 1452.55   33.00
   5  -1   3 1390.36   35.60
  -1  -4   3 1406.16   36.00
   1  -5  -3 3424.06   66.89
   4   1  -3 3575.64   73.89
  -5   4  -3 3552.34   72.49
  -5   4  -3 3559.04   74.99
   5  -4   3 3701.93   75.29
   5  -4   3 3749.12   78.79
  -4  -1   3 3678.43   77.49
  -5   7  -3 3737.93   78.49
  -2  -5  -3 3661.83   72.39
  -5   7  -3 3882.31   81.79
  -7   2   3 4005.60   82.29
   5  -7   3 3806.32   79.89
   2   5   3 3850.91   75.79
   5  -7   3 3942.81   84.29
  -5  10  -3 1327.37   39.20
  -5  10  -3 1293.37   36.00
  -5  -5  -3 1283.97   31.90
   5 -10   3 1321.27   34.70
   5   5   3 1281.87   32.30
   5   5   3 1251.77   26.50
  -3   9  -3  700.93   27.10
  -3   9  -3  751.62   24.90
  -6  -3  -3  709.43   22.10
   6   3   3  745.83   23.20
   6   3   3  756.12   19.10
   3  -9   3  753.62   24.50
   0   6  -3   50.69    7.70
  -6   0  -3   60.29    8.40
  -6   0  -3   59.09    5.80
   6   0   3   63.89    7.20
   6   0   3   51.99    7.10
   0  -6   3   55.89    8.40
   3   3  -3  211.38   12.50
  -6   3  -3  193.78   10.40
   3  -6  -3  209.08    7.90
  -6   3  -3  210.08   13.00
   6  -3   3  212.38   11.10
  -3  -3   3  207.48   13.20
   6  -3   3  218.28   13.00
   0  -6  -3   54.89    5.00
  -6   6  -3   66.19    8.00
  -6   6  -3   62.79    9.30
  -6   0   3   52.39    8.00
   6  -6   3   57.69    9.10
   0   6   3   58.69    4.90
   6  -6   3   52.09    7.30
  -6   9  -3  105.59   10.60
  -3  -6  -3   86.99    7.70
  -6   9  -3  102.49   13.40
   3   6   3  102.49    9.40
   6  -9   3  118.39   12.50
   6  -9   3   88.59   10.60
  -6  12  -3   52.49    8.60
  12  -6  -3   72.89   10.20
  -6  -6  -3   62.29    8.10
  -6  12  -3   61.69   10.60
   6 -12   3   35.90    7.40
   6   6   3   45.10    4.70
   6   6   3   50.69    7.30
  -4  11  -3  261.77   18.60
  -4  11  -3  249.18   15.30
  -7  -4  -3  265.37   14.20
  11  -7  -3  263.57   13.90
   7   4   3  201.08    9.30
   7   4   3  199.88   12.50
   4 -11   3  204.08   13.80
  -7  -1  -3  694.03   22.50
  -7  -1  -3  698.03   17.00
  -1   8  -3  690.53   26.70
  -1   8  -3  692.83   23.90
   7   1   3  815.12   21.20
   7   1   3  818.62   25.20
   1  -8   3  751.12   25.00
  -7   2  -3 2923.71   60.89
   2   5  -3 3008.50   65.69
  -7   2  -3 2994.30   64.79
  -2  -5   3 3006.50   66.39
   7  -2   3 3062.69   67.19
   7  -2   3 3103.79   62.99
   5   2  -3 3222.38   69.99
  -7   5  -3 3324.47   71.29
   2  -7  -3 3168.18   59.59
  -7   5  -3 3232.18   67.99
   7  -5   3 3353.36   74.29
  -5  -2   3 3423.36   73.39
   7  -5   3 3408.66   70.19
  -7   8  -3 1765.22   43.10
  -7   8  -3 1734.33   45.80
  -1  -7  -3 1736.63   35.60
   7  -8   3 1855.01   48.50
   7  -8   3 1820.62   44.20
   1   7   3 1912.61   38.70
  -8   1   3 1906.41   47.30
  -7  11  -3  525.15   21.60
  -4  -7  -3  553.44   17.50
  -7  11  -3  532.45   24.70
   4   7   3  573.64   18.40
   7 -11   3  579.14   21.60
   7 -11   3  573.94   24.50
  -7  14  -3 1580.54   47.10
  -7  14  -3 1574.94   43.60
  14  -7  -3 1588.04   42.70
   7   7   3 1558.34   39.40
   7 -14   3 1522.15   40.10
   7   7   3 1492.15   31.50
  13  -8  -3  937.81   28.80
  -8  -5  -3  918.31   28.60
  -5  13  -3  970.50   34.30
  -5  13  -3  984.00   31.50
   5 -13   3  883.31   28.10
   8   5   3  903.81   28.10
   8   5   3  921.11   22.30
  -2  10  -3  762.52   29.20
  10  -8  -3  803.32   23.20
  -2  10  -3  828.32   27.10
  -8  -2  -3  820.62   25.80
   8   2   3  725.83   24.30
   8   2   3  711.33   19.60
   2 -10   3  710.13   24.20
   7  -8  -3  666.33   17.30
   1   7  -3  664.83   23.50
  -8   1  -3  644.34   18.70
  -8   1  -3  651.13   22.70
   8  -1   3  773.12   25.30
  -1  -7   3  763.72   25.20
   8  -1   3  750.22   21.50
  -8   4  -3 1848.02   42.70
   4   4  -3 1898.41   46.00
   4  -8  -3 1851.01   35.50
  -8   4  -3 1840.52   45.90
   8  -4   3 1974.60   48.90
   8  -4   3 1941.71   44.60
  -4  -4   3 2019.30   48.30
  -8   7  -3 1554.14   38.90
  -8   7  -3 1557.64   41.90
   1  -8  -3 1527.45   29.60
   8  -7   3 1639.64   40.70
  -7  -1   3 1650.33   43.60
   8  -7   3 1615.54   44.60
  -1   8   3 1855.21   36.70
  -8  10  -3  828.22   27.00
  -8  10  -3  789.42   29.40
   8 -10   3  859.61   31.00
 -10   2   3  931.01   30.60
   2   8   3  872.81   22.00
   8 -10   3  902.01   27.60
  -8  13  -3  272.57   19.40
  -8  13  -3  259.77   16.20
  13  -5  -3  260.17   15.50
   5   8   3  267.37   13.40
   8 -13   3  249.58   18.00
   8 -13   3  257.57   15.60
  -8  16  -3   -0.70    9.70
  -8  16  -3    5.10    7.10
  16  -8  -3   -8.40    5.90
   8   8   3    8.00    5.70
   8   8   3   -0.60    3.90
   8 -16   3    5.30    6.80
  -6  15  -3  211.88   19.70
  -9  -6  -3  193.18   14.80
  -6  15  -3  201.58   15.80
  15  -9  -3  183.98   14.50
   6 -15   3  228.58   15.20
   9   6   3  225.18   10.90
   9   6   3  250.97   15.30
  12  -9  -3  288.57   14.30
  -9  -3  -3  260.17   15.70
  -3  12  -3  285.97   16.80
  -3  12  -3  274.17   19.20
   3 -12   3  304.27   16.20
   9   3   3  288.27   16.10
   9   3   3  311.37   12.50
  -9   0  -3   15.50    4.20
  -9   0  -3   11.20    6.70
   9  -9  -3   24.70    4.80
   0   9  -3   19.00    6.40
   9   0   3   19.60    5.30
   9   0   3   16.40    6.10
   0  -9   3   17.00    6.40
  -9   3  -3  517.25   21.00
   6  -9  -3  494.05   12.50
  -9   3  -3  491.35   17.20
   3   6  -3  505.45   20.80
   9  -3   3  517.45   18.30
  -3  -6   3  520.85   21.10
   9  -3   3  533.65   21.40
   6   3  -3   52.19    8.30
  -9   6  -3   58.79    9.70
  -9   6  -3   59.39    7.90
   9  -6   3   45.60    7.00
   9  -6   3   64.79    9.70
  -6  -3   3   68.19   10.30
  -9   9  -3   12.00    8.40
  -9   9  -3    1.90    5.00
   0   9   3    0.40    2.50
  -9   0   3    5.90    6.90
   9  -9   3    0.10    5.80
   9  -9   3    1.60    5.80
  -9  12  -3    4.00    7.80
  -9  12  -3   10.40    6.00
   9 -12   3   15.80    7.50
   9 -12   3    2.90    5.90
   3   9   3    0.90    3.70
  -9  15  -3  373.26   23.40
  15  -6  -3  397.56   19.80
  -9  15  -3  363.46   19.70
   9 -15   3  378.86   21.70
   9 -15   3  378.06   18.90
   6   9   3  395.06   16.80
   6   9   3  379.06   10.00
  -9  18  -3  403.36   26.50
  -9  18  -3  415.36   22.40
  18  -9  -3  374.96   21.40
   9   9   3  376.66   19.50
   9 -18   3  402.56   20.30
  -7  17  -3  137.89   19.20
  17 -10  -3  109.89   13.40
  -7  17  -3  120.99   14.60
  10   7   3  106.09   12.60
   7 -17   3  101.89   13.10
  -4  14  -3  736.13   30.60
  -4  14  -3  679.93   26.30
 -10  -4  -3  691.73   25.80
  14 -10  -3  692.93   24.00
   4 -14   3  712.43   25.10
  10   4   3  711.73   26.10
  10   4   3  738.13   20.80
 -10  -1  -3  535.95   22.10
  -1  11  -3  526.15   22.00
 -10  -1  -3  543.65   21.00
  11 -10  -3  495.55   17.50
  10   1   3  517.15   21.70
  10   1   3  537.35   17.70
   1 -11   3  539.75   20.90
 -10   2  -3  906.91   29.10
   8 -10  -3  919.61   21.80
   2   8  -3  947.11   29.80
 -10   2  -3  894.21   24.80
  10  -2   3  779.32   27.50
  -2  -8   3  852.01   27.30
  10  -2   3  819.72   23.80
   5   5  -3 1045.00   32.20
 -10   5  -3 1072.09   32.90
 -10   5  -3 1099.79   29.80
  -5  -5   3 1122.39   33.60
  10  -5   3 1120.49   34.60
  10  -5   3 1136.39   30.60
 -10   8  -3  908.51   27.70
 -10   8  -3  853.11   30.10
  -8  -2   3  904.91   30.10
  10  -8   3  853.51   26.70
  10  -8   3  861.41   30.40
 -10  11  -3  505.65   24.20
 -10  11  -3  527.15   21.70
 -11   1   3  587.74   25.00
  10 -11   3  567.04   21.60
  10 -11   3  540.45   24.40
   1  10   3  555.94   15.30
  14  -4  -3  594.34   24.40
 -10  14  -3  620.94   24.90
 -10  14  -3  569.34   26.60
   4  10   3  508.45   17.80
  10 -14   3  543.65   22.10
  10 -14   3  545.75   25.40
 -10  17  -3  159.98   15.70
 -10  17  -3  135.99   17.30
  17  -7  -3  178.28   15.90
   7  10   3  156.78   12.80
   7  10   3  160.38    8.10
  10 -17   3  164.38   15.10
  10 -17   3  160.08   17.50
 -10  20  -3   79.29   13.80
  20 -10  -3   78.19   12.90
 -10  20  -3   60.29   16.40
  10  10   3   59.49   11.10
  10 -20   3   80.09   12.80
  19 -11  -3  326.67   20.20
  -8  19  -3  328.07   26.30
  -8  19  -3  313.07   20.90
  11   8   3  322.77   19.90
   8 -19   3  335.57   19.30
  16 -11  -3   41.80    8.50
 -11  -5  -3   41.90   10.10
  -5  16  -3   30.40   11.70
  -5  16  -3   49.60   10.30
   5 -16   3   65.79    9.80
  11   5   3   49.99    9.50
  -2  13  -3  144.69   14.00
 -11  -2  -3  128.19   13.60
 -11  -2  -3  117.89    6.10
 -11  -2  -3  103.59    7.10
  -2  13  -3  133.29   16.30
  13 -11  -3  124.09   10.40
  11   2   3  111.69   10.20
   2 -13   3  100.59   12.20
  11   2   3  114.09   12.50
 -11   1  -3  491.55   21.80
  10 -11  -3  517.35   16.30
 -11   1  -3  517.15   17.00
   1  10  -3  524.35   22.20
  11  -1   3  525.35   18.60
  -1 -10   3  530.35   21.30
  11  -1   3  546.25   22.90
   7 -11  -3  241.08    7.80
 -11   4  -3  232.68   12.90
   4   7  -3  246.18   15.60
 -11   4  -3  254.27   16.60
  -4  -7   3  204.58   15.00
  11  -4   3  205.78   12.90
  11  -4   3  223.68   15.60
 -11   7  -3  410.16   20.80
   7   4  -3  401.76   19.40
 -11   7  -3  405.56   17.60
  11  -7   3  405.36   20.80
  11  -7   3  449.56   18.40
  -7  -4   3  421.36   20.50
 -11  10  -3  622.84   26.60
 -11  10  -3  638.94   23.90
  11 -10   3  646.34   26.70
  11 -10   3  644.24   23.20
 -10  -1   3  637.44   26.20
 -11  13  -3   60.69    9.40
 -11  13  -3   90.99   13.80
  11 -13   3   52.99   10.90
   2  11   3   53.29    7.60
 -13   2   3   52.19   11.00
  11 -13   3   31.90    8.20
 -11  16  -3  139.29   19.10
 -11  16  -3  141.79   15.10
  16  -5  -3  120.89   13.80
   5  11   3  139.19   11.10
  11 -16   3  151.58   16.40
  11 -16   3  133.99   14.00
 -11  19  -3  268.47   24.50
  19  -8  -3  317.57   20.60
 -11  19  -3  294.37   20.60
  11 -19   3  277.97   18.60
   8  11   3  248.28   16.80
 -11  22  -3  445.76   27.00
 -11  22  -3  393.46   31.70
  11 -22   3  452.25   24.10
  11  11   3  432.56   24.40
  -9  21  -3  497.05   32.20
  -9  21  -3  401.16   39.80
  21 -12  -3  503.45   26.20
  12   9   3  459.25   24.90
   9 -21   3  505.25   23.90
  -6  18  -3  672.03   32.20
  -6  18  -3  609.34   27.60
  18 -12  -3  622.34   26.00
  12   6   3  639.34   26.60
   6 -18   3  609.44   24.30
  -3  15  -3  324.37   19.50
  15 -12  -3  305.17   16.20
  -3  15  -3  324.27   23.00
 -12  -3  -3  303.07   18.90
  12   3   3  301.47   18.90
   3 -15   3  320.97   17.30
  12   3   3  319.37   14.90
   0  12  -3   30.20    7.30
 -12   0  -3   31.50    8.90
 -12   0  -3   28.30    5.20
  12 -12  -3   33.00    6.10
  12   0   3   31.30    8.50
  12   0   3   17.80    6.50
   0 -12   3   33.30    8.20
   3   9  -3  437.16   20.50
 -12   3  -3  412.76   16.50
   9 -12  -3  410.36   13.00
 -12   3  -3  442.06   21.30
  12  -3   3  457.15   22.00
  12  -3   3  479.85   18.70
  -3  -9   3  486.65   20.70
 -12   6  -3   89.89   12.20
 -12   6  -3  104.29   10.50
   6   6  -3   92.49   11.50
  12  -6   3  108.89   11.10
  12  -6   3   98.49   12.60
  -6  -6   3  111.59   13.20
 -12   9  -3   44.90   10.50
  12  -9   3   75.49   12.20
  -9  -3   3   71.89   11.80
  12  -9   3   50.29    8.60
 -12  12  -3   -0.40    6.30
 -12  12  -3   16.80    9.40
  12 -12   3   15.50    7.70
   0  12   3    6.60    2.90
  12 -12   3   17.20    7.50
 -12   0   3    2.30    7.90
  15  -3  -3   96.19   13.10
 -12  15  -3  125.79   14.40
 -12  15  -3  101.59   14.40
  12 -15   3  101.59   12.60
  12 -15   3  120.29   16.00
   3  12   3   81.09    8.50
 -12  18  -3  583.14   30.10
  18  -6  -3  609.94   27.40
 -12  18  -3  589.24   27.00
   6  12   3  511.95   14.00
  12 -18   3  528.25   23.70
   6  12   3  549.85   21.40
  12 -18   3  569.84   28.50
 -12  21  -3  399.06   30.20
  21  -9  -3  375.76   27.80
 -12  21  -3  428.86   25.60
   9  12   3  384.76   21.30
  12 -21   3  415.06   22.90
  24 -12  -3  307.17   25.20
 -12  24  -3  259.37   30.20
 -12  24  -3  236.08   24.10
  12  12   3  251.97   22.40
 -10  23  -3   96.59   21.20
  23 -13  -3  100.89   16.70
 -10  23  -3  119.99   16.50
  13  10   3  100.39   15.40
  10 -23   3  114.79   14.20
  20 -13  -3   91.79   14.10
  -7  20  -3   83.59   17.80
  -7  20  -3   82.19   13.80
   7 -20   3   72.79   11.50
  13   7   3   62.99   12.10
  -4  17  -3  123.29   14.80
 -13  -4  -3  117.59   14.70
  17 -13  -3  135.59   13.60
  -4  17  -3  117.99   17.10
   4 -17   3  101.19   13.10
  13   4   3  120.49   15.10
  -1  14  -3  321.97   19.10
 -13  -1  -3  286.57   19.50
 -13  -1  -3  301.57   11.90
  14 -13  -3  317.37   15.40
   1 -14   3  328.27   17.50
  13   1   3  325.97   19.60
  13   1   3  327.67   15.80
 -13   2  -3  130.69   14.30
   2  11  -3  139.69   13.90
  11 -13  -3  115.69    8.70
 -13   2  -3  129.19   10.00
  -2 -11   3  117.69   13.10
  13  -2   3  131.29   13.70
  13  -2   3  134.19   11.90
 -13   5  -3  971.50   28.70
 -13   5  -3  961.90   32.50
   5   8  -3  969.10   32.10
   8 -13  -3  940.41   20.80
  13  -5   3  904.31   27.90
  -5  -8   3  923.71   30.20
  13  -5   3  920.01   32.50
 -13   8  -3  207.78   16.70
 -13   8  -3  199.88   14.10
   8   5  -3  187.68   15.20
  13  -8   3  191.48   15.90
  13  -8   3  195.28   14.20
  -8  -5   3  198.38   16.00
 -13  11  -3   46.00   11.10
 -13  11  -3   43.30    9.00
  13 -11   3   33.90    8.20
 -11  -2   3   32.80   10.50
  13 -11   3   40.00   10.40
 -13  14  -3  174.48   18.20
 -13  14  -3  161.98   15.40
  13 -14   3  143.29   15.70
  13 -14   3  141.39   14.40
 -14   1   3  143.49   17.40
   1  13   3  143.09    8.60
  17  -4  -3  299.67   19.90
 -13  17  -3  281.47   23.70
 -13  17  -3  306.97   20.10
   4  13   3  295.17   14.50
  13 -17   3  271.27   18.50
  13 -17   3  304.67   22.30
 -13  20  -3   31.20   14.30
 -13  20  -3   26.00   12.60
  20  -7  -3   38.30   12.20
   7  13   3   45.10    9.50
   7  13   3   30.70    5.20
  13 -20   3   42.20   10.60
  13 -20   3   27.70   10.70
  23 -10  -3   67.89   13.90
 -13  23  -3   57.79   13.60
 -13  23  -3   73.59   18.80
  10  13   3   62.59   12.50
 -13  26  -3   50.19   21.30
 -13  26  -3   47.80   15.10
  26 -13  -3   46.70   15.00
  13  13   3   52.89   25.60
 -11  25  -3  695.53   35.10
  25 -14  -3  707.33   34.70
  -8  22  -3  446.56   27.60
  22 -14  -3  491.65   26.80
  -8  22  -3  425.16   33.80
   8 -22   3  472.65   23.50
  14   8   3  421.96   25.00
  -5  19  -3  469.05   25.10
  -5  19  -3  480.05   30.30
  19 -14  -3  453.05   22.70
  14   5   3  487.95   25.30
   5 -19   3  488.55   22.20
 -14  -2  -3  123.09   14.90
 -14  -2  -3  156.88   10.00
  16 -14  -3  126.69   12.30
  -2  16  -3  124.19   15.40
  -2  16  -3  157.58   20.10
   2 -16   3  165.48   14.20
  14   2   3  124.79   15.80
 -14   1  -3  352.66   14.80
   1  13  -3  334.77   20.00
 -14   1  -3  355.66   21.00
  13 -14  -3  350.66   15.00
  -1 -13   3  360.76   18.40
  14  -1   3  379.36   21.50
  14  -1   3  374.66   17.40
  10 -14  -3  704.73   18.80
   4  10  -3  712.53   27.70
 -14   4  -3  706.43   23.60
 -14   4  -3  704.53   28.50
  14  -4   3  715.83   28.90
  -4 -10   3  730.43   26.60
  14  -4   3  756.82   25.30
 -14   7  -3 1189.78   34.20
   7   7  -3 1184.28   37.10
 -14   7  -3 1176.98   37.90
  14  -7   3 1175.48   33.50
  14  -7   3 1133.89   37.90
  -7  -7   3 1144.89   35.50
 -14  10  -3  385.16   19.40
 -14  10  -3  440.26   23.70
 -10  -4   3  325.47   20.30
  14 -10   3  373.56   19.20
  14 -10   3  386.86   22.00
 -14  13  -3  111.09   13.60
 -14  13  -3  111.09   15.70
  14 -13   3  103.79   13.50
 -13  -1   3   94.59   13.60
  14 -13   3  109.99   15.00
  -1  14   3   96.99    5.50
  16  -2  -3  273.67   19.80
 -14  16  -3  322.37   20.70
 -14  16  -3  321.07   23.50
  14 -16   3  285.77   18.90
  14 -16   3  283.57   21.50
   2  14   3  285.67   12.90
 -16   2   3  259.67   22.10
  19  -5  -3  134.29   16.80
 -14  19  -3  146.19   19.10
  14 -19   3  165.28   17.10
   5  14   3  151.78   13.10
   5  14   3  129.39    7.30
  14 -19   3  145.19   19.10
 -14  22  -3  738.53   33.60
 -14  22  -3  719.63   38.10
  22  -8  -3  695.93   33.10
   8  14   3  622.44   20.10
   8  14   3  685.13   27.50
  14 -22   3  597.94   52.29
 -14  25  -3  263.47   25.90
 -14  25  -3  256.17   33.10
  25 -11  -3  357.56   27.60
  11  14   3  274.87   23.30
 -14  28  -3  242.28   30.70
 -14  28  -3  263.57   29.80
  14  14   3  297.07   28.00
 -12  27  -3  267.67   30.80
 -12  27  -3  265.17   28.70
  27 -15  -3  269.37   26.70
  15  12   3  348.37   28.60
  24 -15  -3  505.55   28.60
  -9  24  -3  516.95   37.30
  -9  24  -3  484.55   29.90
  15   9   3  418.26   33.70
   9 -24   3  507.25   24.80
  -6  21  -3  277.87   24.10
  -6  21  -3  347.97   29.60
  21 -15  -3  327.07   21.40
   6 -21   3  330.57   20.10
  15   6   3  336.67   23.60
 -15  -3  -3  393.46   24.60
  -3  18  -3  466.65   24.50
  18 -15  -3  438.86   21.30
  -3  18  -3  452.05   29.00
   3 -18   3  442.26   21.00
  15   3   3  449.46   25.70
 -15   0  -3    1.40    8.80
 -15   0  -3   -3.50    4.00
  15 -15  -3    3.30    5.30
   0  15  -3   10.30    8.30
   0 -15   3   -3.60    6.30
  15   0   3    2.40    7.50
 -15   3  -3  140.69   16.30
 -15   3  -3  138.19   11.40
   3  12  -3  113.39   14.60
  12 -15  -3  103.69    9.00
  -3 -12   3  120.19   13.90
  15  -3   3  119.19   15.10
  15  -3   3  132.89   13.20
   9 -15  -3  226.48    8.30
 -15   6  -3  247.48   15.20
   6   9  -3  230.58   17.20
 -15   6  -3  218.08   18.10
  15  -6   3  254.87   18.90
  15  -6   3  266.97   16.30
  -6  -9   3  236.58   16.90
   9   6  -3  471.15   23.10
 -15   9  -3  471.85   25.10
 -15   9  -3  478.15   21.30
  -9  -6   3  411.46   22.20
  15  -9   3  448.06   24.30
  15  -9   3  399.46   20.10
 -15  12  -3  153.88   14.70
 -15  12  -3  167.18   18.30
  15 -12   3  143.59   17.20
  15 -12   3  142.69   14.80
 -12  -3   3  126.59   16.60
 -15  15  -3    0.80    8.40
 -15  15  -3   -5.30   10.30
  15 -15   3   14.30    8.40
  15 -15   3   -1.50    8.00
   0  15   3    5.80    3.80
 -15   0   3   -6.10    9.30
 -15  18  -3  110.39   16.60
 -15  18  -3  114.89   21.40
  18  -3  -3   95.19   13.60
  15 -18   3  129.49   18.00
  15 -18   3  126.59   15.90
   3  15   3  128.49   11.10
 -18   3   3  142.39   18.30
  21  -6  -3  263.97   22.40
 -15  21  -3  319.77   23.90
 -15  21  -3  260.27   27.90
   6  15   3  308.57   18.00
  15 -21   3  265.97   26.90
   6  15   3  268.87   11.60
  24  -9  -3  290.27   25.00
 -15  24  -3  293.57   25.20
   9  15   3  314.27   22.10
 -15  27  -3  569.84   42.70
 -15  27  -3  511.25   33.80
  12  15   3  507.25   36.00
 -15  30  -3  265.27   34.60
 -15  30  -3  321.07   36.70
  30 -15  -3  288.27   32.60
  15  15   3  339.97   32.70
 -13  29  -3   44.00   19.90
 -13  29  -3   39.10   23.70
  16  13   3   47.70   17.20
 -10  26  -3  146.49   19.80
 -10  26  -3  128.19   25.30
  26 -16  -3  129.59   18.90
  16  10   3  141.99   19.70
  -7  23  -3   22.80   17.90
  -7  23  -3   15.40   12.40
  23 -16  -3   11.60   10.60
  16   7   3   -7.80   10.90
   7 -23   3   18.20   10.20
  20 -16  -3   51.59   10.80
  -4  20  -3   59.79   13.70
  -4  20  -3   39.70   16.20
   4 -20   3   63.99   10.80
  16   4   3   74.29   14.50
 -16  -1  -3  339.57   22.90
 -16  -1  -3  350.36   14.00
  -1  17  -3  322.17   21.70
 -16  -1  -3  340.87   16.60
  17 -16  -3  350.06   18.00
  -1  17  -3  350.56   27.50
  16   1   3  312.97   22.70
   1 -17   3  318.07   18.60
   2  14  -3   81.39   12.20
  14 -16  -3   74.59    9.50
 -16   2  -3   76.29   10.20
 -16   2  -3   72.29   13.40
  -2 -14   3   96.89   11.60
  16  -2   3  118.59   16.00
  11 -16  -3   15.40    4.50
 -16   5  -3   18.20    9.80
   5  11  -3   13.80    7.90
 -16   5  -3   21.90    6.90
  -5 -11   3   27.10    8.60
  16  -5   3   21.10    8.70
 -16   8  -3   18.30    7.30
   8   8  -3   12.80    7.90
 -16   8  -3   22.60   10.80
  -8  -8   3   33.10    9.40
  16  -8   3   21.00    7.90
  16  -8   3   19.60    9.70
 -16  11  -3  180.68   15.60
 -16  11  -3  180.98   19.10
  16 -11   3  186.58   18.70
  16 -11   3  164.28   15.90
 -11  -5   3  199.78   18.30
 -16  14  -3  396.56   24.80
 -16  14  -3  357.16   21.10
  16 -14   3  414.16   24.50
  -2  16   3  345.07   10.00
  -2  16   3  352.16   11.00
 -14  -2   3  389.96   23.90
  16 -14   3  369.56   20.60
  17  -1  -3  442.16   25.20
 -16  17  -3  415.46   26.60
 -16  17  -3  384.36   27.50
  16 -17   3  367.26   24.70
   1  16   3  391.36   14.60
  16 -17   3  367.06   21.50
 -17   1   3  372.46   25.80
 -16  20  -3   18.30   13.90
  20  -4  -3   40.80   11.20
 -16  20  -3    6.60   11.10
  16 -20   3    2.90   11.40
   4  16   3   29.40    7.80
 -20   4   3   20.60   13.60
 -16  23  -3    4.30   18.10
  23  -7  -3    6.20   11.70
 -16  23  -3    2.10   12.60
  16 -23   3   15.30   12.80
   7  16   3   21.90    9.30
   7  16   3   11.90    6.50
 -16  26  -3   20.40   20.60
 -16  26  -3   30.30   15.20
  26 -10  -3  -14.10   13.40
  10  16   3   42.20   13.10
  29 -13  -3   43.40   17.90
 -16  29  -3   17.80   22.20
  13  16   3    2.80   14.40
 -16  32  -3   30.50   23.30
 -16  32  -3   62.99   30.30
  32 -16  -3   32.50   23.70
  16  16   3   34.30   20.10
 -14  31  -3  316.87   37.90
 -14  31  -3  258.47   30.50
  31 -17  -3  313.27   35.50
  17  14   3  239.98   33.00
 -11  28  -3  385.26   40.40
 -11  28  -3  383.56   33.30
  17  11   3  284.07   29.10
  -8  25  -3  357.86   28.40
  -8  25  -3  307.57   40.30
  25 -17  -3  380.56   27.60
  17   8   3  315.77   26.30
  22 -17  -3  157.38   19.10
  -5  22  -3  199.58   21.80
  -5  22  -3  144.69   22.70
   5 -22   3  193.58   17.80
  17   5   3  167.78   22.50
  -2  19  -3  373.26   30.20
 -17  -2  -3  383.26   13.70
 -17  -2  -3  399.36   26.50
  -2  19  -3  423.96   24.70
 -17  -2  -3  381.16   16.00
  19 -17  -3  419.36   21.70
  17   2   3  470.45   28.80
   2 -19   3  483.15   22.00
  16 -17  -3  263.47   15.80
 -17   1  -3  297.47   14.80
   1  16  -3  268.07   20.60
 -17   1  -3  290.87   22.10
  -1 -16   3  290.07   18.10
  17  -1   3  258.57   21.20
 -17   4  -3  139.89   17.80
 -17   4  -3  123.39   12.80
   4  13  -3  140.09   16.10
  13 -17  -3  105.19    9.90
  17  -4   3  134.89   17.00
  -4 -13   3  113.49   14.30
   7  10  -3   89.69   12.80
 -17   7  -3   99.89   13.00
 -17   7  -3   79.39   13.30
  10 -17  -3   95.39    6.40
  17  -7   3  104.99   14.50
  -7 -10   3  102.29   13.30
  10   7  -3  253.17   19.40
 -17  10  -3  261.37   21.90
 -17  10  -3  254.27   17.10
  17 -10   3  255.97   20.10
 -10  -7   3  230.48   18.70
 -17  13  -3  243.18   18.50
 -17  13  -3  286.77   22.80
 -13  -4   3  223.08   20.50
  17 -13   3  266.57   21.80
 -17  16  -3  299.67   24.60
 -17  16  -3  293.47   25.00
 -16  -1   3  234.58   23.40
  -1  17   3  260.27   10.20
  17 -16   3  264.17   21.90
  19  -2  -3  339.17   23.50
 -17  19  -3  255.77   22.10
 -17  19  -3  332.17   26.20
 -19   2   3  312.87   26.60
   2  17   3  281.37   14.70
  17 -19   3  281.47   37.80
 -17  22  -3  190.58   21.80
 -17  22  -3  153.08   25.90
  22  -5  -3  151.98   21.30
  17 -22   3  140.59   19.80
   5  17   3  153.88   10.00
   5  17   3  161.08   15.60
 -17  25  -3  282.57   34.00
 -17  25  -3  290.07   28.20
  17 -25   3  344.77   29.70
   8  17   3  356.96   23.30
   8  17   3  302.37   17.40
  28 -11  -3  436.86   57.49
 -17  28  -3  385.96   32.90
 -17  28  -3  389.46   39.20
  11  17   3  396.06   29.40
 -17  31  -3  260.87   32.00
  31 -14  -3  344.07   35.50
 -17  31  -3  370.86   47.60
  14  17   3  312.97   33.60
 -12  30  -3  375.66   44.80
  30 -18  -3  380.06   50.59
 -12  30  -3  388.86   38.10
  18  12   3  333.17   33.90
  -9  27  -3  224.68   28.70
  -9  27  -3  273.47   37.80
  27 -18  -3  306.77   27.90
  18   9   3  197.58   25.00
  -6  24  -3  151.58   18.70
  24 -18  -3  192.78   33.90
  18   6   3  167.48   20.70
   6 -24   3  203.78   18.70
  21 -18  -3  214.38   19.50
  -3  21  -3  173.78   23.60
  18   3   3  252.27   24.20
   3 -21   3  195.88   17.20
  18 -18  -3    5.40    7.40
 -18   0  -3   -3.90    5.50
   0  18  -3    4.90    9.70
 -18   0  -3   -3.40   11.10
   0 -18   3   -8.90    7.60
  15 -18  -3  317.07   16.10
 -18   3  -3  295.87   16.80
   3  15  -3  350.76   22.60
 -18   3  -3  303.07   23.50
  18  -3   3  325.77   23.60
  -3 -15   3  336.17   19.40
 -18   6  -3  521.45   22.30
 -18   6  -3  474.45   26.60
   6  12  -3  473.75   24.80
  -6 -12   3  507.95   23.50
  18  -6   3  507.65   27.30
 -18   9  -3  381.26   24.80
 -18   9  -3  399.06   21.00
   9   9  -3  389.26   23.50
  18  -9   3  384.46   24.70
  -9  -9   3  378.76   22.00
 -18  12  -3  562.24   25.70
 -18  12  -3  600.04   29.20
 -12  -6   3  589.84   28.00
  18 -12   3  554.24   28.80
 -18  15  -3  286.77   24.10
 -15  -3   3  263.77   22.90
  18 -15   3  271.67   23.10
 -18  18  -3   -6.60   12.70
 -18  18  -3    7.90   10.50
  18   0  -3  -10.60    8.90
   0  18   3   -2.10    3.20
   0  18   3   -6.00    4.60
 -18   0   3    0.90   12.50
 -18  21  -3   19.90   24.50
  21  -3  -3   41.50   13.00
 -18  21  -3   -2.00   11.50
 -21   3   3    7.40   17.20
   3  18   3   16.50    4.70
  18 -21   3   48.00   14.40
   3  18   3    8.30    7.00
  24  -6  -3  220.08   23.90
 -18  24  -3  211.08   26.40
   6  18   3  286.07   15.00
   6  18   3  314.67   20.60
  18 -24   3  328.67   28.90
 -18  27  -3  296.77   37.70
 -18  27  -3  239.08   26.50
   9  18   3  221.78   18.10
   9  18   3  248.48   24.40
  30 -12  -3  316.57   35.00
 -18  30  -3  253.97   33.00
 -18  30  -3  286.17   32.30
  12  18   3  321.37   31.70
 -13  32  -3   78.89   25.80
  32 -19  -3   15.70   22.20
 -13  32  -3   86.49   31.60
  19  13   3   57.69   22.50
  29 -19  -3   -3.70   15.60
 -10  29  -3   27.30   19.60
 -10  29  -3   47.70   26.30
  19  10   3   12.90   17.90
  -7  26  -3   44.10   22.30
  -7  26  -3   12.90   14.70
  26 -19  -3   13.80   13.70
  19   7   3   28.70   15.50
  -4  23  -3   56.39   15.10
  23 -19  -3   61.99   13.60
  -4  23  -3   79.39   31.40
  19   4   3   95.39   17.10
   4 -23   3   60.49   11.90
  -1  20  -3   17.00   11.60
 -19  -1  -3   16.30    9.20
 -19  -1  -3   20.80   14.60
 -19  -1  -3   16.90    6.30
  20 -19  -3   15.10    9.70
  -1  20  -3   10.00   17.30
  19   1   3    5.90   11.70
   1 -20   3   -2.50    8.00
  17 -19  -3  416.46   20.50
 -19   2  -3  415.56   19.40
 -19   2  -3  429.56   28.10
   2  17  -3  458.55   25.90
  -2 -17   3  460.55   21.50
  19  -2   3  445.76   28.60
 -19   5  -3  459.55   21.40
  14 -19  -3  461.45   17.90
 -19   5  -3  446.46   27.90
   5  14  -3  427.16   25.30
  -5 -14   3  479.15   23.40
 -19   8  -3  259.97   23.00
 -19   8  -3  270.87   18.30
   8  11  -3  277.37   20.60
  19  -8   3  259.27   24.20
  -8 -11   3  255.07   19.50
  11   8  -3  304.67   22.00
 -19  11  -3  306.27   25.30
 -19  11  -3  289.57   19.90
  19 -11   3  292.87   25.00
 -11  -8   3  282.17   21.10
 -19  14  -3  238.38   22.80
 -14  -5   3  172.98   21.50
 -19  17  -3  298.77   22.30
 -19  17  -3  261.77   26.60
  -2  19   3  236.28    9.90
  -2  19   3  236.48   11.90
 -17  -2   3  278.97   25.70
  19 -17   3  260.37   23.30
  20  -1  -3  107.39   16.20
 -19  20  -3   84.39   15.50
 -19  20  -3   35.90   31.50
 -20   1   3  123.89   20.00
   1  19   3  104.69   11.00
   1  19   3  112.19    7.70
  19 -20   3   98.49   16.40
 -19  23  -3   31.90   19.20
  23  -4  -3   32.20   13.80
 -19  23  -3   12.20   12.60
  19 -23   3   32.10   15.50
   4  19   3   16.80    8.20
 -23   4   3   25.80   18.00
   4  19   3   33.30    9.60
 -19  26  -3  203.18   24.50
 -19  26  -3  196.08   28.30
   7  19   3  191.08   16.00
   7  19   3  189.88   20.80
  19 -26   3  222.18   29.00
 -19  29  -3   97.39   22.70
  29 -10  -3   98.49   21.80
 -19  29  -3  132.39   28.20
  10  19   3  117.39   19.50
 -19  32  -3  -13.10   29.60
  32 -13  -3   31.80   22.00
  13  19   3  -19.20   18.60
 -11  31  -3  154.98   27.70
 -11  31  -3  190.28   35.60
  31 -20  -3  199.18   28.50
  20  11   3  183.68   26.80
  -8  28  -3  396.06   34.30
  -8  28  -3  445.56   43.50
  28 -20  -3  465.65   33.70
  20   8   3  344.57   32.80
  -5  25  -3  321.97   28.90
  -5  25  -3  301.07   37.50
  25 -20  -3  340.57   26.90
   5 -25   3  312.87   20.40
  20   5   3  343.27   29.70
  22 -20  -3  202.98   20.60
 -20  -2  -3  181.88   14.30
 -20  -2  -3  183.18   11.20
  -2  22  -3  186.28   23.80
  20   2   3  179.08   24.60
   2 -22   3  187.08   17.00
 -20   1  -3    9.80   13.80
  19 -20  -3    1.00    8.60
 -20   1  -3    3.90    7.10
   1  19  -3    0.00   11.50
  20  -1   3  -19.80   11.00
  -1 -19   3   -0.90    8.40
  16 -20  -3  124.09   13.20
 -20   4  -3  116.99   14.20
   4  16  -3  145.49   19.30
  -4 -16   3  135.29   14.70
  20  -4   3  177.38   21.70
 -20   7  -3  140.79   18.60
  13 -20  -3  153.78   10.70
 -20   7  -3  133.79   15.80
   7  13  -3  141.09   18.80
  20  -7   3  152.28   20.00
  -7 -13   3  159.48   17.50
 -20  10  -3   28.00    9.70
  10  10  -3   22.10   10.00
 -20  10  -3   45.40   14.90
  20 -10   3    0.10   11.60
 -10 -10   3   20.50   11.10
 -20  13  -3   19.60   13.00
 -20  13  -3   18.40   11.50
  20 -13   3  -13.60   10.20
 -13  -7   3    1.70   11.20
 -20  16  -3   20.80   16.30
 -20  16  -3   13.50   10.50
 -16  -4   3   24.50   13.30
  20 -16   3    7.30   11.50
 -20  19  -3   74.69   18.00
  19   1  -3   26.00   11.40
  -1  20   3   70.19    9.80
  20 -19   3   52.89   14.90
 -19  -1   3   91.69   18.80
  -1  20   3   63.49    8.40
  22  -2  -3  127.19   21.90
 -20  22  -3  133.79   22.30
 -22   2   3  136.79   21.90
   2  20   3  121.39   13.00
  20 -22   3  136.49   21.50
 -20  25  -3  344.87   37.50
 -20  25  -3  331.87   29.80
 -25   5   3  346.67   36.50
   5  20   3  315.67   21.30
   5  20   3  324.07   17.00
  20 -25   3  325.07   30.50
  28  -8  -3  172.78   25.50
 -20  28  -3  197.68   26.60
 -20  28  -3  161.88   28.40
   8  20   3  204.38   24.70
   8  20   3  139.79   18.50
  31 -11  -3  134.09   26.60
 -20  31  -3  196.18   34.60
 -20  31  -3  101.59   24.30
  11  20   3  221.08   31.00
  -9  30  -3  361.76   39.50
  -9  30  -3  269.57   35.80
  21   9   3  318.07   37.50
  -6  27  -3  194.68   25.10
  -6  27  -3  186.18   28.70
  27 -21  -3  194.48   23.10
  21   6   3  184.08   24.50
  24 -21  -3   73.39   15.60
  -3  24  -3   54.19   21.60
  -3  24  -3   50.99   16.10
   3 -24   3   57.59   11.10
  21   3   3   49.90   16.30
  21 -21  -3    2.60    9.70
 -21   0  -3    0.80    7.10
   0  21  -3   23.70   13.90
 -21   0  -3   10.50   15.00
 -21   0  -3   -5.00    9.90
   0 -21   3   10.70    9.00
  21   0   3    3.70   13.10
   3  18  -3   85.99   15.40
 -21   3  -3   80.59   11.90
 -21   3  -3  116.69   19.80
  21  -3   3   75.99   15.80
  -3 -18   3   94.39   12.30
  15 -21  -3  337.47   16.20
 -21   6  -3  334.27   20.50
 -21   6  -3  312.47   27.20
   6  15  -3  294.87   23.90
  -6 -15   3  305.47   20.20
  21  -6   3  347.37   25.80
   9  12  -3  355.76   24.90
 -21   9  -3  327.57   21.10
 -21   9  -3  326.97   26.90
  -9 -12   3  379.56   22.50
  21  -9   3  329.77   25.40
 -21  12  -3  519.55   37.70
  12   9  -3  540.45   28.70
 -21  12  -3  550.64   27.20
 -12  -9   3  556.04   28.70
  21 -12   3  566.74   32.00
 -21  15  -3  201.08   20.60
 -21  15  -3  222.38   25.40
 -15  -6   3  217.08   24.60
  21 -15   3  174.58   23.10
 -21  18  -3   97.99   15.70
 -21  18  -3   77.59   17.40
  21 -18   3   97.69   17.30
  -3  21   3   98.99   10.10
 -18  -3   3  147.29   21.00
  -3  21   3  111.09    7.30
  -3  21   3  101.29    9.30
 -21  21  -3    3.30   16.50
   0  21   3    9.50    5.30
 -21   0   3  -22.10   19.40
  21 -21   3    4.60   13.50
   0  21   3   -2.40    6.10
 -21  24  -3   43.10   16.50
 -21  24  -3   69.59   22.30
   3  21   3   51.99    8.60
  21 -24   3   97.99   19.70
   3  21   3   75.69   10.90
 -24   3   3   80.09   22.40
 -21  27  -3   33.50   23.60
 -21  27  -3  109.09   22.50
  27  -6  -3   91.89   20.20
 -27   6   3   29.60   23.80
  21 -27   3  -19.50   16.90
   6  21   3   56.89   11.20
   6  21   3   78.49   14.80
  30  -9  -3  302.07   37.20
 -21  30  -3  258.47   34.50
 -21  30  -3  350.96   39.20
   9  21   3  322.97   24.00
   9  21   3  299.47   30.50
  -7  29  -3   73.79   20.90
  29 -22  -3   39.60   18.10
  -7  29  -3   23.40   28.00
  22   7   3   94.19   22.90
  -4  26  -3   55.19   24.00
  26 -22  -3   97.39   17.90
  -4  26  -3   23.60   17.30
  22   4   3   76.09   19.30
  -1  23  -3  146.89   21.20
 -22  -1  -3  119.49   12.80
  23 -22  -3  148.99   18.40
 -22  -1  -3  151.68   17.10
  -1  23  -3  146.69   27.40
   1 -23   3  115.69   13.20
  22   1   3  144.19   22.10
 -22   2  -3  211.68   27.30
  20 -22  -3  160.38   18.90
 -22   2  -3  248.18   17.50
   2  20  -3  254.67   26.00
  -2 -20   3  196.28   17.00
  22  -2   3  175.38   24.70
 -22   5  -3  168.28   16.90
 -22   5  -3  151.88   20.80
   5  17  -3  149.19   27.90
  17 -22  -3  159.58   14.30
  -5 -17   3  173.88   16.90
  22  -5   3  197.08   24.20
  14 -22  -3  357.26   15.80
   8  14  -3  380.66   26.60
 -22   8  -3  354.56   29.60
 -22   8  -3  355.56   22.70
  -8 -14   3  425.36   23.30
  22  -8   3  369.46   27.40
  11  11  -3  486.45   45.50
 -22  11  -3  607.54   34.80
 -22  11  -3  639.54   28.90
 -11 -11   3  585.44   29.10
  22 -11   3  630.44   34.10
 -22  14  -3  560.74   33.80
 -22  14  -3  630.74   30.30
 -14  -8   3  610.94   31.30
  22 -14   3  606.44   34.40
 -22  17  -3  225.28   28.20
 -22  17  -3  223.28   22.00
  -5  22   3  219.28   12.90
  22 -17   3  265.17   26.40
 -17  -5   3  275.67   27.70
 -22  20  -3  142.79   22.20
  22 -20   3  158.08   20.90
  -2  22   3  178.08   14.60
  -2  22   3  176.88   11.30
 -20  -2   3  195.08   24.80
 -22  23  -3  151.48   25.20
  22 -23   3  167.68   24.30
 -23   1   3  160.88   25.40
   1  22   3  136.99   11.90
   1  22   3  130.59   13.80
 -22  26  -3  130.09   27.20
  26  -4  -3  118.79   20.80
 -22  26  -3  127.69   21.20
   4  22   3  112.29   12.10
   4  22   3  116.39   14.70
 -26   4   3  130.29   27.60
 -22  29  -3  102.59   23.60
 -22  29  -3  175.18   28.90
  29  -7  -3  146.59   26.10
   7  22   3  117.09   18.60
 -29   7   3   76.59   30.10
   7  22   3  136.99   15.60
 -22  32  -3   52.09   24.90
  -8  31  -3  186.98   36.80
  -8  31  -3  144.69   28.60
  23   8   3  144.09   28.10
  28 -23  -3  239.68   31.00
  -5  28  -3  313.67   34.10
  -5  28  -3  229.38   31.40
  23   5   3  201.68   28.40
  25 -23  -3  174.68   21.20
  -2  25  -3  168.18   28.60
  -2  25  -3  190.48   23.20
 -23  -2  -3  158.18   11.20
 -23  -2  -3  159.58   14.20
  23   2   3  193.78   27.00
   1  22  -3  182.48   23.00
 -23   1  -3  190.38   22.30
 -23   1  -3  196.78   16.70
  22 -23  -3  169.48   20.50
  -1 -22   3  167.88   16.70
  23  -1   3  209.18   26.00
  19 -23  -3  115.29   13.80
 -23   4  -3   92.99   19.80
 -23   4  -3   89.79   13.30
   4  19  -3  112.19   17.70
  23  -4   3   76.49   17.10
  -4 -19   3   66.79   11.80
   7  16  -3  -13.20   12.50
  16 -23  -3   22.10    7.90
 -23   7  -3    0.50    9.20
 -23   7  -3   29.40   16.40
  23  -7   3   22.20   13.50
  -7 -16   3    1.00    9.80
 -23  10  -3   86.19   13.10
  10  13  -3   70.29   15.90
 -23  10  -3   64.29   17.20
 -10 -13   3   80.09   14.10
 -23  13  -3   52.09   12.80
 -23  13  -3   73.19   18.10
 -13 -10   3   36.40   13.90
  23 -13   3   48.10   15.20
 -23  16  -3   15.50   11.20
 -23  16  -3    9.30   16.20
  -7  23   3   -1.00    6.50
 -16  -7   3   12.80   14.00
  23 -16   3  -29.70   13.40
 -23  19  -3   41.00   18.00
 -19  -4   3   33.00   16.40
  -4  23   3   23.10    6.70
  23 -19   3   50.89   17.10
 -23  22  -3  149.39   24.50
 -22  -1   3  183.28   25.20
  -1  23   3  138.99   12.10
  -1  23   3  142.09   17.70
  -1  23   3  144.59   12.60
  23 -22   3  118.49   20.70
 -23  25  -3  186.38   23.10
 -23  25  -3  141.39   27.60
   2  23   3  195.38   17.00
   2  23   3  173.68   15.00
 -25   2   3  168.28   28.00
 -23  28  -3  187.88   30.50
 -23  28  -3  179.58   25.50
  28  -5  -3  132.49   24.40
   5  23   3  149.79   19.00
   5  23   3  176.68   22.80
 -28   5   3  149.79   30.40
  31  -8  -3  121.99   23.50
 -23  31  -3  150.78   33.90
 -23  31  -3  124.49   23.40
  23 -31   3   92.69   26.70
   8  23   3  124.09   20.20
 -31   8   3  152.68   36.90
   8  23   3   99.09   17.50
  -6  30  -3   74.19   24.40
  -6  30  -3   59.89   34.50
  24   6   3   92.09   27.20
  -3  27  -3   43.60   26.30
  27 -24  -3   46.70   18.10
  -3  27  -3   55.39   20.50
  24   3   3   38.60   19.40
 -24   0  -3  -28.00   10.80
   0  24  -3  -31.30   22.10
  24 -24  -3   -4.10   13.40
   0  24  -3    1.30   16.50
 -24   0  -3    4.60    8.60
  24   0   3  -21.20   16.70
   0 -24   3   -6.60    8.20
 -24   3  -3   17.70   18.40
  21 -24  -3   21.70   12.20
   3  21  -3    9.60   15.20
 -24   3  -3   29.50   11.20
  -3 -21   3   18.70    9.50
  24  -3   3    5.90   15.90
  18 -24  -3  141.79   16.10
   6  18  -3  160.08   20.60
 -24   6  -3  186.68   19.50
 -24   6  -3  146.79   21.70
  -6 -18   3  167.88   17.50
  24  -6   3  163.88   23.30
 -24   9  -3  426.46   25.60
 -24   9  -3  446.96   33.20
   9  15  -3  418.66   29.50
  -9 -15   3  452.85   24.40
  12  12  -3  256.27   25.00
 -24  12  -3  246.88   22.70
 -24  12  -3  194.08   25.60
 -12 -12   3  200.68   22.40
 -24  15  -3  440.16   33.90
 -24  15  -3  471.65   28.60
  24 -15   3  467.95   33.10
 -15  -9   3  500.05   30.70
  -9  24   3  501.15   20.90
  18   6  -3  303.07   26.40
 -24  18  -3  310.67   32.60
  24 -18   3  418.46   32.40
 -18  -6   3  458.85   33.40
  -6  24   3  384.76   17.90
 -24  21  -3  144.79   24.40
  -3  24   3  142.89   11.40
  -3  24   3  135.99   13.20
  -3  24   3  155.18   13.20
 -24  24  -3   -3.60   20.70
 -24   0   3   15.80   21.20
   0  24   3   16.20    8.30
   0  24   3   10.90    8.00
   0  24   3    2.80   12.80
  27  -3  -3  -39.10   18.10
 -24  27  -3    6.70   18.90
 -24  27  -3  -28.10   23.20
   3  24   3   28.40   12.40
 -27   3   3   36.10   25.90
   3  24   3   49.50   11.80
  30  -6  -3   85.49   21.50
 -24  30  -3   32.80   27.90
 -24  30  -3   71.29   23.00
   6  24   3   91.79   16.10
 -30   6   3   64.19   32.70
   6  24   3   93.69   18.30
  24 -30   3   41.30   23.60
  29 -25  -3  141.19   24.10
  -4  29  -3   81.79   24.40
  -4  29  -3   83.09   32.70
  25   4   3  122.69   26.90
  -1  26  -3   94.39   22.80
 -25  -1  -3   92.19   10.40
 -25  -1  -3   83.89   12.90
  26 -25  -3   57.09   18.50
  -1  26  -3  112.89   29.50
  25   1   3  102.09   23.90
  23 -25  -3  212.88   23.80
   2  23  -3  281.67   31.50
 -25   2  -3  172.48   18.60
 -25   2  -3  161.08   19.20
  25  -2   3  154.08   24.70
  -2 -23   3  199.68   15.80
   5  20  -3  292.87   30.30
 -25   5  -3  283.57   22.40
 -25   5  -3  278.87   32.30
  20 -25  -3  247.98   20.60
  25  -5   3  240.28   29.80
  -5 -20   3  238.38   17.80
 -25   8  -3  209.28   28.50
  17 -25  -3  245.38   16.40
   8  17  -3  248.68   26.90
 -25   8  -3  241.08   21.90
  -8 -17   3  263.77   19.80
 -25  11  -3  668.93   31.80
  11  14  -3  597.54   34.10
 -25  11  -3  584.34   38.70
 -11 -14   3  582.94   28.30
 -25  14  -3  445.56   35.00
 -25  14  -3  429.76   28.00
 -11  25   3  343.67   20.10
 -14 -11   3  322.07   27.30
  -8  25   3  431.36   19.90
 -17  -8   3  396.66   30.70
 -25  20  -3  226.08   28.70
  20   5  -3   68.89   21.40
 -20  -5   3  358.46   34.50
  -5  25   3  287.77   16.80
 -25  23  -3  266.77   32.80
  -2  25   3  208.38   16.30
  -2  25   3  210.98   13.20
 -23  -2   3  206.08   28.20
  -2  25   3  205.88   18.70
 -25  26  -3  124.39   29.10
  26  -1  -3  129.79   24.50
 -25  26  -3  100.79   23.20
   1  25   3  133.29   16.90
  25 -26   3   82.49   26.70
 -26   1   3  115.69   29.50
   1  25   3  104.79   12.60
   1  25   3  100.79   18.10
  29  -4  -3  113.29   23.80
 -25  29  -3  103.29   24.70
 -25  29  -3  122.29   30.30
 -29   4   3   73.99   31.20
   4  25   3  115.59   16.80
  25 -29   3   55.59   23.10
   4  25   3   97.89   15.50
  -2  28  -3  155.48   36.40
  -2  28  -3  165.88   27.30
  28 -26  -3  159.88   24.50
  26   2   3  179.68   28.60
 -28  26   3  132.19   21.90
   1  25  -3  135.29   23.50
   1  25  -3  152.78   31.20
 -26   1  -3  133.99   14.60
 -26   1  -3  112.29   17.20
  25 -26  -3  164.78   22.10
  26  -1   3  126.29   23.10
   4  22  -3   79.09   19.20
  22 -26  -3   94.19   15.70
 -26   4  -3  103.79   15.00
 -26   4  -3  110.09   23.80
  -4 -22   3  107.09   11.30
  26  -4   3   89.29   21.10
 -26   7  -3   64.19   13.80
   7  19  -3   39.90   16.60
  19 -26  -3   51.59   11.50
 -26   7  -3   59.99   20.90
  -7 -19   3   82.19   12.10
  26  -7   3   78.99   20.10
 -26  10  -3  203.88   23.00
  10  16  -3  248.98   28.80
 -26  10  -3  183.58   24.80
 -10 -16   3  238.28   20.60
 -26  13  -3   67.59   22.40
 -26  13  -3   73.79   14.90
  13  13  -3   37.90   16.20
 -13  26   3   80.19   12.50
 -13 -13   3   60.49   14.70
 -26  16  -3    1.40   21.00
 -26  16  -3   14.50   18.20
 -10  26   3   18.70    9.60
 -16 -10   3  -14.40   13.60
  19   7  -3   93.29   18.50
 -26  19  -3   75.59   22.20
 -19  -7   3  134.49   22.10
  -7  26   3  127.99   14.90
  22   4  -3   40.80   20.20
 -26  22  -3   34.50   23.70
  -4  26   3   66.49   10.70
 -22  -4   3   71.89   22.50
  25   1  -3   71.49   21.10
 -26  25  -3   66.99   21.20
 -26  25  -3   81.39   30.10
  -1  26   3   55.89   11.50
 -25  -1   3   46.30   24.80
  -1  26   3   65.49   14.40
  -1  26   3   73.89   10.40
  26 -25   3   69.39   22.00
  28  -2  -3  114.09   26.80
 -26  28  -3  145.39   25.30
 -26  28  -3  208.58   34.90
   2  26   3  137.99   21.90
   2  26   3  123.89   16.20
  26 -28   3  191.18   28.90
   2  26   3  159.98   20.50
 -28   2   3  123.79   32.20
 -27   0  -3  -13.60   12.80
   0  27  -3   27.20   22.10
  27 -27  -3  -14.70   17.90
   0  27  -3   -0.90   30.00
 -27   0  -3    7.40   10.60
 -27  27   3  -20.40   17.30
  27   0   3  -40.90   22.30
  24 -27  -3   14.30   14.30
 -27   3  -3   -0.10   16.60
   3  24  -3   39.90   20.80
 -27   3  -3    8.80   12.20
 -24  27   3   37.60   16.20
  27  -3   3   11.90   21.90
 -27   6  -3  129.09   26.30
  21 -27  -3  121.69   16.40
   6  21  -3  167.58   24.00
 -27   6  -3  131.19   17.20
  27  -6   3  111.29   26.10
  -6 -21   3  134.49   14.60
 -21  27   3  113.49   17.90
 -27   9  -3  223.48   24.00
 -27   9  -3  163.58   25.50
   9  18  -3  165.48   23.40
 -18  27   3  218.68   22.30
  -9 -18   3  174.28   17.80
  12  15  -3  337.77   31.20
 -27  12  -3  284.57   37.00
 -12 -15   3  347.17   24.20
 -15  27   3  369.26   31.60
 -27  15  -3  492.75   39.00
  27 -15   3  450.25   48.30
 -12  27   3  502.45   25.30
 -15 -12   3  531.25   30.30
 -27  18  -3  335.07   36.80
  18   9  -3  335.07   30.90
 -27  18  -3  298.87   38.60
 -18  -9   3  297.37   29.40
  27 -18   3  317.67   37.50
  -9  27   3  220.28   19.30
  21   6  -3  109.79   20.60
 -27  21  -3   77.19   24.40
 -27  21  -3  154.38   22.20
  27 -21   3  205.38   29.10
  -6  27   3  126.99   17.00
 -21  -6   3  111.19   25.70
 -27  24  -3   60.79   28.00
  24   3  -3   66.89   21.50
 -27  24  -3   38.70   19.40
  -3  27   3   66.79   11.40
  -3  27   3   44.00   11.70
  27 -24   3   70.99   20.80
 -24  -3   3   13.80   21.80
  27   0  -3   16.70   21.60
 -27  27  -3   -1.10   27.50
 -27  27  -3   14.70   21.60
 -27   0   3   46.60   26.60
   0  27   3   10.80   12.30
  27 -27   3   12.50   24.60
   0  27   3   13.70   10.50
   0  27   3    6.40   15.40
 -28   2  -3  177.48   21.70
   2  26  -3  142.19   34.20
  26 -28  -3  146.09   22.40
 -28   2  -3  122.29   20.30
   2  26  -3  232.68   30.70
  28  -2   3  119.99   26.00
 -26  28   3  149.29   23.30
   5  23  -3  231.18   28.70
 -28   5  -3  208.58   24.70
  23 -28  -3  228.58   24.90
  28  -5   3  228.08   31.90
  -5 -23   3  195.58   13.40
 -23  28   3  225.78   24.70
 -28   8  -3  392.56   40.40
 -28   8  -3  405.16   28.60
  20 -28  -3  346.87   22.40
   8  20  -3  374.46   35.00
  -8 -20   3  329.87   18.20
 -20  28   3  324.67   27.60
  28  -8   3  337.27   37.60
  11  17  -3  244.88   31.20
 -28  11  -3  190.18   27.00
 -17  28   3  238.38   23.90
 -11 -17   3  213.68   19.50
 -28  14  -3  293.97   37.10
 -14 -14   3  273.17   24.20
 -14  28   3  311.67   24.50
 -28  17  -3  430.86   32.60
 -28  17  -3  436.66   41.30
 -11  28   3  377.76   23.70
  28 -17   3  363.76   35.90
 -17 -11   3  424.96   31.30
 -28  20  -3  212.48   29.00
  20   8  -3  203.58   27.50
 -28  20  -3  202.38   25.70
  -8  28   3  221.28   19.90
 -20  -8   3  252.47   32.40
  28 -20   3  320.67   37.30
 -28  23  -3  153.18   31.40
  23   5  -3  254.97   34.00
 -28  23  -3  177.38   23.90
  28 -23   3  229.88   31.50
 -23  -5   3  207.08   28.60
  -5  28   3  188.88   20.40
 -28  26  -3  147.69   33.80
  26   2  -3  100.59   22.40
 -28  26  -3  168.08   24.60
  -2  28   3  165.08   21.30
 -26  -2   3   71.19   27.70
  -2  28   3  155.48   20.30
  28 -26   3  157.88   27.60
  -2  28   3  133.79   14.40
   4  25  -3  104.19   27.70
 -29   4  -3  125.09   23.20
 -29   4  -3  116.49   17.00
  25 -29  -3   89.79   18.60
  29  -4   3  139.49   29.90
 -25  29   3  133.79   22.20
   7  22  -3   92.49   23.20
 -29   7  -3  117.09   18.60
 -29   7  -3   80.79   27.10
  22 -29  -3  107.09   15.70
 -22  29   3  104.29   19.50
  -7 -22   3   94.59   11.70
  29  -7   3  111.39   24.20
 -29  10  -3   11.60   14.30
  10  19  -3   55.99   20.80
 -29  10  -3  107.39   27.30
  29 -10   3   22.50   21.10
 -10 -19   3   73.69   11.30
 -19  29   3   73.79   16.90
 -29  13  -3   51.49   24.90
  13  16  -3   85.99   21.90
 -16  29   3   79.49   15.30
 -13 -16   3   64.59   13.20
  29 -13   3   84.79   28.80
 -29  16  -3   20.20   16.50
 -29  16  -3   19.10   23.80
 -13  29   3   18.90   13.00
 -16 -13   3   -9.60   13.40
  29 -16   3    4.30   20.80
 -29  19  -3   47.70   19.30
 -29  19  -3  120.59   28.90
  19  10  -3   61.59   21.50
 -19 -10   3   58.49   19.40
  29 -19   3   90.79   27.70
 -10  29   3   62.19   13.00
  22   7  -3   58.69   22.30
 -29  22  -3   60.89   20.80
 -29  22  -3   85.19   29.40
  29 -22   3  121.49   27.30
  -7  29   3   98.49   15.10
 -29  25  -3  111.19   32.50
 -29  25  -3   29.70   19.20
  25   4  -3   62.29   20.50
  29 -25   3   47.90   24.10
 -25  -4   3   71.89   25.90
  -4  29   3   95.69   15.50
   6  24  -3    0.70   23.30
 -30   6  -3   -1.30   15.20
  24 -30  -3   43.50   16.40
 -24  30   3   35.00   19.40
  30  -6   3   31.60   23.00
   9  21  -3  237.18   31.00
 -30   9  -3  314.97   42.50
  30  -9   3  319.57   40.70
  -9 -21   3  279.77   14.10
 -21  30   3  298.97   30.30
  12  18  -3  225.88   28.70
 -30  12  -3  259.67   35.10
 -12 -18   3  299.37   19.30
  30 -12   3  258.07   33.40
 -18  30   3  294.67   28.60
 -30  15  -3  354.96   42.90
 -30  15  -3  259.37   31.30
 -15 -15   3  347.77   24.50
  30 -15   3  319.47   41.70
 -15  30   3  311.07   27.20
  18  12  -3  290.97   33.70
 -30  18  -3  350.56   44.20
 -30  18  -3  283.17   33.80
 -18 -12   3  341.57   29.00
  30 -18   3  235.48   32.50
 -12  30   3  364.66   27.40
 -30  21  -3  423.46   38.00
  21   9  -3  335.67   38.20
 -30  21  -3  384.96   47.70
 -21  -9   3  385.96   34.30
  30 -21   3  464.75   44.60
  -9  30   3  344.27   26.90
 -30  24  -3  128.99   35.00
  24   6  -3   91.09   22.40
 -30  24  -3   65.39   19.80
  30 -24   3   59.99   26.20
 -24  -6   3  104.49   26.80
  -6  30   3  125.19   17.00
   8  23  -3  160.78   29.00
  23 -31  -3  117.29   17.60
  31  -8   3  107.69   37.20
 -23  31   3  105.69   22.80
  11  20  -3  118.79   25.30
 -31  11  -3  108.19   32.00
 -31  11  -3  150.08   22.50
 -11 -20   3  125.39   11.90
 -20  31   3  115.49   20.50
  31 -11   3   52.09   21.90
 -31  14  -3  258.77   32.40
 -31  14  -3  231.78   33.50
 -17  31   3  283.47   29.50
  31 -14   3  213.98   30.40
 -14 -17   3  286.97   19.70
 -31  17  -3  290.77   38.20
 -31  17  -3  314.07   35.10
 -17 -14   3  247.18   25.30
  31 -17   3  185.58   30.90
 -14  31   3  271.17   26.80
  20  11  -3  166.68   26.90
 -31  20  -3  170.08   26.90
 -31  20  -3  206.48   35.40
 -11  31   3  222.28   35.30
 -20 -11   3  288.77   30.40
  31 -20   3  186.88   31.20
 -31  23  -3  104.29   23.30
  23   8  -3   52.99   23.70
 -31  23  -3  141.99   34.90
  31 -23   3  110.89   30.50
  -8  31   3  123.69   18.60
 -32  10  -3   52.09   19.60
 -32  13  -3   49.80   28.90
  13  19  -3  129.09   28.10
 -32  13  -3   84.89   21.20
 -13 -19   3   64.69    7.70
 -19  32   3   43.30   19.30
 -32  16  -3    2.00   27.50
 -32  16  -3   31.50   20.60
 -16 -16   3   33.40   11.80
 -16  32   3   27.90   16.70
  32 -16   3   74.99   25.20
  19  13  -3   12.00   21.50
 -32  19  -3   -4.20   30.00
 -32  19  -3   36.00   21.10
  32 -19   3   55.99   25.50
 -13  32   3    9.10   17.40
 -19 -13   3   50.09   15.80
   0   1  -4   63.59    8.30
   1  -1  -4   58.79    8.10
  -1   0  -4   72.79    9.20
  -1   0  -4   66.49    7.60
   0   1  -4   61.19    9.00
  -1   1   4   82.49    9.20
   1   0   4   66.49    8.10
   0  -1   4   77.99    9.50
  -1   3  -4   35.40    6.80
  -2  -1  -4   51.99    7.80
  -1   3  -4   39.10    7.80
  -2  -1  -4   54.59    6.50
  -3   2   4   60.29    8.50
   2   1   4   59.29    8.10
   1  -3   4   66.09    9.00
   2   1   4   62.69    7.90
  -2   2  -4  368.56   17.50
  -2   2  -4  377.06   15.70
   0  -2  -4  369.06   15.60
   2   0  -4  386.96   15.90
   2  -2   4  361.66   16.10
   0   2   4  357.56   15.10
  -2   0   4  358.26   17.00
   2  -2   4  353.26   16.90
  -2   5  -4  104.19   13.60
  -3  -2  -4  106.29   10.30
  -2   5  -4  110.79   11.10
  -5   3   4   93.39   11.30
   3   2   4   83.79    9.10
   3   2   4   95.89    9.10
   2  -5   4   77.59    9.80
  -3   1  -4  127.39   11.80
   1   2  -4  125.49   10.60
   2  -3  -4  139.19   10.40
  -3   1  -4  137.59    9.60
  -1  -2   4  137.09   12.50
   3  -1   4  140.59   10.90
   3  -1   4  143.69   11.30
  -2   3   4  155.88   11.20
  -3   4  -4   86.29    9.70
  -1  -3  -4   87.59    9.00
  -3   4  -4   71.99   10.10
   3  -4   4   94.29   11.00
   1   3   4  103.39    9.10
   1   3   4  112.39    9.00
  -4   1   4   89.49   11.70
   3  -4   4  100.39   11.00
  -3   7  -4  366.46   20.50
  -3   7  -4  337.87   17.30
  -4  -3  -4  335.87   15.00
   4   3   4  349.37   13.70
   3  -7   4  394.66   18.80
   4   3   4  361.46   16.00
   0   4  -4  258.77   14.60
  -4   0  -4  236.38   14.00
  -4   0  -4  235.78   11.00
   0   4  -4  225.28   15.80
   4   0   4  178.28   12.20
  -4   4   4  201.78   13.00
   0  -4   4  168.28   13.90
   4   0   4  187.68   11.70
  -4   3  -4   93.89    9.50
   3   1  -4   98.19   10.20
   1  -4  -4  107.49    9.10
  -4   3  -4   92.29   11.60
   4  -3   4  117.79   11.20
   4  -3   4  129.39   11.70
  -1   4   4  123.89    9.90
  -3  -1   4  119.99   12.80
  -4   6  -4  360.66   17.30
  -2  -4  -4  354.96   14.30
   4  -6   4  364.56   17.60
   2   4   4  337.07   13.00
   2   4   4  338.47   14.10
  -6   2   4  332.77   17.90
   4  -6   4  318.27   17.90
  -4   9  -4    8.80    6.60
  -5  -4  -4   16.20    5.80
  -4   9  -4    5.20    8.70
   5   4   4   14.00    5.10
   5   4   4    6.80    4.90
   4  -9   4   17.40    7.10
  -1   6  -4  247.48   17.60
  -1   6  -4  230.98   14.80
  -5  -1  -4  243.88    9.80
  -5  -1  -4  222.18   13.60
   5   1   4  245.18   14.00
   1  -6   4  230.48   15.30
   5   1   4  229.58   12.30
  -5   2  -4   79.79   10.80
   2   3  -4   73.29    9.70
  -5   2  -4   51.99    7.00
   3  -5  -4   64.39    7.40
   5  -2   4   41.70    7.40
  -2  -3   4   27.00    8.30
   5  -2   4   41.20    8.20
   0  -5  -4  753.92   20.80
  -5   5  -4  740.23   24.60
  -5   5  -4  776.22   27.70
   5  -5   4  833.32   26.70
   5  -5   4  875.81   29.50
   0   5   4  864.31   30.90
   0   5   4  863.31   22.50
  -5   0   4  861.81   28.80
  -5   8  -4 1644.84   43.50
  -3  -5  -4 1630.44   37.90
  -5   8  -4 1671.83   46.80
   3   5   4 1681.63   35.90
   3   5   4 1703.83   39.70
   5  -8   4 1627.24   46.80
   5  -8   4 1693.23   43.40
  -8   3   4 1674.83   45.00
  -5  11  -4 1308.67   42.30
  -6  -5  -4 1319.57   34.10
  -5  11  -4 1223.28   38.00
   6   5   4 1204.48   28.00
   6   5   4 1219.58   33.40
   5 -11   4 1173.18   35.30
  -2   8  -4  193.28   14.60
  -6  -2  -4  205.48   13.50
  -2   8  -4  209.08   17.80
   6   2   4  226.58   11.90
   6   2   4  258.97   14.40
   2  -8   4  262.67   16.50
  -6   1  -4  234.28   11.70
  -6   1  -4  256.27   15.40
   1   5  -4  229.88   14.90
   6  -1   4  194.98   12.30
   6  -1   4  212.88   13.90
  -1  -5   4  191.18   14.90
   4   2  -4  230.38   14.80
   2  -6  -4  238.98   10.60
  -6   4  -4  228.78   15.70
  -6   4  -4  216.88   12.90
   6  -4   4  231.58   15.10
  -4  -2   4  237.78   15.90
   6  -4   4  248.98   14.20
  -6   7  -4  181.88   13.30
  -1  -6  -4  200.78    9.90
  -6   7  -4  198.08   16.80
   6  -7   4  193.28   14.30
   1   6   4  214.48   12.40
   1   6   4  202.28    9.50
  -7   1   4  215.68   16.60
   6  -7   4  204.48   15.80
  -6  10  -4  872.71   33.30
  -6  10  -4  894.41   30.20
  -4  -6  -4  860.91   24.40
   4   6   4  826.32   20.10
   6 -10   4  818.52   31.00
   6 -10   4  820.62   28.10
   4   6   4  859.01   24.80
  -6  13  -4 1703.53   47.30
  -6  13  -4 1640.44   50.49
  -7  -6  -4 1647.74   41.50
   7   6   4 1622.84   42.30
   6 -13   4 1629.24   44.20
   7   6   4 1674.13   35.80
  -3  10  -4 2434.76   59.89
  -7  -3  -4 2427.86   55.59
  -3  10  -4 2430.46   63.19
   7   3   4 2372.76   49.60
   7   3   4 2300.77   54.89
   3 -10   4 2313.87   56.39
  -7   0  -4  393.36   18.10
   0   7  -4  371.46   18.80
  -7   0  -4  375.06   13.50
   7   0   4  303.87   14.10
   7   0   4  290.67   16.40
   0  -7   4  280.97   17.30
  -7   3  -4  582.14   23.10
  -7   3  -4  559.44   19.60
   4  -7  -4  568.84   16.80
   3   4  -4  588.04   22.90
  -3  -4   4  619.34   24.70
   7  -3   4  623.84   21.60
  -7   6  -4  294.47   15.80
  -7   6  -4  323.67   19.00
   1  -7  -4  305.87   11.00
   7  -6   4  296.37   18.10
  -6  -1   4  284.37   18.00
   7  -6   4  296.67   16.10
  -2  -7  -4  174.58    9.90
  -7   9  -4  167.18   13.70
  -7   9  -4  193.08   17.00
   2   7   4  158.88    9.80
   7  -9   4  147.59   13.50
  -9   2   4  186.48   16.90
   7  -9   4  154.78   15.30
  -7  12  -4  230.38   16.30
  -7  12  -4  220.78   19.80
  -5  -7  -4  213.78   12.70
   7 -12   4  234.78   18.10
   5   7   4  230.48    9.30
   7 -12   4  223.78   16.10
   5   7   4  237.08   13.00
  -8  -7  -4  511.45   21.00
  -7  15  -4  468.35   27.40
  -7  15  -4  477.75   24.20
  15  -8  -4  506.25   22.30
   7 -15   4  518.25   23.10
   8   7   4  504.65   15.90
   8   7   4  510.55   21.60
  -4  12  -4  611.94   29.10
  -4  12  -4  640.34   25.60
  -8  -4  -4  583.94   22.50
  12  -8  -4  594.14   21.50
   8   4   4  681.43   24.80
   8   4   4  687.73   20.20
   4 -12   4  689.33   26.20
  -8  -1  -4  147.39   13.00
  -8  -1  -4  157.38    7.80
  -1   9  -4  155.28   17.90
  -1   9  -4  146.49   14.00
   8   1   4  110.09   10.30
   8   1   4  137.99   12.60
   1  -9   4  127.99   14.10
  -8   2  -4  300.77   17.20
  -8   2  -4  304.27   13.80
   2   6  -4  302.47   17.30
   8  -2   4  306.27   15.20
   8  -2   4  321.97   17.80
  -2  -6   4  314.27   18.10
   5   3  -4 1517.45   42.20
  -8   5  -4 1568.34   40.00
   3  -8  -4 1536.15   32.30
  -8   5  -4 1585.64   43.50
   8  -5   4 1580.04   40.30
  -5  -3   4 1630.64   44.00
   8  -5   4 1545.35   44.10
  -8   8  -4  955.70   30.30
   0  -8  -4  935.11   21.90
  -8   8  -4  948.81   33.00
   8  -8   4  895.41   28.50
  -8   0   4  876.21   31.10
   8  -8   4  871.71   31.90
   0   8   4  873.81   21.60
  -8  11  -4  140.59   17.40
  -8  11  -4  110.49   12.60
  -3  -8  -4  121.99    9.40
 -11   3   4  132.39   16.80
   8 -11   4  144.79   13.70
   8 -11   4  130.29   15.70
   3   8   4  122.89    9.40
  -8  14  -4  255.17   21.30
  -8  14  -4  276.47   18.70
  -6  -8  -4  297.17   15.30
   6   8   4  293.07   10.50
   8 -14   4  309.17   18.40
   6   8   4  301.67   15.20
  -8  17  -4  149.39   20.60
  -8  17  -4  127.79   16.60
  17  -9  -4  124.49   14.50
   8 -17   4  123.49   14.60
   9   8   4  118.19   13.50
   9   8   4  123.49    9.60
  14  -9  -4  223.88   14.80
  -5  14  -4  258.17   18.20
  -5  14  -4  246.08   21.30
  -9  -5  -4  231.98   16.30
   9   5   4  229.18   12.10
   5 -14   4  225.08   16.80
   9   5   4  261.97   16.20
  11  -9  -4  851.51   25.30
  -2  11  -4  904.01   31.40
  -9  -2  -4  853.41   28.50
  -2  11  -4  857.61   34.20
   9   2   4  812.02   28.40
   9   2   4  831.22   23.80
   2 -11   4  840.82   29.10
   1   8  -4  279.47   17.70
  -9   1  -4  293.17   12.90
  -9   1  -4  324.47   17.80
   9  -1   4  276.37   14.20
   9  -1   4  258.77   16.70
  -1  -8   4  266.77   17.50
  -9   4  -4   25.50    6.50
  -9   4  -4   22.50    8.50
   4   5  -4   29.20    8.20
   5  -9  -4   26.00    4.30
  -4  -5   4    4.90    7.30
   9  -4   4    9.50    6.30
   9  -4   4   11.60    6.70
   2  -9  -4   22.30    3.20
  -9   7  -4   22.00    8.90
  -9   7  -4   13.00    6.30
   9  -7   4   13.30    6.60
  -7  -2   4    7.80    7.80
   9  -7   4   19.80    8.20
  -1  -9  -4  360.36   12.20
  -9  10  -4  402.66   19.70
  -9  10  -4  402.16   22.90
 -10   1   4  353.46   21.20
   9 -10   4  368.46   21.50
   1   9   4  370.26   12.70
   9 -10   4  374.86   18.90
  -9  13  -4  480.75   26.30
  -9  13  -4  491.15   23.10
  -4  -9  -4  468.75   17.20
   9 -13   4  448.16   21.50
   4   9   4  451.75   17.00
   9 -13   4  454.15   24.40
  -9  16  -4 1024.40   40.60
  -9  16  -4 1114.59   37.80
  16  -7  -4 1085.19   35.70
   7   9   4 1042.30   31.70
   7   9   4 1053.49   23.80
   9 -16   4 1050.19   34.40
  -9  19  -4  698.33   36.20
  19 -10  -4  638.34   28.60
  -9  19  -4  622.24   32.00
  10   9   4  599.94   19.00
   9 -19   4  600.94   27.00
  10   9   4  605.54   26.40
  -6  16  -4 1582.34   51.29
  16 -10  -4 1534.15   42.60
 -10  -6  -4 1511.85   42.40
  -6  16  -4 1501.45   46.60
   6 -16   4 1577.24   44.40
  10   6   4 1603.74   45.00
  10   6   4 1584.44   36.60
  -3  13  -4 2464.65   65.49
  13 -10  -4 2365.46   54.69
 -10  -3  -4 2392.76   57.69
  -3  13  -4 2317.37   60.79
   3 -13   4 2474.75   59.49
  10   3   4 2460.75   52.69
  10   3   4 2360.76   59.59
 -10   0  -4 2160.48   46.30
  10 -10  -4 2131.49   47.30
 -10   0  -4 2215.58   54.39
   0  10  -4 2243.28   56.69
  10   0   4 2313.77   57.79
   0 -10   4 2273.87   56.79
  10   0   4 2293.77   51.19
 -10   3  -4 2336.77   52.29
 -10   3  -4 2293.67   56.89
   7 -10  -4 2272.97   46.00
   3   7  -4 2323.27   57.99
  10  -3   4 2251.87   56.79
  -3  -7   4 2195.18   55.29
  10  -3   4 2200.98   51.09
 -10   6  -4  880.01   27.90
 -10   6  -4  895.41   31.60
   6   4  -4  873.11   30.60
  -6  -4   4  910.21   31.80
  10  -6   4  892.51   32.00
  10  -6   4  883.21   28.00
 -10   9  -4  326.37   17.50
 -10   9  -4  319.77   20.70
  10  -9   4  312.77   17.70
  -9  -1   4  321.67   20.60
 -10  12  -4   34.00   11.30
 -10  12  -4   28.50    8.20
  10 -12   4   51.69   11.20
 -12   2   4   42.60   12.00
  10 -12   4   51.49   10.40
 -10  15  -4  361.36   25.10
 -10  15  -4  358.26   21.00
  10 -15   4  361.66   20.40
   5  10   4  355.46   16.10
  10 -15   4  371.36   23.00
  18  -8  -4  375.56   22.30
 -10  18  -4  327.47   26.90
 -10  18  -4  409.06   28.80
  10 -18   4  372.96   21.60
   8  10   4  355.16   12.50
   8  10   4  359.86   19.30
 -10  21  -4  264.37   24.20
 -10  21  -4  280.97   28.80
  21 -11  -4  261.97   21.20
  10 -21   4  212.48   20.60
  11  10   4  193.98   18.90
 -11  -7  -4  669.73   27.60
  -7  18  -4  649.24   34.70
  -7  18  -4  664.33   30.80
  18 -11  -4  639.54   27.10
  11   7   4  700.13   21.80
   7 -18   4  700.13   28.40
  11   7   4  711.63   28.90
  15 -11  -4 1069.89   32.40
  -4  15  -4 1083.69   37.10
 -11  -4  -4 1060.39   34.10
  -4  15  -4 1064.29   41.20
   4 -15   4 1170.48   36.50
  11   4   4 1214.78   38.10
  11   4   4 1195.08   30.80
 -11  -1  -4  654.83   26.20
  -1  12  -4  683.13   28.10
  -1  12  -4  651.93   31.10
  12 -11  -4  690.83   21.90
 -11  -1  -4  709.83   18.30
  11   1   4  754.92   23.80
  11   1   4  752.42   28.60
   1 -12   4  730.03   27.90
 -11   2  -4 1117.59   35.10
   2   9  -4 1040.10   35.20
   9 -11  -4 1062.39   33.60
 -11   2  -4 1135.09   29.80
  11  -2   4 1064.99   35.10
  11  -2   4 1080.19   30.40
  -2  -9   4 1074.79   34.80
   5   6  -4 1112.59   35.70
 -11   5  -4 1099.59   31.80
 -11   5  -4 1076.89   35.40
  11  -5   4 1034.80   30.70
  -5  -6   4 1030.50   34.20
  11  -5   4 1018.40   35.10
 -11   8  -4  157.78   13.30
 -11   8  -4  180.18   16.00
  11  -8   4  164.88   13.80
  11  -8   4  132.29   14.80
  -8  -3   4  151.58   16.40
 -11  11  -4  450.95   25.40
 -11  11  -4  467.35   21.80
   0  11   4  478.15   13.10
  11 -11   4  499.15   25.00
 -11   0   4  474.15   24.90
  11 -11   4  507.85   22.30
 -11  14  -4  119.39   17.00
 -11  14  -4  105.39   13.90
 -14   3   4   66.99   12.70
  11 -14   4   93.49   12.20
   3  11   4   83.49    8.50
  11 -14   4   77.89   13.50
 -11  17  -4  162.88   20.30
  17  -6  -4  171.78   17.00
 -11  17  -4  156.18   17.90
  11 -17   4  186.38   17.30
   6  11   4  166.68   13.20
  11 -17   4  156.28   19.00
  20  -9  -4  101.89   15.50
 -11  20  -4   94.99   16.40
 -11  20  -4   65.99   19.00
   9  11   4  101.59   13.30
  11 -20   4   85.79   13.30
   9  11   4  116.89    9.70
 -11  23  -4   85.49   22.50
  23 -12  -4  115.99   17.60
 -11  23  -4  135.19   19.50
  12  11   4  113.09   16.80
  11 -23   4  108.69   16.30
  20 -12  -4  127.89   16.70
  -8  20  -4  119.09   20.00
  -8  20  -4  102.59   16.00
   8 -20   4  138.09   15.80
  12   8   4  118.59   16.30
 -12  -5  -4  356.16   21.20
  -5  17  -4  363.76   23.20
  -5  17  -4  326.37   27.30
  17 -12  -4  326.27   18.60
  12   5   4  311.77   16.10
  12   5   4  365.96   21.50
   5 -17   4  310.47   20.20
  -2  14  -4  382.76   22.30
  14 -12  -4  355.16   16.60
  -2  14  -4  340.87   25.40
 -12  -2  -4  360.06   20.60
  12   2   4  296.57   19.20
   2 -14   4  278.87   18.60
  12   2   4  329.67   16.10
 -12   1  -4  732.83   28.30
  11 -12  -4  712.43   20.70
 -12   1  -4  719.53   21.70
   1  11  -4  719.83   29.00
  12  -1   4  782.32   30.40
  -1 -11   4  813.92   29.70
  12  -1   4  788.02   25.20
   4   8  -4  828.62   30.90
   8 -12  -4  851.81   19.40
 -12   4  -4  859.41   26.70
 -12   4  -4  881.21   31.50
  12  -4   4  948.01   33.90
  12  -4   4  984.80   29.80
  -4  -8   4  947.91   32.90
   7   5  -4  431.56   21.80
 -12   7  -4  443.26   23.20
 -12   7  -4  411.46   19.40
  12  -7   4  441.76   23.70
  -7  -5   4  464.65   23.60
  12  -7   4  461.15   20.40
 -12  10  -4  132.19   13.40
 -12  10  -4  146.19   16.80
  12 -10   4  168.08   16.50
 -10  -2   4  159.08   17.40
  12 -10   4  124.29   14.50
 -12  13  -4  116.39   16.50
 -12  13  -4  116.99   14.40
 -13   1   4  149.49   18.40
  12 -13   4  125.79   16.40
   1  12   4  121.59    7.60
  12 -13   4  114.79   14.20
 -12  16  -4  117.89   17.90
 -12  16  -4   72.89   11.60
 -16   4   4   67.89   13.40
  12 -16   4   92.79   14.50
   4  12   4   99.29   10.10
  12 -16   4   79.49   12.40
  19  -7  -4  129.49   17.30
 -12  19  -4   84.29   17.10
 -12  19  -4  125.89   16.70
  12 -19   4  110.69   14.60
   7  12   4  109.79    7.30
   7  12   4  109.79   13.20
  22 -10  -4  180.48   20.70
 -12  22  -4  162.78   26.30
 -12  22  -4  168.28   22.40
  10  12   4  169.98   18.40
  12 -22   4  173.28   20.90
  25 -13  -4   38.40   14.90
 -12  25  -4    1.90   20.70
 -12  25  -4   57.09   16.60
  12 -25   4   64.29   20.40
  13  12   4   56.59   15.40
  22 -13  -4  344.77   23.90
  -9  22  -4  313.37   26.50
  -9  22  -4  315.57   40.30
   9 -22   4  362.76   24.50
  13   9   4  332.87   24.20
 -13  -6  -4 1424.56   43.90
  19 -13  -4 1427.66   42.20
  -6  19  -4 1472.45   51.69
  -6  19  -4 1136.49   52.29
   6 -19   4 1400.46   42.50
  13   6   4 1448.36   45.60
  -3  16  -4 2562.14   70.99
  -3  16  -4 2504.45   65.99
 -13  -3  -4 2483.45   62.79
  16 -13  -4 2443.46   58.59
  13   3   4 2584.84   57.19
  13   3   4 2552.74   66.19
   3 -16   4 2568.04   62.59
 -13   0  -4 2270.87   58.49
 -13   0  -4 2202.38   48.10
  13 -13  -4 2273.17   50.89
   0  13  -4 2319.97   60.69
   0 -13   4 2278.47   57.49
  13   0   4 2274.27   60.29
  13   0   4 2299.87   52.69
 -13   3  -4 2866.71   62.19
  10 -13  -4 2799.92   56.59
 -13   3  -4 2809.82   68.49
   3  10  -4 2779.12   69.39
  13  -3   4 2912.41   72.39
  -3 -10   4 2913.91   69.29
  13  -3   4 2942.81   64.99
 -13   6  -4 1885.91   47.30
   6   7  -4 1839.32   51.39
 -13   6  -4 1877.61   51.99
  -6  -7   4 1771.12   49.90
  13  -6   4 1848.02   46.30
  13  -6   4 1843.92   52.39
 -13   9  -4  794.42   32.00
 -13   9  -4  791.32   28.20
  13  -9   4  758.62   31.40
  13  -9   4  747.43   27.00
  -9  -4   4  725.33   30.20
 -13  12  -4   33.90   12.30
 -13  12  -4   16.60    8.20
 -12  -1   4   49.30   11.50
  13 -12   4   49.50   10.00
  13 -12   4   39.10   10.40
 -13  15  -4   39.40   12.90
 -13  15  -4   44.20   10.60
  13 -15   4   28.90   10.40
 -15   2   4   46.10   12.90
   2  13   4   30.10    6.70
  13 -15   4   16.20    9.00
  18  -5  -4  312.17   22.30
 -13  18  -4  281.57   27.20
 -13  18  -4  314.87   22.40
  13 -18   4  291.77   24.30
   5  13   4  263.17   15.20
  13 -18   4  287.77   21.30
 -13  21  -4  221.88   41.80
 -13  21  -4  228.58   22.90
  21  -8  -4  277.27   22.70
   8  13   4  195.58   17.10
  13 -21   4  190.58   21.00
  24 -11  -4   53.19   14.50
 -13  24  -4   69.09   21.60
 -13  24  -4   70.39   16.10
  11  13   4   86.69   15.50
 -13  27  -4   42.10   23.50
  27 -14  -4   38.00   14.90
 -13  27  -4   80.89   19.90
  14  13   4   34.40   16.30
 -10  24  -4   77.39   22.90
  24 -14  -4   36.90   14.10
 -10  24  -4   47.30   15.60
  10 -24   4   31.90   12.90
  14  10   4   27.60   13.50
  -7  21  -4  140.69   18.80
  -7  21  -4  152.18   24.60
  21 -14  -4  179.38   18.80
  14   7   4  146.89   18.10
   7 -21   4  163.58   19.50
  -4  18  -4  688.63   36.90
  -4  18  -4  650.93   31.30
 -14  -4  -4  722.23   30.80
  18 -14  -4  666.63   26.70
   4 -18   4  792.92   30.10
  14   4   4  737.43   31.90
  14   4   4  753.22   25.60
 -14  -1  -4  751.52   30.70
  -1  15  -4  740.73   32.00
  -1  15  -4  788.82   37.00
  15 -14  -4  745.83   24.90
  14   1   4  752.12   26.10
   1 -15   4  753.52   29.20
  14   1   4  827.42   32.60
 -14   2  -4  370.86   22.50
   2  12  -4  387.36   22.70
 -14   2  -4  356.26   15.90
  12 -14  -4  356.06   13.80
  14  -2   4  339.27   17.80
  14  -2   4  321.77   21.70
  -2 -12   4  296.27   19.80
 -14   5  -4  122.79   16.00
   5   9  -4  118.69   14.70
 -14   5  -4  115.49   12.10
   9 -14  -4  125.59    5.80
  14  -5   4  124.59   15.70
  14  -5   4  110.49   13.00
  -5  -9   4  100.09   13.90
   8   6  -4  350.66   21.10
 -14   8  -4  320.47   18.30
 -14   8  -4  336.87   22.00
  14  -8   4  375.26   22.90
  -8  -6   4  336.07   22.20
  14  -8   4  353.16   19.10
 -14  11  -4   90.59   11.90
 -14  11  -4   48.40   11.80
  14 -11   4  111.19   14.90
  14 -11   4   98.19   15.00
 -11  -3   4   93.59   13.80
 -14  14  -4   60.09   14.10
 -14  14  -4   67.99   11.80
  14 -14   4   80.39   12.80
 -14   0   4   85.49   15.10
  14 -14   4   76.19   14.40
   0  14   4   81.49    5.80
 -14  17  -4  168.38   20.10
 -14  17  -4  134.19   20.50
  14 -17   4  165.98   20.00
   3  14   4  140.49   10.80
 -17   3   4  177.48   21.00
  14 -17   4  149.29   17.60
  20  -6  -4  195.98   20.60
 -14  20  -4  174.78   23.00
 -14  20  -4  161.68   19.30
  14 -20   4  159.18   19.00
  14 -20   4  196.68   22.70
   6  14   4  132.49   13.70
 -14  23  -4   55.49   16.00
 -14  23  -4   72.99   20.40
  23  -9  -4   78.89   15.40
   9  14   4   29.70   10.80
  14 -23   4   71.69   19.30
 -14  26  -4   11.80   21.20
 -14  26  -4   58.29   18.30
  26 -12  -4   42.50   14.90
  12  14   4   47.10   14.60
 -14  29  -4   10.00   20.90
  29 -15  -4  -10.40   24.30
 -14  29  -4   43.40   25.80
  15  14   4    5.90   16.50
 -11  26  -4  -35.00   14.90
  26 -15  -4   31.40   14.30
 -11  26  -4  -12.10   21.80
  15  11   4    3.00   14.30
  11 -26   4   25.20   13.60
  -8  23  -4  198.58   21.70
  23 -15  -4  256.17   36.70
  -8  23  -4  244.98   28.60
   8 -23   4  236.28   22.90
  -5  20  -4  157.18   20.80
  20 -15  -4  139.29   16.90
 -15  -5  -4  164.68   21.20
  -5  20  -4  127.69   21.10
  15   5   4  127.09   16.50
   5 -20   4  136.19   16.10
  -2  17  -4   66.69   14.40
  -2  17  -4   55.59   16.80
  17 -15  -4   92.39   11.50
 -15  -2  -4  110.49   15.90
  15   2   4   92.49   11.80
  15   2   4  114.69   16.20
   2 -17   4  106.89   13.90
   1  14  -4 1073.79   38.50
 -15   1  -4 1093.49   37.80
 -15   1  -4 1055.19   28.60
  14 -15  -4 1037.10   28.90
  15  -1   4 1091.29   33.10
  -1 -14   4 1071.29   35.80
  15  -1   4 1123.19   39.60
  11 -15  -4  924.31   23.00
 -15   4  -4  972.80   35.30
   4  11  -4  982.30   36.20
 -15   4  -4  920.61   29.10
  15  -4   4 1063.69   32.60
  15  -4   4 1067.59   38.40
  -4 -11   4  995.40   35.10
 -15   7  -4  760.32   32.20
   7   8  -4  809.12   32.00
 -15   7  -4  789.12   27.90
  15  -7   4  830.82   34.00
  -7  -8   4  782.22   31.60
  15  -7   4  800.62   28.60
 -15  10  -4  392.56   24.50
 -15  10  -4  384.76   20.80
 -10  -5   4  412.26   24.00
  15 -10   4  383.26   23.90
  15 -10   4  373.56   20.90
 -15  13  -4   21.10    8.30
 -15  13  -4    5.30   11.80
 -13  -2   4   22.30   11.10
  15 -13   4   10.10    8.70
  15 -13   4   18.30    9.60
 -15  16  -4   28.90   13.00
  15 -16   4   22.50   10.80
  15 -16   4   38.20   10.70
   1  15   4   35.80    5.20
 -16   1   4   41.70   14.50
 -15  19  -4   22.20   11.40
 -15  19  -4    7.60   13.90
  19  -4  -4   26.50   11.40
   4  15   4   19.00    6.70
  15 -19   4   22.20   13.40
  15 -19   4    4.60    9.90
 -15  22  -4  -11.00   11.90
 -15  22  -4   39.70   18.80
  22  -7  -4    7.90   11.60
   7  15   4   16.20    8.90
  15 -22   4   20.80   12.70
  15 -22   4   31.70   14.90
   7  15   4   22.70    5.50
  25 -10  -4   91.79   17.10
 -15  25  -4   61.89   22.60
 -15  25  -4   66.29   17.80
  10  15   4   77.59   15.00
  15 -25   4   98.49   17.20
 -15  28  -4   70.79   21.00
 -15  28  -4   28.20   24.80
  13  15   4   74.39   17.10
  31 -16  -4  100.99   23.40
 -15  31  -4  125.09   32.60
 -15  31  -4   78.39   25.70
  16  15   4  117.09   23.80
 -12  28  -4   44.20   25.80
 -12  28  -4   66.49   20.60
  16  12   4   26.30   17.80
  -9  25  -4   91.99   25.40
  25 -16  -4   61.09   14.10
  -9  25  -4   32.40   16.50
   9 -25   4   57.09   15.10
  16   9   4   84.39   17.90
  -6  22  -4  152.98   24.20
  22 -16  -4  169.98   19.10
  -6  22  -4  148.19   19.00
   6 -22   4  202.78   20.90
  16   6   4  163.48   21.70
  19 -16  -4  959.30   32.60
 -16  -3  -4  991.40   38.50
  -3  19  -4  996.60   45.30
  -3  19  -4 1017.10   39.80
   3 -19   4 1012.00   35.50
  16   3   4 1059.89   40.40
 -16   0  -4 1271.77   31.50
 -16   0  -4 1272.97   43.10
   0  16  -4 1252.37   43.40
  16 -16  -4 1254.77   35.00
  16   0   4 1344.37   38.70
  16   0   4 1418.56   46.90
   0 -16   4 1384.16   41.50
  13 -16  -4 2338.07   50.49
   3  13  -4 2314.57   63.19
 -16   3  -4 2336.57   54.39
 -16   3  -4 2362.26   62.89
  16  -3   4 2377.86   57.49
  -3 -13   4 2364.46   60.49
  16  -3   4 2436.06   66.09
 -16   6  -4 1662.83   44.60
   6  10  -4 1668.93   50.09
 -16   6  -4 1666.13   50.49
  16  -6   4 1709.03   53.09
  -6 -10   4 1778.52   50.19
  16  -6   4 1754.92   46.60
 -16   9  -4 1054.09   34.90
 -16   9  -4 1074.29   39.80
   9   7  -4 1028.60   37.70
  16  -9   4 1106.79   35.20
  -9  -7   4 1070.89   38.00
  16  -9   4 1088.39   40.90
 -16  12  -4  157.58   21.50
 -16  12  -4  162.08   16.80
  16 -12   4  199.58   19.70
 -12  -4   4  186.68   20.10
  16 -12   4  177.18   18.00
 -16  15  -4   47.10   14.80
  16 -15   4   22.40   11.50
 -15  -1   4   40.80   14.40
  16 -15   4   23.50   10.10
 -16  18  -4   57.49   12.80
  18  -2  -4   33.70   11.40
 -16  18  -4   70.69   18.00
  16 -18   4   33.20   13.70
   2  16   4   40.10    6.60
  16 -18   4   47.20   12.90
 -18   2   4   56.79   16.70
  21  -5  -4  109.79   17.10
 -16  21  -4  132.89   21.40
 -16  21  -4  100.39   15.50
 -21   5   4   86.49   20.30
  16 -21   4  127.49   17.60
  16 -21   4  142.19   20.60
   5  16   4  126.59   13.60
 -16  24  -4  263.17   35.70
  24  -8  -4  296.17   26.70
 -16  24  -4  362.36   28.50
   8  16   4  311.67   21.70
  16 -24   4  323.67   26.90
  16 -24   4  304.27   30.40
 -16  27  -4  138.59   23.20
 -16  27  -4   97.39   28.10
  11  16   4  149.19   19.70
 -16  30  -4   61.59   30.10
  30 -14  -4   57.79   20.80
 -16  30  -4   53.79   24.80
  14  16   4   73.79   21.10
  30 -17  -4    4.20   18.90
 -13  30  -4  -19.80   22.00
 -13  30  -4   28.60   26.50
  17  13   4  -25.40   18.10
 -10  27  -4   22.00   24.10
 -10  27  -4   13.20   18.70
  27 -17  -4   20.10   14.90
  10 -27   4   36.00   14.40
  17  10   4    8.60   17.20
  -7  24  -4   67.39   22.90
  -7  24  -4   15.40   15.00
  24 -17  -4   30.50   15.20
   7 -24   4   48.90   13.80
  17   7   4   36.10   15.40
  21 -17  -4  299.67   21.10
  -4  21  -4  374.26   26.60
 -17  -4  -4  336.87   26.20
  -4  21  -4  282.07   32.90
  17   4   4  305.77   26.50
   4 -21   4  287.27   22.20
 -17  -1  -4  320.17   24.50
  -1  18  -4  246.38   28.30
  18 -17  -4  340.17   19.10
 -17  -1  -4  339.97   12.60
 -17  -1  -4  337.17   14.50
  -1  18  -4  360.86   30.80
   1 -18   4  386.16   23.50
  15 -17  -4  105.69   11.10
 -17   2  -4  123.69   18.00
 -17   2  -4  116.89   11.70
   2  15  -4   81.19   14.00
  17  -2   4  118.29   16.00
  -2 -15   4  131.89   15.50
  17  -2   4  124.29   16.50
  12 -17  -4  304.77   11.50
 -17   5  -4  292.27   17.40
 -17   5  -4  286.37   22.80
   5  12  -4  268.87   21.50
  -5 -12   4  305.67   21.60
  17  -5   4  280.47   22.20
  17  -5   4  300.37   19.70
   8   9  -4  144.79   16.80
 -17   8  -4  156.88   15.50
 -17   8  -4  167.38   20.00
  17  -8   4  160.28   19.50
  17  -8   4  141.59   16.70
  -8  -9   4  161.98   18.70
 -17  11  -4  213.98   22.10
 -17  11  -4  174.08   17.10
  17 -11   4  165.48   20.80
 -11  -6   4  232.88   21.90
  17 -11   4  223.28   18.70
 -17  14  -4   57.59   15.90
 -14  -3   4   42.20   13.60
  17 -14   4   53.89   12.40
 -17  17  -4   11.60   13.10
 -17  17  -4   10.20   10.00
 -17   0   4    0.90   13.40
  17 -17   4   15.40   10.50
   0  17   4    3.40    3.60
 -17  20  -4  220.48   27.50
  20  -3  -4  212.78   21.70
  17 -20   4  131.49   19.30
   3  17   4  184.28   12.70
  17 -20   4  163.58   21.30
 -20   3   4  242.18   28.40
 -17  23  -4  217.08   24.50
  23  -6  -4  130.49   20.20
 -17  23  -4  158.98   26.70
  17 -23   4  145.59   18.40
   6  17   4  130.49    9.20
 -23   6   4  143.29   23.00
  17 -23   4  133.49   19.90
   6  17   4  129.89   15.90
 -17  26  -4   57.39   18.30
 -17  26  -4   50.09   24.70
   9  17   4   76.79   14.90
 -17  29  -4   37.00   21.10
  29 -12  -4   75.89   20.50
 -17  29  -4   42.90   25.30
  12  17   4  105.29   23.30
 -11  29  -4   14.80   27.10
 -11  29  -4   31.50   21.90
  18  11   4   41.70   19.70
  -8  26  -4   22.10   24.30
  -8  26  -4    1.20   15.90
  26 -18  -4   44.90   15.60
   8 -26   4   40.10   14.20
  18   8   4   10.00   15.80
  -5  23  -4    9.60   20.50
  -5  23  -4    4.60   13.50
  23 -18  -4   -2.00   10.80
   5 -23   4    6.20   11.60
  18   5   4   11.70   13.90
  20 -18  -4  113.89   13.90
  -2  20  -4  110.89   17.50
  -2  20  -4  110.69   23.50
  18   2   4  189.58   23.20
   2 -20   4  143.29   19.30
   1  17  -4  284.57   37.20
 -18   1  -4  354.06   27.10
 -18   1  -4  391.36   16.80
  17 -18  -4  377.86   18.50
  -1 -17   4  399.76   24.00
  18  -1   4  422.76   27.90
 -18   4  -4  825.42   27.90
  14 -18  -4  809.42   23.40
   4  14  -4  826.72   35.80
 -18   4  -4  805.12   35.40
  -4 -14   4  870.51   32.80
  18  -4   4  769.02   47.60
 -18   7  -4  727.13   28.00
   7  11  -4  758.82   33.50
 -18   7  -4  719.23   33.70
  -7 -11   4  754.52   31.80
  18  -7   4  761.82   30.00
  10   8  -4  489.45   27.40
 -18  10  -4  492.35   24.50
 -18  10  -4  517.55   28.80
 -10  -8   4  478.15   27.20
  18 -10   4  493.25   24.90
 -18  13  -4  313.97   32.20
 -18  13  -4  313.87   27.00
  18 -13   4  368.96   26.70
  18 -13   4  285.37   22.40
 -13  -5   4  314.67   25.00
 -18  16  -4  133.69   17.90
  18 -16   4   70.19   17.60
  18 -16   4   70.99   14.60
 -16  -2   4  120.99   18.90
 -18  19  -4    8.20   11.10
  19  -1  -4   11.40   11.00
 -18  19  -4   21.70   14.30
   1  18   4   13.90    7.10
  18 -19   4   15.70   11.30
 -19   1   4  -11.00   14.10
  18 -19   4    9.90   13.10
 -18  22  -4    2.10   14.40
 -18  22  -4   26.00   18.20
  22  -4  -4   31.90   14.70
  18 -22   4   37.50   15.00
   4  18   4   31.60    8.80
 -22   4   4   69.19   19.70
 -18  25  -4  -27.50   14.10
 -18  25  -4  -11.10   20.30
   7  18   4   30.30   11.60
 -25   7   4   36.60   20.90
  18 -25   4  -19.70   14.70
 -18  28  -4   23.30   24.80
 -18  28  -4   13.50   19.10
  28 -10  -4   34.50   18.40
  10  18   4   46.00   16.10
  31 -13  -4  164.58   28.00
 -18  31  -4  151.88   33.20
 -18  31  -4  110.69   27.50
  13  18   4  152.78   24.00
 -12  31  -4   29.40   24.90
  31 -19  -4  -17.00   21.60
 -12  31  -4  -24.30   30.40
  19  12   4    6.40   22.70
  28 -19  -4   86.99   19.90
  -9  28  -4  126.69   25.60
  -9  28  -4  121.69   28.90
  19   9   4   50.79   20.10
  25 -19  -4  186.18   24.00
  -6  25  -4  156.98   27.90
  -6  25  -4  169.48   21.20
  19   6   4  107.59   20.80
   6 -25   4  141.79   17.10
 -19  -3  -4  368.26   29.40
  22 -19  -4  319.87   22.80
  -3  22  -4  321.27   36.20
  -3  22  -4  365.46   29.50
  19   3   4  303.97   29.10
   3 -22   4  346.87   23.80
 -19   0  -4  344.67   15.30
   0  19  -4  377.76   33.40
  19 -19  -4  340.77   20.10
 -19   0  -4  350.76   18.40
 -19   0  -4  368.36   28.20
   0  19  -4  387.56   28.30
  19   0   4  447.46   29.80
   0 -19   4  458.85   25.10
   3  16  -4  887.31   45.40
  16 -19  -4 1031.20   29.50
 -19   3  -4 1050.29   31.40
  19  -3   4 1096.39   44.10
  -3 -16   4 1159.28   38.30
 -19   6  -4 1558.74   52.59
   6  13  -4 1457.95   54.29
  13 -19  -4 1486.45   33.50
 -19   6  -4 1595.14   43.80
  -6 -13   4 1626.14   48.50
  19  -6   4 1638.54   54.39
   9  10  -4  864.61   41.60
 -19   9  -4  881.61   32.70
 -19   9  -4  890.31   39.70
  19  -9   4  844.82   32.60
  -9 -10   4  851.41   34.80
  19  -9   4  869.61   38.50
  19 -12   4  279.77   24.60
 -12  -7   4  214.08   23.70
  19 -12   4  246.38   24.10
 -19  15  -4    0.00   11.20
 -19  15  -4  -14.50   12.70
  19 -15   4    2.70   10.50
 -15  -4   4   -0.80   12.00
  19 -15   4    1.10   11.40
 -19  18  -4   -2.90   15.10
 -19  18  -4  -15.30   11.00
 -18  -1   4   28.20   18.20
  19 -18   4   14.60   11.80
  19 -18   4    6.00   11.20
 -19  21  -4   45.90   19.00
  21  -2  -4   57.99   13.70
  19 -21   4   55.09   17.10
 -21   2   4    8.10   16.40
   2  19   4   54.29    8.00
 -19  24  -4   35.40   16.80
 -19  24  -4   11.60   22.10
  19 -24   4   16.30   17.00
   5  19   4   31.60   10.10
 -24   5   4   27.90   18.70
   5  19   4   34.80    6.50
 -19  27  -4   96.39   21.90
 -19  27  -4  149.88   30.40
  27  -8  -4  100.19   18.70
   8  19   4  170.08   22.20
 -27   8   4  151.68   27.40
 -19  30  -4   71.99   24.00
  30 -11  -4  100.19   25.00
 -19  30  -4  105.49   30.20
 -10  30  -4   26.10   23.10
 -10  30  -4    1.90   27.80
  20  10   4    5.50   21.00
  27 -20  -4   42.80   16.70
  -7  27  -4   30.00   26.50
  -7  27  -4   26.00   19.80
   7 -27   4   26.00   13.60
  20   7   4   16.00   18.20
  -4  24  -4  167.78   27.90
  -4  24  -4  147.09   22.20
  24 -20  -4  181.38   23.30
   4 -24   4  151.18   17.40
  20   4   4  156.28   22.10
  -1  21  -4  110.29   25.30
  21 -20  -4  113.19   14.20
 -20  -1  -4  109.79   19.70
 -20  -1  -4  113.49   11.40
  -1  21  -4  104.19   18.30
 -20  -1  -4  118.49   11.70
  20   1   4   81.99   18.90
   1 -21   4  100.99   14.90
  18 -20  -4   87.89   11.50
   2  18  -4   92.19   16.60
 -20   2  -4   86.99   10.70
 -20   2  -4  108.99   19.00
  20  -2   4  175.48   23.40
  -2 -18   4  145.79   19.10
  15 -20  -4  151.18   11.90
 -20   5  -4  178.68   22.30
   5  15  -4  143.19   17.80
 -20   5  -4  153.48   16.20
  20  -5   4  168.18   22.50
  -5 -15   4  173.98   20.40
 -20   8  -4  221.58   19.00
 -20   8  -4  179.38   23.90
   8  12  -4  177.28   23.00
  20  -8   4  213.68   23.30
  -8 -12   4  177.68   21.10
  11   9  -4   84.09   14.60
 -20  11  -4   89.99   18.20
  20 -11   4   77.89   15.60
 -11  -9   4  104.59   16.90
 -20  14  -4  178.38   20.80
 -20  14  -4  180.58   25.00
 -14  -6   4  167.78   20.80
  20 -14   4  178.48   23.90
 -20  17  -4  167.18   22.70
 -20  17  -4  188.48   22.30
  20 -17   4  166.58   22.40
 -17  -3   4  154.48   22.00
  20   0  -4  234.48   23.60
 -20  20  -4  222.68   27.00
  20 -20   4  117.89   19.70
 -20   0   4  155.98   23.50
 -20  23  -4   54.89   21.50
 -23   3   4  101.59   22.40
  20 -23   4   46.40   16.80
   3  20   4   47.60    9.20
   3  20   4   68.09    7.50
  26  -6  -4  263.17   29.90
 -20  26  -4  172.48   29.90
 -20  26  -4  236.38   27.90
   6  20   4  247.18   20.90
   6  20   4  215.28   20.30
 -26   6   4  334.27   39.90
 -20  29  -4  205.78   34.10
  29  -9  -4  211.38   28.00
 -20  29  -4  215.78   29.10
 -29   9   4  236.88   34.90
   9  20   4  294.67   28.30
  -8  29  -4   42.20   29.90
  -8  29  -4   90.49   25.00
  21   8   4   49.10   22.90
  -5  26  -4  103.79   28.50
  -5  26  -4   73.19   19.40
  26 -21  -4   98.99   17.60
  21   5   4   58.09   20.10
   5 -26   4   84.99   15.30
  23 -21  -4   75.49   14.60
  -2  23  -4   91.29   19.20
  -2  23  -4   75.49   23.90
  21   2   4  127.29   22.00
   2 -23   4  100.39   15.20
 -21   1  -4  137.09   13.80
 -21   1  -4  133.59   20.50
   1  20  -4  143.19   19.80
   1  20  -4  139.59   27.30
  20 -21  -4  139.89   17.00
  -1 -20   4  153.58   17.00
  21  -1   4  123.69   18.10
  17 -21  -4  249.18   15.50
 -21   4  -4  218.48   17.40
 -21   4  -4  238.28   26.60
   4  17  -4  229.68   25.40
  21  -4   4  203.08   25.60
  -4 -17   4  254.07   22.00
 -21   7  -4  174.28   24.10
 -21   7  -4  181.28   17.90
  14 -21  -4  161.78    9.60
   7  14  -4  165.28   22.20
  -7 -14   4  177.28   21.60
  21  -7   4  141.69   20.00
 -21  10  -4  201.68   26.20
  10  11  -4  229.58   23.30
  21 -10   4  181.38   23.90
 -10 -11   4  191.58   23.70
 -21  13  -4  204.38   21.40
 -21  13  -4  171.68   23.00
  21 -13   4  174.38   23.00
 -13  -8   4  146.99   19.70
 -21  16  -4   88.89   19.70
 -21  16  -4  107.29   16.50
 -16  -5   4  167.28   22.40
  21 -16   4  122.49   19.20
 -21  19  -4  109.39   21.70
 -19  -2   4   91.19   18.90
  21 -19   4   56.39   15.80
 -21  22  -4   28.90   19.40
  21 -22   4  -18.20   14.10
 -22   1   4   10.70   18.80
   1  21   4   32.00   10.70
 -21  25  -4  142.29   21.90
 -21  25  -4  172.88   29.50
  25  -4  -4  131.69   23.10
   4  21   4  155.78   12.00
   4  21   4  139.69   16.20
 -25   4   4  161.38   28.70
 -21  28  -4   51.29   22.40
  28  -7  -4  100.69   21.60
 -21  28  -4   99.39   30.10
 -28   7   4   53.29   26.50
   7  21   4   74.09   11.60
   7  21   4   97.39   16.10
  21 -28   4   81.29   24.20
 -21  31  -4  147.49   27.90
 -21  31  -4  178.68   34.20
  31 -10  -4   93.99   25.00
 -31  10   4    5.60   30.80
  10  21   4   96.89   21.40
  -6  28  -4   54.29   28.40
  -6  28  -4   35.00   21.20
  28 -22  -4   32.30   18.40
  22   6   4   23.90   21.20
  25 -22  -4  253.57   25.60
  -3  25  -4  199.88   31.70
  -3  25  -4  182.98   24.80
  22   3   4  147.79   23.80
   3 -25   4  166.98   18.00
   0  22  -4  372.66   40.20
 -22   0  -4  321.07   15.30
   0  22  -4  331.87   31.20
  22 -22  -4  342.67   23.60
 -22   0  -4  322.67   33.10
 -22   0  -4  323.07   19.00
   0 -22   4  323.07   23.20
  22   0   4  312.17   30.90
 -22   3  -4  343.87   20.30
   3  19  -4  336.37   29.90
 -22   3  -4  416.66   31.70
  19 -22  -4  365.06   20.70
  22  -3   4  356.56   30.80
  -3 -19   4  303.57   23.40
 -22   6  -4  256.97   20.10
  16 -22  -4  255.67   14.10
 -22   6  -4  275.37   28.40
   6  16  -4  216.38   25.00
  22  -6   4  232.28   26.60
  -6 -16   4  267.37   23.10
 -22   9  -4  406.26   30.40
   9  13  -4  404.36   29.10
  -9 -13   4  461.05   28.40
  22  -9   4  455.75   31.80
 -22  12  -4  156.18   21.40
  12  10  -4  183.88   23.30
 -22  12  -4  175.08   21.30
 -12 -10   4  180.28   20.70
 -22  15  -4   28.80   12.60
 -22  15  -4   22.60   16.90
  22 -15   4   35.70   15.30
 -15  -7   4   15.80   16.20
 -22  18  -4   -3.20   17.30
 -22  18  -4    9.50   13.00
  22 -18   4   10.40   15.10
 -22  21  -4   15.20   19.50
  -1  22   4    0.60    5.40
  22 -21   4    8.50   13.90
 -21  -1   4   38.10   20.60
  24  -2  -4   65.89   17.00
 -22  24  -4   36.60   23.20
 -24   2   4   34.50   22.90
   2  22   4   38.10    6.80
   2  22   4   34.50    8.40
 -22  27  -4  123.59   30.50
 -22  27  -4   41.90   21.50
  27  -5  -4   70.39   21.70
 -27   5   4  117.69   30.90
   5  22   4  100.39   11.00
  22 -27   4  129.79   25.30
   5  22   4  101.39   14.50
 -22  30  -4   36.40   31.70
  30  -8  -4    1.00   22.20
 -22  30  -4   24.60   21.50
  22 -30   4   40.50   25.10
   8  22   4   48.00   17.30
 -30   8   4  -36.40   31.00
  -7  30  -4   -8.60   32.60
  30 -23  -4    0.50   19.80
  -7  30  -4  -14.50   24.50
  23   7   4   67.29   26.40
  -4  27  -4   17.40   21.40
  27 -23  -4   -1.40   15.70
  -4  27  -4   18.50   26.90
  23   4   4   22.00   21.10
   4 -27   4   -1.40   12.20
  -1  24  -4   92.79   29.70
  24 -23  -4   30.40   14.70
  -1  24  -4   50.89   20.00
  23   1   4   67.49   19.70
   1 -24   4   54.19   13.00
 -23   2  -4  101.49   22.80
   2  21  -4   68.69   18.20
  21 -23  -4  101.39   14.30
 -23   2  -4   93.49   11.50
  -2 -21   4   88.49   14.80
  23  -2   4  128.09   23.10
 -23   5  -4   14.40   10.00
 -23   5  -4   25.80   16.80
   5  18  -4   37.50   15.50
  18 -23  -4   37.60    9.10
  -5 -18   4   19.90   12.70
  23  -5   4   29.60   15.20
   8  15  -4  310.27   27.90
 -23   8  -4  300.77   30.00
  23  -8   4  279.67   28.80
  -8 -15   4  302.27   25.30
  11  12  -4  181.98   22.00
 -23  11  -4  238.58   23.10
 -23  11  -4  151.78   22.10
 -11 -12   4  189.78   24.50
 -23  14  -4   58.69   20.50
 -23  14  -4   65.09   14.60
 -14  -9   4   78.89   17.50
 -23  17  -4   96.79   21.20
 -23  17  -4   63.39   16.10
 -17  -6   4   96.09   21.30
  23 -17   4    5.10   14.30
 -23  20  -4   69.89   21.70
  -3  23   4   53.99    7.50
 -20  -3   4   55.89   21.20
 -23  23  -4  232.58   30.50
 -23   0   4  350.66   40.70
   0  23   4  217.98   14.90
 -23  26  -4  383.86   37.20
 -23  26  -4  387.36   44.60
  26  -3  -4  318.07   34.50
  23 -26   4  401.86   38.30
   3  23   4  324.67   19.10
 -26   3   4  413.16   46.30
   3  23   4  374.56   17.00
  29  -6  -4  180.58   27.60
 -23  29  -4  216.18   36.40
 -23  29  -4  300.17   37.70
   6  23   4  214.28   24.00
 -29   6   4  196.68   37.00
   6  23   4  218.98   19.40
  23 -29   4  326.87   41.60
  -5  29  -4  -16.60   29.40
  -5  29  -4   17.30   22.80
  29 -24  -4   42.90   20.10
  24   5   4   24.60   24.10
  -2  26  -4  172.78   26.20
  -2  26  -4   85.79   30.80
   2 -26   4  109.69   14.90
  24   2   4   89.89   24.80
   1  23  -4   78.19   28.30
 -24   1  -4   84.59   22.40
   1  23  -4  111.79   23.60
  23 -24  -4   58.29   14.40
 -24   1  -4   90.19   10.80
 -24   1  -4   95.69   13.90
  -1 -23   4  105.79   15.50
  24  -1   4   90.79   22.60
 -24   4  -4  194.88   26.00
 -24   4  -4  195.48   19.30
  20 -24  -4  204.58   18.40
   4  20  -4  141.69   21.90
  -4 -20   4  170.78   21.80
  24  -4   4  157.18   23.80
 -24   7  -4   46.60   18.30
  17 -24  -4   45.20    8.20
   7  17  -4   67.09   17.00
  -7 -17   4   51.69   14.30
  24  -7   4   32.70   17.20
 -24  10  -4   73.09   17.60
  10  14  -4   66.99   17.60
 -24  10  -4   85.09   15.10
 -10 -14   4   39.30   15.20
 -24  13  -4   46.20   19.20
 -24  13  -4   94.09   16.40
 -13 -11   4   94.89   18.70
 -24  16  -4  223.78   31.10
 -16  -8   4  229.88   30.10
 -24  19  -4   82.99   24.20
 -19  -5   4   42.60   20.30
  -5  24   4   62.69    8.80
 -24  22  -4   69.39   23.60
 -22  -2   4   75.69   24.00
  -2  24   4   72.19    8.40
 -24  25  -4  174.18   33.10
 -24  25  -4  173.28   25.70
  25  -1  -4  264.27   33.10
 -25   1   4  234.48   32.90
   1  24   4  182.88   18.40
  24 -25   4  292.57   37.60
   1  24   4  184.88   13.90
 -24  28  -4   49.80   23.60
 -24  28  -4   55.19   30.80
  28  -4  -4   49.00   20.90
   4  24   4   52.79   12.60
 -28   4   4   85.09   30.50
  24 -28   4  -17.20   23.30
   4  24   4   75.29   11.80
  -3  28  -4   69.69   26.20
  -3  28  -4   96.99   33.70
  28 -25  -4   60.59   18.80
  25   3   4   68.99   26.70
   0  25  -4  299.57   39.80
   0  25  -4  199.18   27.40
 -25   0  -4  244.68   16.80
  25 -25  -4  264.97   27.10
 -25   0  -4  262.37   14.40
  25   0   4  195.68   28.90
   0 -25   4  272.07   22.10
   3  22  -4  168.18   24.40
 -25   3  -4  261.97   34.90
 -25   3  -4  240.58   19.40
  22 -25  -4  220.58   22.20
  25  -3   4  147.59   24.10
  -3 -22   4  194.18   21.20
  19 -25  -4  176.78   16.00
 -25   6  -4  186.68   24.00
   6  19  -4  216.08   26.00
 -25   6  -4  179.58   26.20
  25  -6   4  134.69   23.90
  -6 -19   4  169.88   21.20
 -25   9  -4   59.09   14.50
 -25   9  -4  113.39   23.10
   9  16  -4   88.39   18.70
  25  -9   4   45.10   17.20
 -25  12  -4   66.39   21.00
 -25  12  -4   71.69   15.50
  12  13  -4   57.39   16.60
 -12 -13   4  105.09   18.10
 -25  15  -4  171.28   26.10
 -15 -10   4  148.09   21.60
 -25  18  -4   55.89   23.70
  -7  25   4   75.39   10.00
 -18  -7   4   85.99   24.20
 -25  21  -4  123.79   26.30
 -25  21  -4  140.09   22.30
  -4  25   4  127.79   12.80
 -21  -4   4  146.79   26.60
  25 -21   4   89.69   20.10
 -25  24  -4  143.09   25.00
  24   1  -4  145.19   24.80
 -25  24  -4  134.49   30.70
  -1  25   4  126.59   13.80
  25 -24   4   99.59   25.30
 -24  -1   4  155.58   28.50
 -25  27  -4   44.90   31.50
  27  -2  -4   55.19   21.00
 -25  27  -4   73.19   25.40
  25 -27   4   80.79   24.80
   2  25   4   84.19   11.20
   2  25   4   98.99   11.80
   2  25   4   79.29   15.50
 -27   2   4   95.69   32.30
  -1  27  -4   66.69   32.50
  -1  27  -4   50.29   24.80
  26   1   4    3.40   23.50
   1 -27   4   -6.00   11.20
 -26   2  -4   78.09   15.90
 -26   2  -4   74.29   12.00
   2  24  -4   56.99   21.90
   2  24  -4  108.59   32.30
 -26   2  -4   76.29   25.90
  24 -26  -4   75.19   17.20
  -2 -24   4   53.49   12.70
  26  -2   4   97.09   25.80
   5  21  -4   40.50   19.90
  21 -26  -4   57.69   11.60
 -26   5  -4   38.90   20.50
 -26   5  -4   42.00   13.20
  26  -5   4   31.80   21.10
  -5 -21   4   70.19   13.90
 -26   8  -4   50.09   14.20
   8  18  -4   49.90   18.80
 -26   8  -4   51.09   20.10
  26  -8   4   44.30   20.10
  -8 -18   4   28.20   13.60
 -26  11  -4   49.90   15.30
  11  15  -4   84.99   18.90
 -26  11  -4   93.99   23.10
 -11 -15   4   46.50   16.30
 -26  14  -4    0.70   14.00
 -26  14  -4   36.70   21.30
 -14 -12   4   71.69   18.30
 -26  17  -4   24.30   21.30
  26 -17   4   57.29   21.50
 -17  -9   4   27.20   20.30
  -9  26   4    7.00    9.10
 -26  20  -4  148.39   22.10
  20   6  -4  143.29   29.40
 -26  20  -4  191.38   31.00
  26 -20   4  239.98   29.60
 -20  -6   4  222.48   29.10
  -6  26   4  210.18   15.80
 -26  23  -4  445.06   45.50
 -26  23  -4  363.66   37.20
  23   3  -4  312.87   35.50
 -23  -3   4  332.87   42.20
  26 -23   4  376.26   38.50
  -3  26   4  345.77   18.30
 -26  26  -4  340.57   41.20
 -26  26  -4  515.45   51.59
  26   0  -4  397.86   40.10
 -26   0   4  432.56   50.09
   0  26   4  439.06   20.40
  26 -26   4  445.36   45.10
   1  26  -4    2.10   31.40
  26 -27  -4   30.00   17.60
 -27   1  -4   11.10   11.80
 -27   1  -4    6.20    9.70
   1  26  -4    5.20   25.10
  27  -1   4   51.09   24.00
  -1 -26   4   -3.20   11.00
   4  23  -4   56.59   22.70
 -27   4  -4    1.50   12.00
  23 -27  -4   -0.10   12.90
 -27   4  -4   13.60   23.70
  -4 -23   4   -3.50   11.50
  27  -4   4  -12.10   21.50
 -27   7  -4   28.40   14.30
   7  20  -4   41.60   20.30
 -27   7  -4    2.90   21.00
  20 -27  -4   26.80    9.90
  27  -7   4   33.20   19.40
  -7 -20   4   44.10   13.80
 -27  10  -4   51.19   15.90
  10  17  -4   37.50   19.00
 -27  10  -4   35.50   21.60
  27 -10   4   29.90   20.10
 -10 -17   4   50.09   15.40
  13  14  -4   72.19   19.10
 -27  13  -4  -17.20   13.90
 -27  13  -4   27.80   22.90
 -13 -14   4   52.39   17.50
 -27  16  -4  136.29   26.20
  27 -16   4  181.28   42.50
 -16 -11   4  106.29   20.90
 -11  27   4   95.89   13.70
 -27  19  -4   98.59   26.80
 -27  19  -4  108.19   21.80
  -8  27   4  132.19   16.90
  27 -19   4  144.59   26.00
 -19  -8   4  156.98   25.10
 -27  22  -4  141.89   24.50
  22   5  -4  134.49   23.90
 -27  22  -4  134.09   30.70
 -22  -5   4  183.88   27.80
  -5  27   4  170.38   16.40
  25   2  -4   85.19   22.10
 -27  25  -4   64.19   23.80
 -27  25  -4  147.09   35.50
 -25  -2   4  103.99   30.50
  -2  27   4  119.69   12.60
  27 -25   4   88.29   25.80
 -27  28  -4   95.29   35.50
 -28   1   4   55.39   32.90
  27 -28   4   79.99   29.30
   1  27   4   86.09   11.80
   3  25  -4   93.69   26.80
 -28   3  -4   84.79   17.50
 -28   3  -4   89.09   14.70
  25 -28  -4   41.10   16.40
   3  25  -4  142.49   35.70
  28  -3   4   46.40   27.00
  -3 -25   4  102.59   13.90
 -28   6  -4   76.39   27.30
 -28   6  -4   80.59   16.20
  22 -28  -4  104.69   14.70
   6  22  -4   86.29   24.50
  28  -6   4   80.59   26.80
  -6 -22   4   84.89   14.20
   9  19  -4  117.29   24.90
 -28   9  -4   94.49   23.60
 -28   9  -4  114.39   19.40
  -9 -19   4  135.99   17.00
  28  -9   4   79.69   25.60
 -28  12  -4   50.79   24.60
  12  16  -4   -4.50   18.70
 -28  12  -4   12.40   15.60
 -12 -16   4   38.50   16.00
  28 -12   4   46.30   23.10
 -28  15  -4   83.89   25.00
 -15 -13   4   26.30   17.70
  28 -15   4   34.40   23.90
 -13  28   4   54.89   13.30
 -28  18  -4   50.29   24.40
 -28  18  -4   13.40   18.80
  28 -18   4   49.60   23.50
 -10  28   4   26.60   11.30
  21   7  -4   81.99   22.90
 -28  21  -4   84.29   27.70
 -28  21  -4   66.29   22.20
  -7  28   4   62.59   12.20
 -21  -7   4   69.99   23.00
  28 -21   4    7.70   20.50
  24   4  -4   28.20   20.40
 -28  24  -4   66.49   32.30
 -28  24  -4   73.99   22.90
  -4  28   4   81.19   12.50
  28 -24   4   80.69   25.20
 -24  -4   4   91.79   28.20
 -28  27  -4  101.99   38.70
  28 -27   4   86.99   28.70
 -27  -1   4   67.59   33.50
  -1  28   4   64.09   11.50
  24 -29  -4   50.29   15.50
 -29   5  -4   31.40   26.40
 -29   5  -4   38.60   16.30
   5  24  -4   53.29   26.50
  29  -5   4    4.30   24.60
  -5 -24   4   38.50   11.20
 -29   8  -4   47.30   25.20
 -29   8  -4   29.30   15.90
   8  21  -4   44.10   24.10
  -8 -21   4   30.30   13.10
  29  -8   4   46.40   26.00
  11  18  -4   60.09   22.10
 -29  11  -4   67.39   26.90
  29 -11   4   61.69   25.10
 -11 -18   4   63.39   15.40
 -29  14  -4   43.50   20.80
 -29  14  -4   -4.50   26.30
  29 -14   4  -15.30   22.00
 -14 -15   4    6.50   15.40
 -15  29   4   -1.20   13.00
 -29  17  -4   48.50   25.70
 -29  17  -4   29.00   18.50
  29 -17   4   51.39   24.70
 -12  29   4   33.50   13.30
 -17 -12   4   51.39   19.40
  20   9  -4  153.58   26.10
 -29  20  -4  205.68   33.40
 -29  20  -4  266.57   35.00
  -9  29   4  172.88   20.70
 -20  -9   4  240.68   28.60
  29 -20   4  293.07   40.50
 -29  23  -4  133.59   32.30
  23   6  -4  184.58   25.00
 -29  23  -4  172.38   25.30
  -6  29   4  189.88   20.60
 -23  -6   4  213.08   31.40
  -3  29   4  228.18   19.80
 -30   7  -4   -2.80   16.20
 -30   7  -4  -20.40   26.80
  23 -30  -4    8.50   11.90
   7  23  -4   -3.30   26.50
 -23  30   4   41.20   19.70
  30  -7   4  -18.00   27.00
  -7 -23   4    0.70   10.40
 -30  10  -4  -15.60   21.40
  10  20  -4  -24.90   22.60
 -30  10  -4  -15.80   24.50
  30 -10   4  -31.40   22.80
 -10 -20   4   -1.60   12.50
 -20  30   4   27.80   16.80
  13  17  -4   84.89   24.60
 -30  13  -4   -2.10   25.00
 -30  13  -4    4.60   19.20
 -13 -17   4   29.90   16.10
  30 -13   4   90.69   27.70
 -17  30   4   47.80   16.50
 -30  16  -4   99.69   29.70
 -30  16  -4   51.59   20.60
  30 -16   4   23.00   24.70
 -14  30   4   46.90   15.20
 -16 -14   4   56.99   19.30
 -30  19  -4   69.29   24.50
 -30  19  -4   76.39   29.70
 -11  30   4   92.39   16.20
  30 -19   4   76.99   25.50
 -19 -11   4  112.09   25.50
  22   8  -4    2.10   18.80
 -30  22  -4    2.50   27.90
 -30  22  -4   76.89   22.90
  30 -22   4    3.90   23.40
  -8  30   4   38.30   14.10
 -22  -8   4   32.60   23.00
 -31   9  -4   33.40   19.70
 -31  12  -4  -21.20   27.30
 -31  12  -4   23.00   20.10
  12  19  -4  -52.69   24.30
 -19  31   4   32.90   17.60
  31 -12   4    9.00   43.80
 -12 -19   4   21.20   13.20
 -31  15  -4  116.59   23.00
 -31  15  -4   68.79   33.60
 -16  31   4   92.69   18.50
  31 -15   4   11.40   26.50
 -15 -16   4  104.89   18.80
 -31  18  -4  124.29   31.10
 -31  18  -4  180.48   26.30
  31 -18   4  138.69   29.10
 -18 -13   4  190.38   23.50
 -13  31   4  174.98   21.10
 -31  21  -4   20.10   21.60
 -31  21  -4  101.39   32.20
  31 -21   4  106.19   33.70
 -21 -10   4   68.19   24.70
 -10  31   4  107.99   17.40
   1   0  -5   -0.60    6.20
   0  -1  -5   -3.90    6.00
   1   0  -5    1.70    5.40
  -1   1  -5    2.70    7.00
  -1   1  -5    6.90    5.00
  -1   0   5    3.00    6.20
   1  -1   5    0.30    6.40
   0   1   5    2.10    6.50
   0   2  -5   13.10    5.60
   0   2  -5   12.90    7.80
  -2   0  -5    5.80    5.00
   2  -2  -5    1.20    6.00
  -2   0  -5   11.00    6.80
   0  -2   5   18.20    7.80
   2   0   5   10.00    6.80
  -2   2   5   16.20    7.30
  -2   3  -5   42.40    9.30
  -2   3  -5   51.29    8.70
  -1  -2  -5   41.40    8.50
   2  -3   5   29.50    8.10
  -3   1   5   22.60    8.40
   1   2   5   21.10    7.10
  -1   4  -5  412.36   19.60
  -1   4  -5  423.16   21.90
  -3  -1  -5  400.46   15.00
  -3  -1  -5  408.46   18.90
  -4   3   5  378.06   19.40
   3   1   5  359.56   17.40
   1  -4   5  381.96   19.80
   3   1   5  376.66   18.40
  -3   2  -5   31.60    6.80
   1  -3  -5   38.70    7.70
  -3   2  -5   30.40    9.00
   2   1  -5   39.80    7.80
   2   1  -5   36.80    9.60
  -1   3   5   19.90    7.30
   3  -2   5   13.20    7.20
   3  -2   5    6.00    6.60
  -2  -1   5   21.70    8.20
  -2  -3  -5  261.47   14.60
  -3   5  -5  241.48   18.30
  -3   5  -5  230.18   15.50
   2   3   5  313.47   15.40
   3  -5   5  285.27   17.50
  -5   2   5  289.37   18.40
   2   3   5  288.77   15.10
  -2   6  -5  492.45   25.10
  -4  -2  -5  493.65   20.50
  -2   6  -5  485.75   22.10
  -6   4   5  480.75   21.90
   4   2   5  432.26   18.20
   2  -6   5  431.46   21.90
   4   2   5  444.36   19.60
  -4   1  -5  172.48   11.60
   1   3  -5  177.38   13.90
   3  -4  -5  164.58   12.70
  -4   1  -5  157.38   14.60
   1   3  -5  192.48   16.60
  -3   4   5  120.09   12.90
   4  -1   5  128.29   12.60
   4  -1   5  122.69   12.70
  -1  -3   5  161.88   15.30
  -4   4  -5    7.80    7.90
  -4   4  -5    0.30    5.10
   0  -4  -5   -3.20    5.50
   4  -4   5    1.50    5.80
   4  -4   5    5.70    6.00
  -4   0   5   -9.90    6.80
   0   4   5    3.00    6.10
  -3  -4  -5  331.57   15.80
  -4   7  -5  296.57   20.40
  -4   7  -5  325.77   18.60
   3   4   5  292.87   14.90
  -7   3   5  316.77   19.30
   3   4   5  304.77   15.40
   4  -7   5  297.77   18.90
  -5  -3  -5  828.72   26.60
  -3   8  -5  792.92   32.70
  -3   8  -5  848.22   30.50
   3  -8   5  877.71   30.90
  -8   5   5  829.82   30.50
   5   3   5  824.42   27.50
   5   3   5  811.12   24.90
   0   5  -5   -7.80    8.00
  -5   0  -5   -3.60    4.20
  -5   0  -5   -7.50    6.50
   0   5  -5    7.40    6.40
   5   0   5   -1.70    5.90
   0  -5   5   -0.60    7.50
   5   0   5   -6.30    5.40
  -5   5   5    3.10    6.80
   3   2  -5  207.48   14.70
  -5   3  -5  189.28   13.40
  -5   3  -5  205.48   16.80
   2  -5  -5  191.78   12.50
  -2   5   5  262.47   14.80
  -3  -2   5  219.78   17.30
   5  -3   5  233.58   16.50
   5  -3   5  254.77   16.10
  -5   6  -5  593.14   23.60
  -1  -5  -5  541.85   19.60
  -5   6  -5  595.34   26.90
   5  -6   5  503.85   22.20
   5  -6   5  533.65   24.60
   1   5   5  527.05   18.90
  -6   1   5  468.05   23.30
   1   5   5  489.05   18.50
  -4  -5  -5  960.90   27.90
  -5   9  -5  974.20   36.60
  -5   9  -5  925.31   32.60
   4   5   5  944.71   28.50
   5  -9   5  990.50   32.70
  -9   4   5  904.51   33.20
   4   5   5  937.01   26.00
  -6  -4  -5  616.24   23.00
  -4  10  -5  635.94   26.80
  -4  10  -5  632.34   30.20
   6   4   5  634.74   21.00
   6   4   5  620.44   23.60
   4 -10   5  595.24   26.10
  -6  -1  -5   23.80    4.90
  -1   7  -5   38.00    8.90
  -1   7  -5   17.50    9.60
  -6  -1  -5   20.50    7.40
   1  -7   5   13.00    8.40
   6   1   5    8.90    6.60
   6   1   5    5.20    6.40
   4  -6  -5  582.94   20.70
  -6   2  -5  651.73   25.50
   2   4  -5  571.14   24.30
  -6   2  -5  614.04   21.40
   6  -2   5  589.74   24.70
   6  -2   5  546.35   22.00
  -2  -4   5  573.84   25.40
  -4   6   5  575.54   22.00
  -6   5  -5  510.75   21.20
   1  -6  -5  505.15   18.00
  -6   5  -5  520.95   24.70
  -5  -1   5  477.15   23.60
   6  -5   5  459.25   22.80
  -1   6   5  450.45   18.00
   6  -5   5  462.05   21.10
  -2  -6  -5  215.58   12.40
  -6   8  -5  244.48   16.40
  -6   8  -5  199.78   18.90
   2   6   5  218.58   12.70
   2   6   5  235.18   13.00
   6  -8   5  211.38   17.50
  -8   2   5  229.48   18.30
   6  -8   5  227.88   17.10
  -6  11  -5  677.83   27.70
  -6  11  -5  697.73   31.90
  -5  -6  -5  629.04   22.30
   5   6   5  722.63   24.70
   6 -11   5  741.83   28.60
   5   6   5  729.93   21.60
 -11   5   5  694.83   30.30
  -5  12  -5 1692.03   49.70
  -7  -5  -5 1704.93   43.80
  -5  12  -5 1740.23   54.09
   7   5   5 1677.23   44.80
   5 -12   5 1661.63   47.30
   7   5   5 1713.13   39.60
  -2   9  -5  898.71   35.80
  -2   9  -5  929.11   33.00
  -7  -2  -5  928.01   30.00
   7   2   5  864.81   29.60
   7   2   5  857.91   26.20
   2  -9   5  886.71   31.80
   1   6  -5  158.68   14.70
  -7   1  -5  143.29   14.40
  -7   1  -5  131.29   10.30
   7  -1   5  102.79   12.10
  -1  -6   5  114.89   14.60
   7  -1   5   88.89   12.40
   3  -7  -5  328.07   14.20
  -7   4  -5  315.37   16.70
  -7   4  -5  344.47   20.20
   4   3  -5  316.07   18.40
  -4  -3   5  320.57   20.20
   7  -4   5  295.37   19.10
   7  -4   5  325.37   17.80
   0  -7  -5   -4.10    4.20
  -7   7  -5   -1.40    5.70
  -7   7  -5   10.60    8.70
  -7   0   5   -0.80    9.00
   0   7   5    2.00    5.50
   7  -7   5   -1.30    6.60
   7  -7   5    5.50    7.50
  -7  10  -5   73.69   15.00
  -7  10  -5   62.39   11.30
  -3  -7  -5   83.69    9.90
   7 -10   5   66.49   10.70
   3   7   5   57.99    7.70
   7 -10   5   68.89   13.20
 -10   3   5   74.69   12.80
   3   7   5   65.39    7.70
  -7  13  -5  397.36   27.50
  -7  13  -5  411.76   23.60
  -6  -7  -5  422.26   18.90
   6   7   5  409.76   19.00
   7 -13   5  427.26   23.10
   6   7   5  401.76   15.70
  -6  14  -5  804.22   32.60
  -6  14  -5  827.72   37.30
  -8  -6  -5  796.82   28.00
   8   6   5  823.02   23.90
   8   6   5  852.01   29.60
   6 -14   5  812.92   31.80
  -8  -3  -5  278.17   17.10
  -3  11  -5  270.77   23.40
  -3  11  -5  244.58   19.10
   8   3   5  259.07   17.20
   3 -11   5  259.17   19.30
   8   3   5  259.07   14.80
   0   8  -5    6.60    9.00
   0   8  -5   -5.70    6.80
  -8   0  -5    2.10    4.40
  -8   0  -5    3.90    7.10
   0  -8   5    8.60    7.90
   8   0   5    1.60    6.40
   8   0   5   11.80    6.50
  -8   3  -5  609.14   21.90
   5  -8  -5  597.84   19.50
   3   5  -5  629.24   26.10
  -8   3  -5  596.84   25.80
  -3  -5   5  598.14   26.50
   8  -3   5  646.54   26.70
   8  -3   5  613.74   23.40
  -8   6  -5  283.37   16.60
   6   2  -5  295.17   18.00
  -8   6  -5  283.97   19.40
   2  -8  -5  275.37   12.10
   8  -6   5  257.47   18.50
   8  -6   5  273.37   17.10
  -6  -2   5  235.58   18.80
  -8   9  -5  724.63   27.80
  -8   9  -5  725.93   31.60
  -1  -8  -5  704.03   20.50
   1   8   5  683.23   20.80
   8  -9   5  700.23   30.40
   1   8   5  691.83   20.10
  -9   1   5  728.63   30.90
   8  -9   5  668.53   26.90
  -4  -8  -5 1579.04   38.30
  -8  12  -5 1551.54   46.50
  -8  12  -5 1603.84   50.99
 -12   4   5 1592.04   48.70
   4   8   5 1546.55   34.60
   8 -12   5 1561.54   44.80
   8 -12   5 1529.75   49.80
   4   8   5 1543.55   39.30
  -7  -8  -5 1087.79   32.60
  -8  15  -5 1124.79   39.60
  -8  15  -5 1079.59   43.30
   7   8   5 1167.58   34.80
   7   8   5 1145.79   28.20
   8 -15   5 1122.89   37.90
  16  -9  -5  274.97   18.50
  -7  16  -5  265.37   25.80
  -9  -7  -5  238.68   18.50
   9   7   5  239.88   18.10
   9   7   5  226.68   13.50
   7 -16   5  244.18   20.40
  -9  -4  -5   14.60    8.30
  -4  13  -5   12.00    8.50
  -4  13  -5  -12.00   11.20
   9   4   5   17.00    8.10
   4 -13   5    4.40    8.20
   9   4   5    7.10    6.70
  -9  -1  -5  336.67   11.40
  -1  10  -5  296.07   23.20
  -9  -1  -5  302.27   18.70
  -1  10  -5  355.96   21.00
   1 -10   5  398.16   22.40
   9   1   5  386.36   21.00
   9   1   5  396.16   18.10
   2   7  -5 1010.70   34.80
  -9   2  -5 1024.00   29.10
  -9   2  -5 1003.00   33.70
   9  -2   5  955.70   29.50
  -2  -7   5  931.71   33.40
   9  -2   5  929.21   33.20
  -9   5  -5  837.22   27.60
  -9   5  -5  808.52   31.30
   5   4  -5  805.52   30.50
   4  -9  -5  811.62   21.60
   9  -5   5  760.52   30.40
   9  -5   5  794.52   27.60
  -5  -4   5  791.12   31.10
  -9   8  -5  948.41   31.70
  -9   8  -5 1009.30   36.10
   1  -9  -5  900.31   22.90
   9  -8   5  954.40   31.80
  -8  -1   5  926.61   34.90
   9  -8   5  949.31   35.70
  -2  -9  -5 1013.60   26.30
  -9  11  -5 1022.20   38.80
  -9  11  -5 1038.30   35.80
   2   9   5 1059.59   27.80
   2   9   5 1010.30   24.80
 -11   2   5 1039.60   38.00
   9 -11   5 1039.00   34.40
   9 -11   5 1048.60   38.80
  -5  -9  -5  836.42   25.90
  -9  14  -5  843.62   37.50
  -9  14  -5  846.42   33.60
 -14   5   5  975.20   38.80
   9 -14   5  929.51   38.30
   9 -14   5  947.11   34.00
   5   9   5  903.31   23.00
   5   9   5  947.41   28.50
  -8  -9  -5 1185.88   35.50
  17  -8  -5 1197.98   39.30
  -9  17  -5 1126.69   46.60
  -9  17  -5 1181.18   42.70
   9 -17   5 1318.67   42.30
   8   9   5 1310.17   39.00
   8   9   5 1278.47   30.70
  -8  18  -5  533.15   38.80
  -8  18  -5  461.55   27.80
 -10  -8  -5  478.55   24.90
  18 -10  -5  499.75   24.90
  10   8   5  530.15   18.80
  10   8   5  517.55   25.30
   8 -18   5  520.55   27.30
 -10  -5  -5  244.18   18.50
  -5  15  -5  253.07   25.30
  15 -10  -5  227.38   16.10
  -5  15  -5  238.48   20.40
  10   5   5  220.28   17.50
  10   5   5  214.38   14.10
   5 -15   5  215.08   19.60
  -2  12  -5  380.66   22.90
  -2  12  -5  368.86   27.00
 -10  -2  -5  367.16   20.70
   2 -12   5  432.26   23.10
  10   2   5  422.56   22.20
  10   2   5  404.66   18.50
   1   9  -5  335.27   21.40
 -10   1  -5  394.46   15.70
 -10   1  -5  387.46   21.50
  -1  -9   5  474.55   23.90
  10  -1   5  458.15   19.90
  10  -1   5  448.46   23.10
 -10   4  -5  425.46   18.80
 -10   4  -5  425.16   22.80
   6 -10  -5  430.66   15.20
   4   6  -5  446.56   23.10
  -4  -6   5  417.76   23.60
  10  -4   5  414.16   22.60
  10  -4   5  424.66   20.10
 -10   7  -5   88.69   14.20
   7   3  -5   72.49   11.90
 -10   7  -5   81.89   11.10
   3 -10  -5   76.79    6.70
  -7  -3   5   75.19   12.80
  10  -7   5   71.19   10.70
  10  -7   5   83.39   13.10
 -10  10  -5    0.50    7.20
   0 -10  -5    3.70    4.10
 -10  10  -5   12.60   10.00
  10 -10   5    4.30    8.20
 -10   0   5    8.20   10.40
  10 -10   5   -8.30    7.20
 -10  13  -5  232.48   18.70
  -3 -10  -5  260.07   13.20
 -10  13  -5  258.77   24.20
   3  10   5  271.17   13.60
  10 -13   5  271.77   22.10
 -13   3   5  255.57   22.40
  10 -13   5  230.28   18.80
   3  10   5  253.37   10.40
 -10  16  -5   -3.30    9.40
  -6 -10  -5    5.40    7.30
 -10  16  -5    5.80   12.60
   6  10   5    6.60    5.10
 -16   6   5    3.30   12.50
  10 -16   5    5.60    9.80
   6  10   5    2.80    6.30
  19  -9  -5  266.47   21.70
 -10  19  -5  206.18   22.20
 -10  19  -5  248.98   29.60
   9  10   5  272.27   13.30
  10 -19   5  245.48   21.90
   9  10   5  243.58   19.20
  -9  20  -5  556.64   37.50
  -9  20  -5  547.65   32.00
  20 -11  -5  548.55   27.70
  11   9   5  533.55   27.20
   9 -20   5  527.65   29.30
  11   9   5  507.05   19.40
  -6  17  -5  332.77   24.50
 -11  -6  -5  308.17   21.70
  -6  17  -5  309.97   28.90
  17 -11  -5  329.77   19.70
  11   6   5  371.66   17.40
  11   6   5  358.66   22.50
   6 -17   5  348.77   23.50
  14 -11  -5  218.88   14.80
  -3  14  -5  255.87   25.30
  -3  14  -5  211.98   19.80
 -11  -3  -5  230.48   18.50
   3 -14   5  184.38   18.60
  11   3   5  193.98   14.80
  11   3   5  225.78   18.30
   0  11  -5   22.00   12.80
 -11   0  -5    6.10    8.40
   0  11  -5   12.60    8.10
  11 -11  -5    7.00    4.60
 -11   0  -5    3.10    4.20
  11   0   5    4.80    7.20
  11   0   5    3.60    7.90
   0 -11   5   -5.40    8.00
 -11   3  -5  169.98   12.50
 -11   3  -5  186.78   16.90
   3   8  -5  156.88   16.20
  -3  -8   5  146.09   17.60
  11  -3   5  160.68   14.30
  11  -3   5  184.68   17.40
   5 -11  -5  676.33   16.50
 -11   6  -5  683.83   29.20
 -11   6  -5  671.33   25.30
   6   5  -5  670.93   28.50
  11  -6   5  805.82   32.40
  11  -6   5  764.52   27.90
  -6  -5   5  775.42   32.40
   2 -11  -5 1095.19   23.10
 -11   9  -5 1124.09   40.20
 -11   9  -5 1159.28   36.50
  11  -9   5 1239.28   42.80
  11  -9   5 1171.68   37.20
  -9  -2   5 1249.18   41.80
 -11  12  -5  856.11   35.90
  -1 -11  -5  827.92   21.40
 -11  12  -5  863.91   32.50
  11 -12   5  862.01   36.30
  11 -12   5  842.62   31.20
   1  11   5  843.62   22.30
 -12   1   5  812.72   35.20
 -11  15  -5 1354.66   56.69
 -11  15  -5 1697.73   53.59
 -15   4   5 1828.02   56.69
   4  11   5 1815.52   43.70
  11 -15   5 1852.41   51.39
  11 -15   5 1794.52   58.79
  18  -7  -5 1318.77   43.30
 -11  18  -5 1221.38   45.00
   7  11   5 1328.27   30.10
  11 -18   5 1383.76   44.40
   7  11   5 1381.46   39.20
 -11  21  -5  293.37   25.60
 -11  21  -5  296.47   32.70
  21 -10  -5  304.47   23.90
  10  11   5  347.77   22.40
  11 -21   5  364.76   26.20
  10  11   5  311.57   15.60
  22 -12  -5  206.58   21.10
 -10  22  -5  199.78   27.70
 -10  22  -5  171.78   22.90
  10 -22   5  192.48   23.40
  12  10   5  157.28   15.10
  12  10   5  163.88   19.10
  -7  19  -5   87.89   16.10
 -12  -7  -5   92.09   14.90
  -7  19  -5   77.39   20.00
  19 -12  -5   99.59   14.00
  12   7   5   86.79   14.20
   7 -19   5   74.59   14.30
  12   7   5   68.99    9.80
  -4  16  -5   72.39   14.50
  -4  16  -5   93.89   19.30
 -12  -4  -5   63.59   12.40
  16 -12  -5   75.99   10.70
  12   4   5   72.09   12.10
   4 -16   5   76.19   13.50
  12   4   5   81.59   10.80
  13 -12  -5   20.60    6.40
 -12  -1  -5   16.80    3.50
  -1  13  -5   18.90   12.80
 -12  -1  -5   31.20   10.80
  -1  13  -5   15.60    9.00
  12   1   5   59.09   11.70
   1 -13   5   41.40   11.00
  12   1   5   37.00    9.20
 -12   2  -5  242.98   19.00
  10 -12  -5  220.58   10.80
 -12   2  -5  197.08   12.70
   2  10  -5  200.18   19.10
  12  -2   5  253.47   19.70
  12  -2   5  266.57   17.00
  -2 -10   5  278.27   20.10
   7 -12  -5 1509.05   32.40
 -12   5  -5 1551.84   41.60
   5   7  -5 1587.74   47.30
   7 -12  -5 1497.95   31.20
 -12   5  -5 1553.74   46.80
  12  -5   5 1592.84   43.30
  -5  -7   5 1624.04   48.40
  12  -5   5 1586.64   49.00
 -12   8  -5 1580.24   44.40
 -12   8  -5 1548.84   48.30
   8   4  -5 1576.24   47.30
  12  -8   5 1574.04   49.60
  -8  -4   5 1564.54   48.30
  12  -8   5 1561.14   43.80
 -12  11  -5  762.52   34.40
 -12  11  -5  766.22   30.30
  12 -11   5  693.83   28.80
  12 -11   5  709.93   32.80
 -11  -1   5  696.13   32.50
 -12  14  -5 1239.68   42.00
 -12  14  -5 1282.77   46.90
  12 -14   5 1352.86   41.80
 -14   2   5 1309.67   46.20
  12 -14   5 1287.97   47.10
   2  12   5 1282.97   32.90
 -12  17  -5 1398.66   50.69
 -12  17  -5 1388.76   47.10
  12 -17   5 1399.66   44.20
  12 -17   5 1382.76   50.49
   5  12   5 1409.36   37.40
 -12  20  -5  632.24   33.10
 -12  20  -5  602.04   38.00
  20  -8  -5  596.04   30.60
  12 -20   5  634.44   31.10
   8  12   5  614.84   26.20
   8  12   5  621.24   18.20
  23 -11  -5  293.57   25.00
 -12  23  -5  288.57   35.50
 -12  23  -5  285.87   27.20
  11  12   5  327.67   24.70
  12 -23   5  354.36   28.30
 -11  24  -5    4.30   16.00
 -11  24  -5   -2.60   21.90
  24 -13  -5    5.80   13.50
  11 -24   5   44.20   15.40
  13  11   5   24.40   14.00
  -8  21  -5  132.59   23.10
  -8  21  -5  127.09   18.90
  21 -13  -5  116.19   15.30
  13   8   5  111.99   15.00
   8 -21   5  122.19   20.00
  13   8   5  101.89   15.90
  18 -13  -5   41.10    9.50
 -13  -5  -5   24.00   11.70
  -5  18  -5   35.20   12.00
  -5  18  -5  -20.20   28.30
  13   5   5   19.10   11.10
   5 -18   5   21.60   11.80
  13   5   5   11.70    8.10
 -13  -2  -5   88.99   14.20
  -2  15  -5  123.69   20.90
  15 -13  -5  119.39   12.10
  13   2   5  146.49   18.10
  13   2   5   87.89   11.50
   2 -15   5   94.69   13.80
 -13   1  -5   34.20   11.20
  12 -13  -5   23.20    5.80
 -13   1  -5   15.40    5.60
   1  12  -5   18.90    9.90
  13  -1   5   18.90    9.50
  13  -1   5   39.40    9.80
  -1 -12   5   43.10   11.30
   4   9  -5   40.60   10.50
   9 -13  -5   26.00    4.30
 -13   4  -5   36.30    8.10
 -13   4  -5   31.20   10.60
  13  -4   5   39.70   10.30
  -4  -9   5   56.19   13.00
  13  -4   5   35.20    9.10
 -13   7  -5  491.45   22.10
 -13   7  -5  473.35   26.40
   7   6  -5  494.75   25.40
  13  -7   5  529.35   27.50
  -7  -6   5  482.95   26.70
  13  -7   5  494.15   23.30
 -13  10  -5  329.27   24.00
 -13  10  -5  280.17   19.00
 -10  -3   5  289.17   22.70
  13 -10   5  299.17   21.90
  13 -10   5  295.57   19.80
 -13  13  -5   15.30    9.30
 -13  13  -5    4.10   12.40
 -13   0   5   11.30   12.10
  13 -13   5   16.30   10.20
  13 -13   5   24.30   10.10
 -13  16  -5   67.49   16.10
 -13  16  -5   80.19   13.10
 -16   3   5   81.59   16.90
  13 -16   5   91.89   14.00
  13 -16   5   82.49   16.10
   3  13   5   89.19   10.20
  19  -6  -5   24.00   10.90
 -13  19  -5   33.50   11.90
 -13  19  -5   32.50   16.60
   6  13   5   33.70    8.40
  13 -19   5   24.30   12.00
  13 -19   5   38.50   14.10
 -19   6   5   57.29   18.00
 -13  22  -5   11.30   16.80
 -13  22  -5    9.60   14.40
  22  -9  -5    3.80   12.10
  13 -22   5   37.20   13.70
   9  13   5   21.90   10.30
   9  13   5   23.80    7.30
 -13  25  -5  -10.50   22.30
  25 -12  -5   -6.50   13.20
 -13  25  -5  -27.30   16.20
  12  13   5    1.40   12.80
  13 -25   5   19.50   15.90
  26 -14  -5  146.39   20.20
 -12  26  -5  157.88   32.20
 -12  26  -5  107.59   21.80
  14  12   5  121.29   20.40
  12 -26   5  170.18   22.90
  -9  23  -5   81.99   19.20
  -9  23  -5   83.69   22.50
  23 -14  -5   95.79   16.10
   9 -23   5  105.09   17.60
  14   9   5  111.29   17.50
  -6  20  -5  196.38   25.10
 -14  -6  -5  175.58   22.80
  -6  20  -5  157.88   20.90
  20 -14  -5  185.58   18.30
  14   6   5  212.38   17.40
   6 -20   5  170.68   22.10
  14   6   5  212.28   22.30
  -3  17  -5   20.80   11.20
 -14  -3  -5    5.80   11.30
  -3  17  -5   16.20   19.40
  17 -14  -5   13.10    7.50
   3 -17   5    9.00   10.80
  14   3   5   -7.50   10.60
  14   3   5    0.70    8.40
   0  14  -5    2.60   13.30
 -14   0  -5   12.30    5.00
  14 -14  -5    5.30    5.60
   0  14  -5   -9.40   13.30
 -14   0  -5   29.10   11.50
  14   0   5    4.00    8.40
  14   0   5   15.40    9.50
   0 -14   5   21.00   10.50
   3  11  -5  135.09   17.80
 -14   3  -5  146.59   18.00
  11 -14  -5  117.19    8.50
 -14   3  -5  119.09   12.10
  -3 -11   5  149.19   17.60
  14  -3   5  110.09   12.90
  14  -3   5  122.49   16.50
   6   8  -5  634.04   29.60
 -14   6  -5  612.14   24.50
 -14   6  -5  602.04   29.50
  14  -6   5  618.54   30.70
  14  -6   5  635.84   26.20
  -6  -8   5  646.34   30.20
 -14   9  -5  736.53   29.00
   9   5  -5  736.23   31.60
 -14   9  -5  761.22   33.70
  14  -9   5  800.22   30.10
  -9  -5   5  768.82   33.70
  14  -9   5  766.92   34.20
 -14  12  -5 1063.09   41.40
 -14  12  -5 1055.99   37.20
 -12  -2   5 1130.19   42.60
  14 -12   5 1157.18   38.50
  14 -12   5 1152.88   44.00
 -14  15  -5 2060.69   58.89
 -14  15  -5 2010.60   62.29
 -15   1   5 1871.21   58.69
   1  14   5 1802.42   38.60
  14 -15   5 1895.01   52.69
  14 -15   5 1878.71   60.19
 -14  18  -5  639.24   37.10
 -14  18  -5  632.14   32.20
 -18   4   5  629.64   35.90
  14 -18   5  608.74   29.70
   4  14   5  617.84   21.60
  14 -18   5  582.24   34.00
   7  14   5  437.26   13.50
   7  14   5  418.86   21.60
 -21   7   5  368.36   34.10
  14 -21   5  457.75   28.50
  24 -10  -5  358.16   28.60
 -14  24  -5  364.06   32.10
 -14  24  -5  384.86   38.80
  10  14   5  415.56   26.30
  14 -24   5  419.06   31.20
 -14  27  -5   73.89   21.50
 -14  27  -5   43.70   29.30
  14 -27   5   40.10   18.60
 -13  28  -5   -0.10   28.00
 -13  28  -5   80.69   21.50
  13 -28   5   50.59   19.00
  15  13   5   40.60   19.10
 -10  25  -5  138.39   22.40
 -10  25  -5   95.69   26.90
  25 -15  -5  114.69   18.70
  10 -25   5  120.49   19.30
  15  10   5   93.89   18.10
  -7  22  -5  146.79   20.00
  22 -15  -5  162.78   20.10
  -7  22  -5  109.19   23.80
   7 -22   5  155.08   33.70
  -4  19  -5  242.98   30.90
  -4  19  -5  219.38   24.50
  19 -15  -5  220.28   18.30
 -15  -4  -5  199.38   23.90
  15   4   5  246.38   19.10
   4 -19   5  247.98   23.10
  15   4   5  192.68   22.30
  16 -15  -5   36.40    8.50
 -15  -1  -5   12.80   11.40
  -1  16  -5   28.20   19.50
  -1  16  -5   37.20   13.10
  15   1   5   29.90   13.50
   1 -16   5   17.80   11.70
  15   1   5   22.70   10.20
  13 -15  -5   89.69    9.30
 -15   2  -5   70.19   13.70
 -15   2  -5   76.69    9.60
  -2 -13   5   68.39   13.30
  15  -2   5   77.49   15.10
  15  -2   5   77.79   12.40
 -15   5  -5  199.58   15.60
 -15   5  -5  218.88   20.80
   5  10  -5  212.98   20.50
  10 -15  -5  223.98    8.10
  -5 -10   5  209.48   21.10
  15  -5   5  226.68   18.00
  15  -5   5  216.18   21.40
 -15   8  -5  812.82   30.40
 -15   8  -5  868.01   35.70
   8   7  -5  833.02   34.60
  15  -8   5  890.31   32.30
  15  -8   5  922.61   38.20
  -8  -7   5  941.31   37.00
 -15  11  -5 1589.64   47.70
 -15  11  -5 1627.24   52.09
 -11  -4   5 1655.53   52.79
  15 -11   5 1746.73   48.50
  15 -11   5 1615.84   62.49
 -15  14  -5 1752.22   57.09
 -15  14  -5 1701.53   53.69
  15 -14   5 1672.73   48.80
  15 -14   5 1588.74   54.99
 -14  -1   5 1727.33   55.39
 -15  17  -5  786.22   38.90
 -15  17  -5  849.22   36.10
 -17   2   5  683.33   36.60
  15 -17   5  721.93   37.50
   2  15   5  717.03   24.10
  15 -17   5  695.13   31.40
  20  -5  -5  518.05   29.40
 -15  20  -5  483.65   36.60
  15 -20   5  512.35   29.40
  15 -20   5  520.55   33.50
 -20   5   5  521.95   35.90
   5  15   5  484.75   21.00
 -15  23  -5  317.57   35.20
  23  -8  -5  328.67   27.40
 -15  23  -5  273.57   29.50
 -23   8   5  269.57   33.60
   8  15   5  317.77   21.50
  15 -23   5  294.27   26.90
 -15  26  -5   59.19   18.80
 -15  26  -5   42.90   27.00
  11  15   5   51.09   15.70
  15 -26   5   80.09   19.50
  29 -14  -5   56.89   21.00
 -15  29  -5   61.19   24.30
 -15  29  -5   -9.20   27.60
  14  15   5   30.60   19.10
 -14  30  -5  -33.50   28.80
  30 -16  -5   49.10   23.30
  16  14   5  -22.10   19.80
 -11  27  -5   24.60   19.40
 -11  27  -5   -8.00   26.70
  27 -16  -5   36.90   16.90
  11 -27   5   15.70   16.70
  16  11   5   40.00   18.30
  24 -16  -5   55.79   15.00
  -8  24  -5   45.30   16.10
  -8  24  -5   45.00   26.40
   8 -24   5   70.89   16.90
  16   8   5   43.60   16.50
  21 -16  -5    0.70   10.30
  -5  21  -5   12.60   12.90
  -5  21  -5   16.00   18.80
 -16  -5  -5    5.20   14.70
   5 -21   5    0.50   12.50
  16   5   5   29.00   14.20
  -2  18  -5  143.19   19.50
 -16  -2  -5  138.89   18.90
  -2  18  -5  155.78   24.90
  18 -16  -5  160.88   15.50
  16   2   5  140.69   18.30
   2 -18   5  140.59   17.20
 -16   1  -5    6.40    6.00
 -16   1  -5   12.10   11.30
   1  15  -5   -1.80   11.60
  15 -16  -5   -1.00    5.90
  16  -1   5    4.50    9.30
  16  -1   5   11.00   11.10
  -1 -15   5   10.90   11.30
 -16   4  -5   33.10    8.10
 -16   4  -5   40.10   12.50
  12 -16  -5   43.80    6.30
   4  12  -5   29.30   19.70
  -4 -12   5   44.10   12.60
  16  -4   5   40.80   12.70
  16  -4   5   48.60   11.60
 -16   7  -5  177.18   16.40
 -16   7  -5  177.78   21.20
  16  -7   5  173.28   22.80
  16  -7   5  184.58   18.00
  -7  -9   5  163.78   20.70
 -16  10  -5   20.10    9.30
 -16  10  -5   30.60   12.50
 -10  -6   5   26.70   13.30
  16 -10   5   36.90   10.10
  16 -10   5   27.30   14.20
 -16  13  -5   38.40   15.60
  16 -13   5   67.99   15.60
 -13  -3   5   49.50   15.10
  16 -13   5   41.60   12.80
 -16  16  -5   -4.30   12.40
 -16  16  -5    6.20   10.50
  16 -16   5   15.50   12.20
  16 -16   5   12.30   10.50
 -16  19  -5   13.90   17.20
   3  16   5    1.60    5.90
  16 -19   5   19.20   15.30
 -19   3   5    4.70   15.30
  16 -19   5    5.90   11.80
 -16  22  -5  -16.80   18.10
  22  -6  -5   45.70   13.90
   6  16   5   -4.10    8.20
  16 -22   5   -1.50   15.60
 -22   6   5   -7.50   17.70
  16 -22   5  -17.70   11.90
 -16  25  -5   33.60   17.40
 -16  25  -5   -2.00   22.80
   9  16   5   49.90   13.70
 -25   9   5   20.30   20.20
  16 -25   5   50.59   17.90
 -16  28  -5   30.70   29.60
  28 -12  -5    3.60   17.40
 -16  28  -5   56.99   21.80
  12  16   5   26.20   16.80
 -12  29  -5   71.29   32.10
 -12  29  -5   71.89   24.20
  12 -29   5   71.99   19.40
  17  12   5   71.19   23.70
  -9  26  -5  183.68   27.00
  26 -17  -5  198.18   23.40
  -9  26  -5  178.78   31.80
   9 -26   5  166.18   21.70
  17   9   5  140.09   21.90
  -6  23  -5   46.50   18.50
  23 -17  -5   63.09   14.70
  -6  23  -5   76.29   25.40
  17   6   5   71.09   17.80
  -3  20  -5   28.90   19.20
  -3  20  -5   66.29   15.90
  20 -17  -5   39.60   10.50
   3 -20   5   37.10   14.10
  17   3   5   31.70   14.10
   0  17  -5   -5.10   18.10
  17 -17  -5    2.40    6.70
 -17   0  -5   10.60    5.50
   0  17  -5   28.00   13.10
 -17   0  -5    8.30   13.30
  17   0   5    8.30   10.80
   0 -17   5    1.30   11.10
  17   0   5    8.70   12.20
 -17   3  -5   27.90   13.50
 -17   3  -5    8.80    7.50
   3  14  -5   30.30   12.30
  -3 -14   5   20.20   11.50
  17  -3   5   -0.70   11.50
  17  -3   5   17.80   10.50
   6  11  -5  231.28   21.80
 -17   6  -5  192.38   16.60
 -17   6  -5  225.18   23.10
  17  -6   5  223.68   23.80
  -6 -11   5  268.77   23.60
  17  -6   5  221.48   19.50
   9   8  -5 1019.90   40.30
 -17   9  -5 1087.59   36.70
 -17   9  -5 1000.10   41.20
  17  -9   5 1153.48   45.10
  -9  -8   5 1093.69   42.00
  17  -9   5 1171.58   38.60
  17 -12   5 1535.95   53.69
  17 -12   5 1534.05   56.99
 -12  -5   5 1572.64   52.29
 -17  15  -5  930.21   37.50
 -17  15  -5  942.41   42.40
 -15  -2   5  734.53   47.60
  17 -15   5  815.82   34.30
  17 -15   5  830.92   39.40
 -17  18  -5  690.53   34.30
 -17  18  -5  670.63   38.10
  17 -18   5  712.23   33.00
 -18   1   5  693.63   39.60
  17 -18   5  680.93   38.10
  21  -4  -5  543.65   32.30
 -17  21  -5  474.65   37.70
 -21   4   5  551.04   38.10
  17 -21   5  588.54   37.40
  17 -21   5  504.35   30.80
   4  17   5  514.75   20.30
 -17  24  -5  253.97   30.40
 -17  24  -5  339.27   38.80
   7  17   5  398.26   22.60
  17 -24   5  421.26   31.10
 -24   7   5  399.16   40.40
 -17  27  -5   19.70   27.90
 -17  27  -5    0.70   20.00
  27 -10  -5   34.70   17.00
  17 -27   5   47.00   19.30
 -27  10   5   38.60   25.00
  10  17   5   48.00   16.20
 -17  30  -5   -7.90   31.90
 -17  30  -5   21.50   21.00
  30 -13  -5   42.10   23.70
  13  17   5   13.50   19.80
 -10  28  -5  130.09   32.60
 -10  28  -5  124.29   24.70
  10 -28   5  127.99   21.20
  18  10   5  119.89   23.90
  -7  25  -5  207.78   33.40
  25 -18  -5  264.27   25.50
  -7  25  -5  195.08   25.50
   7 -25   5  256.27   27.70
  18   7   5  267.87   31.10
  -4  22  -5  216.38   28.40
  22 -18  -5  168.78   19.70
 -18  -4  -5  176.98   24.50
  -4  22  -5  159.18   27.00
  18   4   5  149.59   20.70
   4 -22   5  189.58   20.90
  19 -18  -5   51.39   11.20
  -1  19  -5   48.50   15.20
  -1  19  -5   32.40   19.90
 -18  -1  -5   24.80   15.10
   1 -19   5   67.89   15.80
  18   1   5   36.30   14.50
   2  16  -5  134.29   19.40
 -18   2  -5  160.28   24.90
 -18   2  -5  177.08   13.70
  16 -18  -5  141.79   12.60
  18  -2   5  187.98   22.90
  18  -2   5  195.48   21.00
  -2 -16   5  163.78   21.80
   5  13  -5  -13.00   10.90
 -18   5  -5   11.90    8.20
  13 -18  -5   10.20    4.50
  18  -5   5   -1.80   10.60
  -5 -13   5   -2.50   12.20
  18  -5   5   34.80   13.60
   8  10  -5  324.57   25.40
 -18   8  -5  363.86   21.70
  18  -8   5  394.36   24.50
  18  -8   5  340.37   26.90
  -8 -10   5  335.47   26.60
 -18  11  -5 1073.89   39.90
 -18  11  -5 1141.19   44.60
  18 -11   5 1120.59   45.20
 -11  -7   5 1134.09   43.60
  18 -11   5 1140.19   56.29
 -18  14  -5  515.75   34.80
 -18  14  -5  581.74   30.00
 -14  -4   5  505.25   32.40
  18 -14   5  453.95   30.50
  18 -14   5  494.05   28.90
 -18  17  -5  725.53   38.60
 -18  17  -5  700.53   34.10
 -17  -1   5  696.33   39.30
  18 -17   5  685.63   33.10
  18 -17   5  678.23   37.40
 -18  20  -5  644.24   40.90
  20  -2  -5  681.73   34.20
  18 -20   5  602.04   32.50
   2  18   5  616.74   17.60
 -20   2   5  618.74   39.70
  18 -20   5  555.44   36.70
 -18  23  -5  318.17   37.10
  18 -23   5  286.97   28.30
   5  18   5  334.57   18.80
 -23   5   5  341.57   37.10
  26  -8  -5   99.19   21.40
 -18  26  -5   73.19   20.60
 -18  26  -5  107.19   29.10
   8  18   5  119.89   16.10
 -26   8   5   71.99   27.70
  18 -26   5  132.29   22.90
 -18  29  -5  -39.10   23.30
  29 -11  -5    5.00   19.30
 -18  29  -5  -10.80   30.00
  11  18   5   -4.70   16.80
 -29  11   5   17.00   28.00
  30 -19  -5   45.10   25.70
 -11  30  -5   -2.90   33.10
 -11  30  -5   68.39   25.70
  19  11   5  -17.10   22.80
  -8  27  -5  101.79   31.80
  -8  27  -5   99.49   23.10
  27 -19  -5   91.59   19.30
   8 -27   5  104.59   19.60
  19   8   5  108.99   23.70
  -5  24  -5  125.19   29.10
  -5  24  -5  145.89   21.90
  24 -19  -5  162.18   19.50
  19   5   5  142.19   23.20
  -2  21  -5   80.79   23.60
  21 -19  -5   69.49   13.00
  -2  21  -5  100.59   19.60
 -19  -2  -5   85.39   20.00
   2 -21   5   72.09   16.10
  19   2   5   69.39   18.60
 -19   1  -5   14.30    7.20
 -19   1  -5   51.79   15.90
  18 -19  -5   22.40    8.50
   1  18  -5   57.39   21.00
   1  18  -5   24.40   14.00
  -1 -18   5   33.40   13.90
  19  -1   5   36.70   15.00
  15 -19  -5  249.38   13.20
 -19   4  -5  308.37   27.30
   4  15  -5  275.87   26.10
 -19   4  -5  265.77   17.90
  19  -4   5  282.97   27.50
  -4 -15   5  259.87   25.30
  19  -4   5  294.97   23.90
 -19   7  -5   64.09   16.00
 -19   7  -5   81.79   12.60
   7  12  -5   92.29   16.50
  -7 -12   5   77.89   15.90
  19  -7   5   40.50   14.00
  19  -7   5   97.19   20.40
 -19  10  -5  296.27   26.00
  10   9  -5  233.38   23.60
 -19  10  -5  292.17   21.50
 -10  -9   5  304.67   27.30
  19 -10   5  309.77   23.70
  19 -10   5  306.77   27.00
 -19  13  -5   39.20   12.50
 -19  13  -5   39.00   17.10
  19 -13   5   61.79   13.80
  19 -13   5   34.70   12.70
 -13  -6   5   42.70   15.90
 -19  16  -5   15.90   11.80
 -19  16  -5   16.70   16.00
  19 -16   5   20.60   12.70
 -16  -3   5   13.80   14.70
  19 -16   5   27.70   12.10
 -19  19  -5   25.20   17.20
  19 -19   5  -21.20   12.00
  19 -19   5  -22.40   13.80
 -19   0   5    9.30   18.00
 -19  22  -5   28.20   20.90
   3  19   5   -0.80    6.90
  19 -22   5   -4.90   13.20
 -22   3   5   22.10   18.60
  25  -6  -5   41.80   16.70
 -19  25  -5   -2.90   25.00
 -19  25  -5   36.50   18.20
 -25   6   5   20.30   23.30
  19 -25   5   28.60   16.60
   6  19   5    2.80   10.00
  19 -25   5   14.40   23.40
 -19  28  -5  -11.10   19.90
  28  -9  -5    0.60   18.80
 -19  28  -5    4.60   27.90
 -28   9   5  -19.70   27.20
   9  19   5    0.30   14.90
  -9  29  -5   57.79   24.50
  -9  29  -5  188.78   38.00
   9 -29   5   77.59   18.90
  20   9   5  114.89   25.10
  -6  26  -5  149.79   26.30
  -6  26  -5  120.19   31.70
  26 -20  -5  110.59   18.80
  20   6   5  120.79   23.80
   6 -26   5  104.99   18.90
 -20  -3  -5   29.10   19.90
  -3  23  -5   63.29   20.60
  -3  23  -5   45.00   26.40
  23 -20  -5   48.80   13.80
  20   3   5   68.89   18.40
   3 -23   5   52.79   16.20
   0  20  -5   20.10   20.70
   0  20  -5   10.40   14.30
  20 -20  -5   18.90    9.60
 -20   0  -5   -5.90   13.50
   0 -20   5   -7.90   13.30
  20   0   5   -1.40   14.70
 -20   3  -5   10.40    8.70
  17 -20  -5   13.60    7.10
 -20   3  -5   -2.30   15.00
   3  17  -5   42.30   15.30
  -3 -17   5   -6.60   12.60
  20  -3   5    2.70   14.10
   6  14  -5  113.69   17.40
 -20   6  -5   85.79   12.80
 -20   6  -5   75.69   17.20
  20  -6   5   83.39   15.80
  -6 -14   5   79.49   17.20
  20  -6   5   83.09   17.80
   9  11  -5  463.25   30.20
 -20   9  -5  484.35   32.60
 -20   9  -5  490.55   26.00
  20  -9   5  501.65   32.50
  20  -9   5  493.95   28.50
  -9 -11   5  482.95   30.60
 -20  12  -5  409.26   26.00
 -20  12  -5  397.86   31.00
 -12  -8   5  415.56   30.70
  20 -12   5  459.35   27.80
 -20  15  -5  485.85   35.20
 -20  15  -5  502.55   30.10
  20 -15   5  460.25   29.40
 -15  -5   5  440.06   33.50
 -20  18  -5  411.66   30.20
 -20  18  -5  545.45   37.00
 -18  -2   5  515.85   37.20
  20 -18   5  565.14   32.10
 -20  21  -5  610.84   42.40
 -21   1   5  513.55   40.00
  20 -21   5  521.95   32.50
  24  -4  -5  288.17   30.80
 -20  24  -5  232.18   34.10
   4  20   5  240.38   16.30
 -24   4   5  230.08   31.40
  20 -24   5  248.58   43.80
 -20  27  -5   63.49   24.70
  27  -7  -5   60.89   20.20
 -20  27  -5  115.19   32.30
  20 -27   5   54.89   21.50
 -27   7   5  107.99   27.90
   7  20   5   85.39   14.90
  30 -10  -5  -29.20   20.30
 -20  30  -5   18.50   33.10
  10  20   5   25.70   18.50
 -30  10   5   33.50   32.40
  -7  28  -5  189.68   30.40
  -7  28  -5  168.98   37.40
  28 -21  -5  144.19   22.20
   7 -28   5  167.68   21.50
  21   7   5  192.08   29.50
  25 -21  -5  230.88   29.30
  -4  25  -5  227.58   35.20
  -4  25  -5  295.97   32.20
  21   4   5  256.07   33.50
  22 -21  -5  266.37   22.30
 -21  -1  -5  293.77   32.60
  -1  22  -5  258.87   31.60
  -1  22  -5  272.37   34.90
   1 -22   5  250.57   26.50
  21   1   5  219.48   26.00
  19 -21  -5  123.19   15.50
 -21   2  -5  128.29   14.40
   2  19  -5  106.29   19.00
 -21   2  -5  113.99   21.80
  -2 -19   5   81.39   17.30
  21  -2   5   76.59   18.70
   5  16  -5   -2.90   13.10
 -21   5  -5   27.20   15.30
 -21   5  -5    3.70    9.00
  16 -21  -5   11.10    6.90
  -5 -16   5   31.50   14.40
  21  -5   5    0.20   13.90
 -21   8  -5  155.38   23.10
   8  13  -5  193.98   24.80
 -21   8  -5  196.28   19.40
  21  -8   5  165.38   21.90
  -8 -13   5  173.08   21.40
  21  -8   5  153.88   21.70
  11  10  -5  155.48   19.50
 -21  11  -5  171.18   21.10
 -21  11  -5  202.58   25.40
 -11 -10   5  153.88   21.30
  21 -11   5  172.28   19.30
 -21  14  -5  326.37   31.30
 -21  14  -5  299.97   25.60
  21 -14   5  393.66   27.70
 -14  -7   5  361.16   32.60
 -21  17  -5  400.66   35.50
 -21  17  -5  375.36   28.30
  21 -17   5  448.06   30.20
 -17  -4   5  419.36   35.60
 -21  20  -5  456.35   38.30
  21 -20   5  469.65   31.10
 -20  -1   5  467.65   37.90
 -21  23  -5  297.97   38.40
  23  -2  -5  343.07   31.30
  21 -23   5  252.07   39.80
 -23   2   5  296.77   34.30
  26  -5  -5  122.99   21.90
 -21  26  -5  152.98   31.50
 -21  26  -5  105.59   25.10
 -26   5   5  155.78   30.30
   5  21   5  148.19   17.80
  21 -26   5  152.08   28.30
 -21  29  -5    5.30   23.20
 -21  29  -5  -37.60   32.00
  29  -8  -5  -34.10   21.20
   8  21   5  -14.40   14.80
 -29   8   5   -5.20   30.00
  -5  27  -5  156.48   34.60
  27 -22  -5  131.09   20.60
  -5  27  -5  144.29   27.70
  22   5   5  126.39   26.00
 -22  -2  -5  206.28   28.80
  24 -22  -5  183.28   23.40
  -2  24  -5  194.88   33.60
  -2  24  -5  205.18   27.40
   2 -24   5  217.48   26.40
  22   2   5  265.47   34.90
 -22   1  -5  264.17   16.40
   1  21  -5  278.37   32.30
 -22   1  -5  229.28   32.00
  21 -22  -5  207.88   19.50
   1  21  -5  184.68   30.60
 -22   1  -5  230.38   13.80
  -1 -21   5  245.78   26.50
  22  -1   5  186.48   26.00
   4  18  -5  145.69   22.20
 -22   4  -5   82.09   21.40
  18 -22  -5  107.39   13.50
 -22   4  -5  110.59   13.20
  22  -4   5   98.09   20.80
  -4 -18   5  102.99   18.10
 -22   7  -5  114.39   15.00
   7  15  -5  103.19   18.80
 -22   7  -5   98.69   20.90
  -7 -15   5  113.39   19.70
  22  -7   5   87.49   17.70
 -22  10  -5  198.68   21.30
  10  12  -5  210.48   26.00
 -22  10  -5  215.18   28.90
  22 -10   5  186.48   24.10
 -10 -12   5  229.58   27.50
 -22  13  -5   18.40   16.90
 -22  13  -5  -20.40   11.80
  22 -13   5  -12.10   12.50
 -22  16  -5    6.00   17.40
 -22  16  -5   25.40   13.50
 -16  -6   5   11.70   18.00
  22 -16   5   11.50   15.00
 -22  19  -5    3.00   19.00
 -19  -3   5   14.20   18.10
  22   0  -5   -5.00   15.70
 -22  22  -5  -12.10   21.00
  22 -22   5   25.40   20.40
 -22   0   5   -1.80   20.60
 -22  25  -5    0.00   19.90
  25  -3  -5   45.20   19.60
 -22  25  -5   11.90   27.10
 -25   3   5  -35.70   24.50
  22 -25   5    7.00   21.50
  28  -6  -5   42.50   22.40
 -22  28  -5   40.00   32.30
 -22  28  -5   -2.30   20.50
 -28   6   5   35.70   30.30
  22 -28   5   -7.20   23.80
   6  22   5   24.60   12.60
  -6  29  -5   64.39   35.10
  29 -23  -5   36.70   20.50
  -6  29  -5   54.59   28.10
   6 -29   5   49.00   23.60
  23   6   5   90.69   29.00
  -3  26  -5   27.00   23.50
  -3  26  -5   -6.40   30.40
  23   3   5   29.80   22.00
   3 -26   5   27.50   16.00
   0  23  -5   -2.10   28.10
   0  23  -5  -13.30   18.40
 -23   0  -5    9.40   20.70
  23 -23  -5    6.80   11.80
  23   0   5  -40.50   17.60
   0 -23   5    1.50   13.80
 -23   3  -5   17.90   17.60
   3  20  -5   19.20   18.70
  20 -23  -5  -11.70    8.80
 -23   3  -5    8.90    9.70
  -3 -20   5   25.70   14.00
  23  -3   5    2.30   17.80
 -23   6  -5   65.59   21.10
   6  17  -5   44.10   17.00
 -23   6  -5   67.09   12.90
  17 -23  -5   60.59    8.00
  -6 -17   5   59.99   16.50
  23  -6   5   45.10   18.10
   9  14  -5   65.19   19.40
 -23   9  -5   63.29   13.60
 -23   9  -5   65.09   18.50
  23  -9   5   63.69   16.90
  -9 -14   5   54.39   17.30
  12  11  -5  234.98   27.90
 -23  12  -5  188.58   25.60
 -23  12  -5  235.28   24.30
 -23  15  -5  268.07   31.40
 -23  15  -5  266.07   26.60
 -15  -8   5  348.27   33.60
 -23  18  -5  293.87   35.50
 -18  -5   5  357.26   38.10
 -23  21  -5  237.08   30.80
 -23  21  -5  341.57   39.50
  23 -21   5  293.37   34.70
 -21  -2   5  259.57   31.60
  24  -1  -5  395.86   35.20
 -23  24  -5  382.36   43.30
 -23  24  -5  330.47   37.30
  23 -24   5  368.56   40.80
 -24   1   5  366.76   46.80
 -23  27  -5  120.79   34.50
  27  -4  -5  119.49   24.40
 -23  27  -5  128.19   25.10
  23 -27   5   83.79   25.90
 -27   4   5   81.09   33.80
   4  23   5  138.29   16.00
  28 -24  -5  250.47   32.20
  -4  28  -5  264.27   33.90
  -4  28  -5  291.47   42.50
  24   4   5  226.58   35.60
   4 -28   5  301.87   30.00
  -1  25  -5  170.18   36.20
  25 -24  -5  159.18   20.30
  -1  25  -5  127.29   25.90
  24   1   5  122.09   25.20
   1 -25   5  129.39   19.20
 -24   2  -5  182.48   16.30
 -24   2  -5  199.88   19.70
   2  22  -5  195.18   26.90
 -24   2  -5  189.38   27.20
   2  22  -5  212.88   36.80
  22 -24  -5  198.48   20.20
  -2 -22   5  200.68   26.30
  24  -2   5  200.78   29.80
 -24   5  -5  144.99   19.20
  19 -24  -5  159.08   14.00
 -24   5  -5  123.59   25.30
   5  19  -5   91.09   22.10
  -5 -19   5  194.08   25.70
  24  -5   5  100.69   23.70
 -24   8  -5   66.59   20.40
   8  16  -5   76.69   19.80
 -24   8  -5   92.19   14.80
  24  -8   5   70.29   18.50
  -8 -16   5  114.19   20.00
 -24  11  -5   25.60   19.60
 -24  11  -5   28.00   14.10
  11  13  -5   27.10   16.90
 -11 -13   5   57.89   27.20
  24 -11   5   16.40   23.00
 -24  14  -5  320.47   28.40
 -24  14  -5  278.27   34.40
 -14 -10   5  373.56   34.30
 -24  17  -5  299.87   35.20
 -17  -7   5  305.67   36.40
 -24  20  -5  246.78   30.90
 -24  20  -5  263.37   32.40
 -20  -4   5  211.58   29.30
  24 -20   5  258.57   33.60
 -24  23  -5  410.96   43.00
  23   1  -5  283.87   34.10
 -24  23  -5  363.26   36.80
  24 -23   5  359.86   40.50
  -1  24   5  333.17   15.60
 -23  -1   5  345.17   44.60
 -24  26  -5   86.09   24.30
  26  -2  -5  163.88   26.70
 -24  26  -5  194.58   36.80
  24 -26   5  139.19   31.00
 -26   2   5  232.98   37.00
   2  24   5  163.18   12.00
  -2  27  -5  267.47   42.80
  27 -25  -5  209.08   30.30
  -2  27  -5  250.27   33.70
   2 -27   5  286.67   28.30
  25   2   5  350.96   45.90
   1  24  -5  103.79   35.30
  24 -25  -5  156.38   18.80
   1  24  -5  195.38   29.80
 -25   1  -5  230.88   33.10
  -1 -24   5  160.68   19.60
  25  -1   5   81.69   26.00
 -25   4  -5  240.38   20.60
 -25   4  -5  228.18   31.50
  21 -25  -5  222.38   18.70
   4  21  -5  236.98   29.30
  25  -4   5  241.38   29.50
  -4 -21   5  260.37   27.60
 -25   7  -5  303.67   36.60
   7  18  -5  367.36   35.30
  25  -7   5  288.07   36.50
  -7 -18   5  366.36   29.70
  10  15  -5  164.28   23.80
 -25  10  -5  138.29   25.50
 -25  10  -5  174.98   20.00
  25 -10   5  131.69   23.90
 -10 -15   5  149.88   23.00
 -25  13  -5   21.70   14.30
 -25  13  -5    4.60   19.30
 -13 -12   5    9.10   18.90
 -25  16  -5   17.80   22.10
 -16  -9   5    7.40   19.20
 -25  19  -5   -7.90   17.80
 -25  19  -5   40.80   21.80
 -19  -6   5  -11.40   21.80
  25 -19   5   -2.00   17.20
  22   3  -5    9.20   20.30
 -25  22  -5   20.30   24.60
 -25  22  -5   -8.20   20.00
  -3  25   5   17.30    7.80
  25 -22   5    4.30   21.00
 -22  -3   5   26.60   24.80
  25   0  -5  -13.40   19.30
 -25  25  -5    7.90   30.00
   0  25   5   12.40   11.60
  25 -25   5   35.30   26.40
 -25   0   5   28.30   28.20
   3  25   5   24.10   10.30
 -28   3   5   46.60   37.00
   0  26  -5    0.80   26.00
  26 -26  -5  -10.90   15.80
   0  26  -5   28.40   34.60
   0 -26   5   11.50   14.60
  26   0   5  -27.40   24.20
   3  23  -5   55.29   25.10
   3  23  -5   11.30   31.10
 -26   3  -5    6.10   22.90
  23 -26  -5    1.50   12.90
 -26   3  -5    0.30   13.40
 -26   3  -5   24.30   11.30
  -3 -23   5   12.40   15.40
  26  -3   5   -4.60   23.00
 -26   6  -5   75.49   25.00
  20 -26  -5   47.20    9.10
 -26   6  -5   52.69   13.40
   6  20  -5   16.20   21.60
  -6 -20   5   70.59   17.90
  26  -6   5   22.90   23.60
 -26   9  -5   92.49   17.40
   9  17  -5   39.30   19.90
 -26   9  -5   84.79   25.10
  -9 -17   5  104.39   19.80
  26  -9   5  103.59   22.90
 -26  12  -5  111.69   17.60
  12  14  -5  162.28   24.00
 -26  12  -5  134.29   25.30
  26 -12   5  127.29   26.00
 -12 -14   5  133.39   26.30
 -26  15  -5   89.69   25.60
 -15 -11   5  123.49   24.00
 -26  18  -5  116.59   27.30
  26 -18   5  133.19   28.30
 -18  -8   5  122.59   25.20
 -26  21  -5  199.28   31.40
 -26  21  -5  149.19   25.70
 -21  -5   5  217.88   32.20
  -5  26   5  184.78   15.80
  26 -21   5  106.19   26.60
  24   2  -5  168.68   27.60
 -26  24  -5  161.38   33.20
 -26  24  -5   95.79   23.90
  26 -24   5  151.68   28.40
 -24  -2   5  155.48   32.40
  -2  26   5  151.38   13.70
 -26  27  -5   51.39   36.50
 -27   1   5  128.39   36.30
  26 -27   5   50.39   26.80
   1  26   5   69.89   10.90
 -27   2  -5  265.77   36.30
  25 -27  -5  293.07   28.40
   2  25  -5  223.08   44.40
   2  25  -5  268.27   36.00
 -27   2  -5  255.77   16.90
 -27   2  -5  287.47   15.60
  -2 -25   5  284.87   27.40
  27  -2   5  187.48   31.90
  22 -27  -5  165.78   18.70
 -27   5  -5  230.88   22.70
   5  22  -5  168.48   28.40
 -27   5  -5  164.68   29.80
  27  -5   5  160.38   28.50
  -5 -22   5  209.18   27.50
   8  19  -5  147.09   28.30
 -27   8  -5  142.79   27.70
 -27   8  -5  165.38   19.80
  -8 -19   5  171.98   22.20
  27  -8   5  170.98   28.70
 -27  11  -5   18.80   15.70
 -27  11  -5   18.70   23.30
  11  16  -5   10.00   20.60
  27 -11   5   43.30   21.50
 -27  14  -5    7.50   21.90
  27 -14   5   51.29   23.00
 -14 -13   5   33.90   19.60
 -27  17  -5   19.20   23.90
 -27  17  -5   -8.10   17.70
 -17 -10   5   25.00   20.50
  27 -17   5   34.70   21.70
 -27  20  -5   98.89   29.80
 -27  20  -5   75.99   22.50
  27 -20   5   50.99   21.30
 -20  -7   5  107.89   26.30
  23   4  -5   74.29   23.80
 -27  23  -5   39.00   24.50
 -23  -4   5  145.89   31.50
  -4  27   5  140.59   15.30
  27 -23   5  105.09   27.00
 -27  26  -5   64.99   35.20
 -26  -1   5   69.09   34.20
  -1  27   5   97.59   10.40
  27 -26   5  167.48   29.80
  24 -28  -5  322.37   23.00
 -28   4  -5  311.47   27.20
   4  24  -5  239.68   34.00
 -28   4  -5  384.96   49.70
   4  24  -5  352.16   47.50
 -28   4  -5  320.07   24.20
  28  -4   5  153.68   28.30
 -28   7  -5  156.58   31.20
 -28   7  -5  168.08   19.50
   7  21  -5  174.58   29.00
  28  -7   5  166.78   33.70
  -7 -21   5  159.48   21.00
  10  18  -5  114.59   27.90
 -28  10  -5  119.39   19.50
 -28  10  -5  135.09   30.10
 -10 -18   5  145.79   22.10
  28 -10   5   83.39   24.60
 -28  13  -5   53.19   27.20
  13  15  -5   55.89   23.40
  28 -13   5   59.99   25.50
 -13 -15   5   65.69   21.00
 -28  16  -5   -7.60   18.10
 -28  16  -5   28.00   25.50
 -16 -12   5  -24.70   20.80
 -28  19  -5  -44.50   23.60
 -28  19  -5  -34.70   19.80
  28 -19   5   31.50   22.10
 -19  -9   5   29.50   22.50
 -28  22  -5    1.80   22.70
  22   6  -5   28.60   20.50
 -28  22  -5   -1.40   28.50
  28 -22   5  -12.90   21.90
  -6  28   5    4.50   10.40
 -22  -6   5   96.19   28.60
 -25  -3   5   -6.90   30.80
  -3  28   5    4.20    9.30
  23 -29  -5   11.20   10.60
   6  23  -5   19.40   26.90
 -29   6  -5  -11.20   26.20
 -29   6  -5   43.90   19.10
  -6 -23   5   30.50   15.50
  29  -6   5   11.30   31.90
 -29   9  -5   68.39   17.90
   9  20  -5  113.69   29.80
 -29   9  -5  133.49   31.30
  -9 -20   5  103.79   19.70
  29  -9   5  101.19   23.70
 -29  12  -5   40.80   27.50
  12  17  -5   77.09   26.00
  29 -12   5   56.39   25.60
 -29  15  -5   59.09   28.60
 -29  15  -5   45.40   19.80
 -15 -14   5   19.60   19.60
  29 -15   5   12.80   24.90
 -29  18  -5  -19.70   25.40
 -29  18  -5   24.80   21.20
 -18 -11   5   16.70   22.80
  29 -18   5   41.90   22.60
 -29  21  -5  -17.50   22.70
 -29  21  -5    5.30   29.90
 -21  -8   5   -8.10   24.60
  -8  29   5   -9.50   11.60
  11  19  -5   90.89   27.80
 -30  11  -5  102.49   28.70
 -11 -19   5   89.59   19.50
 -30  14  -5   -2.00   20.80
 -30  14  -5  -30.00   27.80
 -14 -16   5   23.50   19.90
  30 -14   5   -2.40   28.70
 -30  17  -5   10.10   30.50
 -30  17  -5    1.90   20.80
 -17 -13   5   35.00   22.20
  30 -17   5  -24.70   27.90
 -30  20  -5   -2.60   27.30
 -30  20  -5  -36.30   22.30
 -20 -10   5   25.90   23.00
 -10  30   5    0.40   13.50
   0   0  -6 4118.99   87.49
   0   0  -6 4127.99   91.59
   0   0   6 4381.16   95.49
  -1  -1  -6  929.61   32.00
  -1   2  -6  947.01   34.00
   2  -1  -6  941.01   32.60
  -1   2  -6  918.81   30.70
   1  -2   6  974.90   33.40
  -2   1   6  987.70   33.70
   1   1   6  937.41   32.00
  -2   1  -6 1289.17   39.60
  -2   1  -6 1234.78   35.30
   1   1  -6 1190.78   36.40
   1  -2  -6 1254.27   37.70
   1   1  -6 1219.08   39.70
  -1   2   6 1246.58   37.90
  -1  -1   6 1286.87   40.10
   2  -1   6 1275.07   38.70
   4  -2  -6  965.00   33.60
  -2   4  -6  951.70   35.40
  -2   4  -6  968.20   32.30
  -2  -2  -6  926.21   31.30
   2  -4   6  887.81   32.50
  -4   2   6  908.91   33.40
   2   2   6  971.50   30.80
   0   3  -6 5192.08  109.79
   0   3  -6 5173.18  113.39
  -3   0  -6 5108.39  104.09
  -3   0  -6 5162.78  109.89
   3  -3  -6 5309.07  109.19
   3   0   6 5325.37  110.09
   0  -3   6 5196.68  112.89
  -3   3   6 5368.06  111.69
   0  -3  -6 3875.61   83.69
   3   0  -6 3877.01   87.99
  -3   3  -6 3751.92   83.89
  -3   3  -6 3801.82   88.09
  -3   0   6 3598.84   84.19
   3  -3   6 3713.63   83.29
   0   3   6 3754.42   81.09
  -3  -3  -6 1172.88   35.30
  -3   6  -6 1206.38   41.60
  -3   6  -6 1161.68   37.80
  -6   3   6 1276.67   40.80
   3   3   6 1240.68   36.90
   3  -6   6 1277.97   40.10
   3   3   6 1224.98   35.70
  -4  -1  -6  743.63   28.50
  -4  -1  -6  783.42   23.10
  -1   5  -6  797.62   33.30
  -1   5  -6  782.52   29.70
   1  -5   6  790.72   31.40
   4   1   6  825.72   29.80
   4   1   6  805.62   28.20
  -5   4   6  843.32   31.30
   2   2  -6 1077.89   34.80
   2   2  -6 1120.89   38.50
  -4   2  -6 1100.09   32.80
  -4   2  -6 1076.89   36.50
   2  -4  -6 1081.69   33.30
   4  -2   6 1124.49   35.60
   4  -2   6 1078.89   36.90
  -2  -2   6 1114.49   37.70
  -2   4   6 1080.79   34.40
  -4   5  -6  476.55   25.60
  -4   5  -6  487.95   22.80
  -1  -4  -6  476.65   21.00
   1   4   6  451.95   21.10
  -5   1   6  450.85   24.40
   4  -5   6  487.75   23.80
  -4  -4  -6  192.18   14.90
  -4   8  -6  225.48   17.60
  -4   8  -6  169.88   20.20
  -8   4   6  207.28   20.00
   4   4   6  230.98   16.40
   4  -8   6  238.28   20.30
   4   4   6  207.68   15.40
  -5  -2  -6  185.98   15.40
  -2   7  -6  183.68   16.70
  -2   7  -6  142.29   19.20
   2  -7   6  203.88   18.80
   5   2   6  181.48   15.40
   5   2   6  200.58   15.80
  -7   5   6  173.28   18.00
   1   4  -6 1013.50   34.50
   4  -5  -6 1000.70   31.80
   1   4  -6 1038.50   37.90
  -5   1  -6  981.00   34.30
  -5   1  -6 1019.00   29.80
  -1  -4   6 1001.60   36.30
  -4   5   6 1046.20   34.10
   5  -1   6 1056.09   35.90
   5  -1   6 1075.19   33.70
  -5   4  -6  445.46   24.30
   1  -5  -6  418.26   19.20
  -5   4  -6  418.96   20.60
   5  -4   6  441.46   22.60
   5  -4   6  402.66   23.30
  -4  -1   6  436.06   24.10
  -1   5   6  408.86   20.60
  -2  -5  -6  332.27   17.40
  -5   7  -6  276.57   22.40
  -5   7  -6  318.67   19.50
   5  -7   6  350.76   21.80
   2   5   6  337.67   17.40
  -7   2   6  396.16   23.90
   2   5   6  362.16   18.60
  -5  10  -6  415.56   27.50
  -5  10  -6  381.26   23.30
  -5  -5  -6  360.96   19.10
   5   5   6  361.56   18.10
 -10   5   6  395.56   25.00
   5 -10   6  362.16   23.00
   5   5   6  338.07   18.60
  -3   9  -6  696.13   30.10
  -3   9  -6  717.83   33.90
  -6  -3  -6  717.93   26.90
   3  -9   6  779.72   32.10
  -9   6   6  731.53   31.70
   6   3   6  780.42   28.90
   6   3   6  768.72   26.90
   0   6  -6 2182.18   57.49
  -6   0  -6 2151.28   48.40
  -6   0  -6 2069.89   54.99
   0   6  -6 2141.09   60.89
   6   0   6 2038.60   55.29
   6   0   6 2097.29   51.79
  -6   6   6 2057.09   53.89
   0  -6   6 2051.89   56.49
  -6   3  -6 1222.98   36.00
   3  -6  -6 1239.28   34.90
   3   3  -6 1244.58   39.20
  -6   3  -6 1269.57   40.60
  -3   6   6 1333.47   38.50
  -3  -3   6 1306.27   42.90
   6  -3   6 1336.47   43.00
   6  -3   6 1321.27   39.60
   0  -6  -6 1544.85   40.00
  -6   6  -6 1620.84   49.20
  -6   6  -6 1588.84   45.30
   6  -6   6 1784.42   53.69
   6  -6   6 1839.42   49.99
   0   6   6 1828.42   45.80
  -6   0   6 1821.32   52.69
  -3  -6  -6  547.85   21.60
  -6   9  -6  583.94   26.50
  -6   9  -6  595.44   30.90
   6  -9   6  627.44   28.20
  -9   3   6  623.14   29.30
   3   6   6  592.94   22.60
   3   6   6  618.94   23.40
  -6  12  -6  565.94   32.40
  -6  -6  -6  559.44   23.60
  -6  12  -6  562.24   28.60
   6 -12   6  580.94   28.10
   6   6   6  574.14   24.10
 -12   6   6  606.54   31.10
   6   6   6  569.74   22.20
  -7  -4  -6   24.70    9.20
  -4  11  -6    9.40    8.80
  -4  11  -6   27.50   12.30
   7   4   6   12.20    7.90
   7   4   6   16.90    7.10
   4 -11   6   19.40   10.50
 -11   7   6   26.70   12.70
  -1   8  -6  304.97   20.90
  -1   8  -6  304.97   23.90
  -7  -1  -6  323.07   12.60
  -7  -1  -6  311.37   19.50
   1  -8   6  244.88   20.40
  -8   7   6  252.67   20.30
   7   1   6  286.37   18.60
   7   1   6  264.47   17.70
   2   5  -6  166.98   19.40
   5  -7  -6  169.68   14.20
  -7   2  -6  152.78   17.30
   2   5  -6  170.18   16.40
  -7   2  -6  160.28   13.10
   7  -2   6  188.28   17.20
  -5   7   6  182.98   16.70
  -2  -5   6  177.48   19.50
   7  -2   6  180.98   16.00
  -7   5  -6  280.07   21.20
   5   2  -6  260.07   18.30
   2  -7  -6  235.78   15.10
  -7   5  -6  261.67   17.40
  -2   7   6  301.67   18.40
   7  -5   6  307.97   20.00
  -5  -2   6  283.87   22.20
   7  -5   6  300.47   21.30
  -7   8  -6  148.19   19.10
  -7   8  -6  163.98   16.20
  -1  -7  -6  135.49   12.40
   1   7   6  182.18   14.60
  -8   1   6  168.48   19.70
   7  -8   6  173.38   17.70
   7  -8   6  141.09   17.80
  -4  -7  -6   77.99   10.10
  -7  11  -6   85.49   16.60
  -7  11  -6   72.49   12.70
 -11   4   6   92.49   15.90
   4   7   6   82.69   10.60
   4   7   6   81.49   10.50
   7 -11   6   77.19   14.00
  -7  -7  -6    9.20    8.30
  -7  14  -6   14.40   14.40
  -7  14  -6    4.80   10.40
   7   7   6    4.70    7.80
 -14   7   6    1.60   12.00
   7   7   6   -1.30    7.10
   7 -14   6   -5.70    9.80
  -5  13  -6  283.07   27.30
  -8  -5  -6  301.57   19.90
  -5  13  -6  296.97   27.50
   5 -13   6  296.27   22.30
   8   5   6  321.17   17.70
   8   5   6  278.97   19.40
  -8  -2  -6  462.95   23.10
  -2  10  -6  402.96   28.50
  -2  10  -6  432.46   25.20
   8   2   6  465.55   21.50
   8   2   6  461.85   23.50
   2 -10   6  458.35   26.10
  -8   1  -6  363.26   21.30
   1   7  -6  356.86   25.70
   1   7  -6  371.66   21.80
  -8   1  -6  339.87   15.70
  -1  -7   6  309.47   22.30
   8  -1   6  329.27   20.40
   8  -1   6  279.07   18.30
  -8   4  -6  171.28   14.20
   4  -8  -6  128.99   12.80
  -8   4  -6  135.89   17.30
   4   4  -6  143.99   15.90
  -4  -4   6  192.58   19.60
   8  -4   6  206.78   17.10
   8  -4   6  173.28   17.80
  -4   8   6  175.68   16.70
   1  -8  -6  183.08   12.70
  -8   7  -6  179.58   16.30
  -8   7  -6  196.58   19.20
  -7  -1   6  238.78   21.80
  -1   8   6  222.68   15.80
   8  -7   6  203.58   19.40
   8  -7   6  238.08   18.50
  -2  -8  -6   86.89   11.20
  -8  10  -6   85.99   15.10
  -8  10  -6   95.69   13.30
   8 -10   6   80.29   13.60
   2   8   6  120.09   11.40
   8 -10   6  112.89   16.00
 -10   2   6  102.59   16.20
   2   8   6  108.19   12.90
  -8  13  -6  246.88   25.10
  -5  -8  -6  266.37   16.40
   8 -13   6  244.78   21.60
 -13   5   6  288.77   25.20
   5   8   6  269.57   15.40
   5   8   6  263.97   16.60
  -8  -8  -6  435.86   22.90
  -8  16  -6  447.06   33.30
  -8  16  -6  415.86   27.70
   8   8   6  459.55   19.20
   8   8   6  509.95   24.60
 -16   8   6  478.35   30.80
   8 -16   6  371.56   32.10
  -9  -6  -6  394.46   22.50
  -6  15  -6  316.37   25.10
   6 -15   6  347.17   24.80
   9   6   6  328.77   18.00
   9   6   6  356.46   21.60
  -9  -3  -6  355.96   21.50
  -3  12  -6  386.46   31.60
  -3  12  -6  353.06   28.50
   9   3   6  329.57   20.90
   9   3   6  352.26   19.10
   3 -12   6  341.77   23.80
  -9   0  -6  394.16   22.80
  -9   0  -6  394.76   15.20
   0   9  -6  393.06   28.10
   0   9  -6  418.96   24.90
   9   0   6  312.87   19.30
   0  -9   6  349.87   22.80
   9   0   6  294.57   20.00
   6  -9  -6  679.13   23.40
  -9   3  -6  693.83   29.70
  -9   3  -6  674.63   24.90
   3   6  -6  694.43   29.90
   9  -3   6  679.83   30.50
   9  -3   6  690.93   27.10
  -3  -6   6  750.82   32.30
   6   3  -6  568.84   26.60
   3  -9  -6  522.55   18.80
  -9   6  -6  556.24   24.20
  -9   6  -6  514.15   27.60
  -6  -3   6  592.44   29.70
   9  -6   6  637.84   30.50
   9  -6   6  622.14   26.80
  -3   9   6  630.14   24.20
   0  -9  -6  302.47   14.00
  -9   9  -6  269.97   22.40
  -9   9  -6  289.17   19.60
  -9   0   6  332.67   25.60
   9  -9   6  305.37   20.60
   0   9   6  353.86   17.50
   9  -9   6  350.76   24.00
  -3  -9  -6  287.07   15.60
  -9  12  -6  263.77   20.80
  -9  12  -6  325.87   27.10
   3   9   6  285.77   15.30
   9 -12   6  262.67   27.30
   3   9   6  300.17   15.90
 -12   3   6  239.08   24.40
   9 -12   6  268.87   21.40
  -9  15  -6  126.59   16.80
  -6  -9  -6  119.39   12.90
   6   9   6   94.99   12.20
   6   9   6  132.49   14.50
  -9  18  -6   -4.60   12.30
  18  -9  -6   12.60   10.60
  -9  -9  -6   15.70    9.90
  -9  18  -6   -0.60   15.80
   9   9   6   -4.80    9.40
   9 -18   6   -2.10   11.70
   9   9   6    8.40    7.80
  -7  17  -6  168.88   21.10
  17 -10  -6  162.48   16.80
 -10  -7  -6  129.99   16.50
  -7  17  -6   97.19   19.80
  10   7   6  138.79   18.60
   7 -17   6  148.39   18.20
  10   7   6  161.48   14.80
  -4  14  -6   51.89   17.50
 -10  -4  -6   42.30   11.70
  -4  14  -6   36.50   12.90
   4 -14   6   35.40   12.50
  10   4   6   34.30    9.50
  10   4   6   37.10   11.40
  -1  11  -6   49.60   13.30
 -10  -1  -6   23.10    9.90
  -1  11  -6   28.10   13.80
  10   1   6   41.60   10.90
  10   1   6   23.60    9.40
   1 -11   6   23.60   11.10
 -10   2  -6  453.95   18.90
   2   8  -6  454.15   25.40
 -10   2  -6  468.45   24.90
  -2  -8   6  490.45   27.10
  10  -2   6  467.55   25.20
  10  -2   6  470.15   22.80
   5   5  -6  346.07   22.00
 -10   5  -6  334.77   19.00
 -10   5  -6  359.16   23.50
   5 -10  -6  333.87   15.20
  -5  -5   6  314.07   23.50
  10  -5   6  340.07   20.60
  10  -5   6  312.47   22.60
 -10   8  -6  134.79   17.90
 -10   8  -6  125.09   14.70
   2 -10  -6  121.19    9.90
  10  -8   6  128.59   16.20
  10  -8   6  149.19   19.20
  -8  -2   6  147.09   19.60
 -10  11  -6   99.09   12.90
  -1 -10  -6   83.39   10.10
 -10  11  -6   91.99   16.40
   1  10   6   89.69   11.90
  10 -11   6  122.99   17.70
 -11   1   6  117.49   18.00
  10 -11   6  125.69   16.30
 -10  14  -6   10.30   16.20
  -4 -10  -6    9.50    7.40
 -10  14  -6   14.80    9.50
  10 -14   6    1.70   11.20
   4  10   6   11.50    6.70
 -14   4   6    9.20   14.50
   4  10   6    6.20    6.60
  10 -14   6    8.70   11.30
 -10  17  -6   49.40   18.80
 -10  17  -6   25.50   12.70
  -7 -10  -6   71.49   11.50
   7  10   6   93.99   12.50
  10 -17   6   54.69   14.50
   7  10   6   95.49   12.30
 -17   7   6   56.49   18.90
 -10  20  -6  205.98   28.10
  20 -10  -6  134.79   17.50
  10 -20   6  201.98   22.10
  10  10   6  197.38   15.90
  10  10   6  211.88   21.10
 -11  -8  -6   42.00   12.80
  -8  19  -6   48.30   19.10
  -8  19  -6    3.90   11.90
  19 -11  -6   42.10   12.80
   8 -19   6   90.29   16.00
  11   8   6   76.49   14.00
  11   8   6   92.29   11.40
 -11  -5  -6  518.35   27.10
  -5  16  -6  523.65   34.90
  16 -11  -6  507.35   23.80
  -5  16  -6  533.95   30.70
   5 -16   6  472.85   43.80
  11   5   6  530.75   27.70
  11   5   6  555.84   22.70
  -2  13  -6  528.85   34.90
 -11  -2  -6  529.75   26.40
  -2  13  -6  469.25   27.80
  11   2   6  456.95   22.10
  11   2   6  462.55   26.00
   2 -13   6  490.75   28.10
 -11   1  -6   52.89    8.00
   1  10  -6   34.60   14.40
   1  10  -6   53.79   12.20
 -11   1  -6   50.59   12.30
  11  -1   6   31.30   10.40
  -1 -10   6   47.70   12.50
  11  -1   6   28.40   10.30
   7 -11  -6   36.10    7.40
 -11   4  -6   53.19    9.30
   4   7  -6   43.00   11.70
 -11   4  -6   46.00   11.60
  11  -4   6   28.20   10.10
  11  -4   6   31.50   11.20
  -4  -7   6   49.40   14.00
 -11   7  -6   41.80   13.60
   7   4  -6   45.60   11.40
   4 -11  -6   53.79    6.50
 -11   7  -6   59.49   10.70
  11  -7   6   49.50   11.40
  11  -7   6   72.49   13.20
  -7  -4   6   44.60   13.10
 -11  10  -6   59.99   15.30
   1 -11  -6   56.59    7.90
 -11  10  -6   46.30   11.40
  11 -10   6   59.89   12.50
 -10  -1   6   63.89   14.40
  11 -10   6   46.80   12.70
  -2 -11  -6  251.17   13.40
 -11  13  -6  255.87   25.40
 -11  13  -6  254.37   24.00
  11 -13   6  212.28   20.60
   2  11   6  215.08   13.00
 -13   2   6  220.58   24.50
   2  11   6  214.18   13.10
  11 -13   6  250.07   23.80
 -11  16  -6  148.29   19.60
 -11  16  -6  124.19   21.10
  -5 -11  -6  102.29   13.70
  11 -16   6   80.29   14.40
   5  11   6   89.39   11.20
 -16   5   6   89.39   18.90
   5  11   6   81.09   10.50
  19  -8  -6  245.28   22.10
 -11  19  -6  220.78   30.70
  11 -19   6  230.78   24.80
 -19   8   6  243.48   31.80
   8  11   6  266.27   15.20
   8  11   6  223.78   19.40
 -11  22  -6   96.99   19.00
 -11  22  -6   83.69   24.90
  22 -11  -6  112.39   18.00
  11  11   6   89.69   11.80
  11 -22   6   85.19   17.60
  11  11   6   71.19   14.80
  -9  21  -6   61.29   21.40
  -9  21  -6   75.09   18.20
  21 -12  -6  115.89   17.00
 -12  -9  -6   93.09   16.40
  12   9   6  100.99   17.00
   9 -21   6   98.19   18.00
  12   9   6   94.59   12.20
  -6  18  -6   -6.00   16.60
  18 -12  -6   15.50    9.60
  -6  18  -6   47.90   13.80
 -12  -6  -6   17.30   12.30
  12   6   6   21.30    8.90
  12   6   6   18.50   12.00
   6 -18   6   11.50   12.30
  -3  15  -6  132.49   21.50
 -12  -3  -6  142.99   19.90
  -3  15  -6  166.48   21.60
  15 -12  -6  163.18   14.50
  12   3   6  137.99   18.20
  12   3   6  133.19   16.30
   3 -15   6  125.99   17.30
   0  12  -6  249.68   27.10
 -12   0  -6  275.87   11.90
   0  12  -6  316.77   24.10
  12 -12  -6  276.57   14.70
 -12   0  -6  279.57   22.10
  12   0   6  286.97   22.50
  12   0   6  262.07   19.20
   0 -12   6  290.47   23.80
 -12   3  -6  418.86   19.30
 -12   3  -6  413.46   25.50
   3   9  -6  474.85   38.30
  12  -3   6  402.96   25.20
  -3  -9   6  385.06   25.40
  12  -3   6  398.06   22.20
 -12   6  -6  590.24   25.00
   6   6  -6  557.64   28.30
   6 -12  -6  544.05   16.50
 -12   6  -6  531.65   29.20
  12  -6   6  576.34   30.20
  -6  -6   6  605.64   31.10
  12  -6   6  592.14   26.60
   3 -12  -6  251.27    9.30
 -12   9  -6  258.77   19.20
 -12   9  -6  269.87   24.30
  12  -9   6  239.58   23.20
  -9  -3   6  229.48   22.80
  12  -9   6  248.78   20.10
   0 -12  -6  444.76   14.30
 -12  12  -6  460.25   30.30
 -12  12  -6  412.86   29.30
  12 -12   6  448.46   26.00
  12 -12   6  431.36   28.70
 -12   0   6  437.96   30.00
 -12  15  -6  344.87   25.10
 -12  15  -6  295.17   30.30
  12 -15   6  294.37   23.80
  12 -15   6  290.37   25.60
   3  12   6  287.57   13.80
   3  12   6  293.87   15.20
 -15   3   6  261.37   28.10
 -12  18  -6    0.10   15.70
   6  12   6    0.30    8.10
  12 -18   6   -8.00   11.30
 -18   6   6    4.90   14.40
   6  12   6   11.10    7.00
  21  -9  -6   84.49   15.60
 -12  21  -6   74.79   21.90
 -21   9   6   73.99   22.50
   9  12   6   62.69    9.60
   9  12   6   47.00   11.90
  12 -21   6   42.20   15.10
 -12  24  -6   70.69   27.60
  24 -12  -6  107.29   18.80
 -12  24  -6   91.79   19.70
  12  12   6   85.09   12.70
  12  12   6   87.39   18.10
  12 -24   6   85.39   19.50
  23 -13  -6  479.75   29.70
 -10  23  -6  508.05   43.20
 -10  23  -6  526.55   35.50
  13  10   6  545.45   24.50
  10 -23   6  527.65   34.60
  13  10   6  548.95   33.50
  -7  20  -6  188.98   28.80
 -13  -7  -6  203.28   23.80
  20 -13  -6  215.88   20.10
  -7  20  -6  219.68   26.80
   7 -20   6  180.58   24.20
  13   7   6  167.98   17.30
  13   7   6  171.98   20.30
 -13  -4  -6  178.18   22.60
  17 -13  -6  212.18   17.40
  -4  17  -6  188.78   23.90
  -4  17  -6  192.58   27.10
  13   4   6  195.38   22.60
  13   4   6  212.48   18.20
   4 -17   6  190.38   23.60
  -1  14  -6   45.60   12.90
  14 -13  -6   59.79    9.20
  -1  14  -6   36.20   16.60
 -13  -1  -6   23.20   11.70
   1 -14   6   38.90   13.10
  13   1   6   42.60   13.80
  13   1   6   36.50   11.20
 -13   2  -6  359.66   24.60
 -13   2  -6  361.96   17.10
   2  11  -6  305.97   24.50
  11 -13  -6  339.27   14.50
  13  -2   6  334.37   21.60
  -2 -11   6  356.96   25.30
  13  -2   6  375.26   25.20
   5   8  -6  195.48   25.70
   8 -13  -6  192.38    8.90
 -13   5  -6  217.18   21.70
   8 -13  -6  195.38   11.10
 -13   5  -6  234.58   16.60
  13  -5   6  197.88   20.90
  13  -5   6  219.18   18.40
  -5  -8   6  226.08   22.10
 -13   8  -6  254.67   18.60
   8   5  -6  182.08   24.50
 -13   8  -6  219.18   22.60
  -8  -5   6  221.18   24.20
  13  -8   6  272.57   20.60
  13  -8   6  250.57   23.10
 -13  11  -6  222.68   20.20
 -13  11  -6  219.28   23.90
  13 -11   6  229.88   23.00
 -11  -2   6  192.78   23.20
  13 -11   6  142.49   19.00
 -13  14  -6    1.60   13.90
 -13  14  -6   20.90   11.10
  13 -14   6   -8.90   10.10
  13 -14   6   26.60   11.90
 -14   1   6    1.40   13.70
 -13  17  -6   40.60   14.90
 -13  17  -6   62.29   18.30
  13 -17   6   41.30   15.60
   4  13   6   46.60    7.60
   4  13   6   49.40    8.70
  13 -17   6   70.79   15.30
 -17   4   6   20.70   16.30
  20  -7  -6  217.78   22.20
 -13  20  -6  197.38   26.10
 -20   7   6  262.77   31.90
   7  13   6  240.18   18.70
  13 -20   6  205.88   24.80
   7  13   6  193.48   13.50
 -13  23  -6  316.37   32.00
 -13  23  -6  334.77   38.80
  23 -10  -6  357.06   27.80
  10  13   6  307.47   25.00
 -23  10   6  308.57   37.80
  13 -23   6  301.47   29.60
  10  13   6  317.77   17.20
 -13  26  -6  472.85   39.40
 -13  26  -6  374.06   49.50
  13 -26   6  578.84   38.80
  13  13   6  439.46   41.90
 -11  25  -6  114.69   22.90
  25 -14  -6  142.19   21.00
 -11  25  -6  118.49   32.00
  14  11   6  106.99   19.80
  11 -25   6  142.29   22.10
  -8  22  -6  176.38   23.90
  -8  22  -6  141.29   27.40
 -14  -8  -6  177.18   21.40
  22 -14  -6  146.99   19.10
   8 -22   6  155.98   22.20
  14   8   6  157.88   19.50
 -14  -5  -6  219.18   24.90
  -5  19  -6  180.48   23.20
  19 -14  -6  192.28   18.80
  -5  19  -6  152.08   24.60
  14   5   6  180.48   21.90
  14   5   6  170.18   17.70
   5 -19   6  157.48   19.80
  -2  16  -6   70.79   19.70
  16 -14  -6  101.49   14.10
  -2  16  -6   74.49   15.20
 -14  -2  -6  113.99   17.80
  14   2   6  112.99   13.90
  14   2   6   75.49   15.80
 -14   1  -6   41.10    7.20
 -14   1  -6   43.20   14.00
  13 -14  -6   42.00    7.70
   1  13  -6   -1.30   12.10
   1  13  -6   34.10   16.90
  -1 -13   6   36.10   13.60
  14  -1   6   40.00   11.70
  14  -1   6   53.79   13.70
 -14   4  -6   49.80    9.60
  10 -14  -6   35.60    7.20
   4  10  -6   25.30   11.70
 -14   4  -6   46.20   14.40
  14  -4   6   43.00   14.00
  14  -4   6   43.20   11.60
  -4 -10   6   33.10   13.40
   7   7  -6   15.90   11.00
 -14   7  -6  -15.00    7.80
 -14   7  -6   -3.70   12.00
  14  -7   6   12.10   10.20
  -7  -7   6   19.90   13.50
 -14  10  -6   19.40   14.00
 -14  10  -6    2.00    9.30
  14 -10   6   14.00   12.30
 -10  -4   6    9.80   12.90
  14 -10   6   16.70   10.60
 -14  13  -6   68.59   18.10
 -14  13  -6   85.59   14.20
  14 -13   6   84.79   18.80
  14 -13   6   72.39   14.90
 -13  -1   6   41.10   15.80
 -14  16  -6  126.29   22.00
 -14  16  -6  110.89   16.00
  14 -16   6  162.28   20.00
  14 -16   6  189.78   24.30
 -16   2   6  139.39   21.50
 -14  19  -6  131.99   24.20
 -19   5   6   89.19   19.90
   5  14   6   93.49   10.70
   5  14   6  104.39   11.60
  14 -19   6   66.39   17.20
  14 -19   6   79.69   16.80
  22  -8  -6    6.60   13.30
 -14  22  -6    4.10   18.70
 -22   8   6   47.60   21.30
   8  14   6   19.80    7.50
  14 -22   6   46.10   16.00
   8  14   6   32.80   11.80
  25 -11  -6   -4.20   17.30
 -14  25  -6   91.29   22.90
 -14  25  -6   48.30   27.40
  14 -25   6  125.69   22.70
  11  14   6  138.39   19.60
 -25  11   6   92.69   28.20
 -14  28  -6  192.68   39.10
  28 -14  -6  215.48   27.50
  14  14   6  172.08   25.80
  14 -28   6  154.08   25.40
 -12  27  -6  138.89   35.00
 -12  27  -6  105.39   24.50
  12 -27   6  145.59   24.60
  15  12   6  134.89   24.30
  -9  24  -6  262.87   33.40
  -9  24  -6  336.17   43.20
  24 -15  -6  220.08   25.00
   9 -24   6  280.57   30.10
  15   9   6  227.68   29.40
  21 -15  -6  168.28   20.10
 -15  -6  -6  213.98   26.60
  -6  21  -6  207.48   27.50
  -6  21  -6  203.68   29.60
  15   6   6  239.48   26.30
  15   6   6  169.18   20.10
   6 -21   6  213.08   23.80
  18 -15  -6   67.19   11.70
  -3  18  -6   84.89   22.30
 -15  -3  -6   99.09   18.10
  -3  18  -6  116.49   18.90
   3 -18   6   87.49   16.60
  15   3   6   68.29   19.40
  15   3   6   76.79   13.00
 -15   0  -6  152.88   10.40
  15 -15  -6  130.69   12.70
   0  15  -6  160.08   24.50
 -15   0  -6  133.39   18.10
   0  15  -6  134.19   18.90
   0 -15   6  109.49   20.70
  15   0   6  106.99   14.60
 -15   3  -6  175.68   21.60
   3  12  -6  104.19   16.50
  12 -15  -6  119.59    9.70
 -15   3  -6  132.59   14.10
  15  -3   6  125.39   15.60
  -3 -12   6  141.99   19.50
 -15   6  -6  317.57   26.20
 -15   6  -6  274.67   18.30
   6   9  -6  250.37   24.00
  -6  -9   6  285.87   25.70
  15  -6   6  289.27   22.00
  15  -6   6  297.67   24.70
 -15   9  -6   91.39   21.40
   9   6  -6   83.99   13.90
 -15   9  -6   82.99   12.90
  15  -9   6   56.19   13.40
  -9  -6   6   73.19   16.80
  15  -9   6   60.19   14.90
 -15  12  -6  310.47   22.50
 -15  12  -6  318.87   27.90
 -12  -3   6  293.77   32.70
  15 -12   6  288.57   26.30
  15 -12   6  267.67   23.10
 -15  15  -6   77.19   19.30
 -15  15  -6   90.09   14.70
  15 -15   6   59.19   14.20
  15 -15   6   11.50   13.50
 -15   0   6   61.59   17.10
 -15  18  -6  278.27   32.80
 -15  18  -6  310.77   28.30
   3  15   6  298.97   14.60
  15 -18   6  307.87   29.30
  15 -18   6  294.87   26.20
 -18   3   6  292.57   32.00
  21  -6  -6  148.89   19.70
 -15  21  -6  170.78   26.60
 -21   6   6  130.79   26.00
  15 -21   6  145.09   19.20
   6  15   6  155.48   16.60
 -15  24  -6  189.58   30.00
 -15  24  -6  160.48   24.20
   9  15   6  142.19   14.20
 -24   9   6  119.49   27.80
  15 -24   6  147.59   22.80
   9  15   6  127.39   17.50
  27 -12  -6  149.09   23.30
 -15  27  -6   98.99   25.70
 -15  27  -6  139.09   34.40
  12  15   6  152.18   22.20
 -27  12   6  127.49   31.50
  15 -27   6  130.29   25.00
 -13  29  -6  443.86   59.29
  29 -16  -6  536.25   41.80
  13 -29   6  611.44   43.30
  16  13   6  579.94   45.30
 -10  26  -6  495.65   53.39
  26 -16  -6  506.05   34.40
 -10  26  -6  444.06   39.80
  16  10   6  467.05   37.10
  10 -26   6  527.45   36.90
  -7  23  -6  599.84   40.50
  23 -16  -6  578.14   32.40
  -7  23  -6  577.34   47.90
 -16  -7  -6  625.74   36.70
   7 -23   6  640.54   36.90
  16   7   6  638.54   29.10
  16   7   6  567.54   37.30
  20 -16  -6  603.34   28.20
  -4  20  -6  601.74   44.80
  -4  20  -6  622.74   37.70
  16   4   6  633.84   28.40
   4 -20   6  602.74   34.60
  16   4   6  619.84   36.30
  -1  17  -6   83.69   22.20
 -16  -1  -6   75.29   20.50
  17 -16  -6   48.90   10.10
  -1  17  -6   57.19   15.10
  16   1   6   35.00   11.90
   1 -17   6   63.49   15.80
  16   1   6   39.10   13.80
  14 -16  -6  106.69   11.00
 -16   2  -6   96.69   11.00
   2  14  -6  103.99   18.70
 -16   2  -6   89.49   17.50
   2  14  -6   90.99   20.20
  16  -2   6   76.69   16.80
  16  -2   6   85.59   14.30
  -2 -14   6   76.69   18.80
   5  11  -6  440.26   28.60
 -16   5  -6  433.16   37.10
  11 -16  -6  420.46   13.90
 -16   5  -6  413.66   21.40
  11 -16  -6  410.56   12.30
  -5 -11   6  453.45   29.60
  16  -5   6  490.95   30.80
  16  -5   6  422.16   25.20
 -16   8  -6  481.25   24.50
 -16   8  -6  410.86   33.60
   8   8  -6  394.96   27.80
  -8  -8   6  434.26   30.40
  16  -8   6  405.06   25.40
  16  -8   6  439.06   28.90
 -16  11  -6   58.79   16.00
  16 -11   6   28.30   11.50
 -11  -5   6   33.50   15.40
  16 -11   6   12.70   13.30
 -16  14  -6  119.89   20.20
 -16  14  -6  138.29   18.30
 -14  -2   6  102.69   19.90
  16 -14   6  115.59   17.10
 -16  17  -6   99.79   16.90
 -16  17  -6  119.49   21.10
  16 -17   6  125.29   18.70
 -17   1   6  129.89   23.90
 -16  20  -6  201.18   29.00
 -20   4   6  228.88   28.10
  16 -20   6  207.08   25.80
   4  16   6  181.78   14.10
 -16  23  -6  315.97   41.30
 -23   7   6  370.36   39.60
   7  16   6  344.27   22.00
  16 -23   6  327.67   31.20
   7  16   6  307.57   13.90
 -16  26  -6  372.66   48.60
 -16  26  -6  335.17   38.20
  26 -10  -6  401.76   34.90
  16 -26   6  414.06   37.20
  10  16   6  417.96   29.40
 -26  10   6  361.96   47.20
 -16  29  -6  428.16   59.99
  29 -13  -6  367.96   39.10
 -29  13   6  299.67   36.60
  16 -29   6  433.66   41.10
  13  16   6  327.57   36.10
 -11  28  -6   74.79   36.90
 -11  28  -6   86.29   25.10
  11 -28   6  139.69   24.20
  17  11   6  172.38   27.80
  25 -17  -6  129.69   20.00
  -8  25  -6  160.18   26.30
  -8  25  -6   68.29   32.90
   8 -25   6  134.19   22.10
  17   8   6  108.29   21.80
 -17  -5  -6    5.70   16.90
  -5  22  -6   33.50   22.50
  22 -17  -6  -23.80   11.10
  -5  22  -6   -9.30   17.20
  17   5   6   11.30   16.80
   5 -22   6   18.10   16.30
  17   5   6    5.70   12.50
  -2  19  -6   58.69   21.70
  19 -17  -6   69.89   12.50
 -17  -2  -6   56.99   18.30
  -2  19  -6   68.29   16.80
  17   2   6   57.09   15.80
   2 -19   6   71.29   17.20
  17   2   6   48.90   13.40
   1  16  -6   47.20   16.30
 -17   1  -6   40.90    7.20
  16 -17  -6   52.49    9.20
 -17   1  -6   40.50   15.50
   1  16  -6   49.40   21.20
  17  -1   6   39.50   13.00
  17  -1   6   36.80   15.00
  -1 -16   6   47.30   15.30
   4  13  -6  183.08   23.90
 -17   4  -6  168.58   21.40
 -17   4  -6  145.29   15.60
  17  -4   6  217.58   22.50
  17  -4   6  230.58   25.50
 -17   7  -6   87.69   16.80
 -17   7  -6   92.89   13.30
   7  10  -6   81.79   16.50
  17  -7   6  133.79   21.10
  17  -7   6   90.19   23.60
 -17  10  -6  152.08   21.20
  10   7  -6  117.89   18.10
 -17  10  -6  128.49   17.80
  17 -10   6  122.79   19.20
  17 -10   6  134.79   17.90
 -10  -7   6  143.69   22.00
 -17  13  -6   98.29   20.80
 -17  13  -6   86.89   15.40
 -13  -4   6  116.19   20.00
  17 -13   6   96.59   15.80
 -17  16  -6  214.38   28.20
 -17  16  -6  204.78   24.00
 -16  -1   6  214.68   25.50
  17 -16   6  217.58   24.20
 -17  19  -6   51.29   20.40
 -17  19  -6  -23.10   15.00
 -19   2   6   56.19   19.70
  17 -19   6   60.39   15.10
 -17  22  -6   87.09   24.10
 -22   5   6   96.59   25.40
  17 -22   6   72.39   17.60
   5  17   6  106.39   12.10
 -17  25  -6   53.19   21.60
 -17  25  -6   81.69   30.50
  25  -8  -6   80.79   19.40
  17 -25   6   61.59   19.30
 -25   8   6  107.09   28.00
   8  17   6   78.69   14.90
 -17  28  -6   -7.40   20.70
  28 -11  -6   67.39   21.70
 -17  28  -6   48.50   34.70
  11  17   6   63.79   19.60
 -28  11   6   53.39   32.50
  17 -28   6   60.79   23.20
  -9  27  -6   81.59   26.30
  -9  27  -6  129.19   36.60
  27 -18  -6   88.29   19.60
   9 -27   6   89.79   21.00
  18   9   6   89.19   23.90
  -6  24  -6  323.27   36.30
  -6  24  -6  360.26   48.50
  24 -18  -6  293.27   28.00
  18   6   6  330.87   34.50
   6 -24   6  365.46   33.30
  21 -18  -6  467.25   26.00
  -3  21  -6  474.75   43.00
 -18  -3  -6  513.15   36.50
  -3  21  -6  551.34   38.00
   3 -21   6  502.65   33.90
  18   3   6  492.15   27.80
  18   3   6  491.35   36.00
   0  18  -6  297.77   30.10
   0  18  -6  212.78   28.80
  18 -18  -6  230.88   16.60
 -18   0  -6  225.58   28.10
  18   0   6  250.77   28.50
  18   0   6  172.38   23.00
   0 -18   6  197.28   23.20
 -18   3  -6   46.60    9.30
   3  15  -6   16.60   13.50
 -18   3  -6   52.69   16.70
  15 -18  -6   39.80    7.20
  -3 -15   6   26.90   15.20
  18  -3   6   33.60   16.40
  18  -3   6   35.50   13.60
 -18   6  -6   76.19   17.40
   6  12  -6   29.40   13.40
 -18   6  -6   66.39   11.50
  18  -6   6   21.20   13.00
  18  -6   6   53.49   16.50
  -6 -12   6   32.50   17.20
   9   9  -6   -1.40   12.00
 -18   9  -6   45.30   17.10
 -18   9  -6   22.30   10.70
  -9  -9   6   27.10   14.70
  18  -9   6   18.40   12.40
  18  -9   6   12.00   14.30
 -18  12  -6   11.70   14.80
 -18  12  -6   13.80   11.80
 -12  -6   6  -14.30   14.90
  18 -12   6   -1.20   13.40
  18 -12   6   16.50   11.60
 -18  15  -6  315.87   32.00
 -18  15  -6  317.87   26.40
 -15  -3   6  397.46   33.20
  18 -15   6  369.36   28.20
  18 -18   6  422.96   30.90
 -18   0   6  450.55   37.00
 -18  21  -6  182.08   26.80
  18 -21   6  141.19   21.30
 -21   3   6  169.58   27.70
   3  18   6  137.99   10.40
 -18  24  -6  191.48   32.50
  24  -6  -6  161.48   23.50
  18 -24   6  138.09   25.90
 -24   6   6  161.18   30.20
  18 -24   6  162.18   24.30
   6  18   6  217.08   19.30
 -18  27  -6  182.78   36.00
  27  -9  -6  195.68   26.70
 -18  27  -6  110.99   26.20
   9  18   6  201.48   21.40
 -27   9   6  187.08   33.90
  18 -27   6  207.08   27.50
  -7  26  -6  550.94   45.40
  26 -19  -6  500.55   32.70
  -7  26  -6  629.74   58.09
  19   7   6  490.55   41.20
   7 -26   6  510.85   36.80
  -4  23  -6  332.67   45.20
 -19  -4  -6  282.07   35.50
  -4  23  -6  315.47   36.10
  23 -19  -6  287.37   23.30
   4 -23   6  226.58   30.20
  19   4   6  272.27   33.00
 -19  -1  -6  201.38   25.40
  -1  20  -6  274.67   35.70
  -1  20  -6  171.18   23.70
  20 -19  -6  161.68   18.00
   1 -20   6  240.08   27.90
  19   1   6  236.88   29.50
   2  17  -6   44.80   17.60
   2  17  -6   60.59   22.60
 -19   2  -6  100.89   13.10
 -19   2  -6   29.60   16.80
  17 -19  -6   56.79    9.30
  -2 -17   6   37.10   17.00
  19  -2   6   27.50   15.90
  19  -2   6   48.90   17.60
 -19   5  -6   87.99   18.80
   5  14  -6   84.69   18.00
 -19   5  -6  103.09   13.10
  19  -5   6   94.89   16.90
  -5 -14   6   89.19   18.10
  19  -5   6   68.59   16.80
 -19   8  -6   67.29   18.40
   8  11  -6   50.59   15.50
 -19   8  -6   59.79   12.90
  19  -8   6  105.79   18.70
  19  -8   6  112.19   17.40
  -8 -11   6   88.49   18.10
 -19  11  -6  220.88   22.30
 -19  11  -6  226.48   28.80
  19 -11   6  291.47   25.30
  19 -11   6  258.17   26.00
 -11  -8   6  267.97   29.20
 -19  14  -6  224.28   23.80
 -19  14  -6  199.18   26.40
 -14  -5   6  183.78   25.00
  19 -14   6  173.88   20.30
 -19  17  -6  104.79   23.60
  19 -17   6  104.29   17.60
 -17  -2   6  127.39   24.30
 -19  20  -6   61.69   22.60
  19 -20   6   62.29   17.70
 -20   1   6  118.09   25.30
  23  -4  -6  289.57   29.90
 -19  23  -6  364.36   41.60
 -23   4   6  218.68   31.60
  19 -23   6  304.47   36.80
  19 -23   6  242.78   30.50
 -19  26  -6  226.38   30.80
 -19  26  -6  263.97   38.50
  26  -7  -6  330.47   34.90
  19 -26   6  277.17   37.10
 -26   7   6  260.67   37.10
   7  19   6  196.18   21.40
  -8  28  -6  110.19   41.10
  28 -20  -6   74.39   19.90
  -8  28  -6   87.89   25.60
  20   8   6  112.29   28.90
   8 -28   6   78.99   21.90
  -5  25  -6   50.29   25.10
  -5  25  -6   36.80   31.40
  25 -20  -6   55.59   16.20
   5 -25   6   45.30   18.60
  20   5   6    7.00   21.10
 -20  -2  -6   40.60   20.00
  -2  22  -6   32.60   23.70
  -2  22  -6   68.99   20.70
  22 -20  -6   39.00   12.00
  20   2   6   37.90   19.90
   2 -22   6   49.70   18.90
   1  19  -6  210.98   28.00
 -20   1  -6  166.48   23.90
  19 -20  -6  160.88   16.20
   1  19  -6  197.38   30.10
  -1 -19   6  166.88   22.50
  20  -1   6  183.58   25.00
  20  -1   6  210.98   25.60
   4  16  -6  538.35   36.30
 -20   4  -6  600.24   25.30
 -20   4  -6  581.24   36.20
  16 -20  -6  607.64   19.20
  -4 -16   6  492.85   34.80
  20  -4   6  541.75   32.00
  20  -4   6  630.34   39.20
 -20   7  -6  124.39   22.00
   7  13  -6  130.69   20.80
 -20   7  -6  132.89   16.00
  20  -7   6   85.49   17.10
  -7 -13   6  112.49   20.20
 -20  10  -6  127.79   22.30
  10  10  -6  147.39   22.60
 -20  10  -6  136.59   17.50
  20 -10   6  204.28   24.50
 -10 -10   6  173.78   22.80
 -20  13  -6  182.68   25.40
 -20  13  -6  177.38   21.40
 -13  -7   6  188.68   24.10
  20 -13   6  139.09   18.80
 -20  16  -6  153.28   19.70
  20 -16   6  285.47   30.10
 -16  -4   6  270.07   32.40
 -20  19  -6  123.89   26.40
 -19  -1   6  150.18   25.40
  20 -19   6  189.58   23.50
 -20  22  -6   29.70   19.90
 -20  22  -6   27.60   23.60
  22  -2  -6   41.00   17.10
 -22   2   6   31.90   23.60
  20 -22   6   60.59   21.80
  20 -22   6    0.20   15.90
 -20  25  -6   46.40   21.60
 -20  25  -6   42.10   28.80
  25  -5  -6   49.20   20.50
 -25   5   6   76.59   28.60
   5  20   6   55.19   10.50
  20 -25   6   84.09   20.60
  20 -25   6   24.20   22.80
  28  -8  -6    0.40   22.00
 -20  28  -6   14.20   33.30
   8  20   6   39.30   15.10
 -28   8   6   17.20   29.40
  -6  27  -6  183.28   41.00
  27 -21  -6  156.78   22.80
   6 -27   6  169.98   23.80
  21   6   6  101.59   26.50
 -21  -3  -6  111.29   26.30
  24 -21  -6   89.19   16.30
  -3  24  -6   83.99   35.40
  -3  24  -6  128.39   25.30
   3 -24   6   86.69   20.50
  21   3   6  115.59   24.50
  21 -21  -6  177.68   18.80
 -21   0  -6  125.59   25.00
   0  21  -6  138.99   29.80
   0  21  -6  150.28   25.20
  21   0   6  236.68   33.00
   0 -21   6  202.58   24.40
  18 -21  -6  629.34   22.20
   3  18  -6  626.04   40.30
   3  18  -6  652.93   49.00
 -21   3  -6  588.34   39.10
 -21   3  -6  668.43   24.60
  -3 -18   6  672.23   37.80
  21  -3   6  604.54   40.00
  21  -3   6  662.83   34.40
 -21   6  -6  221.68   30.60
 -21   6  -6  286.07   22.20
   6  15  -6  304.07   31.60
  21  -6   6  281.17   28.20
  21  -6   6  332.97   33.00
  -6 -15   6  272.07   30.90
   9  12  -6  173.98   23.30
 -21   9  -6  164.68   23.20
 -21   9  -6  175.68   21.90
  21  -9   6  190.38   25.40
  -9 -12   6  178.68   23.70
  21  -9   6  157.18   19.50
 -21  12  -6  101.19   16.80
 -21  12  -6  128.79   23.40
 -12  -9   6   75.59   20.10
  21 -12   6   47.80   16.90
  21 -12   6   94.29   18.40
 -21  15  -6  143.29   20.20
 -21  15  -6  118.39   24.00
 -15  -6   6  152.38   25.40
  21 -15   6  156.38   21.90
 -21  18  -6  140.69   26.90
 -18  -3   6  129.99   25.10
  21 -18   6  109.79   20.00
 -21  21  -6  178.48   24.70
 -21  21  -6  135.69   29.20
  21 -21   6  178.88   28.20
 -21   0   6  139.29   28.40
  21 -21   6  156.08   22.60
  24  -3  -6  145.09   24.90
 -21  24  -6  167.08   29.90
 -21  24  -6  153.48   24.80
 -24   3   6  138.69   30.50
  21 -24   6  227.78   26.70
  21 -24   6  147.99   30.30
 -21  27  -6  107.09   24.50
  27  -6  -6   20.70   22.40
 -21  27  -6   37.00   32.40
  21 -27   6   35.70   27.90
   6  21   6   57.49   12.20
 -27   6   6   -4.70   29.70
  -4  26  -6   40.00   33.70
  26 -22  -6   58.39   18.40
  -4  26  -6   79.59   27.20
  22   4   6   36.20   24.70
   4 -26   6   73.89   20.30
  -1  23  -6   94.39   33.40
 -22  -1  -6   74.39   23.90
  23 -22  -6   62.29   14.20
  -1  23  -6   66.39   23.20
   1 -23   6   67.99   19.90
  22   1   6   92.79   25.30
 -22   2  -6   31.90   20.10
   2  20  -6   60.69   21.30
   2  20  -6   59.29   24.90
  20 -22  -6   33.40    9.80
 -22   2  -6   25.50    8.30
  -2 -20   6   44.90   18.40
  22  -2   6   19.50   18.80
  17 -22  -6    7.00    5.50
 -22   5  -6  -13.60   17.40
   5  17  -6    0.20   17.70
 -22   5  -6   11.10   11.10
  22  -5   6   15.40   17.80
  22  -5   6  -11.50   14.90
  -5 -17   6   33.10   17.60
 -22   8  -6  178.28   25.80
   8  14  -6  221.98   27.20
  -8 -14   6  202.78   25.30
  22  -8   6  224.48   28.10
  22  -8   6  254.77   32.30
 -22  11  -6  121.49   24.40
 -22  11  -6   70.79   15.20
  11  11  -6   62.49   17.70
  22 -11   6  127.19   20.80
  22 -11   6   91.29   20.10
 -11 -11   6  115.49   23.20
 -22  14  -6   43.00   14.30
 -22  14  -6    8.20   20.10
  22 -14   6   93.19   20.00
 -14  -8   6   91.39   23.50
 -22  17  -6  143.29   28.80
  22 -17   6  137.89   22.20
 -17  -5   6  139.29   25.70
 -22  20  -6   37.60   22.30
 -22  20  -6   64.19   18.30
  22 -20   6   52.79   18.20
 -20  -2   6   85.89   24.90
  22 -20   6  102.29   24.40
  23  -1  -6   35.00   19.20
 -22  23  -6   10.80   24.70
 -22  23  -6   10.00   19.80
 -23   1   6   95.39   27.00
  22 -23   6   68.09   20.50
 -22  26  -6   91.09   34.60
 -22  26  -6   68.29   21.30
  26  -4  -6   70.69   23.20
  22 -26   6   45.90   26.60
 -26   4   6   79.19   32.30
  -2  25  -6   35.90   34.90
  25 -23  -6   53.29   15.80
  -2  25  -6   46.80   26.00
 -23  -2  -6   27.80   26.60
   2 -25   6   40.60   18.60
  23   2   6   49.50   24.60
   1  22  -6   56.29   23.90
 -23   1  -6   57.89   24.30
  22 -23  -6    8.00   11.60
   1  22  -6   14.80   30.10
  -1 -22   6   40.10   18.90
  23  -1   6   49.70   23.20
 -23   4  -6  298.37   20.50
 -23   4  -6  311.47   36.30
  19 -23  -6  295.77   16.10
   4  19  -6  287.27   34.50
  -4 -19   6  245.18   26.40
  23  -4   6  215.58   28.00
 -23   7  -6  588.34   29.40
 -23   7  -6  561.44   40.10
   7  16  -6  472.85   39.50
  23  -7   6  574.14   42.00
  -7 -16   6  535.35   38.10
  10  13  -6  447.96   36.30
 -23  10  -6  542.05   30.10
 -23  10  -6  439.96   37.50
  23 -10   6  402.36   37.50
 -10 -13   6  482.85   36.80
  23 -10   6  463.05   32.60
 -23  13  -6  274.17   26.70
 -23  13  -6  246.28   34.40
  23 -13   6  279.27   30.80
 -13 -10   6  230.68   27.40
  23 -13   6  216.38   34.20
 -23  16  -6  421.06   39.40
  23 -16   6  432.36   34.20
 -16  -7   6  471.55   41.60
 -23  19  -6  320.77   40.60
 -23  19  -6  389.96   34.10
  23 -19   6  314.57   33.10
 -19  -4   6  318.77   34.90
  23 -19   6  239.28   32.60
 -23  22  -6   63.59   21.60
 -23  22  -6   86.19   28.20
  23 -22   6   29.00   19.70
  23 -22   6   35.80   23.20
 -22  -1   6   36.30   27.00
  25  -2  -6   19.20   21.00
 -23  25  -6    7.60   28.40
 -23  25  -6  -23.50   21.30
  23 -25   6   16.50   26.60
 -25   2   6   42.20   30.50
  24 -24  -6  195.48   23.80
   0  24  -6  183.08   41.10
 -24   0  -6  187.68   31.70
   0  24  -6  141.49   29.70
  24   0   6  222.38   32.20
   0 -24   6  242.18   26.20
 -24   3  -6   96.49   26.90
   3  21  -6  125.99   26.60
 -24   3  -6   89.49   11.40
   3  21  -6   67.09   31.40
  21 -24  -6   99.49   12.70
  -3 -21   6  111.79   21.30
  24  -3   6   66.99   22.60
 -24   6  -6  332.17   24.30
 -24   6  -6  340.47   38.00
   6  18  -6  294.17   36.80
  24  -6   6  347.37   39.10
  -6 -18   6  398.26   34.40
 -24   9  -6  326.27   26.70
 -24   9  -6  294.37   35.20
  -9 -15   6  245.68   28.40
  24  -9   6  212.98   29.40
  12  12  -6   92.79   21.80
 -24  12  -6  110.59   26.20
 -24  12  -6  122.29   18.30
 -12 -12   6  108.79   24.20
  24 -12   6  121.69   22.90
 -24  15  -6  118.89   25.90
  24 -15   6  123.49   22.20
 -15  -9   6  138.29   26.70
 -24  18  -6  187.98   25.20
 -24  18  -6  182.38   31.70
  24 -18   6  184.68   24.80
 -18  -6   6  204.28   30.90
  24 -18   6  165.58   39.60
 -24  21  -6  149.69   31.70
 -24  21  -6  134.29   25.50
  24 -21   6   30.60   24.50
 -21  -3   6  139.49   31.30
 -24  24  -6   53.79   30.10
  24   0  -6   38.40   21.70
 -24  24  -6   49.99   23.00
  24 -24   6   26.80   26.50
 -24   0   6   13.90   30.10
 -25   2  -6   55.59   28.60
   2  23  -6  -81.19   30.60
  23 -25  -6   22.30   13.10
   2  23  -6   48.00   26.60
  25  -2   6   51.19   27.30
  -2 -23   6   78.39   21.70
   5  20  -6   11.00   22.50
 -25   5  -6   40.10   25.10
 -25   5  -6   34.10   12.30
  -5 -20   6   26.60   18.80
  25  -5   6   14.50   23.70
   8  17  -6  132.09   25.70
 -25   8  -6  135.89   27.20
 -25   8  -6  113.39   16.80
  -8 -17   6   79.99   22.00
  25  -8   6   44.40   23.50
 -25  11  -6   44.10   16.10
 -25  11  -6   82.99   24.50
  11  14  -6   79.79   22.80
  25 -11   6  113.49   25.50
 -11 -14   6  121.29   23.70
 -25  14  -6  212.48   31.00
 -14 -11   6  203.08   28.90
  25 -14   6  165.38   28.30
 -25  17  -6  129.99   22.30
 -25  17  -6   97.29   31.40
 -17  -8   6  115.09   27.70
  25 -17   6   92.89   23.10
 -25  20  -6   70.09   23.20
 -25  20  -6   19.10   25.60
  25 -20   6   55.79   25.10
 -20  -5   6   52.29   27.60
 -25  23  -6   13.30   29.60
 -25  23  -6   11.50   23.50
  23   2  -6   16.30   21.40
  25 -23   6   58.89   28.60
 -23  -2   6   20.50   29.70
 -26   4  -6   65.49   13.00
   4  22  -6   14.70   25.60
  22 -26  -6   62.09   11.20
 -26   4  -6   51.19   25.90
   4  22  -6   93.09   35.60
  26  -4   6   45.80   26.10
  -4 -22   6   22.60   20.10
   7  19  -6  398.66   42.50
 -26   7  -6  374.06   43.60
  -7 -19   6  395.66   35.80
  26  -7   6  365.96   43.60
  10  16  -6  364.66   40.20
 -26  10  -6  429.36   31.10
 -26  10  -6  422.56   42.70
  26 -10   6  323.97   42.60
 -10 -16   6  438.46   38.30
 -13 -13   6  567.44   42.60
  26 -13   6  602.94   45.60
 -26  16  -6  539.95   37.80
 -26  16  -6  542.25   46.90
  26 -16   6  528.35   44.10
 -16 -10   6  435.26   42.70
 -26  19  -6  291.97   37.10
 -26  19  -6  358.16   44.80
 -19  -7   6  316.27   37.90
  26 -19   6  353.26   40.90
 -26  22  -6  119.39   25.70
 -26  22  -6  117.79   33.90
 -22  -4   6   81.09   32.80
  26 -22   6   51.99   26.60
   6  21  -6  362.66   43.40
 -27   6  -6  237.28   25.70
 -27   6  -6  149.19   33.20
  -6 -21   6  178.78   24.10
  27  -6   6   92.09   28.50
   9  18  -6   71.59   26.10
 -27   9  -6   29.70   26.40
 -27   9  -6   64.19   17.60
  27  -9   6   12.80   25.80
  -9 -18   6  105.89   23.10
  12  15  -6  134.59   27.80
 -27  12  -6  115.29   28.70
  27 -12   6   61.49   24.00
 -12 -15   6  115.19   25.40
 -27  15  -6  156.78   24.70
 -27  15  -6  129.29   29.10
 -15 -12   6  157.18   29.40
 -27  18  -6  217.08   35.90
 -27  18  -6  237.48   27.80
 -18  -9   6  188.48   32.00
  27 -18   6  177.18   30.80
 -27  21  -6   44.20   23.70
 -27  21  -6   60.29   30.90
 -21  -6   6   66.79   30.80
  27 -21   6   29.80   21.00
 -28   8  -6    9.90   28.10
   8  20  -6   81.59   27.60
 -28   8  -6   26.30   16.20
  -8 -20   6   77.59   22.20
  28  -8   6   31.70   25.00
  11  17  -6  107.49   28.40
 -28  11  -6  155.58   33.70
  28 -11   6  167.98   28.30
 -11 -17   6  209.38   27.70
 -28  14  -6  186.98   24.10
 -28  14  -6   95.59   29.60
 -14 -14   6  171.28   27.90
  28 -14   6   90.49   24.70
 -28  17  -6   15.70   28.50
 -28  17  -6   40.00   21.20
 -17 -11   6   50.19   26.40
  28 -17   6   26.50   21.10
 -28  20  -6   48.50   27.90
 -28  20  -6   55.59   24.70
 -20  -8   6   39.30   28.30
 -29  13  -6  516.35   38.90
 -29  13  -6  521.25   46.60
 -13 -16   6  493.25   42.00
 -29  16  -6  338.47   43.40
 -29  16  -6  382.36   39.20
 -16 -13   6  397.76   42.90
   0   1  -7   10.70    9.80
  -1   0  -7    3.50    9.30
   1  -1  -7   -7.60    8.40
   0   1  -7   -6.30    7.30
   1   0   7    6.50    9.40
   0  -1   7    8.60    9.60
  -1   1   7    2.90    9.30
   3  -2  -7  603.44   28.00
  -1   3  -7  629.04   26.90
  -2  -1  -7  575.74   27.30
  -1   3  -7  605.94   29.90
   2   1   7  576.14   27.00
   1  -3   7  593.94   28.50
  -3   2   7  552.24   27.90
  -2   2  -7    2.10    7.20
   0  -2  -7    1.80    8.90
  -2   2  -7   11.20    9.90
   2   0  -7   -1.60    9.20
  -2   0   7   -3.20    9.80
   0   2   7  -18.80    8.40
   2  -2   7    0.60    8.90
  -2   5  -7  671.43   29.20
   5  -3  -7  745.23   31.30
  -2   5  -7  700.13   33.70
  -3  -2  -7  750.12   29.70
  -5   3   7  713.73   32.30
   3   2   7  719.13   29.70
   2  -5   7  675.73   31.40
   1   2  -7  627.04   30.80
  -3   1  -7  669.23   30.30
   1   2  -7  669.53   28.00
  -3   1  -7  641.74   24.80
   2  -3  -7  671.23   28.20
  -1  -2   7  575.34   29.30
  -2   3   7  626.94   28.30
   3  -1   7  619.34   27.90
  -3   4  -7  252.67   22.20
   4  -1  -7  212.58   21.20
  -1  -3  -7  221.48   18.50
  -3   4  -7  245.48   18.40
  -4   1   7  224.88   21.90
   1   3   7  186.28   19.60
   3  -4   7  180.18   20.60
  -3   7  -7    6.10   12.20
  -4  -3  -7    6.80    9.70
  -3   7  -7   20.00    9.90
  -7   4   7    3.80   11.60
   3  -7   7   -0.70    9.50
   4   3   7   -1.50    7.40
   4   3   7    4.00    9.70
   4  -4  -7   11.60    9.20
   0   4  -7   -3.50    8.20
  -4   0  -7    2.70    9.20
  -4   0  -7    2.00    6.30
   0   4  -7   10.90   11.90
   0  -4   7    4.00   10.20
   4   0   7    0.00    9.30
  -4   4   7   10.90    9.80
   1  -4  -7  128.69   16.20
  -4   3  -7  112.29   14.50
   3   1  -7  141.49   18.10
  -4   3  -7  158.58   19.10
  -3  -1   7  116.49   16.40
  -1   4   7  123.39   15.90
   4  -3   7  102.89   14.50
  -4   6  -7  815.42   32.20
  -2  -4  -7  791.82   29.80
  -4   6  -7  756.42   35.50
   2   4   7  773.32   30.60
   4  -6   7  816.52   33.30
  -6   2   7  796.02   35.10
  -4   9  -7 1255.17   44.70
  -4   9  -7 1249.77   48.20
  -5  -4  -7 1290.87   39.50
   4  -9   7 1225.08   43.50
   5   4   7 1183.38   39.30
   5   4   7 1190.38   37.40
  -9   5   7 1184.08   43.40
  -1   6  -7  775.32   32.50
  -1   6  -7  786.82   36.40
  -5  -1  -7  785.22   31.80
   6  -5  -7  843.92   32.40
  -6   5   7  778.82   33.30
   5   1   7  725.23   30.50
   5   1   7  770.02   31.10
   1  -6   7  780.92   34.20
   2   3  -7  752.72   34.60
  -5   2  -7  755.72   27.60
   3  -5  -7  778.12   29.80
  -5   2  -7  787.02   32.70
   2   3  -7  778.72   31.20
  -3   5   7  820.52   32.30
   5  -2   7  780.62   31.10
   5  -2   7  757.32   33.00
  -2  -3   7  750.92   33.50
   0  -5  -7    7.10    9.10
  -5   5  -7   20.10   11.40
  -5   5  -7   27.40    9.40
   0   5   7    4.10    9.70
   5  -5   7   -4.30    9.50
  -5   0   7    7.10   12.00
  -3  -5  -7  307.67   19.80
  -5   8  -7  325.87   22.60
  -5   8  -7  351.36   27.20
   5  -8   7  348.47   24.20
   3   5   7  359.06   21.50
  -8   3   7  353.76   26.30
  -6  -5  -7  777.12   30.00
  -5  11  -7  803.82   35.00
   6   5   7  824.52   32.10
   6   5   7  797.72   30.10
 -11   6   7  813.72   38.00
  -2   8  -7 1045.70   43.20
  -6  -2  -7 1035.90   36.40
  -2   8  -7 1062.89   39.00
   6   2   7 1036.30   37.40
   2  -8   7 1028.30   40.40
  -8   6   7 1035.00   39.30
   6   2   7 1063.49   35.50
   1   5  -7  555.14   31.60
  -6   1  -7  580.44   28.60
  -6   1  -7  568.84   22.30
   5  -6  -7  574.84   26.00
   1   5  -7  606.24   28.60
  -1  -5   7  571.34   29.90
   6  -1   7  625.14   27.80
   6  -1   7  569.94   28.40
  -5   6   7  581.84   28.90
  -6   4  -7  802.22   35.00
   4   2  -7  867.11   37.40
  -6   4  -7  841.42   30.80
   2  -6  -7  830.02   30.00
   6  -4   7  889.81   36.50
   6  -4   7  880.01   34.10
  -4  -2   7  838.22   36.70
  -2   6   7  884.91   32.90
  -6   7  -7  343.37   21.80
  -6   7  -7  299.87   25.30
  -1  -6  -7  319.17   19.00
  -7   1   7  297.67   24.40
   1   6   7  323.77   20.80
   6  -7   7  324.27   22.90
  -6  10  -7   95.39   18.70
  -4  -6  -7   66.09   11.40
   6 -10   7   61.29   14.70
   4   6   7   72.29   11.40
   4   6   7   47.50   11.40
 -10   4   7   42.10   15.00
  -7  -6  -7   23.40   10.60
  -6  13  -7   -6.50   14.70
  -6  13  -7   30.70   12.40
   7   6   7   18.10   10.20
 -13   7   7   14.30   16.10
   6 -13   7   16.90   13.00
   7   6   7    8.10    9.40
  -3  10  -7   18.00   10.60
  -7  -3  -7   13.30    9.70
  -3  10  -7   12.20   14.70
   7   3   7   23.40    9.40
   3 -10   7   21.90   11.70
   7   3   7    8.10   10.20
 -10   7   7   -0.30   11.30
   7  -7  -7    5.80    9.60
   0   7  -7    4.30   11.60
  -7   0  -7    4.70    6.00
   0   7  -7    9.40    9.70
  -7   0  -7   17.50   10.60
   0  -7   7   -1.10   11.20
  -7   7   7   13.40   10.80
   7   0   7    4.10   10.60
   7   0   7    9.40    9.10
   4  -7  -7   -0.40    7.90
   3   4  -7    8.90   11.20
  -7   3  -7   -3.80   10.00
  -7   3  -7    1.40    7.10
   3   4  -7    1.10    8.80
   7  -3   7   -8.90    8.40
  -4   7   7  -10.00   10.00
   7  -3   7   -3.90    9.00
  -3  -4   7   -7.00   11.60
  -7   6  -7  321.07   25.50
  -7   6  -7  283.87   20.40
   1  -7  -7  296.87   18.00
  -1   7   7  306.37   21.00
   7  -6   7  290.17   23.50
  -6  -1   7  318.37   24.80
   7  -6   7  305.77   22.60
  -2  -7  -7  195.88   16.00
  -7   9  -7  182.48   20.40
  -7   9  -7  174.28   22.90
   2   7   7  216.98   18.50
  -9   2   7  205.78   23.10
   7  -9   7  204.38   21.30
  -7  12  -7  662.23   38.00
  -7  12  -7  679.43   33.30
  -5  -7  -7  689.83   26.70
   5   7   7  690.23   26.50
   7 -12   7  703.33   33.10
   5   7   7  698.13   28.10
  -7  15  -7  342.47   27.70
  -7  15  -7  317.57   32.10
  -8  -7  -7  289.67   21.60
   7 -15   7  302.37   26.10
   8   7   7  319.67   19.70
   8   7   7  280.17   21.70
 -15   8   7  289.67   29.80
  -4  12  -7  777.62   35.80
  -4  12  -7  780.72   40.70
  -8  -4  -7  717.43   30.80
   4 -12   7  760.82   35.40
 -12   8   7  827.82   37.80
   8   4   7  762.32   32.30
   8   4   7  785.82   29.80
  -8  -1  -7  938.01   35.70
  -1   9  -7 1022.20   39.30
  -1   9  -7 1027.10   44.00
   1  -9   7 1108.09   42.00
   8   1   7 1109.39   39.80
   8   1   7 1059.69   36.20
  -9   8   7 1039.20   39.80
   6  -8  -7 1164.28   36.10
   2   6  -7 1210.98   46.70
  -8   2  -7 1168.58   34.30
  -8   2  -7 1127.69   41.20
   2   6  -7 1160.08   41.90
  -2  -6   7 1191.78   43.20
   8  -2   7 1188.58   42.70
   8  -2   7 1151.28   38.80
  -6   8   7 1162.28   40.70
   5   3  -7  304.37   21.60
   3  -8  -7  266.77   17.60
  -8   5  -7  269.97   23.40
  -8   5  -7  248.38   19.20
  -3   8   7  321.27   22.00
   8  -5   7  324.37   24.20
   8  -5   7  311.97   22.90
  -5  -3   7  291.87   26.50
  -8   8  -7   -9.30   12.60
  -8   8  -7    6.30    8.90
   0  -8  -7   -1.00    7.00
  -8   0   7   -2.70   11.70
   0   8   7    4.70    9.60
   8  -8   7    3.60   10.50
   8  -8   7   -5.00   12.00
  -8  11  -7  130.19   16.90
  -3  -8  -7  145.19   15.30
   8 -11   7  149.88   23.30
   3   8   7  137.89   14.00
   3   8   7  127.29   16.30
  -8  14  -7  250.07   23.90
  -6  -8  -7  216.68   18.50
  -8  14  -7  174.38   24.60
   6   8   7  255.97   18.80
   6   8   7  256.67   19.20
   8 -14   7  295.27   25.10
 -14   6   7  300.47   29.00
  -8  17  -7  391.66   37.10
  -9  -8  -7  494.65   26.60
   9   8   7  566.94   28.40
   9   8   7  529.35   23.60
 -17   9   7  553.44   38.30
   8 -17   7  428.26   31.40
  -5  14  -7  464.15   35.50
  -9  -5  -7  476.05   26.40
  -5  14  -7  459.45   29.50
   9   5   7  508.55   23.90
 -14   9   7  563.44   35.30
   5 -14   7  488.75   30.20
   9   5   7  481.25   27.30
  -9  -2  -7  761.02   32.60
  -2  11  -7  799.02   36.50
  -2  11  -7  750.02   41.30
   9   2   7  851.41   31.70
 -11   9   7  834.02   37.60
   9   2   7  900.81   35.70
   2 -11   7  806.02   43.80
  -9   1  -7 1109.39   31.60
  -9   1  -7 1152.38   40.80
   8  -9  -7 1136.89   36.20
   1   8  -7 1173.88   42.30
   1   8  -7 1077.29   45.90
  -8   9   7 1176.98   42.20
  -1  -8   7 1247.58   45.80
   9  -1   7 1235.38   43.40
   9  -1   7 1199.08   39.50
   5  -9  -7 1440.16   39.50
  -9   4  -7 1459.75   42.10
  -9   4  -7 1465.85   48.30
   9  -4   7 1315.97   41.90
   9  -4   7 1265.07   46.00
  -5   9   7 1317.07   41.70
  -4  -5   7 1365.56   47.80
  -9   7  -7  188.68   22.20
   2  -9  -7  193.58   15.10
  -9   7  -7  201.88   19.10
  -7  -2   7  173.08   21.40
   9  -7   7  211.78   22.40
   9  -7   7  233.18   21.40
  -2   9   7  189.98   19.00
  -1  -9  -7   67.89   10.00
  -9  10  -7   29.20   15.60
  -9  10  -7   64.69   17.00
   9 -10   7   56.49   24.70
   9 -10   7   65.29   17.00
   1   9   7   79.59   12.50
  -4  -9  -7   22.00    9.20
  -9  13  -7   17.00   16.00
  -9  13  -7   14.60   12.20
   4   9   7    9.70    9.00
   4   9   7   18.10    7.50
   9 -13   7    2.90   11.90
 -13   4   7  -28.00   14.70
  -9  16  -7   -6.40   18.60
  -7  -9  -7   17.10   10.20
  -9  16  -7  -18.70   12.50
   7   9   7   26.60   10.20
   7   9   7    1.00    9.10
   9 -16   7   19.70   14.00
 -16   7   7   46.10   17.10
  -9  19  -7  207.48   31.40
 -10  -9  -7  208.28   22.90
  19 -10  -7  215.88   22.00
   9 -19   7  202.08   27.20
  10   9   7  197.78   19.10
 -19  10   7  220.98   27.70
  10   9   7  177.78   22.60
  -6  16  -7   10.40   17.80
 -10  -6  -7   11.80   11.70
  10   6   7    0.00    9.30
 -16  10   7   14.90   17.00
   6 -16   7    9.50   13.90
  10   6   7   -7.20   10.90
 -10  -3  -7   18.70   11.80
  -3  13  -7   22.00   15.40
  -3  13  -7   15.60   12.60
  10   3   7  -21.20    9.00
 -13  10   7  -10.30   13.30
   3 -13   7    4.10   12.00
  10   3   7    1.40    9.70
   0  10  -7    5.20   10.90
 -10   0  -7   20.40   11.40
   0  10  -7   13.20   20.00
 -10   0  -7   -4.10    5.10
  10   0   7   -2.90    9.50
 -10  10   7   -1.30   12.50
   0 -10   7    6.90   22.20
  10   0   7    0.10   10.10
   3   7  -7    8.90   12.50
 -10   3  -7   26.00    8.10
   3   7  -7   26.90   12.30
 -10   3  -7   11.80   11.50
   7 -10  -7    7.60    8.40
  10  -3   7    8.50   10.80
  10  -3   7   -6.60    9.60
  -3  -7   7   15.40   12.60
  -7  10   7   18.10   11.80
   4 -10  -7   69.69    9.50
   6   4  -7   85.99   14.90
 -10   6  -7   77.89   15.30
 -10   6  -7   60.59   12.00
  10  -6   7   49.99   14.10
  10  -6   7   48.80   12.60
  -4  10   7   58.89   12.70
  -6  -4   7   42.60   14.60
 -10   9  -7   34.60   10.90
   1 -10  -7   54.59    8.80
 -10   9  -7   59.19   15.90
  10  -9   7   61.89   14.90
  10  -9   7   53.29   14.20
  -1  10   7   57.49   11.90
 -10  12  -7  110.29   19.40
  -2 -10  -7  122.79   13.50
 -10  12  -7  158.08   21.20
   2  10   7  152.08   16.00
  10 -12   7  173.78   23.00
  10 -12   7  150.18   19.70
 -12   2   7  162.18   22.40
  -5 -10  -7  158.18   16.50
 -10  15  -7  168.48   21.40
 -10  15  -7  206.78   28.40
   5  10   7  210.28   17.40
 -15   5   7  212.88   25.30
   5  10   7  187.58   16.30
  10 -15   7  195.18   23.90
 -10  18  -7  208.08   28.50
  -8 -10  -7  215.38   20.90
   8  10   7  209.78   18.00
  10 -18   7  248.88   27.70
   8  10   7  271.57   21.30
 -18   8   7  285.97   33.90
 -11 -10  -7  116.89   18.40
 -10  21  -7  127.39   26.90
  21 -11  -7  118.69   18.30
  11  10   7  143.49   15.10
  11  10   7  147.99   20.40
  10 -21   7  143.49   21.30
 -21  11   7  148.69   26.50
 -11  -7  -7  235.38   24.90
  -7  18  -7  236.58   31.00
  18 -11  -7  239.48   21.60
   7 -18   7  183.48   22.60
  11   7   7  181.08   23.10
  11   7   7  214.58   19.40
 -11  -4  -7  672.03   32.20
  -4  15  -7  715.53   43.30
   4 -15   7  666.33   34.70
  11   4   7  727.03   28.50
  11   4   7  723.03   34.00
  -1  12  -7  899.51   39.50
  -1  12  -7  901.21   45.00
 -11  -1  -7  808.92   34.80
  11   1   7  906.51   33.30
  11   1   7  844.72   36.30
   1 -12   7  894.91   38.70
   2   9  -7  821.12   50.69
 -11   2  -7  917.81   37.90
   9 -11  -7  940.41   31.10
   2   9  -7  921.11   38.90
 -11   2  -7  920.11   28.90
  11  -2   7  970.00   35.80
  11  -2   7 1014.60   40.00
  -2  -9   7  909.11   48.90
   5   6  -7  900.51   37.00
 -11   5  -7  867.01   38.10
   6 -11  -7  879.21   27.10
 -11   5  -7  835.22   31.40
  11  -5   7  938.01   42.20
  11  -5   7  944.11   36.00
  -6  11   7 1000.20   35.80
 -11   8  -7  161.88   20.70
   3 -11  -7  167.58   12.40
 -11   8  -7  184.08   18.80
  -3  11   7  156.08   18.30
  11  -8   7  204.38   22.00
  -8  -3   7  150.58   25.20
  11  -8   7  199.98   23.30
   0 -11  -7    2.40    6.60
 -11  11  -7    4.50   14.40
 -11  11  -7   12.30   10.70
  11 -11   7   12.10   12.30
 -11   0   7   24.40   14.80
   0  11   7   14.60    9.60
  11 -11   7   -2.10   10.60
 -11  14  -7  223.78   22.90
  -3 -11  -7  220.28   15.50
 -11  14  -7  197.58   25.50
   3  11   7  237.98   17.30
 -14   3   7  258.67   30.40
  11 -14   7  284.27   24.80
   3  11   7  247.78   16.10
 -11  17  -7  184.78   28.80
  -6 -11  -7  190.38   18.10
 -17   6   7  137.19   23.00
  11 -17   7  174.08   21.20
   6  11   7  175.48   17.30
   6  11   7  138.39   16.30
  20  -9  -7   37.40   14.50
  -9 -11  -7   74.19   14.50
 -11  20  -7   41.20   23.40
 -20   9   7   97.19   23.70
  11 -20   7   72.49   17.60
   9  11   7   65.99   14.40
   9  11   7   73.29   12.30
 -11  23  -7  272.77   37.10
  23 -12  -7  274.97   28.10
 -11  23  -7  260.87   31.00
  12  11   7  335.67   22.30
  12  11   7  312.77   30.40
  11 -23   7  270.57   33.10
 -23  12   7  235.88   31.70
  -8  20  -7  631.84   46.60
 -12  -8  -7  636.44   32.90
  20 -12  -7  596.24   31.80
   8 -20   7  535.95   35.50
  12   8   7  617.34   27.50
  12   8   7  643.84   34.30
  -5  17  -7  366.96   37.10
 -12  -5  -7  450.75   29.70
  17 -12  -7  444.86   24.20
   5 -17   7  428.96   30.00
  12   5   7  394.26   28.20
  12   5   7  381.46   22.60
 -12  -2  -7  600.74   32.30
  -2  14  -7  616.64   40.80
  12   2   7  636.34   33.30
   2 -14   7  646.74   34.70
  12   2   7  679.23   29.00
 -12   1  -7  910.31   38.20
 -12   1  -7  853.51   25.50
   1  11  -7  847.62   38.40
   1  11  -7  876.01   44.60
  12  -1   7  934.21   34.80
  -1 -11   7  923.61   40.10
  12  -1   7  887.11   38.70
   4   8  -7  765.72   35.60
 -12   4  -7  730.63   35.40
   8 -12  -7  786.32   25.80
 -12   4  -7  794.92   29.00
  12  -4   7  732.13   31.80
  -4  -8   7  738.63   36.90
   5 -12  -7  694.53   21.60
 -12   7  -7  783.62   31.40
 -12   7  -7  748.93   36.10
   7   5  -7  769.82   35.10
  12  -7   7  751.72   32.70
  -7  -5   7  729.83   36.90
  12  -7   7  746.23   37.10
 -12  10  -7  176.88   23.80
   2 -12  -7  150.78   10.60
  12 -10   7  192.18   20.70
  -2  12   7  162.68   17.20
  12 -10   7  163.38   20.90
 -10  -2   7  123.89   19.70
 -12  13  -7  113.29   16.50
  -1 -12  -7  111.99   11.40
 -12  13  -7  130.79   22.50
  12 -13   7  148.89   21.50
   1  12   7  154.08   16.30
  12 -13   7  137.59   19.20
 -13   1   7  129.49   19.90
  -4 -12  -7  354.16   18.20
 -12  16  -7  313.77   33.70
 -12  16  -7  350.86   27.50
   4  12   7  327.57   18.50
   4  12   7  337.77   19.50
  12 -16   7  372.06   28.10
 -16   4   7  352.86   35.40
 -12  19  -7  177.88   27.30
  12 -19   7  183.38   23.00
   7  12   7  216.28   17.20
 -19   7   7  182.48   26.80
   7  12   7  168.08   18.50
 -12  22  -7    5.00   26.00
  22 -10  -7    0.50   13.20
  10  12   7   11.30   11.00
  12 -22   7   12.00   17.10
 -22  10   7   12.90   22.80
  10  12   7   18.40   14.00
 -12  25  -7    5.30   21.20
  25 -13  -7  -26.80   18.50
 -12  25  -7   62.59   31.60
  13  12   7   94.69   15.60
 -25  13   7   76.79   30.40
  12 -25   7   65.39   22.00
  -9  22  -7  129.29   29.00
  22 -13  -7  134.79   19.20
  -9  22  -7   96.29   21.50
 -13  -9  -7  114.89   20.30
   9 -22   7  101.29   21.10
  13   9   7  131.59   15.50
  13   9   7  114.19   24.60
  19 -13  -7  148.69   17.50
  -6  19  -7  182.08   29.70
 -13  -6  -7  162.88   21.30
  13   6   7  157.68   20.30
   6 -19   7  177.28   23.00
  13   6   7  124.29   20.00
 -13  -3  -7   25.30   13.70
  16 -13  -7   31.90   10.00
  -3  16  -7   15.70   20.80
  13   3   7   26.10   14.30
   3 -16   7   13.30   14.20
  13   3   7   30.20   11.40
  13 -13  -7    4.80    7.00
 -13   0  -7    8.40   13.00
   0  13  -7   35.00   18.90
  13   0   7   -6.00   10.80
   0 -13   7    9.10   15.00
 -13   3  -7   18.00   13.00
  10 -13  -7    8.90    8.30
   3  10  -7   -1.70   14.80
 -13   3  -7   -0.20    8.20
   3  10  -7   24.30   12.20
  13  -3   7    1.20   11.20
  -3 -10   7   12.00   14.00
  13  -3   7   -6.00   11.60
 -13   6  -7   53.29   11.50
 -13   6  -7   35.00   17.40
   7 -13  -7   33.90    7.30
   6   7  -7   63.59   14.80
  13  -6   7   30.40   13.70
  -6  -7   7   32.90   15.70
  13  -6   7   34.60   12.70
 -13   9  -7   14.60   10.60
   4 -13  -7   10.00    4.60
 -13   9  -7   17.40   13.70
  -9  -4   7   13.60   15.10
  13  -9   7    2.70   12.60
  13  -9   7    4.60   11.90
 -13  12  -7   16.90   16.40
 -13  12  -7   23.20   12.00
   1 -13  -7   31.70    5.80
  13 -12   7   87.99   17.60
 -12  -1   7   50.49   17.60
  -1  13   7   62.59   11.20
  13 -12   7   63.09   14.90
 -13  15  -7  228.38   30.40
  -2 -13  -7  236.68   13.90
 -13  15  -7  285.87   25.00
   2  13   7  275.27   18.40
 -15   2   7  340.47   33.60
  13 -15   7  284.77   26.50
 -13  18  -7  249.68   30.80
   5  13   7  270.17   17.40
 -18   5   7  280.77   34.20
  13 -18   7  298.17   27.90
   5  13   7  277.87   18.50
 -13  21  -7   64.69   23.20
  21  -8  -7  108.89   17.90
   8  13   7  123.19   13.30
 -21   8   7   66.39   24.50
  13 -21   7  125.19   20.80
   8  13   7  129.19   16.50
 -13  24  -7   39.50   21.30
 -13  24  -7   25.00   25.90
  24 -11  -7   14.00   18.30
  13 -24   7   74.09   21.80
 -24  11   7    8.70   27.60
  11  13   7   70.79   13.30
  11  13   7   43.40   16.90
  27 -14  -7    5.40   18.70
 -13  27  -7  -12.00   34.60
  13 -27   7   28.40   22.30
 -27  14   7   21.30   29.80
  14  13   7   18.40   21.00
  24 -14  -7  137.89   20.20
 -10  24  -7  111.39   25.30
 -10  24  -7  124.89   30.70
  10 -24   7  162.68   25.10
  14  10   7  160.58   18.20
  14  10   7  126.69   22.90
  -7  21  -7  170.08   24.60
  21 -14  -7  146.89   22.40
 -14  -7  -7  155.08   22.50
  -7  21  -7  193.38   32.30
  14   7   7  158.68   17.60
   7 -21   7  143.89   22.40
  14   7   7  207.18   25.10
 -14  -4  -7  522.85   32.90
  18 -14  -7  502.45   26.00
  -4  18  -7  565.94   43.50
   4 -18   7  458.05   32.50
  14   4   7  501.65   32.70
  14   4   7  463.25   26.00
 -14  -1  -7  707.33   36.60
  15 -14  -7  739.63   26.70
  -1  15  -7  679.83   44.50
   1 -15   7  797.22   38.30
  14   1   7  731.63   37.30
  14   1   7  790.52   32.40
   2  12  -7  821.32   44.60
 -14   2  -7  718.53   24.50
  12 -14  -7  700.83   23.20
 -14   2  -7  717.13   36.40
  -2 -12   7  704.83   37.20
  14  -2   7  754.72   32.70
  14  -2   7  699.63   36.10
 -14   5  -7  479.35   47.20
   9 -14  -7  554.14   19.10
   9 -14  -7  492.25   17.20
 -14   5  -7  539.05   25.20
  14  -5   7  587.74   30.10
  14  -5   7  535.55   32.30
  -5  -9   7  561.64   34.80
   8   6  -7  361.36   27.30
 -14   8  -7  360.16   23.30
 -14   8  -7  321.87   28.30
  -8  -6   7  472.55   32.20
  14  -8   7  432.96   31.20
  14  -8   7  460.55   28.10
 -14  11  -7  224.18   27.50
 -14  11  -7  188.08   21.00
  14 -11   7  273.47   28.20
 -11  -3   7  225.08   28.40
  14 -11   7  231.18   23.80
 -14  14  -7    4.10   17.20
 -14  14  -7    9.60   12.10
 -14   0   7    0.20   16.10
  14 -14   7   -4.50   19.50
  14 -14   7   -4.90   13.80
   0  14   7   -3.50    8.90
 -14  17  -7    8.20   18.30
 -14  17  -7  -11.20   12.10
  14 -17   7    2.90   14.30
   3  14   7    6.10    8.90
 -17   3   7    2.80   18.20
 -14  20  -7  121.79   25.80
   6  14   7  104.79   12.10
 -20   6   7   85.09   23.70
   6  14   7  115.99   13.70
  14 -20   7   93.29   18.10
 -14  23  -7  126.39   28.90
 -14  23  -7  141.89   36.40
   9  14   7  133.99   13.50
  14 -23   7  138.59   23.50
 -23   9   7  132.69   28.50
   9  14   7  123.29   17.30
  26 -12  -7   31.30   19.90
 -14  26  -7   13.20   32.70
 -14  26  -7   12.00   21.60
 -26  12   7   18.90   31.10
  12  14   7   82.09   21.90
  12  14   7   73.09   14.80
  14 -26   7   65.09   23.10
 -11  26  -7  155.88   39.60
 -11  26  -7  155.48   25.80
  15  11   7  166.98   27.00
  11 -26   7  152.98   27.00
  -8  23  -7  238.68   36.20
 -15  -8  -7  236.18   26.60
  23 -15  -7  263.17   25.60
  -8  23  -7  253.87   29.80
  15   8   7  283.27   25.20
   8 -23   7  252.27   33.20
  15   8   7  231.38   30.80
  -5  20  -7  688.33   40.70
  20 -15  -7  665.03   30.00
  -5  20  -7  603.94   47.50
 -15  -5  -7  613.14   38.00
  15   5   7  607.94   37.70
   5 -20   7  655.73   38.10
  15   5   7  659.73   30.50
 -15  -2  -7  834.02   47.90
  -2  17  -7  996.30   52.79
  17 -15  -7  933.11   32.10
  15   2   7  907.71   34.90
   2 -17   7  894.71   41.70
  15   2   7  878.21   42.90
  14 -15  -7  709.33   24.20
 -15   1  -7  683.33   36.90
   1  14  -7  711.23   46.10
 -15   1  -7  716.83   20.60
  -1 -14   7  708.93   38.30
  15  -1   7  756.62   33.20
  15  -1   7  740.53   37.90
 -15   4  -7  740.03   28.20
  11 -15  -7  777.32   24.50
 -15   4  -7  725.63   37.40
  11 -15  -7  745.53   21.20
  15  -4   7  758.82   38.40
  -4 -11   7  790.72   38.70
  15  -4   7  742.73   34.80
 -15   7  -7  467.65   32.10
 -15   7  -7  436.66   24.80
  15  -7   7  398.96   27.20
  15  -7   7  421.56   30.20
  -7  -8   7  459.25   32.30
 -15  10  -7  166.88   20.60
 -15  10  -7  136.59   21.90
  15 -10   7  192.88   24.20
  15 -10   7  195.88   24.00
 -10  -5   7  168.58   23.10
 -15  13  -7  216.88   23.40
 -15  13  -7  217.88   28.90
  15 -13   7  277.77   25.40
 -13  -2   7  248.28   30.30
  15 -13   7  238.28   27.30
 -15  16  -7   72.49   21.40
 -15  16  -7   47.90   15.30
 -16   1   7   45.50   19.30
  15 -16   7   49.00   16.30
   1  15   7   33.10   10.20
 -15  19  -7   25.10   20.80
   4  15   7   26.60    9.80
 -19   4   7   13.00   20.70
  15 -19   7   27.40   15.40
   4  15   7   18.40    9.30
 -15  22  -7   98.79   28.80
   7  15   7   67.99   10.90
   7  15   7   41.30   11.70
  15 -22   7   63.29   18.20
 -22   7   7   70.19   23.60
 -15  25  -7   53.89   21.50
 -15  25  -7   63.59   28.00
  25 -10  -7   55.49   20.40
  15 -25   7   63.29   22.30
  10  15   7   68.09   12.30
 -25  10   7   32.10   29.80
  10  15   7   56.09   17.20
  -9  25  -7    7.90   29.90
  -9  25  -7   68.99   24.30
  25 -16  -7   28.40   16.20
   9 -25   7   22.70   20.80
  16   9   7   60.79   16.20
  16   9   7   32.20   21.10
 -16  -6  -7   68.79   19.90
  -6  22  -7   69.49   20.20
  -6  22  -7   66.69   28.90
  16   6   7   75.69   16.60
  16   6   7   65.49   19.40
   6 -22   7   86.59   21.80
  -3  19  -7   40.40   23.30
  19 -16  -7   15.60   10.70
 -16  -3  -7   -0.70   16.90
  -3  19  -7   31.50   16.60
  16   3   7   36.50   13.80
  16   3   7   17.70   17.10
   3 -19   7   18.50   16.30
   0  16  -7   13.40   19.80
 -16   0  -7    1.30   16.00
  16 -16  -7    9.40    7.70
  16   0   7  -18.20   11.70
  16   0   7   -2.20   14.40
   0 -16   7   35.40   16.20
 -16   3  -7   12.30    8.80
 -16   3  -7   25.20   16.30
   3  13  -7   -6.40   16.50
  13 -16  -7   26.10    6.50
  -3 -13   7   18.00   15.40
  16  -3   7   21.20   13.90
 -16   6  -7    2.70    9.60
 -16   6  -7    4.70   14.00
  16  -6   7   -5.70   12.90
  16  -6   7    2.90   13.20
  -6 -10   7   -6.20   14.20
 -16   9  -7  -10.40   14.70
 -16   9  -7   -0.70   12.40
  16  -9   7   29.00   14.00
  16  -9   7    4.50   13.50
  -9  -7   7    3.00   15.00
 -16  12  -7  217.58   29.60
 -16  12  -7  237.08   23.70
  16 -12   7  287.57   26.60
 -12  -4   7  272.07   30.70
  16 -12   7  274.47   29.30
 -16  15  -7   83.19   16.80
 -16  15  -7   68.99   21.50
  16 -15   7   53.49   16.70
 -15  -1   7   34.10   18.40
 -16  18  -7   -2.50   19.90
 -18   2   7    2.40   19.50
  16 -18   7    0.30   13.60
   2  16   7    1.40    9.00
 -16  21  -7  -13.80   22.20
 -16  21  -7    5.00   18.90
   5  16   7   19.90    9.60
  16 -21   7  -14.30   14.70
 -21   5   7   36.00   24.60
   5  16   7    6.10    9.40
 -16  24  -7   33.00   27.50
  24  -8  -7   -2.10   17.40
 -16  24  -7   21.20   19.10
  16 -24   7   38.00   18.60
   8  16   7   15.90   13.50
   8  16   7   24.20   10.20
 -24   8   7   33.60   27.10
 -16  27  -7  -10.40   34.90
  27 -11  -7  -11.80   19.90
  16 -27   7   16.60   24.10
 -27  11   7  -11.90   26.80
  11  16   7   20.10   18.20
 -10  27  -7   28.60   37.10
  27 -17  -7   46.10   22.20
  10 -27   7  117.59   26.00
  17  10   7   67.69   23.70
  24 -17  -7   97.19   17.90
  -7  24  -7   87.59   25.60
  -7  24  -7  113.19   32.30
 -17  -7  -7   83.69   23.00
  17   7   7  124.99   19.60
  17   7   7   76.39   23.20
   7 -24   7  103.19   24.00
  -4  21  -7  311.17   38.70
 -17  -4  -7  291.27   33.80
  -4  21  -7  354.66   35.40
  21 -17  -7  258.97   23.50
  17   4   7  323.27   33.50
  17   4   7  306.17   27.80
   4 -21   7  328.67   34.20
 -17  -1  -7 1045.80   46.60
  -1  18  -7 1100.69   56.09
  18 -17  -7 1001.90   33.80
  -1  18  -7 1011.10   48.50
  17   1   7 1093.59   49.10
   1 -18   7  985.90   44.80
  17   1   7 1004.10   43.50
 -17   2  -7  865.51   41.80
 -17   2  -7  854.91   25.70
   2  15  -7  887.71   51.69
  15 -17  -7  860.31   26.40
  -2 -15   7  826.62   41.50
  17  -2   7  817.42   42.10
  17  -2   7  765.62   38.40
  12 -17  -7  547.35   17.20
 -17   5  -7  619.24   27.00
 -17   5  -7  618.44   35.60
  12 -17  -7  550.44   15.40
  -5 -12   7  506.65   34.20
  17  -5   7  566.84   31.10
  17  -5   7  482.15   34.10
 -17   8  -7  407.26   32.90
 -17   8  -7  424.96   25.20
  17  -8   7  455.85   29.50
  -8  -9   7  429.46   32.90
  17  -8   7  401.36   32.30
 -17  11  -7  220.98   29.70
 -17  11  -7  202.98   22.20
  17 -11   7  205.28   27.20
 -11  -6   7  220.98   29.10
  17 -11   7  266.37   26.30
 -17  14  -7   34.70   14.60
 -17  14  -7   20.50   18.40
  17 -14   7   49.80   14.90
 -14  -3   7   38.50   19.00
 -17  17  -7   10.70   21.30
 -17   0   7    4.40   19.80
  17 -17   7   15.20   15.10
 -17  20  -7   53.29   18.90
 -17  20  -7   11.30   22.00
  17 -20   7   15.30   17.10
 -20   3   7   -0.40   21.10
   3  17   7   15.80    9.70
  23  -6  -7    8.00   17.20
 -17  23  -7   50.19   21.00
 -17  23  -7   13.10   27.80
   6  17   7    5.20   10.60
 -23   6   7    5.30   25.00
   6  17   7   30.80    9.10
  17 -23   7   37.60   18.30
 -17  26  -7   87.99   22.00
  26  -9  -7   73.09   22.80
 -17  26  -7   63.49   33.30
 -26   9   7   56.49   32.10
   9  17   7   48.90   11.10
   9  17   7   27.40   16.30
  17 -26   7   41.50   24.10
  -8  26  -7   56.09   39.00
  26 -18  -7   83.89   19.90
  -8  26  -7   72.09   24.10
  18   8   7   63.79   24.10
   8 -26   7   92.39   25.10
  -5  23  -7  196.38   26.30
  23 -18  -7  200.58   23.70
 -18  -5  -7  222.18   27.70
  -5  23  -7  177.98   33.20
  18   5   7  229.08   31.00
   5 -23   7  198.18   27.10
 -18  -2  -7  542.95   40.20
  20 -18  -7  584.34   27.50
  -2  20  -7  604.24   42.40
  -2  20  -7  540.05   49.90
  18   2   7  637.74   40.90
  18   2   7  583.54   33.30
   2 -20   7  566.34   38.30
   1  17  -7  991.10   54.89
 -18   1  -7  934.81   45.20
   1  17  -7  952.20   46.70
  17 -18  -7  936.31   29.50
  -1 -17   7  998.70   45.30
  18  -1   7  909.21   45.90
  18  -1   7  975.30   39.20
 -18   4  -7  587.64   25.80
  14 -18  -7  546.95   20.70
 -18   4  -7  614.64   37.40
  14 -18  -7  601.34   20.50
  18  -4   7  530.35   35.90
  18  -4   7  565.14   32.20
  -4 -14   7  530.75   35.80
 -18   7  -7  194.88   25.60
 -18   7  -7  200.48   20.40
  18  -7   7  210.68   25.60
  -7 -11   7  185.88   25.00
  18  -7   7  196.68   26.70
 -18  10  -7  301.57   31.70
 -18  10  -7  294.87   24.50
  18 -10   7  360.66   28.90
 -10  -8   7  398.26   34.70
  18 -10   7  363.56   31.90
 -18  13  -7  316.47   33.40
 -18  13  -7  294.17   26.10
  18 -13   7  309.27   28.10
 -13  -5   7  307.67   34.60
  18 -13   7  222.78   30.80
 -18  16  -7   24.50   20.10
 -18  16  -7    9.70   14.40
  18 -16   7    1.70   15.20
 -16  -2   7   16.00   19.00
 -18  19  -7  -16.80   21.00
 -18  19  -7   29.30   18.10
  18 -19   7   14.30   17.00
 -19   1   7   41.90   21.70
   1  18   7   19.80    9.90
 -18  22  -7  112.59   22.90
  22  -4  -7   95.39   20.10
 -18  22  -7   95.09   27.70
 -22   4   7  106.69   29.30
  18 -22   7  103.49   22.50
  18 -22   7   85.39   25.00
 -18  25  -7  112.69   31.50
 -18  25  -7  132.79   24.90
  25  -7  -7  124.29   23.60
  18 -25   7  139.99   26.00
 -25   7   7  105.19   31.10
   7  18   7   93.19   14.80
  -6  25  -7   35.70   23.70
 -19  -6  -7   38.00   23.20
  -6  25  -7   45.20   34.60
  25 -19  -7   37.20   16.80
   6 -25   7   39.20   22.00
  19   6   7    4.90   22.30
  -3  22  -7   18.40   26.30
  22 -19  -7   25.20   12.50
 -19  -3  -7   -0.60   20.20
  -3  22  -7    9.40   21.30
  19   3   7  -25.50   19.10
   3 -22   7    1.50   19.30
  19   3   7   28.30   17.80
   0  19  -7    2.40   25.00
 -19   0  -7   16.00   18.70
   0  19  -7   14.70   19.30
  19 -19  -7   -2.00    9.20
  19   0   7   11.00   20.30
   0 -19   7    9.90   17.20
  19   0   7   -2.80   14.70
 -19   3  -7   13.50    9.10
   3  16  -7   19.40   23.00
 -19   3  -7   40.50   18.40
  16 -19  -7   11.50    7.00
   3  16  -7   16.30   16.60
  19  -3   7   66.89   20.00
  -3 -16   7   26.00   18.40
  19  -3   7   21.50   15.70
   6  13  -7  139.89   22.30
 -19   6  -7  148.39   19.50
 -19   6  -7  145.69   23.40
  19  -6   7  116.89   18.60
  19  -6   7  165.88   25.30
  -6 -13   7  140.99   22.40
 -19   9  -7  281.47   32.20
 -19   9  -7  256.07   23.50
  19  -9   7  224.98   26.90
  19  -9   7  253.07   29.60
  -9 -10   7  219.68   26.50
 -19  12  -7  242.28   31.30
 -19  12  -7  187.68   23.70
 -12  -7   7  208.28   27.20
  19 -12   7  142.09   20.80
  19 -12   7  233.28   29.20
 -19  15  -7   22.50   20.20
 -19  15  -7   38.10   15.10
 -15  -4   7   27.60   20.40
  19 -15   7   33.50   15.90
 -19  18  -7   28.30   24.70
 -18  -1   7   17.20   22.00
  19 -18   7   27.70   17.10
 -19  21  -7   49.50   25.50
 -19  21  -7   69.69   21.10
 -21   2   7  104.29   26.30
   2  19   7   87.99   10.60
  19 -21   7   74.29   24.90
  19 -21   7  131.99   24.20
 -19  24  -7  189.08   36.30
  24  -5  -7  243.68   34.20
 -19  24  -7  236.18   30.60
 -24   5   7  210.08   37.10
  19 -24   7  164.58   25.50
  24 -20  -7  120.19   18.20
  -4  24  -7   89.59   25.30
  -4  24  -7  133.29   35.80
 -20  -4  -7  160.88   28.70
   4 -24   7  135.99   26.10
  20   4   7  125.99   27.10
  -1  21  -7  306.07   41.00
  21 -20  -7  306.77   22.20
 -20  -1  -7  272.77   38.20
  -1  21  -7  349.47   40.90
  20   1   7  371.96   31.60
   1 -21   7  351.56   35.40
  20   1   7  237.28   30.00
   2  18  -7  670.83   43.00
 -20   2  -7  685.73   43.70
   2  18  -7  617.84   50.39
 -20   2  -7  567.84   23.30
  18 -20  -7  664.03   23.30
  20  -2   7  709.13   43.60
  -2 -18   7  687.03   40.90
  20  -2   7  676.93   36.30
 -20   5  -7  672.03   29.20
   5  15  -7  689.53   42.00
 -20   5  -7  688.83   41.10
  -5 -15   7  705.13   42.30
  20  -5   7  698.23   42.10
  20  -5   7  742.03   38.10
 -20   8  -7  610.04   39.00
   8  12  -7  562.44   37.00
 -20   8  -7  558.94   34.40
  20  -8   7  525.85   34.20
  -8 -12   7  590.54   39.70
  20  -8   7  535.95   38.40
 -20  11  -7  135.29   18.10
 -20  11  -7  133.59   25.80
  20 -11   7   92.49   19.80
 -11  -9   7  129.99   24.20
  20 -11   7  148.79   21.70
 -20  14  -7  138.09   26.70
 -14  -6   7  156.08   25.80
  20 -14   7  172.58   21.80
  20 -14   7  137.79   23.70
 -20  17  -7   11.50   21.90
  20 -17   7   56.59   19.80
 -17  -3   7   59.49   24.00
 -20  20  -7   16.80   24.80
 -20  20  -7  -28.10   17.40
  20 -20   7    4.90   21.10
  20 -20   7   28.70   19.30
 -20   0   7    8.60   22.20
  23  -3  -7    5.90   18.70
 -20  23  -7  -45.60   25.50
  20 -23   7    8.10   19.80
  20 -23   7  -23.50   21.00
 -23   3   7   29.30   27.70
  26  -6  -7   85.49   25.30
 -20  26  -7  108.69   34.80
 -26   6   7   35.60   33.00
   6  20   7   49.50   10.60
  20 -26   7   55.89   24.80
  -2  23  -7  175.98   30.20
  -2  23  -7  191.38   38.70
  23 -21  -7  173.28   19.10
 -21  -2  -7  179.28   29.90
   2 -23   7  185.98   27.60
  21   2   7  213.98   31.50
   1  20  -7  357.16   40.40
   1  20  -7  265.27   36.70
 -21   1  -7  344.97   39.80
  20 -21  -7  265.67   20.00
  -1 -20   7  293.07   35.20
  21  -1   7  301.37   39.20
  21  -1   7  322.67   30.90
   4  17  -7  251.47   30.80
 -21   4  -7  261.67   20.00
 -21   4  -7  313.27   35.00
   4  17  -7  323.07   44.30
  -4 -17   7  327.37   35.40
  21  -4   7  309.37   31.20
  21  -4   7  297.17   35.50
 -21   7  -7  193.18   27.80
   7  14  -7  213.98   27.40
 -21   7  -7  180.48   21.80
  21  -7   7  230.58   31.50
  21  -7   7  254.27   26.50
  -7 -14   7  249.68   30.20
  10  11  -7  159.28   24.50
 -21  10  -7  139.19   25.10
 -21  10  -7  180.38   23.80
  21 -10   7  181.78   24.40
 -10 -11   7  180.98   27.30
  21 -10   7  131.39   23.80
 -21  13  -7  112.19   19.80
 -21  13  -7  169.68   27.00
  21 -13   7  142.99   22.50
 -13  -8   7  148.49   25.00
  21 -13   7   88.09   20.90
 -21  16  -7   55.69   23.40
  21 -16   7    8.40   17.70
 -16  -5   7   51.89   23.70
 -21  19  -7   55.49   20.30
 -21  19  -7   18.90   25.50
  21 -19   7   91.49   29.70
  21 -19   7   60.79   21.90
 -19  -2   7   84.09   26.80
 -21  22  -7  237.58   34.60
 -21  22  -7  117.09   25.20
 -22   1   7  224.78   34.40
  21 -22   7  199.88   26.70
  21 -22   7  194.68   31.60
  25  -4  -7  243.38   30.90
 -21  25  -7  197.18   36.60
 -21  25  -7  115.89   30.40
 -25   4   7  256.17   38.70
  21 -25   7  245.08   30.50
  21 -25   7  137.89   28.80
  25 -22  -7    3.10   15.30
 -22  -3  -7  -26.10   25.70
  -3  25  -7    4.50   38.00
  -3  25  -7   -8.90   26.40
  22   3   7   -5.50   25.90
   3 -25   7   -2.80   21.30
 -22   0  -7  -23.10   23.50
   0  22  -7   -6.50   27.10
  22 -22  -7   -9.20   11.70
   0  22  -7   28.00   24.50
  22   0   7  -12.50   23.30
   0 -22   7  -11.90   20.20
   3  19  -7  -24.90   20.00
 -22   3  -7    7.70   23.10
 -22   3  -7   20.90    8.90
   3  19  -7   -0.40   29.50
  19 -22  -7   18.40    8.50
  -3 -19   7    7.20   20.00
  22  -3   7   24.50   17.20
  22  -3   7   52.79   24.20
   6  16  -7   54.89   23.30
 -22   6  -7   74.69   13.90
 -22   6  -7   81.39   22.90
  22  -6   7   98.09   21.70
  -6 -16   7   31.30   21.20
  22  -6   7   96.99   23.20
 -22   9  -7   83.29   23.20
   9  13  -7   49.00   21.30
 -22   9  -7  113.39   17.30
  22  -9   7  104.49   22.80
  22  -9   7   71.29   20.00
  -9 -13   7   98.79   23.60
 -22  12  -7   21.80   19.70
 -22  12  -7   -4.50   14.70
  22 -12   7  -24.40   17.70
  22 -12   7   24.90   17.90
 -12 -10   7  -22.80   19.90
 -22  15  -7  141.29   28.40
  22 -15   7   83.69   23.70
  22 -15   7   74.09   20.10
 -15  -7   7   99.99   25.00
 -22  18  -7  125.89   31.40
  22 -18   7  134.39   31.00
  22 -18   7   90.19   22.90
 -18  -4   7   94.09   27.30
 -22  21  -7  154.78   27.50
 -22  21  -7  134.89   30.00
 -21  -1   7  200.08   32.40
  22 -21   7  207.68   27.20
  22 -21   7  156.08   27.30
  24  -2  -7  309.57   37.50
 -22  24  -7  195.68   25.10
 -24   2   7  441.86   53.29
  22 -24   7  314.17   39.60
 -23  -1  -7  109.09   30.00
  24 -23  -7  139.59   17.80
  -1  24  -7  158.88   43.30
  -1  24  -7   78.29   26.90
  23   1   7  141.39   29.90
   1 -24   7  149.69   26.10
  21 -23  -7  197.18   18.50
   2  21  -7  172.88   30.00
 -23   2  -7  201.98   32.70
   2  21  -7  206.28   36.70
  -2 -21   7  186.08   27.90
  23  -2   7  264.37   35.40
   5  18  -7  217.08   30.30
 -23   5  -7  308.57   39.90
 -23   5  -7  227.28   21.70
  -5 -18   7  210.58   28.60
  23  -5   7  289.97   40.20
  23  -5   7  218.08   25.90
   8  15  -7  171.98   26.20
 -23   8  -7  239.68   26.80
 -23   8  -7  171.38   28.30
  23  -8   7  240.88   28.40
  23  -8   7  237.38   31.70
  -8 -15   7  235.18   29.70
 -23  11  -7  316.47   39.80
 -23  11  -7  311.87   28.80
  11  12  -7  322.37   36.60
 -11 -12   7  389.16   41.60
  23 -11   7  298.17   36.20
  23 -11   7  416.66   35.30
 -23  14  -7  133.49   26.90
 -14  -9   7  129.69   29.10
  23 -14   7  137.49   23.40
  23 -14   7   73.59   21.70
 -23  17  -7   35.60   19.40
 -23  17  -7   33.10   26.00
 -17  -6   7   92.59   28.90
  23 -17   7   63.39   21.80
  23 -17   7   33.00   23.00
 -23  20  -7   13.10   24.90
 -23  20  -7    6.00   22.60
  23 -20   7   14.50   23.10
  23 -20   7   22.10   21.20
 -20  -3   7   -4.90   26.30
 -23  23  -7  -16.30   29.80
 -23  23  -7  -14.70   22.30
  23   0  -7   -6.80   20.80
  23 -23   7   31.20   23.00
 -23   0   7    7.80   28.60
  23 -23   7    1.00   24.70
  23 -24  -7  127.29   14.70
   1  23  -7  184.18   28.40
   1  23  -7  149.69   38.30
 -24   1  -7   90.69   30.40
  24  -1   7   97.39   30.80
  -1 -23   7  158.78   26.70
   4  20  -7  106.39   33.00
 -24   4  -7  171.08   19.10
 -24   4  -7  111.59   30.00
   4  20  -7  156.78   28.10
  24  -4   7  134.79   29.90
  -4 -20   7  193.38   28.00
   7  17  -7  113.59   26.50
 -24   7  -7  152.58   29.50
 -24   7  -7  120.59   17.80
  24  -7   7  160.98   26.00
  24  -7   7  207.58   31.70
  -7 -17   7  197.98   28.90
 -24  10  -7  154.28   29.20
  10  14  -7  122.29   25.80
 -24  10  -7  161.08   20.40
  24 -10   7  130.19   25.20
 -10 -14   7  176.68   27.70
  24 -10   7  159.28   27.90
 -24  13  -7   79.19   26.30
 -24  13  -7    8.10   17.40
  24 -13   7   65.09   22.50
  24 -13   7   32.00   19.90
 -13 -11   7   73.59   25.60
 -24  16  -7   10.00   24.60
 -24  16  -7    7.40   18.60
 -16  -8   7   43.90   25.30
  24 -16   7   58.79   20.80
  24 -16   7    1.10   21.20
 -24  19  -7  187.98   37.10
 -24  19  -7  197.08   29.00
  24 -19   7  149.39   25.40
  24 -19   7  141.69   29.30
 -19  -5   7  137.99   35.10
 -24  22  -7  380.36   49.20
 -24  22  -7  224.08   29.50
  24 -22   7  187.28   31.40
 -22  -2   7  311.37   41.80
  24 -22   7  302.97   39.40
  22 -25  -7   19.00    9.30
   3  22  -7  -20.70   23.80
   3  22  -7   -3.30   36.90
 -25   3  -7  -12.80   28.30
  -3 -22   7   -1.80   21.20
  25  -3   7   -8.00   27.80
   6  19  -7   20.60   23.90
 -25   6  -7   27.70   26.80
 -25   6  -7   53.09   15.00
  25  -6   7   57.49   28.80
  -6 -19   7   13.10   22.70
   9  16  -7   21.00   22.00
 -25   9  -7   30.60   23.60
 -25   9  -7    6.00   15.00
  25  -9   7   36.20   25.40
  -9 -16   7    6.50   23.00
 -25  12  -7   47.80   27.80
 -25  12  -7   18.50   17.80
  25 -12   7   34.60   25.10
 -12 -13   7   93.79   27.00
  25 -12   7   53.49   21.40
 -25  15  -7   97.79   28.70
  25 -15   7   46.20   21.30
  25 -15   7   36.30   25.10
 -15 -10   7   64.69   26.40
 -25  18  -7  120.49   30.50
 -25  18  -7   96.79   22.80
  25 -18   7   90.59   25.10
  25 -18   7   11.50   23.70
 -18  -7   7   65.99   30.00
 -25  21  -7  188.38   28.50
 -25  21  -7  161.98   33.40
  25 -21   7  217.28   28.90
  25 -21   7  181.18   38.80
 -21  -4   7  220.68   38.70
  -5 -21   7   66.39   24.10
   8  18  -7   69.69   25.10
 -26   8  -7  103.79   19.10
 -26   8  -7  125.19   31.30
  26  -8   7   80.59   26.80
  -8 -18   7  117.89   26.50
  11  15  -7  157.18   29.70
 -26  11  -7   67.49   29.40
 -26  11  -7  114.79   19.90
 -11 -15   7  138.69   29.10
  26 -11   7  123.19   29.60
 -26  14  -7   30.90   25.00
 -26  14  -7   75.49   28.00
 -14 -12   7   96.19   28.90
  26 -14   7   42.20   23.60
 -26  17  -7   89.89   34.30
 -26  17  -7  120.39   24.20
 -17  -9   7   77.89   29.20
  26 -17   7   45.20   22.20
 -26  20  -7   33.30   24.80
 -26  20  -7   67.89   25.70
 -20  -6   7   73.49   33.00
 -27  10  -7   77.69   29.00
  10  17  -7  -38.70   24.00
 -27  10  -7   72.09   18.80
 -10 -17   7   40.90   25.80
 -27  13  -7   15.60   25.40
 -13 -14   7   29.20   26.30
  27 -13   7    4.00   30.40
 -27  16  -7  -14.60   23.90
 -27  16  -7   30.00   22.60
 -16 -11   7   47.70   29.10
   1   0  -8   59.29   14.50
  -1   1  -8   65.19   14.90
   0  -1  -8   70.59   15.50
   1  -1   8   51.09   14.00
  -1   0   8   48.90   14.20
   0   1   8   45.60   14.20
   0   2  -8  245.98   20.50
   2  -2  -8  254.07   23.70
  -2   0  -8  263.57   23.20
   0   2  -8  258.87   25.00
  -2   2   8  223.78   23.80
   0  -2   8  214.88   24.50
   2   0   8  239.48   23.10
   3  -1  -8   -8.20   11.50
  -2   3  -8   28.20   13.60
  -2   3  -8   23.10   10.00
  -1  -2  -8   10.20   12.00
   1   2   8   17.10   12.70
   2  -3   8   16.00   12.40
  -3   1   8   15.50   12.40
  -3  -1  -8  221.18   22.50
   4  -3  -8  202.48   23.40
  -1   4  -8  244.18   25.60
  -1   4  -8  185.48   19.90
  -4   3   8  200.38   22.60
   3   1   8  183.08   22.00
   1  -4   8  189.08   25.20
  -3   2  -8    0.80    8.40
  -3   2  -8  -12.10   11.30
   2   1  -8   20.00   13.80
   1  -3  -8   -0.90   11.20
  -2  -1   8   14.90   12.90
  -1   3   8    7.40   12.30
   3  -2   8   11.80   11.30
  -3   5  -8  729.83   31.80
  -3   5  -8  693.73   36.60
  -2  -3  -8  672.03   31.20
   5  -2  -8  686.33   34.70
  -5   2   8  626.14   33.90
   3  -5   8  668.03   47.10
   2   3   8  659.53   32.10
   6  -4  -8   14.30   12.60
  -2   6  -8   24.70   15.00
  -4  -2  -8   29.10   13.20
   4   2   8   16.40   13.10
  -6   4   8   40.20   14.80
   2  -6   8   34.90   13.20
   1   3  -8  291.47   27.00
   1   3  -8  339.77   23.50
   3  -4  -8  288.97   24.20
  -4   1  -8  315.37   19.50
  -4   1  -8  337.77   26.30
  -1  -3   8  324.67   31.10
   4  -1   8  298.67   26.00
  -3   4   8  311.97   26.00
  -4   4  -8  937.11   35.00
  -4   4  -8  909.21   40.30
   4   0  -8  916.91   40.20
   0  -4  -8  871.31   34.90
  -4   0   8  921.71   40.70
   0   4   8  857.91   36.60
   4  -4   8  932.51   38.20
   7  -3  -8  550.14   32.60
  -4   7  -8  462.15   32.90
  -3  -4  -8  530.25   27.50
  -7   3   8  398.66   50.99
   3   4   8  491.15   28.40
   4  -7   8  511.35   30.70
  -3   8  -8  443.36   27.50
   8  -5  -8  467.05   29.40
  -3   8  -8  383.56   32.30
  -5  -3  -8  467.95   27.10
   3  -8   8  374.66   28.70
  -8   5   8  384.96   35.30
   5   3   8  353.06   24.60
   5   3   8  384.26   26.60
  -5   0  -8   78.99   16.00
   0   5  -8   99.29   19.70
   5  -5  -8   73.29   15.10
   0  -5   8   85.99   17.60
  -5   5   8   91.09   17.50
   5   0   8   82.99   15.70
  -5   3  -8  669.03   28.70
  -5   3  -8  681.53   35.00
   2  -5  -8  694.43   30.90
   3   2  -8  725.83   36.70
   5  -3   8  682.13   32.90
  -2   5   8  686.83   33.50
   6  -1  -8   82.19   17.60
  -5   6  -8   78.09   13.90
  -1  -5  -8   90.09   14.70
  -5   6  -8   79.99   16.80
   1   5   8   32.80   13.90
   5  -6   8   39.30   25.10
  -5   9  -8   34.30   17.70
  -4  -5  -8   20.00   11.70
  -5   9  -8   33.60   13.20
   4   5   8   37.70   12.90
  -9   4   8   49.40   17.20
   5  -9   8   58.99   16.10
  -6  -4  -8  180.78   21.10
  -4  10  -8  199.18   22.80
  -4  10  -8  151.78   22.40
 -10   6   8  146.99   22.20
   6   4   8  171.88   18.70
   4 -10   8  198.68   25.80
   6   4   8  188.58   20.50
  -6  -1  -8  109.99   17.60
  -1   7  -8   81.59   23.50
   7  -6  -8  102.69   16.40
  -1   7  -8  118.99   17.80
   6   1   8  101.59   16.10
   1  -7   8   95.89   18.30
  -7   6   8   69.79   16.90
   6   1   8   87.29   15.50
  -6   2  -8   13.60    8.70
   2   4  -8   26.80   14.00
  -6   2  -8    1.20   11.80
   4  -6  -8   20.30   11.50
   2   4  -8   18.70   14.10
   6  -2   8   17.90   13.00
  -4   6   8    6.80   13.10
  -2  -4   8    8.10   13.10
  -6   5  -8   78.49   17.60
   1  -6  -8   90.49   14.60
   5   1  -8  121.19   20.50
  -6   5  -8   93.49   14.20
  -5  -1   8   56.49   16.50
   6  -5   8   91.49   18.10
  -1   6   8  105.99   16.80
  -6   8  -8  384.66   30.70
  -6   8  -8  391.36   26.50
  -2  -6  -8  380.56   23.50
   6  -8   8  406.46   29.00
   2   6   8  461.15   27.10
  -8   2   8  418.06   32.00
  -6  11  -8  831.62   38.80
  -5  -6  -8  789.92   32.10
  -6  11  -8  805.12   42.60
   6 -11   8  762.82   38.20
   5   6   8  733.03   31.90
   5   6   8  807.12   32.20
 -11   5   8  764.32   41.90
  -5  12  -8   15.30   18.60
  -5  12  -8   31.20   13.50
  -7  -5  -8   -9.00   11.20
 -12   7   8   15.30   16.20
   5 -12   8   14.40   13.70
   7   5   8    9.20   11.10
   7   5   8    7.20   10.80
  -2   9  -8  101.09   20.70
  -7  -2  -8  105.29   16.80
   9  -7  -8   83.69   16.10
  -2   9  -8   75.39   15.10
   2  -9   8   85.29   17.50
  -9   7   8  132.89   28.70
   7   2   8  116.29   17.00
   7   2   8  125.39   17.10
  -7   1  -8  190.18   22.70
  -7   1  -8  172.68   15.50
   6  -7  -8  148.29   17.70
   1   6  -8  165.58   21.40
   7  -1   8  147.99   19.70
   7  -1   8  135.19   18.00
  -6   7   8  143.49   20.30
  -1  -6   8  124.09   19.00
  -7   4  -8  370.86   28.50
   4   3  -8  397.86   31.80
   3  -7  -8  371.16   23.40
  -7   4  -8  396.36   23.10
   7  -4   8  351.96   26.30
  -3   7   8  341.97   26.10
  -4  -3   8  351.66   29.40
   0  -7  -8  734.83   29.50
  -7   7  -8  738.63   33.50
   7  -7   8  804.62   36.90
  -7   0   8  767.32   39.00
   0   7   8  826.32   34.40
  -7  10  -8 1155.58   49.10
  -3  -7  -8 1151.28   37.10
  -7  10  -8 1086.69   43.50
 -10   3   8 1225.98   49.30
   3   7   8 1216.48   40.00
   7 -10   8 1173.98   45.00
  -7  13  -8  751.62   44.20
  -6  -7  -8  776.42   31.50
  -7  13  -8  775.42   38.20
   6   7   8  696.83   30.30
   7 -13   8  640.94   35.60
   6   7   8  625.14   30.10
 -13   6   8  669.33   41.50
  -8  -6  -8  190.28   22.50
  -6  14  -8  250.67   33.60
   6 -14   8  192.18   23.30
 -14   8   8  234.08   31.50
   8   6   8  242.28   23.20
   8   6   8  222.48   21.70
  -3  11  -8  150.68   20.30
  -8  -3  -8  127.79   17.70
  -3  11  -8  121.69   23.20
   8   3   8  125.79   17.90
   8   3   8  132.99   17.60
 -11   8   8  178.38   23.30
   3 -11   8  148.89   21.60
   0   8  -8  481.45   30.10
  -8   0  -8  488.75   29.90
   0   8  -8  473.95   35.80
   8  -8  -8  503.25   28.10
   8   0   8  479.45   29.50
   8   0   8  474.25   28.80
   0  -8   8  476.75   32.60
  -8   8   8  474.95   32.40
  -8   3  -8  418.86   22.40
   5  -8  -8  432.86   24.00
  -8   3  -8  396.46   29.60
   3   5  -8  437.76   28.20
  -3  -5   8  395.66   31.00
   8  -3   8  263.67   31.20
  -5   8   8  321.77   27.30
   8  -3   8  368.96   26.90
  -8   6  -8  195.38   28.40
   2  -8  -8  228.68   19.10
  -8   6  -8  205.98   20.30
   8  -6   8  226.08   25.90
  -2   8   8  280.17   24.60
   8  -6   8  321.77   30.80
  -6  -2   8  303.67   29.50
  -8   9  -8  569.54   31.50
  -1  -8  -8  609.84   25.90
  -8   9  -8  554.74   36.30
   1   8   8  612.84   29.60
  -9   1   8  654.83   36.80
   8  -9   8  605.74   32.80
  -8  12  -8   40.70   14.40
  -4  -8  -8   46.00   11.30
  -8  12  -8   37.30   18.30
 -12   4   8    3.30   16.80
   8 -12   8   21.60   15.20
   4   8   8    6.10   11.60
  -8  15  -8   29.30   21.80
  -7  -8  -8   62.89   13.90
  -8  15  -8   24.70   14.70
   8 -15   8   62.29   17.00
   7   8   8   43.50   12.40
   7   8   8   42.50   13.60
 -15   7   8   35.10   20.20
  -7  16  -8  143.39   28.10
  -9  -7  -8  139.19   17.80
   9   7   8  163.68   21.40
   9   7   8  105.49   17.90
   7 -16   8  147.49   22.80
 -16   9   8  134.19   24.40
  -9  -4  -8  149.88   18.80
  -4  13  -8  131.99   19.60
  -4  13  -8  141.09   25.10
   9   4   8  217.88   23.70
   4 -13   8  176.98   23.10
 -13   9   8  176.28   24.00
   9   4   8  193.88   21.80
  -1  10  -8   35.90   19.40
  -9  -1  -8   41.30   14.50
  10  -9  -8   55.49   14.30
  -1  10  -8   47.30   13.60
   9   1   8   52.89   14.40
   1 -10   8   71.69   17.70
   9   1   8   74.39   15.40
   7  -9  -8  122.09   15.60
   2   7  -8  111.99   17.20
  -9   2  -8  124.19   19.50
  -9   2  -8  117.49   13.20
   2   7  -8  135.09   23.50
   9  -2   8  118.79   17.70
   9  -2   8  104.89   27.90
  -7   9   8  145.39   20.30
  -2  -7   8  138.79   20.10
  -9   5  -8   38.50   16.70
   4  -9  -8   50.69   11.70
  -9   5  -8   44.20   11.10
   5   4  -8   68.69   22.70
  -5  -4   8   76.69   19.40
  -4   9   8   34.50   15.10
   9  -5   8   55.89   15.70
  -9   8  -8  469.05   32.90
   1  -9  -8  486.95   23.10
  -1   9   8  483.85   27.70
  -8  -1   8  463.95   33.50
   9  -8   8  481.65   30.50
   9  -8   8  503.05   33.60
  -2  -9  -8  227.68   19.00
  -9  11  -8  227.48   30.00
  -9  11  -8  267.87   25.30
 -11   2   8  207.68   26.00
   9 -11   8  201.98   25.90
   2   9   8  233.38   21.30
  -5  -9  -8  368.66   22.80
  -9  14  -8  343.97   29.30
  -9  14  -8  347.57   35.20
   9 -14   8  424.86   32.30
   5   9   8  463.55   25.70
   5   9   8  452.65   24.60
 -14   5   8  456.65   35.90
  -8  -9  -8  118.99   16.70
  -9  17  -8   93.29   24.00
 -17   8   8  110.59   24.70
   8   9   8  132.79   16.70
   8   9   8  132.19   17.60
   9 -17   8  103.19   19.80
 -10  -8  -8  194.28   24.80
  -8  18  -8  233.58   34.10
   8 -18   8  232.78   29.80
  10   8   8  234.88   25.90
  10   8   8  241.28   23.80
 -18  10   8  224.08   29.90
  -5  15  -8   47.20   21.70
 -10  -5  -8   20.10   13.80
  10   5   8   26.00   12.70
 -15  10   8   25.60   17.70
  10   5   8   11.50   14.00
   5 -15   8   25.20   16.40
  -2  12  -8   19.50   19.10
 -10  -2  -8   17.00   13.90
  -2  12  -8   35.20   14.20
   2 -12   8   45.70   16.80
  10   2   8   28.10   13.30
 -12  10   8   45.30   18.60
  10   2   8   29.80   12.90
   9 -10  -8   41.60   12.30
   1   9  -8   40.40   14.10
 -10   1  -8   20.70    8.10
 -10   1  -8   25.90   15.20
   1   9  -8   29.90   18.60
  10  -1   8   12.60   13.10
  -9  10   8   19.60   15.70
  -1  -9   8   42.40   16.50
 -10   4  -8  180.88   18.10
   4   6  -8  159.08   19.50
 -10   4  -8  194.78   26.00
   4   6  -8  210.58   26.90
   6 -10  -8  173.48   18.80
  10  -4   8  117.19   23.20
  -6  10   8  200.28   21.40
  -4  -6   8  169.78   22.70
  10  -4   8  180.38   21.70
 -10   7  -8 1161.98   47.90
   3 -10  -8 1204.48   36.00
 -10   7  -8 1314.27   43.30
  -7  -3   8 1197.68   50.79
  10  -7   8 1234.38   49.30
  -3  10   8 1289.57   43.40
  10  -7   8 1290.87   45.50
 -10  10  -8 1696.33   54.59
   0 -10  -8 1727.23   43.60
 -10  10  -8 1675.83   60.29
  10 -10   8 1658.63   53.89
   0  10   8 1676.13   48.20
  10 -10   8 1592.74   59.99
 -10   0   8 1687.73   59.39
 -10  13  -8  580.54   38.80
  -3 -10  -8  547.15   24.20
 -10  13  -8  498.05   32.10
   3  10   8  530.35   26.90
  10 -13   8  543.45   34.80
 -13   3   8  632.84   39.50
 -10  16  -8  844.62   48.70
  -6 -10  -8  832.22   31.40
 -16   6   8  848.12   47.80
   6  10   8  880.41   33.40
  10 -16   8  810.82   41.10
   6  10   8  867.21   33.90
 -10  19  -8  405.86   44.90
  -9 -10  -8  370.46   26.80
 -10  19  -8  373.86   45.60
  10 -19   8  393.16   35.20
   9  10   8  369.26   27.80
 -19   9   8  396.06   40.90
   9  10   8  423.76   25.20
  20 -11  -8   47.80   15.20
  -9  20  -8   28.90   23.80
 -11  -9  -8   46.60   16.90
  11   9   8   12.00   16.30
   9 -20   8   54.49   20.30
  11   9   8   43.00   14.10
 -20  11   8   53.59   27.30
  -6  17  -8   45.40   23.80
 -11  -6  -8   34.30   15.60
   6 -17   8   -2.50   15.80
  11   6   8   30.10   14.80
  11   6   8    2.00   13.20
 -17  11   8   28.30   20.00
  -3  14  -8   94.39   24.30
 -11  -3  -8  104.29   19.00
  11   3   8   93.19   19.60
   3 -14   8  134.69   21.30
  11   3   8  114.59   16.90
 -14  11   8   94.69   22.30
  11 -11  -8   67.29   14.40
   0  11  -8   70.19   20.70
   0  11  -8   84.89   18.80
 -11   0  -8   42.40   16.50
 -11  11   8   55.89   22.40
  11   0   8   88.49   17.20
   0 -11   8   40.50   15.80
  11   0   8   55.29   15.80
   3   8  -8  108.49   18.30
   3   8  -8  113.99   22.70
 -11   3  -8  108.39   13.10
   8 -11  -8  107.89   14.00
  11  -3   8   94.09   18.60
  11  -3   8   91.39   17.60
  -3  -8   8  103.39   19.20
  -8  11   8  151.28   20.80
 -11   6  -8  859.81   41.50
   6   5  -8  819.12   37.70
 -11   6  -8  857.01   34.00
   5 -11  -8  812.42   28.20
  -5  11   8  855.11   36.40
  11  -6   8  830.92   41.40
  -6  -5   8  829.72   41.70
  11  -6   8  852.61   36.90
 -11   9  -8  324.77   25.00
 -11   9  -8  249.97   30.20
   2 -11  -8  269.37   16.90
  11  -9   8  264.57   27.60
  11  -9   8  262.57   26.80
  -9  -2   8  238.38   27.40
  -2  11   8  296.07   23.90
  -1 -11  -8  214.98   16.50
 -11  12  -8  230.88   25.60
 -11  12  -8  270.87   30.90
 -12   1   8  267.77   33.00
  11 -12   8  254.27   26.50
   1  11   8  269.27   22.20
 -11  15  -8  127.69   24.70
  -4 -11  -8  134.69   17.10
  11 -15   8   93.79   18.70
   4  11   8  112.29   16.00
 -15   4   8  100.99   24.00
 -11  18  -8  183.38   32.60
 -11  18  -8  177.28   24.90
  -7 -11  -8  158.08   20.30
   7  11   8  140.09   16.10
  11 -18   8  139.39   23.10
   7  11   8  145.69   17.70
 -18   7   8  127.09   24.50
 -11  21  -8  304.47   37.90
 -11  21  -8  236.68   33.60
 -10 -11  -8  302.37   26.70
  21 -10  -8  322.07   29.30
  10  11   8  311.07   24.90
  10  11   8  350.86   29.90
  11 -21   8  371.66   35.20
 -21  10   8  383.26   44.20
 -10  22  -8   54.19   23.40
 -12 -10  -8   52.29   17.80
 -10  22  -8   35.40   29.30
  22 -12  -8   58.59   17.40
  10 -22   8   50.79   21.50
  12  10   8   52.89   15.70
 -22  12   8   93.79   28.70
  12  10   8   58.09   22.50
  -7  19  -8  166.68   31.20
  19 -12  -8  206.48   23.50
 -12  -7  -8  198.18   27.30
 -19  12   8  244.68   32.60
   7 -19   8  191.18   24.80
  12   7   8  229.88   24.40
 -12  -4  -8  119.49   20.70
  -4  16  -8  100.49   24.60
  12   4   8  152.08   22.00
   4 -16   8  188.58   24.40
  12   4   8  137.69   17.50
 -16  12   8  152.18   26.40
 -12  -1  -8   28.50   15.10
  -1  13  -8   42.70   20.80
 -13  12   8   44.80   19.20
  12   1   8   33.90   15.60
   1 -13   8   65.69   19.30
  12   1   8   60.99   15.30
 -12   2  -8   39.60    9.60
   2  10  -8   22.10   13.60
 -12   2  -8   37.80   21.00
  10 -12  -8   36.00   11.60
   2  10  -8   51.69   20.50
  12  -2   8   19.60   14.10
 -10  12   8   37.00   17.10
  -2 -10   8   54.89   16.90
  12  -2   8   31.80   15.80
   5   7  -8   12.80   17.90
   7 -12  -8   -0.10    8.50
 -12   5  -8    3.30    9.80
   5   7  -8   -5.00   12.50
 -12   5  -8  -16.80   13.30
  12  -5   8   -4.20   13.10
  -7  12   8    3.30   13.40
  12  -5   8   -0.80   13.40
  -5  -7   8   -4.20   14.20
   4 -12  -8   28.80    8.20
 -12   8  -8   32.40   17.50
  12  -8   8   15.50   14.20
  -8  -4   8   -5.80   14.60
  12  -8   8   -9.40   13.40
  -4  12   8   12.60   12.90
   1 -12  -8  301.07   16.00
 -12  11  -8  281.27   27.00
 -12  11  -8  323.67   33.00
  -1  12   8  344.67   24.00
 -11  -1   8  368.36   32.90
  12 -11   8  346.97   28.60
  12 -11   8  362.16   31.60
 -12  14  -8  529.95   39.10
  -2 -12  -8  465.05   20.30
 -12  14  -8  409.26   31.30
 -14   2   8  458.75   39.90
   2  12   8  483.95   26.20
  12 -14   8  474.15   34.20
  -5 -12  -8  302.07   20.50
 -12  17  -8  335.97   37.90
   5  12   8  326.17   23.30
   5  12   8  341.87   21.50
 -17   5   8  361.66   39.10
  12 -17   8  328.57   31.80
 -12  20  -8    4.70   23.80
 -12  20  -8   80.89   22.70
  -8 -12  -8   34.70   13.20
   8  12   8   41.70   13.80
 -20   8   8   31.20   24.10
  12 -20   8   27.70   18.10
   8  12   8   23.40   13.90
 -12  23  -8   -2.10   29.70
 -12  23  -8   82.09   25.10
  12 -23   8   15.10   20.90
 -23  11   8   34.80   27.30
  11  12   8   32.40   18.30
  11  12   8   36.00   14.50
 -11  24  -8   56.89   33.30
  24 -13  -8   16.20   25.70
 -11  24  -8   53.59   22.70
  13  11   8   66.79   22.80
  11 -24   8   82.29   26.20
 -24  13   8   74.89   31.50
  13  11   8   82.99   17.40
  21 -13  -8  172.98   20.50
  -8  21  -8  218.68   34.90
 -13  -8  -8  132.19   25.20
  -8  21  -8  140.89   25.30
   8 -21   8  220.98   27.90
 -21  13   8  212.98   34.10
  13   8   8  281.07   31.80
  13   8   8  219.58   25.40
  -5  18  -8  500.55   47.10
  18 -13  -8  458.95   26.90
 -18  13   8  466.85   41.90
   5 -18   8  503.75   37.70
  13   5   8  469.25   29.20
  13   5   8  459.95   33.70
  -2  15  -8   24.60   20.70
   2 -15   8   52.09   18.60
 -15  13   8   41.00   20.70
  13   2   8   44.00   16.10
  13   2   8   50.29   14.30
 -13   1  -8   12.00    6.80
   1  12  -8   -5.90   18.30
 -13   1  -8   -4.60   16.00
  12 -13  -8   12.20   11.80
  13  -1   8    0.00   16.00
  -1 -12   8  -22.10   14.70
 -12  13   8    8.40   16.70
  13  -1   8   -1.00   14.40
   4   9  -8  117.19   23.90
   4   9  -8   74.29   18.40
 -13   4  -8   82.09   12.60
   9 -13  -8   84.69   12.30
 -13   4  -8   84.59   18.50
  13  -4   8  101.19   19.10
  -4  -9   8   93.29   19.00
  -9  13   8  128.09   20.50
  13  -4   8  116.69   18.20
 -13   7  -8  731.43   40.10
   7   6  -8  703.73   36.80
 -13   7  -8  748.13   32.50
   6 -13  -8  722.73   23.10
  -7  -6   8  613.94   38.90
  -6  13   8  676.73   32.90
  13  -7   8  616.94   33.50
  13  -7   8  626.24   37.20
 -13  10  -8  629.34   32.80
   3 -13  -8  538.35   18.40
 -13  10  -8  564.84   38.40
 -10  -3   8  498.25   38.10
  13 -10   8  597.24   33.60
  -3  13   8  561.24   29.00
  13 -10   8  505.75   35.80
 -13  13  -8 1256.67   47.90
   0 -13  -8 1213.08   30.60
 -13  13  -8 1206.58   53.99
  13 -13   8 1377.06   57.19
 -13   0   8 1400.86   56.69
   0  13   8 1442.86   43.20
  13 -13   8 1460.05   51.59
 -13  16  -8 1408.96   61.29
  -3 -13  -8 1395.26   36.20
  13 -16   8 1490.25   53.89
   3  13   8 1409.76   41.90
 -16   3   8 1445.76   60.99
 -13  19  -8  424.36   46.00
 -13  19  -8  454.75   37.70
 -19   6   8  435.96   47.60
  13 -19   8  459.75   35.60
   6  13   8  462.95   25.30
   6  13   8  468.95   25.90
 -13  22  -8  277.37   32.30
 -13  22  -8  364.86   46.40
  13 -22   8  396.86   38.70
   9  13   8  375.76   24.70
 -22   9   8  370.26   47.10
   9  13   8  354.96   28.40
  25 -12  -8   79.49   22.00
 -13  25  -8   40.60   34.50
  13 -25   8   76.89   27.70
  12  13   8   83.39   22.30
  12  13   8   57.39   16.10
 -25  12   8   74.69   27.90
  -9  23  -8   -3.00   22.60
  23 -14  -8    5.90   15.60
 -14  -9  -8   44.30   19.50
  -9  23  -8    0.50   30.80
  14   9   8   61.19   16.90
   9 -23   8   75.69   24.30
 -23  14   8   32.80   29.50
  14   9   8  -18.20   19.40
  -6  20  -8   19.10   27.40
 -14  -6  -8   31.00   18.90
  20 -14  -8   23.60   16.30
  -6  20  -8   44.80   26.20
   6 -20   8   47.00   20.70
  14   6   8   42.40   16.30
 -20  14   8   20.30   24.20
  14   6   8    6.30   17.00
  17 -14  -8  107.49   14.90
  -3  17  -8   92.19   28.40
 -14  -3  -8   92.29   20.20
  14   3   8   97.99   17.20
  14   3   8   51.49   16.80
   3 -17   8  111.19   22.00
 -14   0  -8   27.70   16.60
  14 -14  -8    0.80    8.60
   0  14  -8   28.20   21.00
   0 -14   8  -13.40   16.10
  14   0   8   16.40   14.90
 -14   3  -8  114.49   21.60
 -14   3  -8  107.19   12.80
  11 -14  -8  110.09   13.90
   3  11  -8   42.00   20.30
  14  -3   8   94.39   20.30
  -3 -11   8  126.79   21.50
  14  -3   8  109.79   18.00
 -14   6  -8  263.27   30.00
   8 -14  -8  233.58   15.10
 -14   6  -8  239.28   21.50
  14  -6   8  210.38   26.50
  -6  -8   8  226.88   28.30
  -8  14   8  230.78   23.50
  14  -6   8  221.28   28.10
   5 -14  -8  365.26   13.00
 -14   9  -8  386.46   27.30
 -14   9  -8  359.06   33.00
  -9  -5   8  420.56   35.50
  -5  14   8  416.66   27.10
  14  -9   8  390.26   33.00
  14  -9   8  411.16   30.20
   2 -14  -8  472.95   14.40
 -14  12  -8  486.35   38.00
 -14  12  -8  507.55   31.60
  14 -12   8  507.45   33.10
  -2  14   8  522.15   28.80
 -12  -2   8  527.55   38.60
  14 -12   8  515.65   37.00
 -14  15  -8  136.09   26.30
   1  14   8  150.58   16.70
  14 -15   8  144.29   21.80
 -15   1   8  155.28   27.10
 -14  18  -8  304.07   39.70
 -14  18  -8  247.28   32.10
   4  14   8  221.98   22.10
 -18   4   8  274.67   33.90
  14 -18   8  248.78   31.90
 -14  21  -8  198.68   32.30
 -14  21  -8  270.37   31.20
 -21   7   8  176.88   33.90
   7  14   8  292.37   24.10
   7  14   8  245.38   21.90
  14 -21   8  235.58   28.60
  24 -10  -8  127.39   23.30
 -14  24  -8   83.19   34.20
 -14  24  -8   57.39   23.00
 -24  10   8  106.19   35.70
  10  14   8  122.19   16.10
  14 -24   8  139.49   26.40
  10  14   8  125.59   21.40
  25 -15  -8   10.30   17.10
 -10  25  -8   29.40   31.60
  15  10   8   83.09   19.80
 -25  15   8   17.50   31.00
  15  10   8   31.70   24.10
  10 -25   8   50.79   25.60
  22 -15  -8    8.20   14.20
  -7  22  -8   12.10   30.70
 -15  -7  -8   56.29   20.80
  -7  22  -8   10.30   22.90
  15   7   8   52.49   16.90
  15   7   8   48.60   21.30
   7 -22   8   37.40   23.80
 -15  -4  -8   46.90   19.20
  -4  19  -8   52.59   28.50
  19 -15  -8   28.50   12.70
   4 -19   8   38.30   18.90
  15   4   8   58.19   17.80
  15   4   8   61.79   18.80
  16 -15  -8   -1.30    9.20
  -1  16  -8  -24.60   22.60
 -15  -1  -8    6.40   16.80
  15   1   8   18.40   16.10
  15   1   8    3.20   17.50
   1 -16   8   32.10   18.70
 -15   2  -8   17.30    8.10
  13 -15  -8   -0.60   10.80
  13 -15  -8    8.90    7.80
 -15   2  -8   12.90   16.60
   2  13  -8    2.40   19.90
  15  -2   8    1.10   14.90
  15  -2   8  -13.20   13.90
  -2 -13   8   22.20   17.20
 -15   5  -8   58.09   17.10
 -15   5  -8   44.10   12.30
   5  10  -8   59.79   22.80
  10 -15  -8   33.10    6.60
  10 -15  -8   35.30    9.20
  -5 -10   8   40.80   19.00
  15  -5   8   38.20   16.30
  15  -5   8   58.29   18.30
 -15   8  -8   26.30   18.10
  15  -8   8   21.90   14.80
  15  -8   8   29.60   16.50
  -8  -7   8   54.89   20.20
 -15  11  -8   61.39   20.70
 -15  11  -8   94.59   17.60
  -4  15   8   81.29   16.30
  15 -11   8   42.00   17.70
  15 -11   8   89.09   19.70
 -11  -4   8   60.29   20.60
 -15  14  -8  139.19   25.40
  15 -14   8  216.08   25.90
 -14  -1   8  176.18   27.20
  -1  15   8  173.68   22.60
  15 -14   8  215.78   28.20
 -15  17  -8  389.26   41.20
 -17   2   8  457.05   42.10
  15 -17   8  485.85   35.50
   2  15   8  474.75   25.90
 -15  20  -8   77.09   21.30
 -15  20  -8  108.69   29.90
  15 -20   8  140.79   25.10
 -20   5   8  118.99   29.50
   5  15   8  154.28   16.40
 -15  23  -8  119.89   26.20
  23  -8  -8  101.59   22.00
 -15  23  -8  124.89   33.70
   8  15   8  101.59   17.00
   8  15   8  112.69   15.40
  15 -23   8   86.49   24.70
 -23   8   8  112.59   31.50
  24 -16  -8  140.09   20.40
  -8  24  -8  101.69   30.10
  -8  24  -8  115.59   35.90
 -16  -8  -8  136.19   24.50
  16   8   8  164.98   27.00
   8 -24   8  149.88   28.90
  16   8   8  198.18   36.30
 -16  -5  -8  118.19   23.60
  -5  21  -8   80.19   31.00
  21 -16  -8  100.39   18.80
  -5  21  -8  114.79   25.60
  16   5   8  102.59   23.20
   5 -21   8  104.79   25.20
  -2  18  -8  109.19   29.60
 -16  -2  -8  126.69   23.50
  18 -16  -8  113.59   15.20
  16   2   8   81.89   19.60
   2 -18   8  155.68   24.70
  16   2   8  150.98   20.80
 -16   1  -8   -5.20   16.60
  15 -16  -8   -9.90    8.20
   1  15  -8   17.20   20.80
  16  -1   8   11.50   14.70
  -1 -15   8    5.50   17.20
  16  -1   8   -9.20   16.50
 -16   4  -8   57.79   11.60
   4  12  -8   65.59   25.10
  12 -16  -8   37.90    7.40
  12 -16  -8   60.19   10.50
 -16   4  -8   31.60   17.80
  16  -4   8   91.89   19.10
  -4 -12   8   81.89   20.60
  16  -4   8   38.70   18.20
 -16   7  -8  164.48   24.90
 -16   7  -8  146.89   18.00
  16  -7   8  135.49   21.60
  -7  -9   8  163.68   25.20
  16  -7   8   96.69   21.90
 -16  10  -8  731.53   42.60
 -16  10  -8  691.63   34.90
  16 -10   8  717.63   44.00
  16 -10   8  742.73   38.10
 -10  -6   8  735.23   43.90
 -16  13  -8 1606.54   62.79
 -16  13  -8 1619.94   55.59
  16 -13   8 1538.05   62.39
  16 -13   8 1633.04   55.09
  -3  16   8 1592.84   47.10
 -13  -3   8 1531.95   61.39
 -16  16  -8  556.94   43.20
  16 -16   8  511.05   38.10
 -16   0   8  613.84   44.50
   0  16   8  545.65   27.60
 -16  19  -8 1028.60   59.29
 -16  19  -8  911.91   47.80
  16 -19   8 1093.79   49.40
 -19   3   8 1071.09   58.09
   3  16   8 1049.00   35.00
 -16  22  -8  536.65   53.69
 -16  22  -8  425.46   43.10
  22  -6  -8  564.94   37.50
 -22   6   8  577.94   53.99
   6  16   8  568.44   25.60
  16 -22   8  597.84   42.50
   6  16   8  557.04   26.30
  25  -9  -8  102.59   24.30
   9  16   8   93.89   13.50
  16 -25   8  103.29   26.70
 -25   9   8   42.60   27.80
  -6  23  -8   64.09   21.20
  23 -17  -8   24.80   16.20
 -17  -6  -8   32.40   22.40
  -6  23  -8   35.20   32.70
  17   6   8   16.80   18.50
  17   6   8   -6.20   22.00
   6 -23   8   43.80   24.00
  -3  20  -8   31.90   23.10
 -17  -3  -8   91.59   23.20
  20 -17  -8   56.79   13.90
  -3  20  -8  129.89   29.30
   3 -20   8  114.19   25.40
  17   3   8   70.69   22.30
  17   3   8   72.49   19.20
  17 -17  -8   67.29   11.20
   0  17  -8   69.19   27.20
 -17   0  -8   45.30   19.90
   0 -17   8   72.09   21.20
  17   0   8   47.50   18.90
  17   0   8   60.59   17.50
   3  14  -8  127.79   31.10
 -17   3  -8  132.59   15.20
 -17   3  -8  158.08   24.90
  14 -17  -8  130.29   16.60
  14 -17  -8  121.89   12.20
  -3 -14   8  132.39   23.40
  17  -3   8  161.08   25.10
  17  -3   8  151.38   22.20
 -17   6  -8    9.50   19.30
 -17   6  -8   15.70   11.90
  17  -6   8   -9.40   16.20
  -6 -11   8   36.00   19.30
  17  -6   8   38.20   16.60
 -17   9  -8   95.79   16.60
 -17   9  -8   96.79   23.00
  17  -9   8  165.18   25.90
  17  -9   8  126.49   21.00
  -9  -8   8  156.58   24.80
 -17  12  -8  266.37   27.70
 -17  12  -8  321.87   35.10
  17 -12   8  295.87   33.20
  17 -12   8  353.76   37.30
 -12  -5   8  362.96   37.40
 -17  15  -8  295.77   38.30
  17 -15   8  433.76   33.80
 -15  -2   8  308.67   38.50
  17 -15   8  343.27   37.60
  -2  17   8  373.46   25.60
 -17  18  -8  113.19   21.30
 -17  18  -8  104.99   26.90
 -18   1   8   80.59   26.70
  17 -18   8  135.09   23.30
   1  17   8  103.29   16.00
 -17  21  -8  147.89   23.80
 -17  21  -8  179.08   33.70
   4  17   8  137.29   15.60
 -21   4   8  148.69   33.60
  17 -21   8  191.68   27.00
 -17  24  -8   81.09   38.60
  24  -7  -8  128.69   24.30
 -17  24  -8   86.99   34.90
 -24   7   8   94.29   33.00
  17 -24   8  131.69   25.30
   7  17   8  139.79   15.70
   7  17   8  153.48   19.30
  -4  22  -8   29.90   24.20
  22 -18  -8   50.69   15.50
  -4  22  -8   30.50   33.30
 -18  -4  -8   55.89   23.50
  18   4   8   70.89   23.30
  18   4   8   22.40   18.60
   4 -22   8   23.00   23.50
 -18  -1  -8   18.60   21.50
  -1  19  -8   16.50   21.70
  -1  19  -8   53.99   30.30
  19 -18  -8   15.20   11.20
  18   1   8   -3.60   16.70
  18   1   8   15.20   20.50
   1 -19   8   30.20   21.80
   2  16  -8   68.79   29.20
 -18   2  -8   63.39   21.50
   2  16  -8   48.70   28.80
  16 -18  -8   82.39   11.00
  18  -2   8  101.09   19.30
  -2 -16   8   99.69   23.10
  18  -2   8  101.59   22.30
   5  13  -8  391.86   44.50
 -18   5  -8  339.17   35.40
 -18   5  -8  328.87   22.80
  18  -5   8  323.67   34.00
  18  -5   8  361.96   32.30
  -5 -13   8  378.76   36.60
 -18   8  -8  159.48   25.40
  -8 -10   8  141.39   24.70
  18  -8   8  140.39   24.50
  18  -8   8  139.29   22.10
 -18  11  -8  295.27   27.30
 -18  11  -8  233.08   29.90
  18 -11   8  256.17   32.20
 -11  -7   8  220.58   30.70
  18 -11   8  192.88   23.70
  18 -14   8  261.87   33.90
  18 -14   8  275.27   30.20
 -14  -4   8  304.17   38.80
 -18  17  -8  135.99   22.20
 -18  17  -8  150.38   31.10
 -17  -1   8  193.08   31.20
  -1  18   8  149.09   17.60
  18 -17   8  148.49   24.60
  18 -17   8  151.48   27.50
 -18  20  -8  209.88   35.30
 -18  20  -8  190.58   27.60
   2  18   8  216.58   21.70
 -20   2   8  213.68   35.80
  18 -20   8  190.98   25.80
  18 -20   8  158.18   31.00
 -18  23  -8   42.70   22.00
 -18  23  -8   19.70   31.80
  23  -5  -8   44.60   21.70
   5  18   8   72.89   13.50
  18 -23   8   39.40   22.70
 -23   5   8   11.30   29.40
 -19  -5  -8   94.39   27.00
  24 -19  -8   64.39   18.20
  19   5   8   73.29   22.70
   5 -24   8   89.59   27.30
  21 -19  -8  162.68   22.30
  -2  21  -8  192.58   36.00
 -19  -2  -8  180.28   30.10
  -2  21  -8  182.48   31.50
   2 -21   8  229.78   31.40
  19   2   8  166.88   28.50
  19   2   8  188.08   24.70
  18 -19  -8   15.00    9.50
   1  18  -8   44.40   22.50
   1  18  -8   16.30   27.30
 -19   1  -8   20.30   22.10
  19  -1   8   34.90   22.90
  -1 -18   8   39.10   22.60
  19  -1   8   23.90   16.70
   4  15  -8   51.59   27.70
 -19   4  -8    6.10   10.70
  15 -19  -8   29.80    8.10
   4  15  -8   30.10   20.00
 -19   4  -8    2.10   20.40
  -4 -15   8   28.40   19.70
  19  -4   8   44.90   20.20
  19  -4   8   29.30   18.20
 -19   7  -8  111.29   16.30
 -19   7  -8  108.79   22.90
  -7 -12   8  134.29   24.50
  19  -7   8  123.99   22.90
  19  -7   8  129.49   23.70
 -19  10  -8  346.27   28.40
 -19  10  -8  355.16   38.10
 -10  -9   8  281.97   36.50
  19 -10   8  322.57   31.70
  19 -10   8  329.47   37.10
 -13  -6   8  464.55   42.00
  19 -13   8  419.76   40.60
  19 -13   8  420.96   36.50
 -19  16  -8  897.61   51.89
 -19  16  -8  724.73   47.50
  19 -16   8  949.51   46.50
 -16  -3   8  971.60   54.69
 -19  19  -8  785.22   45.50
 -19  19  -8  814.12   55.69
  19 -19   8  864.81   53.09
  19 -19   8  791.42   46.10
   0  19   8  757.32   31.60
 -19   0   8  851.41   54.09
 -19  22  -8  152.18   27.00
 -19  22  -8  168.38   32.70
   3  19   8  236.58   21.20
 -22   3   8  226.58   35.40
  19 -22   8  216.88   27.90
  -3  23  -8   80.69   36.40
 -20  -3  -8   94.99   27.20
  23 -20  -8   59.19   16.60
  20   3   8   78.29   27.50
   3 -23   8   57.09   27.30
  20   3   8   73.69   22.70
 -20   0  -8  233.68   32.20
   0  20  -8  136.49   26.80
   0  20  -8  208.28   38.20
  20 -20  -8  211.38   20.00
  20   0   8  222.88   30.90
   0 -20   8  256.27   31.60
  20   0   8  300.07   34.60
  17 -20  -8   82.89    9.70
   3  17  -8   57.59   31.50
 -20   3  -8  100.49   12.30
 -20   3  -8   87.19   24.70
  17 -20  -8   74.99   11.60
   3  17  -8   98.79   25.00
  -3 -17   8  105.69   25.80
  20  -3   8  124.59   24.10
  20  -3   8  104.39   21.70
 -20   6  -8   86.69   23.20
   6  14  -8   70.99   21.50
 -20   6  -8   86.09   15.00
  20  -6   8   87.79   21.50
  20  -6   8   30.70   19.70
  -6 -14   8   69.59   23.20
 -20   9  -8  106.99   17.10
 -20   9  -8   20.80   22.50
  -9 -11   8   74.19   24.10
  20  -9   8   13.50   20.00
  20  -9   8   69.29   21.60
 -20  12  -8   37.70   16.20
 -20  12  -8   56.69   23.60
  20 -12   8   16.80   18.00
  20 -12   8   -2.80   20.80
 -12  -8   8   27.60   21.50
 -20  15  -8  102.69   26.90
  20 -15   8  108.49   25.70
 -15  -5   8  128.19   28.00
  20 -15   8  141.79   23.00
 -20  18  -8  108.59   23.80
 -20  18  -8  155.18   31.30
  20 -18   8  161.28   26.70
  20 -18   8  155.08   30.90
 -18  -2   8  142.59   30.20
  -2  20   8  225.78   24.20
 -20  21  -8  136.59   26.90
 -20  21  -8  146.69   35.10
  20 -21   8  115.79   26.70
   1  20   8  199.48   22.10
 -21   1   8  165.28   33.70
  20 -21   8  145.69   27.80
  -1  22  -8    8.00   34.20
  22 -21  -8   16.20   13.70
 -21  -1  -8   22.70   27.10
   1 -22   8   45.10   24.70
  21   1   8    0.90   21.10
  21   1   8   73.99   26.70
   2  19  -8   77.99   32.40
  19 -21  -8   74.59   11.30
   2  19  -8   17.80   24.90
 -21   2  -8   79.59   27.10
  21  -2   8   76.19   21.60
  -2 -19   8  100.29   26.50
  21  -2   8  107.29   26.50
   5  16  -8  129.69   36.00
 -21   5  -8   94.39   26.80
 -21   5  -8   80.19   14.00
   5  16  -8   82.79   25.10
  21  -5   8   76.29   24.90
  21  -5   8  101.29   22.80
  -5 -16   8   64.69   25.40
   8  13  -8   84.39   23.60
 -21   8  -8  163.98   28.20
 -21   8  -8  152.28   21.60
  21  -8   8  118.39   23.40
  21  -8   8  101.69   22.90
  -8 -13   8  199.78   31.70
 -21  11  -8  323.77   30.30
 -21  11  -8  275.27   33.60
  21 -11   8  325.57   40.00
 -11 -10   8  337.27   36.80
  21 -11   8  310.17   34.30
 -21  14  -8  227.38   33.50
  21 -14   8  160.88   29.90
  21 -14   8  213.88   27.30
 -14  -7   8  193.58   30.50
 -21  17  -8  148.59   21.70
 -21  17  -8  145.19   32.70
 -17  -4   8  195.78   33.60
  21 -17   8  169.98   27.10
  21 -17   8  114.19   27.30
 -21  20  -8  127.69   36.90
 -21  20  -8  189.48   28.80
 -20  -1   8  136.99   33.80
  21 -20   8   76.19   25.70
  -1  21   8  177.68   22.90
  21 -20   8  131.79   26.60
  21 -22  -8   20.80   11.10
   1  21  -8   22.50   37.20
   1  21  -8  -55.29   38.20
 -22   1  -8   -6.50   27.30
  22  -1   8   39.90   25.80
  22  -1   8   72.59   23.40
  -1 -21   8  -17.80   23.80
 -22   4  -8   22.80   25.60
   4  18  -8   -6.00   23.60
 -22   4  -8    0.00    9.80
   4  18  -8   45.50   32.10
  22  -4   8   51.29   21.50
  22  -4   8   27.10   23.80
  -4 -18   8   33.20   25.40
 -22   7  -8   20.10   15.50
   7  15  -8   33.50   21.90
 -22   7  -8    6.70   23.40
  -7 -15   8   56.99   24.00
  22  -7   8   32.90   24.20
  22  -7   8   39.00   21.80
 -22  10  -8   15.80   16.20
  10  12  -8   24.00   21.60
 -22  10  -8   57.59   25.50
 -10 -12   8   66.19   26.20
  22 -10   8   17.00   22.50
  22 -10   8   58.29   23.70
 -22  13  -8  266.17   36.50
 -13  -9   8  175.88   29.90
  22 -13   8  254.37   29.10
  22 -13   8  216.48   34.10
 -22  16  -8  565.54   47.60
 -22  16  -8  427.36   37.20
  22 -16   8  432.26   39.60
  22 -16   8  511.25   47.40
 -16  -6   8  434.16   47.50
 -22  19  -8  163.68   26.60
 -22  19  -8  168.88   35.00
 -19  -3   8  259.87   37.10
  22 -19   8  132.29   26.50
  22 -19   8  177.78   29.10
 -23   3  -8  107.89   30.90
  20 -23  -8   68.39   10.00
   3  20  -8   39.30   32.20
  -3 -20   8   67.39   27.00
  23  -3   8   58.19   28.30
  23  -3   8   82.09   24.50
   6  17  -8   82.19   31.60
 -23   6  -8   88.19   15.60
 -23   6  -8  104.59   29.00
  23  -6   8   -9.60   23.90
  23  -6   8   21.20   22.20
  -6 -17   8   92.79   28.10
 -23   9  -8   62.49   17.50
   9  14  -8    3.20   22.90
 -23   9  -8   24.10   26.80
  23  -9   8   31.30   23.60
  23  -9   8   30.80   23.00
  -9 -14   8   36.40   25.30
 -23  12  -8  -24.90   16.40
 -23  12  -8   52.49   26.00
  23 -12   8    0.90   21.40
 -12 -11   8   12.70   26.00
  23 -12   8   48.50   24.40
 -23  15  -8   93.09   30.00
 -23  15  -8  103.19   22.70
  23 -15   8   61.29   26.10
 -15  -8   8  126.39   32.20
  23 -15   8   81.79   24.90
 -23  18  -8  -40.10   27.10
 -23  18  -8   32.40   21.60
 -18  -5   8   18.90   28.80
  23 -18   8    9.60   22.80
  23 -18   8   30.50   25.10
 -24   5  -8   53.39   30.20
 -24   5  -8   37.10   11.10
  24  -5   8   54.89   24.30
  -5 -19   8   24.20   26.30
   8  16  -8  104.29   24.90
 -24   8  -8  118.79   30.20
 -24   8  -8  136.49   24.90
  24  -8   8  118.69   26.60
  24  -8   8  152.98   29.40
  -8 -16   8  166.38   33.90
 -24  11  -8   30.50   19.40
 -24  11  -8   48.30   27.70
 -11 -13   8   47.20   27.40
  24 -11   8   33.10   24.60
 -24  14  -8   67.69   27.60
 -24  14  -8  140.69   24.20
  24 -14   8  117.79   26.50
  24 -14   8  123.29   25.50
 -14 -10   8  109.69   32.80
 -24  17  -8   88.49   33.60
 -24  17  -8  160.98   26.00
 -17  -7   8  113.99   35.00
  24 -17   8  158.28   27.30
 -25  10  -8  -14.50   17.70
 -25  10  -8   -2.70   26.60
 -10 -15   8   11.40   28.30
  25 -10   8   53.49   26.40
  25 -10   8   13.30   24.60
 -25  13  -8   14.20   26.90
 -13 -12   8   74.69   33.70
  25 -13   8  -16.90   36.70
  25 -13   8   37.00   24.90
 -25  16  -8   49.70   23.40
 -25  16  -8   68.89   25.10
  25 -16   8   46.60   21.80
 -16  -9   8   26.50   30.40
   0   0  -9    5.80   15.50
   0   0   9   13.80   15.60
   2  -1  -9 1051.29   45.10
  -1  -1  -9 1033.10   43.30
  -1   2  -9 1013.50   46.10
   1   1   9  959.30   59.69
  -2   1   9  983.20   43.50
   1  -2   9  941.01   42.60
   1   1  -9  943.11   44.10
  -2   1  -9  939.71   43.50
   1  -2  -9  962.60   41.90
   2  -1   9  942.61   42.20
  -1  -1   9  946.41   43.50
  -1   2   9  901.41   45.10
  -2   4  -9 1004.70   40.20
  -2   4  -9  954.50   45.90
   4  -2  -9 1047.20   44.50
  -2  -2  -9 1012.80   41.60
   2   2   9 1031.10   43.20
   2  -4   9 1025.10   45.60
  -4   2   9  920.01   43.80
  -3   0  -9   -9.50   13.90
   0   3  -9   -5.40   10.90
   3  -3  -9   10.90   14.70
   0   3  -9  -15.60   16.40
  -3   3   9  -21.90   15.10
   0  -3   9    4.30   14.10
   3   0   9    7.30   17.80
   3   0  -9   -3.70   15.10
   0  -3  -9  -18.50   13.00
  -3   3  -9    6.70   11.40
   0   3   9    0.60   14.80
   3  -3   9   -0.80   13.90
  -3   0   9   10.90   14.20
  -3  -3  -9  114.79   19.20
   6  -3  -9  104.59   19.90
  -3   6  -9  105.99   18.00
  -3   6  -9  110.89   21.60
   3  -6   9  120.89   21.80
  -6   3   9   73.89   20.00
   3   3   9  142.49   19.90
  -1   5  -9  656.53   40.10
  -4  -1  -9  657.03   35.50
  -1   5  -9  621.64   32.80
   5  -4  -9  618.64   35.50
   1  -5   9  649.04   39.20
  -5   4   9  675.83   39.10
   4   1   9  644.74   41.80
   2  -4  -9 1120.49   43.70
  -4   2  -9 1092.19   38.00
  -4   2  -9 1078.19   46.00
  -2  -2   9 1049.59   47.20
   4  -2   9 1096.89   44.70
   5  -1  -9 1053.79   46.90
  -1  -4  -9 1086.29   42.00
  -4   5  -9 1087.69   47.50
  -4   5  -9 1042.30   41.60
   4  -5   9 1037.40   45.30
   1   4   9 1102.69   44.20
  -5   1   9 1100.09   47.60
  -4   8  -9  350.16   34.10
   8  -4  -9  356.06   33.60
  -4   8  -9  334.07   29.30
  -4  -4  -9  362.46   27.90
   4  -8   9  359.46   31.40
   4   4   9  368.46   29.90
  -8   4   9  364.76   33.60
  -5  -2  -9  206.48   23.40
   7  -5  -9  224.88   27.50
  -2   7  -9  215.18   23.60
  -2   7  -9  186.68   25.10
   5   2   9  226.88   24.10
  -7   5   9  219.08   27.00
   2  -7   9  174.18   22.80
   1   4  -9  684.53   40.50
  -5   1  -9  671.63   37.70
   4  -5  -9  612.54   34.40
   1   4  -9  692.23   34.40
  -1  -4   9  783.92   40.20
  -4   5   9  679.83   43.60
   5  -1   9  722.83   37.20
  -5   4  -9 1008.10   46.00
   1  -5  -9 1043.40   40.80
  -5   4  -9 1085.29   39.30
  -4  -1   9 1074.79   47.50
   5  -4   9 1027.70   44.10
  -1   5   9 1067.89   44.60
  -5   7  -9  611.54   39.30
  -2  -5  -9  677.23   32.60
   7  -2  -9  579.54   38.10
  -5   7  -9  552.34   32.50
   2   5   9  629.74   34.70
   5  -7   9  623.84   37.00
  -7   2   9  591.34   38.00
  -5  10  -9  381.86   30.30
  10  -5  -9  395.06   34.20
  -5  -5  -9  427.86   28.50
  -5  10  -9  402.86   35.90
   5 -10   9  336.57   32.70
   5   5   9  369.76   29.90
 -10   5   9  342.87   34.60
  -3   9  -9   58.79   15.70
  -3   9  -9   62.79   20.90
   9  -6  -9   61.19   18.50
  -6  -3  -9   44.20   16.70
   6   3   9   75.29   17.10
  -9   6   9   46.00   19.50
   3  -9   9   68.29   19.50
  -6   0  -9   15.10   14.80
   6  -6  -9    3.00   13.40
   0   6  -9  -12.70   17.00
   0   6  -9  -23.40   11.80
   6   0   9   14.50   25.10
  -6   6   9   -3.00   16.60
   0  -6   9   -2.70   15.70
  -6   3  -9   55.79   17.90
   3   3  -9   35.00   17.10
   3  -6  -9   29.50   14.60
  -6   3  -9   20.30   11.00
  -3  -3   9   25.60   16.60
   6  -3   9   52.49   17.80
  -3   6   9   13.30   15.80
   6   0  -9   -1.80   22.80
  -6   6  -9   32.70   13.70
   0  -6  -9   26.30   13.70
  -6   6  -9  -18.80   15.40
   0   6   9   -6.10   15.30
  -6   0   9   14.10   18.20
   6  -6   9   15.80   15.60
  -6   9  -9   36.70   20.30
  -6   9  -9   12.00   13.40
   9  -3  -9   50.49   19.10
  -3  -6  -9   18.60   13.30
   6  -9   9   44.10   17.20
   3   6   9   33.70   14.90
  -9   3   9    6.50   18.10
  -6  12  -9   24.80   19.50
  -6  12  -9   -6.90   18.30
  -6  -6  -9   19.00   13.80
 -12   6   9  104.79   23.50
   6   6   9   56.39   15.20
   6 -12   9   27.80   19.00
  -4  11  -9  284.57   33.30
  -7  -4  -9  233.68   26.40
 -11   7   9  300.67   35.50
   7   4   9  251.87   26.50
   7   4   9  223.18   26.60
   4 -11   9  249.68   31.30
  -1   8  -9  252.17   27.80
   8  -7  -9  288.37   27.60
  -7  -1  -9  256.47   28.20
  -1   8  -9  267.37   32.90
  -8   7   9  282.27   33.00
   1  -8   9  269.97   31.20
   7   1   9  279.37   34.90
   5  -7  -9  200.68   24.10
   2   5  -9  208.38   25.50
  -7   2  -9  238.48   19.90
   2   5  -9  191.18   27.40
   7  -2   9  197.18   23.20
  -2  -5   9  211.48   25.30
   2  -7  -9  787.72   33.90
  -7   5  -9  769.02   34.20
  -7   5  -9  794.72   41.70
   5   2  -9  788.82   43.20
   7  -5   9  868.41   40.40
  -5  -2   9  797.62   42.70
  -2   7   9  804.82   39.50
  -7   8  -9  819.72   44.60
  -7   8  -9  846.12   38.10
  -1  -7  -9  876.01   34.80
   8  -1  -9  948.21   47.10
  -8   1   9  931.41   46.90
   1   7   9  909.41   39.20
   7  -8   9  879.71   42.60
  -7  11  -9  468.45   39.40
  -4  -7  -9  439.56   26.90
  -7  11  -9  312.57   30.50
 -11   4   9  427.76   37.70
   7 -11   9  446.26   34.30
   4   7   9  438.76   29.50
  -7  -7  -9  199.88   25.00
  -7  14  -9  146.19   27.60
   7 -14   9  166.48   25.90
   7   7   9  190.58   24.30
   7   7   9  188.08   21.60
 -14   7   9  198.58   29.40
  -5  13  -9   66.99   23.50
  -8  -5  -9   64.49   15.90
   8   5   9   72.09   16.00
   5 -13   9   48.80   19.60
 -13   8   9   39.80   21.90
   8   5   9   48.50   16.10
  10  -8  -9  151.88   21.70
  -8  -2  -9  148.79   20.80
  -2  10  -9  159.58   27.90
 -10   8   9  167.58   25.40
   8   2   9  164.38   21.50
   2 -10   9  136.99   22.90
   1   7  -9  336.67   27.80
   1   7  -9  270.07   34.30
   7  -8  -9  280.07   25.90
  -7   8   9  345.57   33.60
   8  -1   9  340.47   30.30
   8  -1   9  308.17   28.70
  -1  -7   9  312.77   35.00
   4   4  -9  314.77   33.90
  -8   4  -9  271.47   22.90
   4  -8  -9  237.58   23.70
  -8   4  -9  275.97   31.40
   8  -4   9  285.57   30.30
  -4   8   9  329.67   30.90
  -4  -4   9  287.37   32.90
  -8   7  -9  896.41   45.30
  -8   7  -9  906.21   37.90
   1  -8  -9  894.11   34.90
   7   1  -9  941.81   48.30
  -1   8   9 1004.00   41.30
   8  -7   9  971.50   43.40
  -7  -1   9  949.51   47.60
  -2  -8  -9  560.54   28.20
  -8  10  -9  480.25   38.40
  -8  10  -9  531.85   33.90
   8 -10   9  533.65   35.50
 -10   2   9  562.44   39.70
   2   8   9  554.04   32.00
  -8  13  -9  238.08   30.30
  -5  -8  -9  293.87   23.90
   5   8   9  264.57   28.20
 -13   5   9  329.67   38.30
   8 -13   9  292.87   34.90
  -8  16  -9    7.20   22.50
  -8  16  -9   61.79   20.70
  -8  -8  -9   10.60   14.00
 -16   8   9   29.40   24.90
   8   8   9   38.50   16.40
   8   8   9   33.60   16.00
   8 -16   9   19.50   18.60
  -9  -6  -9  119.39   20.00
  -6  15  -9   43.80   20.00
  -6  15  -9  111.19   29.30
 -15   9   9   69.69   25.30
   6 -15   9  129.49   24.10
   9   6   9  104.49   19.50
   9   6   9  103.69   19.20
  -9  -3  -9   17.10   15.90
  -3  12  -9   40.80   20.90
   3 -12   9   25.50   19.60
   9   3   9   17.50   17.70
 -12   9   9   20.70   22.70
   9   3   9   28.90   15.20
   0   9  -9   23.90   19.10
   0   9  -9  -21.50   13.40
   9  -9  -9    3.20   13.40
  -9   9   9    3.50   18.70
   0  -9   9   14.60   16.20
   9   0   9  -14.40   14.20
   9   0   9   27.80   15.80
  -9   3  -9   53.49   12.10
  -9   3  -9   30.70   17.80
   3   6  -9   33.40   16.20
   6  -9  -9   60.49   15.10
   3   6  -9   62.09   20.80
  -3  -6   9   17.70   18.60
   9  -3   9   38.50   15.90
   9  -3   9   45.40   16.30
  -9   6  -9   54.69   20.10
   6   3  -9   58.69   20.60
   3  -9  -9   46.70   13.00
   9  -6   9   53.39   17.30
  -3   9   9    0.80   16.00
  -6  -3   9   53.89   19.10
  -9   9  -9   -4.30   17.90
  -9   9  -9   10.40   13.80
   0  -9  -9    4.70   10.90
   0   9   9    3.10   14.20
   9  -9   9   21.70   16.20
  -9   0   9   12.90   17.70
  -9  12  -9  -22.70   18.60
  -9  12  -9   10.90   14.50
  -3  -9  -9   23.20   11.30
 -12   3   9   29.10   19.20
   3   9   9   -3.20   15.10
   9 -12   9  -23.80   15.90
  -9  15  -9  114.19   22.90
  -6  -9  -9   59.79   15.10
  -9  15  -9   51.99   23.80
   9 -15   9   69.89   22.20
 -15   6   9   42.90   23.50
   6   9   9   75.99   17.20
  -9  18  -9  178.88   33.60
  -9  18  -9  136.69   26.40
  -9  -9  -9  136.59   19.60
 -18   9   9  149.69   31.90
   9   9   9  143.69   20.40
   9 -18   9  138.39   25.70
   9   9   9  126.19   20.60
  -7  17  -9   58.39   26.20
 -10  -7  -9   32.10   16.20
  -7  17  -9   49.80   22.40
  10   7   9   16.60   16.20
 -17  10   9   35.60   23.20
  10   7   9   33.10   20.30
   7 -17   9   58.89   21.70
  -4  14  -9  202.58   25.70
  -4  14  -9  208.58   33.00
 -10  -4  -9  165.18   21.60
  10   4   9  203.88   22.50
 -14  10   9  183.18   28.90
   4 -14   9  209.18   26.80
  10   4   9  179.48   23.20
 -10  -1  -9  294.67   35.50
  11 -10  -9  308.77   28.50
  -1  11  -9  321.67   38.50
  10   1   9  273.77   30.30
  10   1   9  369.76   30.90
 -11  10   9  357.46   37.60
   1 -11   9  358.46   34.90
   2   8  -9  170.58   26.40
 -10   2  -9  203.28   26.00
   8 -10  -9  164.38   22.90
 -10   2  -9  199.08   18.30
  -8  10   9  222.38   27.20
  10  -2   9  242.38   28.80
  -2  -8   9  187.88   25.70
  10  -2   9  274.57   28.40
 -10   5  -9  341.07   24.50
   5 -10  -9  284.87   22.80
 -10   5  -9  269.77   32.60
   5   5  -9  293.37   35.60
  -5  10   9  241.78   30.00
  -5  -5   9  279.37   35.20
  10  -5   9  233.68   29.60
  10  -5   9  252.87   29.40
   2 -10  -9  527.65   26.20
 -10   8  -9  572.54   39.10
 -10   8  -9  568.54   32.20
  -8  -2   9  485.75   39.70
  -2  10   9  564.34   33.50
  10  -8   9  584.74   35.60
 -10  11  -9  149.19   21.40
  -1 -10  -9  163.48   16.90
 -10  11  -9  130.29   24.00
 -11   1   9  158.68   26.80
  10 -11   9  168.28   23.80
   1  10   9  173.88   21.70
 -10  14  -9  266.07   37.40
  -4 -10  -9  341.67   23.50
 -14   4   9  322.17   37.40
  10 -14   9  335.07   34.40
   4  10   9  345.17   28.70
 -10  17  -9  231.88   27.20
 -10  17  -9  203.68   32.90
  -7 -10  -9  249.08   23.40
 -17   7   9  251.37   35.10
   7  10   9  211.58   27.30
  10 -17   9  183.88   26.80
   7  10   9  209.88   25.20
 -10  20  -9   49.10   23.90
  20 -10  -9   19.40   15.50
 -10  20  -9  -16.00   34.20
  10  10   9  100.59   21.20
 -20  10   9   77.39   30.60
  10  10   9  104.99   19.30
  10 -20   9   89.69   25.40
 -11  -8  -9  256.87   29.50
  -8  19  -9  212.48   29.50
  19 -11  -9  219.68   26.60
  -8  19  -9  178.88   34.80
  11   8   9  237.48   28.20
 -19  11   9  316.47   38.30
   8 -19   9  254.57   31.40
  11   8   9  262.57   30.60
  -5  16  -9  152.78   31.60
  -5  16  -9   91.49   22.30
  11   5   9  130.49   21.20
 -16  11   9  120.59   27.90
  11   5   9   97.69   19.90
   5 -16   9  104.99   23.40
  -2  13  -9  234.38   30.80
 -11  -2  -9  230.28   29.90
  -2  13  -9  296.27   38.50
  13 -11  -9  280.67   28.80
   2 -13   9  227.28   27.10
 -13  11   9  239.18   29.70
  11   2   9  252.87   29.00
  11   2   9  227.88   29.20
  10 -11  -9  285.87   25.90
   1  10  -9  218.88   30.80
 -11   1  -9  328.87   32.00
  11  -1   9  298.97   29.90
 -10  11   9  365.46   35.90
  11  -1   9  312.77   31.90
  -1 -10   9  365.96   35.00
 -11   4  -9  280.37   21.90
   4   7  -9  293.87   36.10
 -11   4  -9  266.87   32.80
   7 -11  -9  254.77   22.90
  11  -4   9  308.67   30.40
  11  -4   9  290.17   30.40
  -4  -7   9  253.07   33.20
 -11   7  -9  502.85   37.30
   4 -11  -9  486.15   24.60
 -11   7  -9  450.55   28.70
   7   4  -9  474.75   40.10
  -4  11   9  449.36   32.40
  11  -7   9  436.56   33.60
  -7  -4   9  456.05   38.90
  11  -7   9  457.45   35.20
 -11  10  -9  146.89   25.50
   1 -11  -9  131.19   17.10
 -11  10  -9  129.69   18.90
 -10  -1   9  113.89   25.70
  11 -10   9  153.48   24.70
  -1  11   9  155.58   20.40
 -11  13  -9  106.39   24.20
  -2 -11  -9  133.99   14.70
  11 -13   9  130.39   22.20
 -13   2   9  139.39   25.70
   2  11   9  145.29   20.40
  -5 -11  -9   58.59   13.00
 -11  16  -9   53.59   20.00
 -11  16  -9   59.59   25.20
  11 -16   9   80.79   22.00
 -16   5   9   57.29   23.40
   5  11   9   78.99   17.70
 -11  19  -9  274.17   39.80
  -8 -11  -9  236.08   24.40
 -11  19  -9  172.38   27.80
   8  11   9  286.87   28.20
  11 -19   9  296.17   38.40
   8  11   9  242.38   28.60
 -19   8   9  205.78   35.60
 -11 -11  -9  414.36   32.80
 -11  22  -9  317.57   42.10
  11  11   9  416.96   32.30
  11  11   9  474.05   44.90
  11 -22   9  402.16   44.20
  -9  21  -9  139.89   34.10
  21 -12  -9  198.08   23.60
  -9  21  -9  138.19   23.40
  12   9   9  201.58   23.20
 -21  12   9  150.28   33.50
  12   9   9  206.48   28.00
   9 -21   9  190.58   29.90
 -12  -6  -9  224.38   30.00
  -6  18  -9  221.88   38.40
  18 -12  -9  273.07   26.10
  -6  18  -9  163.88   29.90
  12   6   9  232.78   29.10
  12   6   9  196.98   26.20
 -18  12   9  209.78   32.80
   6 -18   9  198.98   28.40
  -3  15  -9   32.00   19.30
 -12  -3  -9   29.10   17.90
  -3  15  -9   67.19   26.50
   3 -15   9   74.89   22.00
 -15  12   9   94.49   26.40
  12   3   9   46.60   18.60
  12   3   9   67.89   19.10
   0  12  -9   -4.00   17.20
   0  12  -9    9.00   21.20
 -12   0  -9  -15.50   17.20
  12 -12  -9   19.30   14.50
  12   0   9    7.20   16.40
  12   0   9   -8.90   14.30
 -12  12   9  -20.80   19.40
   0 -12   9   19.40   17.50
   9 -12  -9   20.70   12.70
 -12   3  -9   -4.80   17.20
   3   9  -9   11.70   20.20
 -12   3  -9   12.00   10.30
  12  -3   9  -34.00   16.20
  -3  -9   9   34.10   18.00
  -9  12   9   18.10   18.80
  12  -3   9   19.90   17.90
 -12   6  -9   45.20   13.40
 -12   6  -9   44.10   19.50
   6 -12  -9   74.99   12.40
   6   6  -9   43.10   20.80
  -6  -6   9   26.60   18.70
  -6  12   9   31.00   17.40
  12  -6   9   56.59   17.80
 -12   9  -9   26.10   14.40
   3 -12  -9   13.50    9.80
 -12   9  -9   20.70   17.20
  -3  12   9   35.10   16.00
  -9  -3   9   16.40   19.30
  12  -9   9   37.90   18.70
  12  -9   9   15.10   16.90
   0 -12  -9    8.00    9.00
 -12  12  -9    8.20   19.00
 -12  12  -9  -19.50   14.20
 -12   0   9   -2.80   20.00
  12 -12   9    2.60   16.40
   0  12   9    4.20   15.30
 -12  15  -9   46.30   22.00
  -3 -12  -9   53.59   11.50
 -12  15  -9   39.00   18.90
  12 -15   9   43.20   20.70
 -15   3   9   54.19   23.90
   3  12   9   30.90   15.70
 -12  18  -9   82.19   24.30
 -12  18  -9   89.79   28.10
  -6 -12  -9   50.99   13.60
 -18   6   9  107.09   29.30
   6  12   9   78.19   18.20
  12 -18   9   42.70   21.60
  -9 -12  -9  204.28   26.20
 -12  21  -9  204.78   27.30
 -12  21  -9  171.48   37.10
   9  12   9  229.78   28.70
 -21   9   9  205.98   37.40
   9  12   9  210.68   24.40
  12 -21   9  231.28   30.50
 -13  -7  -9  -17.80   18.10
  -7  20  -9   36.80   33.80
  -7  20  -9   -5.50   23.80
  20 -13  -9  -17.80   14.80
   7 -20   9  -29.60   21.70
  13   7   9  -11.30   19.80
 -20  13   9   -6.80   28.40
  -4  17  -9  101.19   29.50
  -4  17  -9   34.40   21.80
  17 -13  -9   63.09   14.80
 -13  -4  -9   61.69   20.60
   4 -17   9   73.79   24.10
 -17  13   9  107.89   29.50
  13   4   9   69.89   19.60
  13   4   9   18.30   19.30
  -1  14  -9  251.57   33.10
 -13  -1  -9  255.97   32.50
  14 -13  -9  285.47   28.10
  -1  14  -9  296.57   34.00
  13   1   9  320.97   29.70
 -14  13   9  272.37   31.90
  13   1   9  363.26   33.30
   1 -14   9  283.87   35.00
   2  11  -9  252.27   35.50
 -13   2  -9  229.78   16.90
 -13   2  -9  288.97   34.00
  11 -13  -9  238.08   23.60
   2  11  -9  296.37   32.90
 -11  13   9  262.77   30.20
  -2 -11   9  281.87   34.10
  13  -2   9  290.77   31.20
  13  -2   9  233.58   31.00
   5   8  -9   89.09   24.90
   8 -13  -9   95.29   13.90
 -13   5  -9  127.49   16.20
 -13   5  -9  109.59   22.10
  13  -5   9  101.49   21.50
  -5  -8   9   82.49   21.30
  -8  13   9  116.69   26.30
  13  -5   9   85.89   21.50
 -13   8  -9  342.57   27.70
 -13   8  -9  441.16   36.90
   5 -13  -9  367.36   18.90
  13  -8   9  447.66   36.60
  -8  -5   9  338.17   38.10
  13  -8   9  333.47   31.90
  -5  13   9  410.36   33.00
   2 -13  -9   92.49   10.50
 -13  11  -9   65.29   17.20
 -13  11  -9   89.79   24.80
 -11  -2   9   78.49   23.80
  13 -11   9   88.89   21.10
  -2  13   9   78.29   18.80
  13 -11   9   99.29   21.90
 -13  14  -9  102.09   27.30
  -1 -13  -9   89.39   11.30
 -14   1   9   43.50   25.00
   1  13   9   96.49   18.20
  13 -14   9   60.59   20.00
  -4 -13  -9   31.80   11.20
 -13  17  -9   54.49   20.70
 -13  17  -9   53.69   27.30
   4  13   9   31.50   16.40
 -17   4   9   29.50   25.10
  13 -17   9   43.70   20.80
 -13  20  -9   29.20   25.80
 -13  20  -9  -12.10   28.60
   7  13   9    3.00   14.80
   7  13   9    4.90   16.10
  13 -20   9    4.00   21.90
  22 -14  -9  251.47   30.60
 -14  -8  -9  251.87   28.60
  14   8   9  244.28   27.80
   8 -22   9  255.27   34.80
  14   8   9  308.87   40.40
 -22  14   9  203.28   38.10
  19 -14  -9   77.79   16.80
  -5  19  -9   43.70   23.80
 -14  -5  -9   82.29   22.40
  -5  19  -9   59.89   34.80
  14   5   9   59.49   19.70
   5 -19   9   45.70   24.20
  14   5   9   40.30   21.10
 -19  14   9   54.29   29.60
  -2  16  -9   94.19   22.50
  16 -14  -9   81.09   14.70
 -14  -2  -9  106.49   22.80
  -2  16  -9  103.29   31.40
   2 -16   9  105.09   23.40
  14   2   9   95.49   20.40
 -16  14   9   98.49   28.80
  14   2   9   67.89   21.30
   1  13  -9  208.28   33.90
   1  13  -9  207.88   26.30
  13 -14  -9  251.77   24.00
 -14   1  -9  219.68   27.70
 -13  14   9  234.98   30.60
  -1 -13   9  261.97   34.60
  14  -1   9  214.28   26.70
  14  -1   9  216.98   28.20
 -14   4  -9  233.98   28.80
   4  10  -9  249.48   32.90
 -14   4  -9  204.78   20.40
  10 -14  -9  214.48   19.80
   4  10  -9  270.67   31.70
  -4 -10   9  273.67   33.80
  14  -4   9  258.87   31.10
  14  -4   9  232.18   30.70
 -10  14   9  247.88   27.90
   7 -14  -9  217.98   15.80
   7   7  -9  205.48   30.60
 -14   7  -9  203.18   25.80
  14  -7   9  213.38   25.70
  -7  -7   9  182.28   26.70
  -7  14   9  207.38   24.90
  14  -7   9  169.58   26.60
 -14  10  -9  232.38   27.20
   4 -14  -9  199.58   12.70
 -14  10  -9  205.88   29.10
  -4  14   9  196.28   23.90
  14 -10   9  231.28   26.60
 -10  -4   9  234.08   29.80
  14 -10   9  241.48   32.70
 -14  13  -9   48.10   23.40
   1 -14  -9  101.29   11.40
 -13  -1   9  111.99   25.50
  -1  14   9  122.59   19.50
  14 -13   9  108.19   23.20
  -2 -14  -9   62.29    9.60
 -14  16  -9   52.79   21.10
 -14  16  -9   10.20   25.40
   2  14   9   38.20   17.40
  14 -16   9   31.10   21.60
 -16   2   9   10.20   23.60
 -14  19  -9   97.49   33.50
 -14  19  -9  122.69   27.40
   5  14   9   94.89   18.80
 -19   5   9  139.09   35.80
  14 -19   9  114.89   24.70
 -14  22  -9  154.98   32.10
  22  -8  -9  181.28   26.20
   8  14   9  189.68   20.40
 -22   8   9  108.99   30.50
   8  14   9  201.88   26.40
  14 -22   9  126.09   29.00
  21 -15  -9   97.89   17.80
  -6  21  -9  136.19   36.80
 -15  -6  -9   78.19   23.40
  -6  21  -9   45.30   31.80
 -21  15   9   62.29   34.80
  15   6   9   73.29   24.70
   6 -21   9   86.29   27.40
  15   6   9   80.09   22.00
  -3  18  -9   80.09   24.80
  18 -15  -9   56.09   14.00
  -3  18  -9   87.09   31.00
 -15  -3  -9   56.29   21.10
   3 -18   9  130.59   27.30
 -18  15   9   79.29   31.00
  15   3   9   76.89   21.00
  15   3   9   79.29   23.90
   0  15  -9   14.60   25.30
  15 -15  -9    1.80   10.30
   0  15  -9    7.40   19.30
  15 -15  -9   -2.00   14.40
 -15   0  -9   -1.20   20.00
  15   0   9   -5.90   19.50
 -15  15   9   -1.70   23.70
   0 -15   9    9.30   19.60
  15   0   9   15.70   16.60
   3  12  -9   28.40   25.30
  12 -15  -9   43.10   12.60
 -15   3  -9   12.40    9.60
   3  12  -9   38.80   20.50
 -15   3  -9   27.90   20.70
  12 -15  -9   45.60    9.50
  15  -3   9   50.19   18.70
  -3 -12   9   41.10   21.20
 -12  15   9   42.70   20.30
  15  -3   9   70.69   21.70
 -15   6  -9   77.79   14.40
   6   9  -9   76.19   24.40
   9 -15  -9   81.19   10.60
   6   9  -9   72.19   21.00
 -15   6  -9   99.09   22.80
  15  -6   9   50.39   19.90
  -9  15   9   89.59   20.90
  15  -6   9   67.29   20.20
  -6  -9   9   58.09   20.40
 -15   9  -9   52.19   16.10
 -15   9  -9   35.20   22.40
   6 -15  -9   47.30    6.40
  15  -9   9   29.30   18.30
  15  -9   9   62.29   22.30
  -6  15   9   68.09   19.70
  -9  -6   9   20.80   21.50
 -15  12  -9   62.49   22.20
 -15  12  -9   -3.00   14.90
 -12  -3   9   17.30   23.80
  15 -12   9   28.10   20.40
  -3  15   9   23.60   17.00
  15 -12   9   28.40   20.90
 -15  15  -9   42.30   19.60
 -15  15  -9  -19.80   22.70
  15 -15   9  -24.60   18.50
  15 -15   9  -18.90   22.10
 -15   0   9   23.50   24.30
   0  15   9   19.40   16.60
 -15  18  -9   79.19   24.50
 -15  18  -9  118.39   31.80
 -18   3   9  156.88   32.90
   3  15   9   75.49   18.20
  15 -18   9   77.99   23.00
 -15  21  -9   95.19   24.40
 -15  21  -9  193.58   38.60
 -21   6   9   90.79   32.90
   6  15   9  118.09   19.00
  15 -21   9  111.09   27.40
  -4  20  -9  -49.99   23.80
  20 -16  -9   28.80   17.50
 -16  -4  -9   45.40   22.30
  -4  20  -9   -2.20   32.70
  16   4   9    9.10   19.20
   4 -20   9   54.09   26.10
  16   4   9  -18.20   23.00
 -20  16   9   18.50   32.10
  -1  17  -9   36.10   31.60
  17 -16  -9   49.20   12.70
  -1  17  -9    3.10   21.40
 -16  -1  -9   64.99   23.50
  16   1   9   35.50   21.70
  16   1   9   29.60   19.40
   1 -17   9   48.80   23.40
 -17  16   9   22.80   27.50
  14 -16  -9  108.39   14.90
 -16   2  -9  119.59   24.90
   2  14  -9  111.29   28.80
  14 -16  -9   95.69   15.90
   2  14  -9   45.90   22.30
  16  -2   9   98.79   21.10
 -14  16   9   85.19   25.60
  16  -2   9  100.09   23.60
  -2 -14   9  106.69   24.00
   5  11  -9   54.49   28.30
 -16   5  -9   74.09   14.10
  11 -16  -9   68.39   10.80
 -16   5  -9   88.99   24.30
  11 -16  -9   75.19    8.60
   5  11  -9   68.89   20.40
 -11  16   9   87.09   22.90
  16  -5   9  129.39   25.90
  -5 -11   9   94.19   23.70
  16  -5   9   55.89   21.40
 -16   8  -9   30.70   15.20
 -16   8  -9   37.30   21.10
  16  -8   9   17.10   19.00
  -8  -8   9   78.79   22.90
  -8  16   9   15.60   30.30
  16  -8   9   35.80   20.70
 -16  11  -9   35.90   23.50
 -16  11  -9   41.80   17.50
  16 -11   9   51.29   21.50
  16 -11   9   24.60   18.80
 -11  -5   9   66.39   25.30
  -5  16   9   34.80   18.80
 -16  14  -9   69.59   24.60
  16 -14   9   48.10   24.40
  16 -14   9   65.29   21.60
 -14  -2   9   31.80   26.20
  -2  16   9   90.59   20.00
 -16  17  -9   58.49   28.10
 -16  17  -9   62.69   24.10
  16 -17   9   52.29   23.10
 -17   1   9   64.99   27.40
   1  16   9   41.90   17.60
 -16  20  -9    7.80   31.60
 -16  20  -9   10.50   24.90
  16 -20   9   11.00   23.60
 -20   4   9   31.60   31.70
   4  16   9   30.30   17.50
  19 -17  -9   72.79   14.80
 -17  -2  -9   34.60   22.60
  -2  19  -9   59.59   36.10
  -2  19  -9   26.20   21.70
 -19  17   9   29.70   31.10
  17   2   9   28.50   20.00
  17   2   9    5.40   22.80
   2 -19   9   33.30   24.40
   1  16  -9   35.90   29.10
  16 -17  -9   41.80   14.60
  16 -17  -9   75.09   11.80
   1  16  -9   53.19   22.50
 -17   1  -9   59.59   24.20
 -16  17   9    7.40   24.80
  17  -1   9   35.80   22.50
  -1 -16   9   50.79   24.60
  17  -1   9   24.70   19.30
   4  13  -9   59.69   28.20
 -17   4  -9   35.90   21.50
  13 -17  -9   39.70   10.90
 -17   4  -9   58.19   12.10
  13 -17  -9   52.89    8.40
   4  13  -9   67.49   23.50
  17  -4   9   59.59   20.40
  -4 -13   9   35.40   22.50
 -13  17   9   39.20   21.80
  17  -4   9   75.29   24.40
 -17   7  -9   13.10   21.70
   7  10  -9   53.39   20.20
 -17   7  -9   20.10   16.90
   7  10  -9  -17.60   23.10
  17  -7   9   -9.00   20.80
  -7 -10   9    0.10   23.00
  17  -7   9   29.00   20.30
 -10  17   9   -8.00   20.90
 -17  10  -9  175.58   29.40
 -17  10  -9  179.68   23.10
  -7  17   9  176.18   24.40
  17 -10   9  129.49   26.50
  17 -10   9  164.58   24.80
 -10  -7   9  140.19   27.60
 -17  13  -9   68.79   25.60
 -13  -4   9   77.79   27.10
  17 -13   9   30.50   24.20
  17 -13   9   41.60   22.00
  -4  17   9   38.70   19.00
 -17  16  -9   59.39   20.90
 -17  16  -9   60.59   29.00
  17 -16   9   32.70   22.90
 -16  -1   9   29.50   26.30
  -1  17   9   39.20   18.10
  17 -16   9   35.40   21.40
 -17  19  -9   87.09   35.70
 -17  19  -9  149.49   28.50
  17 -19   9  120.79   25.90
 -19   2   9   99.79   33.50
   2  17   9  121.49   20.30
   0  18  -9   28.40   21.50
  18 -18  -9   -7.90   11.10
   0  18  -9   35.00   36.70
 -18   0  -9   -4.10   21.90
  18   0   9   36.20   20.80
  18   0   9   18.70   23.40
   0 -18   9  -27.80   23.10
 -18   3  -9   18.60   23.00
  15 -18  -9   47.10   11.20
   3  15  -9   45.40   24.60
   3  15  -9   54.39   30.00
  15 -18  -9   28.20    9.10
  18  -3   9   32.20   24.00
  -3 -15   9   51.79   23.40
  18  -3   9   23.90   19.50
   6  12  -9   64.69   23.20
 -18   6  -9  139.99   17.30
   6  12  -9  105.79   32.70
 -18   6  -9  116.49   26.60
  18  -6   9  118.89   27.80
  18  -6   9  134.59   24.80
  -6 -12   9  143.99   26.60
 -18   9  -9  258.67   32.70
 -18   9  -9  221.48   23.50
  18  -9   9  189.08   29.10
  -9  -9   9  225.18   33.20
  18  -9   9  181.58   27.80
  -9  18   9  215.68   29.40
 -18  12  -9   23.50   17.70
 -18  12  -9   14.30   24.80
  18 -12   9   38.90   21.50
 -12  -6   9   46.80   24.80
  -6  18   9   23.00   19.90
  18 -12   9   19.70   24.60
 -18  15  -9   81.99   28.60
 -18  15  -9   59.99   21.30
  -3  18   9  100.59   21.30
 -15  -3   9   92.39   30.70
  18 -15   9  118.09   25.10
  18 -15   9  155.48   27.60
 -18  18  -9   -6.30   22.90
 -18  18  -9  -46.10   27.50
 -18   0   9   12.40   29.10
  18 -18   9   39.80   22.70
   0  18   9   -2.20   17.60
  18 -18   9   13.80   21.40
 -19  -1  -9   58.09   27.40
  20 -19  -9   46.70   14.40
   1 -20   9   25.60   27.10
  19   1   9   96.29   23.60
  17 -19  -9   42.10   13.10
 -19   2  -9   35.60   26.20
  17 -19  -9   56.79   10.80
   2  17  -9   51.89   22.10
   2  17  -9   53.99   32.30
  19  -2   9   47.60   20.50
  19  -2   9   31.70   24.90
  -2 -17   9   57.79   27.50
 -19   5  -9   74.59   13.50
   5  14  -9   20.50   31.10
   5  14  -9   22.80   23.60
 -19   5  -9   42.00   25.30
  19  -5   9   92.49   22.90
  -5 -14   9   78.99   25.20
  19  -5   9   11.90   23.70
   8  11  -9  371.26   37.40
 -19   8  -9  218.38   28.50
 -19   8  -9  259.27   34.60
  -8 -11   9  356.46   43.80
  19  -8   9  281.27   38.00
  19  -8   9  333.07   43.30
 -19  11  -9  196.08   24.10
 -19  11  -9  149.88   28.90
  -8  19   9  177.98   27.20
 -11  -8   9  175.28   29.20
  19 -11   9  196.88   27.60
  19 -11   9  122.99   30.30
 -19  14  -9  107.69   29.10
 -19  14  -9  138.29   25.10
  -5  19   9  111.79   22.00
  19 -14   9   57.59   23.40
 -14  -5   9   87.19   29.00
  19 -14   9   77.09   28.40
 -19  17  -9  161.98   34.30
 -19  17  -9  107.09   25.40
  -2  19   9  168.88   23.00
  19 -17   9  119.19   26.30
  19 -17   9   88.59   24.80
 -17  -2   9  125.89   31.70
 -19  20  -9   15.70   26.60
 -19  20  -9   44.60   23.60
  19 -20   9   32.80   19.80
   1  19   9    7.00   16.50
 -20   1   9   20.50   25.30
 -20   1  -9   86.49   29.90
  19 -20  -9   47.20   10.40
  -1 -19   9   89.09   30.50
  20  -1   9   52.99   23.70
 -20   4  -9   41.10    9.40
 -20   4  -9   22.60   28.00
   4  16  -9   37.20   34.80
   4  16  -9  -14.40   23.00
  -4 -16   9   55.29   28.40
  20  -4   9   14.60   24.60
  20  -4   9   26.80   21.50
   7  13  -9   38.60   32.40
 -20   7  -9   39.40   15.80
 -20   7  -9   17.20   24.70
   7  13  -9  -37.90   21.40
  -7 -13   9   -1.20   24.20
  20  -7   9  -61.59   23.60
  20  -7   9   39.60   22.70
 -20  10  -9    4.00   17.10
 -20  10  -9   30.50   27.10
  20 -10   9   56.09   26.40
 -10 -10   9   42.00   26.80
  20 -10   9   48.80   23.20
 -20  13  -9   21.50   25.90
  20 -13   9   42.60   22.80
  -7  20   9   20.60   21.50
 -13  -7   9  -25.10   24.30
  20 -13   9  -20.80   24.40
 -20  16  -9   32.10   21.60
 -20  16  -9    4.40   28.10
  -4  20   9    9.30   19.80
 -16  -4   9   20.90   27.80
  20 -16   9   47.70   24.40
  20 -16   9   23.90   20.70
 -20  19  -9   19.00   26.80
 -20  19  -9   -7.10   24.20
  20 -19   9   25.90   18.30
 -19  -1   9   54.79   29.50
  -1  20   9   51.29   18.50
 -21   6  -9   87.59   15.90
 -21   6  -9   84.19   30.10
   6  15  -9   87.49   35.70
   6  15  -9   69.99   38.70
  21  -6   9  140.09   30.40
  21  -6   9  106.29   25.80
  -6 -15   9  105.39   31.50
   9  12  -9   83.79   23.30
 -21   9  -9  170.98   31.40
 -21   9  -9  158.48   21.70
  -9 -12   9  226.58   32.60
  21  -9   9  198.38   29.10
 -21  12  -9  255.47   37.80
  21 -12   9  276.27   37.30
  21 -12   9  310.17   39.10
 -12  -9   9  273.17   37.50
 -21  15  -9  196.38   33.40
 -21  15  -9  270.77   30.60
 -15  -6   9  199.98   35.40
  -6  21   9  202.18   26.20
  21 -15   9  101.39   28.50
  21 -15   9  176.18   30.40
   8  14  -9  183.98   36.60
 -22   8  -9  196.18   36.80
 -22   8  -9  169.78   25.10
  -8 -14   9  225.48   35.50
  22  -8   9  214.98   32.50
  22  -8   9  210.58   33.60
  22 -11   9  382.06   45.90
  22 -11   9  449.66   45.60
 -11 -11   9  461.55   56.39
 -22  14  -9  206.88   34.70
 -22  14  -9  252.27   29.40
  22 -14   9  169.08   27.00
  22 -14   9  247.58   54.29
 -14  -8   9  146.59   33.90
  -1   0 -10   14.60   18.40
   1  -1 -10   19.90   18.70
   0   1 -10    9.20   19.20
   1   0  10    1.50   18.10
   0  -1  10    4.10   17.70
  -1   1  10    2.50   18.80
   3  -2 -10  -15.50   30.40
  -1   3 -10    9.50   19.90
  -3   2  10   14.00   20.00
   1  -3  10   28.20   18.90
   2   1  10  -30.10   17.20
  -2   2 -10   70.59   21.20
   0  -2 -10   56.89   19.40
   2   0 -10   50.69   20.40
   0   2  10  101.99   23.20
   2  -2  10   46.80   22.00
  -2   0  10   61.39   21.80
  -2   5 -10  320.37   37.00
  -3  -2 -10  334.07   33.30
  -2   5 -10  272.97   28.00
   2  -5  10  493.95   37.70
  -5   3  10  335.87   38.60
   3   2  10  364.16   35.50
   1   2 -10   11.70   19.10
  -3   1 -10   -4.40   18.60
   2  -3 -10   20.80   17.90
   3  -1  10  -13.70   19.70
  -1  -2  10    0.00   18.20
  -2   3  10    1.30   18.90
  -1  -3 -10  151.18   23.00
  -3   4 -10  151.38   27.00
   4  -1 -10  133.09   24.40
  -3   4 -10  175.98   21.10
  -4   1  10  221.78   28.80
   3  -4  10  183.68   26.00
   1   3  10  164.88   25.20
  -3   7 -10  111.99   23.70
  -3   7 -10  110.99   18.80
  -4  -3 -10   96.29   21.10
   4   3  10   87.39   22.70
  -7   4  10   86.09   24.40
   3  -7  10   93.09   23.60
   0   4 -10  254.57   32.60
  -4   0 -10  238.68   32.30
   4  -4 -10  209.88   25.40
  -4   4  10  280.07   31.80
   0  -4  10  266.87   34.40
   4   0  10  293.27   34.30
  -4   3 -10  151.78   26.00
   3   1 -10  168.58   26.90
   1  -4 -10  161.48   22.80
  -3  -1  10  170.98   27.10
   4  -3  10  217.78   28.10
  -1   4  10  215.68   27.80
  -4   6 -10   82.19   23.80
   6  -2 -10   63.69   21.20
  -2  -4 -10   60.69   19.10
  -4   6 -10   78.89   17.10
  -6   2  10   35.50   21.60
   4  -6  10   91.49   22.80
   2   4  10  102.59   21.70
   9  -5 -10    5.00   19.00
  -4   9 -10   -9.10   21.40
  -5  -4 -10    6.50   16.80
   4  -9  10   -6.90   17.80
  -9   5  10   25.00   21.10
   5   4  10   16.00   17.80
  -1   6 -10   17.90   14.60
  -5  -1 -10   16.50   17.90
  -1   6 -10   13.10   19.70
   6  -5 -10   14.30   16.20
  -6   5  10  -16.60   19.80
   1  -6  10   24.70   18.00
   5   1  10    4.70   18.30
   3  -5 -10  318.97   31.30
   2   3 -10  379.26   38.00
  -5   2 -10  371.26   35.80
  -2  -3  10  337.27   36.20
  -3   5  10  331.07   37.10
   5  -2  10  392.06   36.60
  -5   5 -10  747.83   47.00
   5   0 -10  760.12   45.30
  -5   5 -10  754.82   35.90
   0  -5 -10  855.51   39.10
   5  -5  10  809.42   44.50
   0   5  10  767.12   42.60
  -5   0  10  726.43   45.60
  -3  -5 -10  188.48   23.10
  -5   8 -10  151.68   21.60
   8  -3 -10  165.38   26.20
  -5   8 -10  182.58   28.10
   5  -8  10  106.89   22.50
   3   5  10  153.58   23.40
  -8   3  10  127.99   25.30
  11  -6 -10  270.07   37.60
  -5  11 -10  293.97   36.90
  -6  -5 -10  282.37   29.50
   5 -11  10  320.47   34.80
 -11   6  10  328.97   38.10
   6   5  10  309.97   34.20
  -6  -2 -10  499.05   37.10
   8  -6 -10  506.65   37.10
  -2   8 -10  536.05   43.70
   6   2  10  513.05   37.00
   2  -8  10  416.86   37.10
  -8   6  10  511.65   42.10
   1   5 -10   38.60   21.10
   1   5 -10   19.90   14.70
   5  -6 -10   32.50   16.80
  -6   1 -10   -9.00   18.90
  -1  -5  10   33.10   19.80
   6  -1  10   13.10   18.40
  -5   6  10   10.00   20.10
   4   2 -10   79.49   23.90
  -6   4 -10   65.29   21.40
  -6   4 -10   44.40   21.90
   2  -6 -10   74.89   18.50
   6  -4  10   63.09   21.40
  -4  -2  10   69.79   23.70
  -1  -6 -10   16.10   15.90
   7  -1 -10   32.70   20.80
  -6   7 -10   53.59   16.60
  -6   7 -10   50.09   23.40
   1   6  10   31.90   18.70
   6  -7  10   22.90   20.20
  -7   1  10   14.50   22.40
  -4  -6 -10  253.77   28.60
  -6  10 -10  227.78   30.60
  10  -4 -10  256.57   31.50
   4   6  10  211.18   25.60
   6 -10  10  269.67   34.40
 -10   4  10  196.08   28.70
  -7  -6 -10  230.28   28.70
  -6  13 -10  256.17   30.00
  13  -7 -10  278.67   38.10
  -6  13 -10  181.48   33.70
   6 -13  10  216.98   28.00
 -13   7  10  236.68   34.70
   7   6  10  272.07   28.40
  -7  -3 -10  531.05   42.30
  10  -7 -10  612.24   39.80
  -3  10 -10  636.24   47.00
   3 -10  10  721.93   46.10
 -10   7  10  679.03   49.30
   7   3  10  764.12   41.10
  -7   0 -10  508.35   38.60
   0   7 -10  681.13   45.40
   7  -7 -10  523.45   36.00
   0  -7  10  617.24   41.30
   7   0  10  600.54   40.10
  -7   7  10  659.83   44.80
  -7   3 -10  107.69   24.50
   4  -7 -10  159.38   22.30
   3   4 -10  176.18   30.00
  -7   3 -10  161.28   18.20
  -4   7  10  131.79   24.90
  -3  -4  10  160.68   24.70
   7  -3  10  153.58   25.30
   1  -7 -10   86.89   18.70
   6   1 -10   86.89   25.40
  -7   6 -10   97.89   25.40
  -7   6 -10   70.59   16.00
  -6  -1  10   81.89   24.10
  -1   7  10   96.59   21.80
   7  -6  10   97.29   22.50
  -2  -7 -10   95.89   18.10
  -7   9 -10   79.79   24.80
   9  -2 -10   76.79   24.80
   2   7  10  125.29   21.90
   7  -9  10  101.59   23.60
  -9   2  10   72.29   26.10
  -7  12 -10   21.90   24.10
  -7  12 -10    6.60   17.90
  -5  -7 -10   18.40   16.20
  12  -5 -10   -7.00   21.20
   7 -12  10  -12.10   20.30
 -12   5  10   33.30   25.10
   5   7  10   12.80   20.50
  -7  15 -10  154.98   34.10
  -8  -7 -10  146.49   22.00
  -7  15 -10  145.99   25.90
   8   7  10  185.58   24.70
 -15   8  10  182.08   33.40
   7 -15  10  181.58   30.10
  -8  -4 -10   62.79   21.70
  -4  12 -10   66.69   26.70
  12  -8 -10   80.39   40.90
  -4  12 -10   65.39   21.50
   8   4  10   69.59   21.50
 -12   8  10  115.39   28.40
   4 -12  10   67.89   22.00
   9  -8 -10  108.39   21.80
  -1   9 -10  166.78   30.90
  -8  -1 -10  134.19   23.20
   8   1  10  154.98   22.90
  -9   8  10  146.29   29.30
   1  -9  10  160.38   27.50
   2   6 -10  450.65   42.40
   6  -8 -10  482.95   33.60
  -8   2 -10  465.35   39.30
  -2  -6  10  433.96   39.90
  -6   8  10  462.05   39.60
   8  -2  10  458.25   38.10
   3  -8 -10  198.48   26.00
  -8   5 -10  200.78   29.00
  -8   5 -10  202.48   24.40
   5   3 -10  188.68   29.40
  -3   8  10  123.69   22.80
   8  -5  10  138.29   24.60
  -5  -3  10  137.39   26.20
  -8   8 -10  159.68   21.20
   8   0 -10  157.28   27.80
   0  -8 -10  192.88   25.40
  -8   8 -10  177.08   29.20
   8  -8  10  224.18   29.20
   0   8  10  259.37   27.60
  -8   0  10  198.08   31.00
  11  -3 -10  473.35   44.00
  -8  11 -10  339.57   42.60
  -3  -8 -10  446.86   29.30
   8 -11  10  456.15   37.70
 -11   3  10  447.06   44.10
  -8  14 -10    4.60   26.50
  -6  -8 -10    6.80   15.00
  -8  14 -10    6.30   21.40
 -14   6  10  -25.80   23.70
   8 -14  10    1.70   21.50
  -9  -8 -10   58.19   18.10
  -8  17 -10   37.30   24.70
  -8  17 -10   56.79   32.90
   9   8  10   67.29   21.60
 -17   9  10    9.60   30.30
   9   8  10   36.30   21.60
   8 -17  10   32.70   24.70
  -5  14 -10  160.38   33.50
  -5  14 -10  180.18   26.70
  14  -9 -10  208.88   28.40
  -9  -5 -10  202.78   25.00
 -14   9  10  175.48   34.20
   9   5  10  150.68   24.30
   9   5  10  138.49   23.30
   5 -14  10  184.28   30.00
  -9  -2 -10  112.99   22.80
  -2  11 -10  160.78   31.90
  -2  11 -10   81.09   22.20
  11  -9 -10  115.79   22.30
 -11   9  10  150.48   29.70
   2 -11  10  123.49   26.10
   9   2  10   95.79   21.40
  -9   1 -10  176.28   26.80
   8  -9 -10  156.38   22.20
   1   8 -10  114.59   26.60
  -8   9  10  177.38   28.30
   9  -1  10  228.68   26.80
  -1  -8  10  219.88   28.50
  -9   4 -10   24.00   12.70
   5  -9 -10   20.80   15.10
   4   5 -10   27.60   22.90
  -9   4 -10    9.30   21.00
  -4  -5  10   58.39   22.50
   9  -4  10   33.00   20.70
  -5   9  10   34.30   18.30
   2  -9 -10   72.09   15.50
  -9   7 -10   40.40   15.80
   7   2 -10   39.10   23.90
  -9   7 -10   44.40   22.60
   9  -7  10   62.29   20.10
  -2   9  10   51.69   20.00
  -7  -2  10   29.90   21.30
  10  -1 -10   62.59   25.10
  -1  -9 -10   51.79   14.70
  -9  10 -10   26.90   24.50
 -10   1  10   80.69   25.00
   9 -10  10   68.79   23.30
  -9  13 -10  285.07   37.00
  -4  -9 -10  291.07   25.60
  -9  13 -10  281.27   35.40
 -13   4  10  286.47   36.60
   4   9  10  327.97   37.50
   9 -13  10  295.57   38.90
  -9  16 -10  216.68   36.20
  -9  16 -10  198.98   28.50
  -7  -9 -10  195.58   26.10
 -16   7  10  129.89   31.30
   9 -16  10  127.49   27.50
 -10  -9 -10  192.48   31.80
   9 -19  10  175.78   27.10
 -19  10  10  159.58   37.20
  10   9  10  223.98   26.70
 -10  -6 -10  577.14   37.80
  -6  16 -10  470.65   52.79
  -6  16 -10  495.05   44.10
 -16  10  10  579.04   57.09
   6 -16  10  577.84   47.20
  10   6  10  624.34   39.20
  10   6  10  599.84   41.30
  -3  13 -10  784.82   55.69
  13 -10 -10  768.82   44.40
 -10  -3 -10  880.41   43.70
  -3  13 -10  769.52   47.00
  10   3  10  753.02   42.60
  10   3  10  751.72   43.30
   3 -13  10  745.63   48.40
 -13  10  10  816.22   55.89
  10 -10 -10  663.83   37.70
   0  10 -10  588.24   47.90
   0  10 -10  590.64   40.90
 -10   0 -10  688.83   42.10
 -10  10  10  758.62   49.70
  10   0  10  715.73   43.50
  10   0  10  758.82   41.00
   0 -10  10  715.73   46.40
   3   7 -10  617.64   49.00
   3   7 -10  599.34   49.10
 -10   3 -10  639.74   29.50
   7 -10 -10  698.03   35.10
 -10   3 -10  645.34   44.60
  -7  10  10  765.42   45.00
  10  -3  10  780.72   44.00
  -3  -7  10  670.73   47.80
 -10   6 -10  409.36   29.60
   4 -10 -10  310.37   26.20
 -10   6 -10  348.77   39.80
   6   4 -10  374.86   43.00
  -6  -4  10  371.96   41.20
  10  -6  10  333.27   36.80
  -4  10  10  365.16   34.50
 -10   9 -10  118.29   25.40
   1 -10 -10  103.49   16.40
 -10   9 -10   79.99   18.30
   9   1 -10  128.09   29.90
  -9  -1  10   96.09   25.70
  10  -9  10  115.09   24.50
  -1  10  10  101.39   23.40
 -10  12 -10   -7.00   23.20
  -2 -10 -10   22.00   12.20
  10 -12  10   19.40   20.80
 -12   2  10   53.09   24.30
   2  10  10    8.50   19.10
  -5 -10 -10  112.69   17.70
 -10  15 -10   61.19   30.00
 -10  15 -10  152.78   25.20
   5  10  10  168.78   24.90
  10 -15  10  135.89   27.20
 -15   5  10  134.99   32.70
 -10  18 -10   19.30   24.10
 -10  18 -10   59.09   33.10
  -8 -10 -10   58.49   18.10
   8  10  10   44.00   28.70
  10 -18  10   65.09   25.50
 -18   8  10   43.60   32.40
  -7  18 -10   57.49   24.60
  -7  18 -10   39.00   29.80
  11   7  10  150.18   26.10
  11   7  10  157.28   24.90
   7 -18  10  117.89   28.60
 -18  11  10  131.59   38.20
  15 -11 -10  198.98   31.90
 -11  -4 -10  192.18   26.60
  -4  15 -10  145.79   33.50
 -15  11  10  222.08   37.80
  11   4  10  190.08   26.70
  11   4  10  270.47   36.00
   4 -15  10  190.08   29.20
 -11  -1 -10  382.66   37.70
  -1  12 -10  364.96   39.10
  12 -11 -10  409.46   33.30
  -1  12 -10  434.66   47.60
 -12  11  10  338.37   45.60
   1 -12  10  422.46   42.80
  11   1  10  370.06   34.50
  11   1  10  371.96   36.50
   2   9 -10  156.78   23.60
 -11   2 -10  149.88   27.40
   9 -11 -10  160.38   20.30
   2   9 -10  118.59   28.30
  -9  11  10  141.59   27.60
  -2  -9  10  162.38   27.50
  11  -2  10  128.49   23.70
  11  -2  10   97.39   21.40
 -11   5 -10  231.48   31.60
   6 -11 -10  263.87   24.50
 -11   5 -10  228.78   24.20
   5   6 -10  290.97   36.20
  -5  -6  10  282.07   34.00
  -6  11  10  276.77   34.70
  11  -5  10  294.97   31.30
 -11   8 -10  404.06   31.40
   3 -11 -10  409.56   25.60
   8   3 -10  418.16   46.50
 -11   8 -10  449.16   41.60
  11  -8  10  325.47   35.90
  -3  11  10  347.47   35.90
  -8  -3  10  384.96   42.10
   0 -11 -10   65.99   13.50
 -11  11 -10  111.69   25.80
  11 -11  10   31.20   22.70
   0  11  10   -0.70   25.70
 -11   0  10  -26.90   23.40
  -3 -11 -10  109.19   16.80
 -11  14 -10  139.89   29.80
 -11  14 -10  140.39   23.60
  11 -14  10  145.29   25.60
 -14   3  10  147.19   30.30
   3  11  10  161.88   24.60
 -11  17 -10   16.80   26.80
 -11  17 -10  -12.90   24.00
  -6 -11 -10   32.50   14.40
  11 -17  10   47.10   25.50
 -17   6  10  -14.50   28.90
   6  11  10   16.70   20.40
  -5  17 -10   51.59   32.90
  -5  17 -10   76.39   23.70
 -12  -5 -10   97.39   23.30
 -17  12  10  121.59   36.20
   5 -17  10  106.19   28.10
  12   5  10   63.59   22.70
  12   5  10   56.79   23.60
  -2  14 -10  189.68   35.60
 -12  -2 -10  289.97   35.10
  -2  14 -10  202.18   28.60
  14 -12 -10  292.67   32.90
   2 -14  10  260.37   34.40
 -14  12  10  247.98   37.00
  12   2  10  260.97   29.00
  12   2  10  266.87   36.70
   1  11 -10  423.76   48.60
  11 -12 -10  431.06   30.80
   1  11 -10  416.06   38.60
 -12   1 -10  405.76   39.90
  12  -1  10  435.86   36.90
  12  -1  10  494.35   40.50
  -1 -11  10  375.56   41.90
 -11  12  10  325.47   43.50
   8 -12 -10  111.49   17.50
   4   8 -10  109.59   28.10
 -12   4 -10  119.39   15.70
 -12   4 -10  112.39   25.90
   4   8 -10   70.49   20.80
  -4  -8  10  103.69   26.90
  12  -4  10   93.59   24.00
  12  -4  10   78.49   22.80
  -8  12  10  131.29   25.60
 -12   7 -10   39.20   17.00
   7   5 -10   33.90   26.20
   5 -12 -10   42.60   13.20
 -12   7 -10   60.19   23.90
  -5  12  10    6.30   21.00
  12  -7  10   45.90   21.60
  -7  -5  10   59.89   26.40
   2 -12 -10   18.60   11.30
 -12  10 -10  -12.30   15.50
 -12  10 -10   50.29   23.50
  10   2 -10   19.40   25.40
  -2  12  10   45.40   32.30
  12 -10  10   24.10   20.10
 -10  -2  10   30.70   24.50
 -12  13 -10   54.49   20.10
 -12  13 -10   55.69   26.70
  -1 -12 -10   21.10   11.60
 -13   1  10   21.00   25.10
   1  12  10    7.10   19.20
  12 -13  10    8.40   19.80
 -12  16 -10   50.49   30.30
 -12  16 -10   38.00   23.00
  -4 -12 -10   34.90   12.50
   4  12  10   61.39   21.30
 -16   4  10   41.60   28.30
  12 -16  10   49.50   24.30
  -3  16 -10  561.04   57.99
 -13  -3 -10  625.04   44.00
  16 -13 -10  710.03   42.20
  13   3  10  704.63   42.50
  13   3  10  670.03   46.80
   3 -16  10  668.23   48.90
 -16  13  10  733.13   58.49
  13 -13 -10 1440.66   50.39
   0  13 -10 1378.96   70.09
   0  13 -10 1302.47   60.09
 -13   0 -10 1421.16   58.39
  13   0  10 1551.84   63.89
 -13  13  10 1527.05   66.49
   0 -13  10 1512.05   64.49
  13   0  10 1496.15   55.99
 -13   3 -10  827.32   49.10
  10 -13 -10  799.52   35.60
   3  10 -10  839.12   47.90
   3  10 -10  768.62   56.49
  13  -3  10  792.52   49.00
  13  -3  10  802.62   45.20
  -3 -10  10  728.33   49.99
 -10  13  10  734.93   48.90
   7 -13 -10  263.07   22.50
 -13   6 -10  242.98   34.30
   6   7 -10  203.68   33.60
  -6  -7  10  302.77   36.90
  -7  13  10  284.87   31.80
  13  -6  10  262.57   29.60
  13  -6  10  208.38   29.80
 -13   9 -10  328.27   41.70
   4 -13 -10  377.66   21.10
   9   4 -10  425.56   47.30
 -13   9 -10  246.58   29.90
  13  -9  10  313.57   37.30
  -4  13  10  336.77   38.00
  -9  -4  10  357.26   38.30
 -13  12 -10   89.79   28.40
   1 -13 -10   70.99   11.90
  13 -12  10   54.59   22.80
 -12  -1  10   64.09   31.90
  -1  13  10   75.69   22.50
 -13  15 -10   54.79   23.00
  -2 -13 -10   24.70   11.20
 -13  15 -10   25.20   28.50
   2  13  10   17.10   20.40
  13 -15  10   18.10   23.10
 -15   2  10    9.30   27.60
 -13  18 -10   58.89   23.70
  -5 -13 -10    9.40   11.70
 -13  18 -10  -17.50   25.80
 -18   5  10   54.29   26.90
  13 -18  10   12.10   20.60
   5  13  10   49.99   21.30
  18 -14 -10  115.59   18.90
  -4  18 -10  112.09   29.80
 -14  -4 -10  100.19   24.40
   4 -18  10  130.29   28.10
 -18  14  10   83.59   36.90
  14   4  10  145.79   28.40
  14   4  10  126.29   25.20
  -1  15 -10  205.68   28.90
  -1  15 -10  187.48   34.60
  15 -14 -10  221.28   23.20
 -14  -1 -10  201.28   30.30
  15 -14 -10  225.58   30.80
  14   1  10  214.98   27.80
   1 -15  10  243.88   33.60
 -15  14  10  207.58   35.20
  14   1  10  198.58   29.70
  12 -14 -10  173.28   20.10
   2  12 -10  132.09   26.70
 -14   2 -10  110.19   28.40
   2  12 -10  125.99   34.10
  -2 -12  10  104.89   28.40
  14  -2  10  147.39   23.90
  14  -2  10  129.29   27.90
 -12  14  10  218.38   31.90
   5   9 -10  195.18   28.80
 -14   5 -10  150.48   17.80
   5   9 -10  169.68   34.00
 -14   5 -10  145.49   29.20
   9 -14 -10  205.08   20.90
  14  -5  10  168.18   29.20
  -5  -9  10  164.48   32.30
  14  -5  10  183.28   27.70
  -9  14  10  176.68   29.20
 -14   8 -10    3.10   23.70
   8   6 -10   19.10   26.70
   6 -14 -10   21.50    9.70
 -14   8 -10   -5.90   14.90
  14  -8  10   16.90   22.80
  -8  -6  10   38.50   24.50
  14  -8  10   27.70   21.60
  -6  14  10   37.50   23.30
 -14  11 -10  114.79   30.10
   3 -14 -10  119.99   11.60
 -11  -3  10  149.69   32.00
  14 -11  10  155.28   26.50
 -14  14 -10  121.99   25.00
 -14  14 -10  106.39   31.00
   0 -14 -10   95.89   11.00
  14 -14  10  116.79   26.10
   0  14  10  111.59   23.30
 -14   0  10   44.70   29.70
  -3 -14 -10   50.19   10.40
 -14  17 -10   39.90   24.10
 -14  17 -10   -6.30   31.10
  14 -17  10   31.10   23.60
   3  14  10   69.19   22.30
 -17   3  10   50.79   28.70
  17 -15 -10  169.58   19.80
  17 -15 -10  164.68   24.00
  -2  17 -10   86.89   30.00
 -15  -2 -10  191.48   30.90
 -17  15  10  153.78   35.60
  15   2  10  166.58   26.50
   2 -17  10  192.28   31.80
  15   2  10  218.18   33.20
   1  14 -10  192.08   37.40
   1  14 -10  194.08   28.10
  14 -15 -10  259.47   26.30
 -15   1 -10  303.17   40.10
  14 -15 -10  235.38   21.60
  15  -1  10  239.28   28.60
  -1 -14  10  207.88   32.10
 -14  15  10  253.07   35.30
  15  -1  10  234.58   30.80
   4  11 -10  193.28   36.60
  11 -15 -10  209.78   21.70
 -15   4 -10  240.08   21.70
 -15   4 -10  122.79   30.80
   4  11 -10  168.98   29.00
  -4 -11  10  237.98   35.00
  15  -4  10  233.48   29.20
 -11  15  10  172.08   30.10
  15  -4  10  249.58   34.80
   7   8 -10  220.38   39.00
 -15   7 -10  234.08   27.80
 -15   7 -10  189.98   31.50
   8 -15 -10  162.48   15.90
  15  -7  10  202.08   29.60
  -8  15  10  138.39   28.60
  15  -7  10  299.07   40.90
  -7  -8  10  172.98   30.70
   5 -15 -10  141.09   11.70
 -15  10 -10  121.39   28.30
 -15  10 -10  101.09   20.60
  15 -10  10  119.39   30.10
  -5  15  10  190.68   27.30
 -10  -5  10  125.89   31.10
  15 -10  10  119.69   25.50
 -15  13 -10   16.80   20.70
 -15  13 -10   16.80   27.30
  15 -13  10   11.70   24.90
  -2  15  10   11.20   21.30
 -13  -2  10   63.19   30.40
 -15  16 -10   49.60   31.10
 -15  16 -10    8.70   22.40
  15 -16  10   40.10   24.60
   1  15  10   83.49   23.10
 -16   1  10   53.39   27.90
  16 -16 -10  650.13   29.90
 -16   0 -10  600.64   49.99
   0  16 -10  589.64   57.19
  16 -16 -10  643.74   35.10
  16   0  10  625.84   50.79
  16   0  10  620.24   45.60
   0 -16  10  621.04   50.69
 -16  16  10  629.14   55.99
  13 -16 -10  567.34   28.80
 -16   3 -10  611.84   47.90
   3  13 -10  599.14   57.09
  13 -16 -10  545.65   24.40
   3  13 -10  535.65   41.80
  -3 -13  10  581.54   49.90
  16  -3  10  580.34   42.40
  16  -3  10  573.34   47.90
 -13  16  10  674.63   51.19
   6  10 -10  654.83   58.49
  10 -16 -10  652.03   21.10
   6  10 -10  525.65   45.00
  10 -16 -10  668.33   23.30
 -16   6 -10  669.33   33.30
 -16   6 -10  723.53   51.39
  -6 -10  10  720.63   52.69
 -10  16  10  657.03   49.70
  16  -6  10  695.63   46.40
  16  -6  10  730.53   52.19
   9   7 -10  253.77   39.90
 -16   9 -10  255.67   36.60
 -16   9 -10  250.87   25.50
  -7  16  10  231.68   31.10
  16  -9  10  191.78   29.60
  16  -9  10  348.47   41.90
  -9  -7  10  186.68   32.40
 -16  12 -10   -0.80   28.50
  16 -12  10    8.10   26.60
  -4  16  10   73.29   36.70
  16 -12  10   29.20   24.20
 -12  -4  10   58.29   28.50
 -16  15 -10   28.60   21.70
 -16  15 -10  104.19   31.90
 -15  -1  10   31.50   30.60
  16 -15  10   72.19   25.50
  -1  16  10   62.19   22.80
  15 -17 -10  178.68   21.60
  15 -17 -10  127.69   17.00
 -17   2 -10  131.69   32.70
  17  -2  10  163.48   32.10
 -15  17  10  204.58   34.40
  -2 -15  10  112.49   30.00
  17  -2  10  150.88   27.50
 -17   5 -10   86.79   15.80
   5  12 -10   10.90   33.50
   5  12 -10  106.89   23.00
  12 -17 -10   93.39   10.90
 -17   5 -10   33.10   28.80
  12 -17 -10   73.99    8.80
  17  -5  10   20.20   24.40
 -12  17  10   54.89   28.10
  -5 -12  10   90.19   28.00
  17  -5  10  116.49   26.70
   8   9 -10  108.19   35.20
 -17   8 -10   91.19   18.80
 -17   8 -10   67.49   30.20
  17  -8  10   84.29   28.60
  -9  17  10  104.79   27.90
  17  -8  10   79.79   25.90
  -8  -9  10   97.29   29.10
 -17  11 -10  -31.00   26.30
 -17  11 -10   21.40   23.10
  17 -11  10   35.90   24.00
  17 -11  10   24.60   22.90
  -6  17  10    7.70   24.20
 -11  -6  10   74.69   31.20
 -17  14 -10   18.70   22.70
 -17  14 -10   -0.30   30.30
  17 -14  10  -31.10   24.30
  -3  17  10   60.29   25.00
 -14  -3  10   33.90   28.60
  17 -14  10   56.69   25.80
  14 -18 -10  153.18   15.90
  14 -18 -10  176.48   17.10
 -18   4 -10  191.28   33.50
   4  14 -10  178.78   31.70
  18  -4  10  214.38   30.50
  18  -4  10  366.26   47.10
 -14  18  10  268.97   37.30
  -4 -14  10  240.48   34.40
 -18   7 -10  143.19   34.60
   7  11 -10  194.28   41.70
  18  -7  10  160.28   33.70
 -11  18  10  208.58   32.40
  18  -7  10  166.98   29.80
  -7 -11  10  179.58   34.60
 -18  10 -10  151.18   23.10
 -18  10 -10   99.89   30.70
  18 -10  10  125.29   29.40
  -8  18  10  171.48   30.50
 -10  -8  10   38.60   31.20
  18 -10  10  117.79   28.90
 -18  13 -10   52.89   29.70
 -18  13 -10   33.20   21.60
  18 -13  10   48.30   25.50
  -5  18  10   80.39   26.30
  18 -13  10    6.10   24.70
 -13  -5  10   18.40   28.80
 -19   9 -10  185.78   37.00
 -19   9 -10  226.78   24.50
  19  -9  10  268.37   34.90
 -10  19  10  300.97   36.00
  -9 -10  10  164.78   33.80
  -1   1 -11   -0.90   22.70
   0  -1 -11  -16.70   20.00
   1   0 -11    1.30   22.60
  -1   0  11   31.80   24.20
   0   1  11   24.00   23.10
   1  -1  11    1.60   24.50
  -2   0 -11    7.90   21.20
   2  -2 -11  -32.50   20.40
   0   2 -11   -2.00   23.20
   2   0  11  -20.30   23.10
   0  -2  11   15.70   23.30
  -2   2  11   12.10   23.20
   3  -1 -11    9.70   22.00
  -2   3 -11   -1.20   23.70
  -1  -2 -11   -4.00   19.40
  -3   1  11    0.40   24.10
   2  -3  11   34.70   23.60
   1   2  11    5.50   23.50
   4  -3 -11  -11.70   20.10
  -1   4 -11    1.50   24.30
  -3  -1 -11   19.70   20.70
   3   1  11   65.09   24.30
   1  -4  11    6.40   21.60
  -4   3  11   -6.50   23.60
   1  -3 -11   29.50   21.20
  -3   2 -11  -12.70   21.60
   2   1 -11   15.10   23.10
   3  -2  11   13.00   23.20
  -1   3  11   -5.30   23.40
  -2  -1  11    6.60   24.30
  -3   5 -11   12.90   25.00
  -2  -3 -11    6.40   20.20
   5  -2 -11   16.20   23.10
  -5   2  11   -8.10   25.20
   3  -5  11   68.09   23.40
   2   3  11   47.10   21.70
   6  -4 -11   79.89   24.40
  -4  -2 -11   75.99   23.50
  -2   6 -11   98.09   31.30
   2  -6  11   94.39   25.80
   4   2  11  112.29   25.10
  -6   4  11   65.59   29.70
   1   3 -11    1.00   24.30
  -4   1 -11   36.10   22.40
   3  -4 -11  -16.70   19.40
  -1  -3  11   15.40   21.80
  -3   4  11   11.80   24.00
   4  -1  11  -22.10   22.30
  -4   4 -11  -10.30   23.50
   4   0 -11  -23.80   23.10
   0  -4 -11   47.20   20.50
   0   4  11  -32.00   20.70
  -4   0  11    7.10   23.90
   4  -4  11    3.10   23.70
  -3  -4 -11   64.89   22.10
  -4   7 -11   65.19   30.20
   7  -3 -11   43.20   23.70
   3   4  11   64.39   23.60
  -7   3  11   65.59   30.70
   4  -7  11   99.69   25.10
  -5  -3 -11  104.79   24.70
  -3   8 -11  154.48   24.60
   8  -5 -11   87.19   24.70
  -3   8 -11   45.60   30.00
   5   3  11  196.78   28.10
  -8   5  11  167.88   32.40
   3  -8  11  122.79   27.20
  -5   0 -11   -6.60   21.20
   0   5 -11   12.90   24.20
   5  -5 -11   22.50   21.70
   0  -5  11   25.20   22.00
  -5   5  11   -9.90   25.50
   5   0  11  -12.20   21.20
   3   2 -11   19.20   26.10
   2  -5 -11   17.90   23.30
  -5   3 -11   26.80   23.40
  -2   5  11   37.50   22.70
  -3  -2  11   43.50   24.50
   5  -3  11   42.70   25.00
  -5   6 -11   65.79   27.20
  -1  -5 -11   57.89   38.10
   6  -1 -11   76.69   26.60
  -5   6 -11   46.40   18.70
  -6   1  11   80.79   28.10
   1   5  11   88.49   24.00
   5  -6  11   70.19   25.40
  -4  -5 -11  295.37   33.50
  -5   9 -11  306.57   39.60
  -5   9 -11  336.97   35.70
   9  -4 -11  323.17   36.50
   4   5  11  395.66   43.20
  -9   4  11  333.37   39.80
   5  -9  11  378.06   44.30
  -6  -4 -11   24.30   20.10
  -4  10 -11  -43.10   27.50
  10  -6 -11   -8.30   22.40
  -4  10 -11   22.50   21.30
   4 -10  11    7.80   23.10
   6   4  11   38.40   25.00
 -10   6  11   37.60   30.00
  -6  -1 -11  226.08   29.70
  -1   7 -11  207.68   35.10
  -1   7 -11  201.68   26.70
   7  -6 -11  179.28   27.20
  -7   6  11  190.98   32.60
   6   1  11  194.18   28.70
   1  -7  11  222.68   31.60
  -6   2 -11   67.69   26.60
   2   4 -11   50.99   26.30
  -4   6  11   68.19   27.20
  -2  -4  11   94.49   25.60
   6  -2  11   41.00   24.20
  -6   5 -11   98.99   19.30
   1  -6 -11   70.59   21.60
   5   1 -11   94.99   27.90
  -6   5 -11   45.60   25.60
  -5  -1  11  116.99   30.30
   6  -5  11  127.39   27.70
  -1   6  11   89.29   25.10
   8  -2 -11  344.57   37.90
  -2  -6 -11  313.27   33.10
  -6   8 -11  259.87   37.20
  -8   2  11  369.16   47.60
   2   6  11  338.67   40.50
   6  -8  11  383.96   43.70
  -5  -6 -11  359.66   39.50
  -6  11 -11  372.16   50.19
  11  -5 -11  318.77   44.30
  -6  11 -11  490.55   41.10
 -11   5  11  414.06   51.99
   5   6  11  327.97   41.50
   6 -11  11  416.76   43.60
  12  -7 -11  328.07   41.20
  -5  12 -11  341.47   42.40
  -7  -5 -11  305.47   36.20
  -5  12 -11  310.97   40.40
 -12   7  11  416.16   53.49
   5 -12  11  383.16   48.50
   7   5  11  405.86   42.90
  -2   9 -11  365.96   48.60
  -7  -2 -11  304.67   38.60
  -2   9 -11  319.77   37.50
   9  -7 -11  363.96   38.60
  -9   7  11  395.66   42.70
   7   2  11  387.36   40.20
   2  -9  11  387.56   44.30
   6  -7 -11  172.08   29.60
   1   6 -11  140.29   32.70
  -7   1 -11  168.78   29.10
  -1  -6  11  158.88   29.30
  -6   7  11  114.39   28.10
   7  -1  11  203.18   30.20
  -7   4 -11   58.29   26.90
   4   3 -11   67.39   27.90
   3  -7 -11   77.29   20.10
   7  -4  11  101.29   27.70
  -3   7  11   74.79   25.10
  -4  -3  11   77.19   28.10
  -7   7 -11  -37.70   15.90
  -7   7 -11   -6.60   25.50
   0  -7 -11  -16.40   16.80
   7   0 -11   -4.10   24.30
  -7   0  11   47.90   25.70
   7  -7  11   -8.60   22.40
   0   7  11   12.00   22.50
  -3  -7 -11   53.69   19.00
  10  -3 -11   55.39   26.70
  -7  10 -11   15.90   29.30
  -7  10 -11   37.60   21.30
   3   7  11  -11.40   22.90
   7 -10  11   -1.90   24.60
 -10   3  11  -14.70   25.90
  -7  13 -11   37.60   33.30
  13  -6 -11  -19.60   25.40
  -7  13 -11  -23.50   22.40
   7 -13  11   18.40   26.10
   6   7  11   34.00   24.40
 -13   6  11   14.10   28.80
  -6  14 -11  181.58   35.80
  -8  -6 -11  288.07   34.50
  -6  14 -11  336.77   42.20
   8   6  11  283.17   32.30
 -14   8  11  221.18   42.20
   6 -14  11  304.27   38.30
  11  -8 -11  100.29   24.70
  -3  11 -11   88.59   24.20
  -3  11 -11  135.19   35.20
  -8  -3 -11  138.89   25.50
   8   3  11  162.38   28.40
 -11   8  11  137.49   33.80
   3 -11  11   90.29   30.00
   0   8 -11    4.00   27.80
   0   8 -11   55.49   21.80
  -8   0 -11  -24.70   21.70
   8  -8 -11   19.30   23.70
  -8   8  11   -3.10   25.50
   8   0  11   10.80   21.70
   0  -8  11   -8.20   24.00
  -8   3 -11  106.69   29.40
   5  -8 -11  124.29   22.40
   3   5 -11   96.29   29.50
  -3  -5  11  101.99   26.70
   8  -3  11  120.59   28.10
  -5   8  11  172.58   29.40
  -8   6 -11  236.28   33.90
   2  -8 -11  231.18   25.70
   6   2 -11  172.48   32.90
  -8   6 -11  273.67   30.00
  -6  -2  11  240.78   35.90
   8  -6  11  247.78   32.10
  -2   8  11  273.77   33.10
   9  -1 -11  669.93   52.49
  -1  -8 -11  631.44   36.40
  -8   9 -11  544.25   53.49
  -9   1  11  578.64   53.19
   8  -9  11  535.45   46.60
   1   8  11  647.04   47.60
  -8  12 -11  412.06   52.09
  12  -4 -11  448.66   51.09
  -4  -8 -11  421.66   33.60
  -8  12 -11  391.36   41.60
 -12   4  11  388.36   51.59
   4   8  11  378.46   43.30
   8 -12  11  462.25   44.70
  -9  -4 -11   18.80   20.80
  13  -9 -11   24.90   22.40
  -4  13 -11  -27.50   30.70
  -4  13 -11    3.40   24.00
   9   4  11   37.90   23.00
   4 -13  11   68.39   24.10
 -13   9  11   -6.90   32.10
  -1  10 -11  126.69   25.40
  -1  10 -11  199.58   35.40
  -9  -1 -11  178.78   28.30
   9   1  11  226.18   28.70
 -10   9  11  171.88   33.70
   1 -10  11  177.28   35.10
  -9   2 -11  289.37   34.10
   7  -9 -11  307.87   33.60
   2   7 -11  384.06   49.30
  -7   9  11  326.77   43.70
   9  -2  11  376.46   41.40
  -2  -7  11  390.26   44.30
   4  -9 -11  417.26   32.60
  -9   5 -11  350.86   45.90
  -9   5 -11  321.87   30.40
   5   4 -11  363.36   49.20
   9  -5  11  362.36   43.50
  -4   9  11  360.36   42.40
  -5  -4  11  422.36   44.20
  -9   8 -11  602.64   51.99
   8   1 -11  532.15   52.49
   1  -9 -11  531.35   34.60
   9  -8  11  501.35   44.80
  -8  -1  11  539.95   51.09
  -1   9  11  467.25   44.90
  11  -2 -11  356.66   50.09
  -9  11 -11  357.86   49.70
  -9  11 -11  394.56   40.00
  -2  -9 -11  416.66   31.80
   9 -11  11  361.76   47.40
 -11   2  11  391.46   52.49
   2   9  11  373.46   40.90
   5   9  11  423.06   44.80
   9 -14  11  333.17   41.50
  -2  12 -11  169.08   38.10
  -2  12 -11  109.09   26.40
  12 -10 -11  119.79   27.90
 -10  -2 -11  119.99   26.00
  10   2  11  182.58   29.40
   2 -12  11   96.79   27.10
 -12  10  11  111.29   35.30
   9 -10 -11  146.39   24.00
 -10   1 -11  102.49   28.20
   1   9 -11  175.38   27.20
   1   9 -11  163.88   33.50
  -1  -9  11  149.19   32.70
  -9  10  11  157.78   31.80
  10  -1  11  196.08   28.00
   6 -10 -11   -1.10   17.00
 -10   4 -11   11.50   26.30
   4   6 -11   60.39   31.90
  -6  10  11    7.90   23.50
  -4  -6  11   24.80   25.20
  10  -4  11   -4.80   24.50
 -10   7 -11   34.80   18.00
   3 -10 -11   49.80   17.60
   7   3 -11   80.39   31.00
 -10   7 -11   87.89   27.60
  -7  -3  11   78.99   28.10
  10  -7  11   22.40   24.90
  -3  10  11   24.70   24.70
 -10  10 -11   20.90   27.70
   0 -10 -11   -8.60   15.00
  10   0 -11  -39.80   27.60
 -10  10 -11   -1.00   23.30
 -10   0  11    3.90   28.60
  10 -10  11   11.80   24.30
   0  10  11  -10.20   22.80
  -3 -10 -11    3.20   14.90
 -10  13 -11   24.60   28.60
  13  -3 -11   46.30   30.60
 -10  13 -11   -5.20   22.40
   3  10  11   -1.90   24.50
 -13   3  11  -25.50   28.50
  10 -13  11   50.29   22.70
   0  11 -11   33.10   23.70
  11 -11 -11   -1.40   19.00
 -11   0 -11   27.70   24.20
   0  11 -11   19.60   29.90
   0 -11  11   21.70   24.60
  11   0  11    1.30   23.50
 -11  11  11   -1.60   27.30
   3   8 -11  150.28   36.00
 -11   3 -11   87.29   28.50
   8 -11 -11  119.99   22.00
  11  -3  11  131.39   29.00
  -3  -8  11  139.99   31.00
  -8  11  11  160.98   30.70
 -11   6 -11  474.45   50.49
 -11   6 -11  388.96   32.50
   5 -11 -11  434.96   31.40
   6   5 -11  511.75   55.69
  11  -6  11  423.16   46.40
  -5  11  11  472.75   46.50
  -6  -5  11  407.86   49.30
   9   2 -11  425.16   53.89
 -11   9 -11  445.06   50.79
   2 -11 -11  402.96   28.10
  11  -9  11  358.16   44.90
  -9  -2  11  388.26   50.09
  -2  11  11  338.47   43.40
  12  -1 -11  604.24   60.29
  -1 -11 -11  638.04   30.70
 -11  12 -11  588.64   55.79
 -11  12 -11  524.05   43.50
   1  11  11  668.73   48.80
 -12   1  11  482.15   53.49
  11 -12  11  617.04   49.90
   2  10 -11   89.19   35.70
   2  10 -11  115.09   26.20
  10 -12 -11  120.09   21.50
 -12   2 -11  116.49   29.30
  12  -2  11  140.99   28.30
 -10  12  11  112.39   30.80
  -2 -10  11  109.09   30.00
 -12   5 -11  277.07   35.60
 -12   5 -11  274.07   37.30
   7 -12 -11  379.26   28.90
   5   7 -11  249.97   39.80
  -5  -7  11  247.68   36.50
  12  -5  11  368.36   45.80
  -7  12  11  402.06   47.40
   4 -12 -11  352.46   26.60
   8   4 -11  355.66   43.60
 -12   8 -11  450.15   51.99
 -12   8 -11  393.76   35.70
  -4  12  11  382.06   43.90
  12  -8  11  356.36   47.40
  -8  -4  11  454.25   52.89
 -12  11 -11  631.04   43.50
 -12  11 -11  631.14   57.39
   1 -12 -11  615.74   28.70
  11   1 -11  698.63   61.69
 -11  -1  11  595.64   50.09
  -1  12  11  559.84   48.60
  12 -11  11  509.55   47.10
 -13   4 -11   15.90   26.30
   4   9 -11  -15.60   30.40
   9 -13 -11    2.30   15.00
  13  -4  11   24.10   23.80
  -4  -9  11   48.70   24.80
  -9  13  11  -21.20   27.80
   6 -13 -11   25.60   13.00
   7   6 -11   16.70   32.80
 -13   7 -11   17.00   18.50
 -13   7 -11   43.50   29.60
  -6  13  11   32.70   26.70
  13  -7  11   43.30   27.20
  -7  -6  11   -0.90   25.00
  10   3 -11   18.70   33.60
 -13  10 -11  -10.60   29.20
   3 -13 -11    3.30   10.60
  13 -10  11   46.90   27.30
 -10  -3  11    7.90   29.60
  -3  13  11   42.20   26.90
   8 -14 -11  159.98   19.90
 -14   6 -11  205.78   36.90
  -6  -8  11  180.58   30.20
  14  -6  11  170.38   32.10
  -8  14  11  197.38   34.00
  14  -9  11  279.07   37.00
  -9  -5  11  262.17   31.90
   0   0 -12  980.20   57.69
   0   0  12  878.81   63.09
  -1   2 -12  189.78   34.60
   2  -1 -12  224.08   34.70
  -1  -1 -12  209.98   32.60
   1   1  12  167.88   36.80
  -2   1  12  203.08   36.70
   1  -2  12  230.18   37.00
  -2   1 -12  226.88   34.30
   1   1 -12  222.98   35.30
   1  -2 -12  195.38   32.50
  -1   2  12  198.78   36.80
   2  -1  12  320.17   40.20
  -1  -1  12  268.77   40.40
  -2  -2 -12  158.88   31.00
  -2   4 -12  197.48   38.10
   4  -2 -12  199.28   32.80
   2   2  12  244.38   36.20
   2  -4  12  206.78   37.80
  -4   2  12  167.38   37.50
   0   3 -12  688.53   57.39
  -3   0 -12  719.43   52.99
   3  -3 -12  673.23   50.19
   0  -3  12  699.93   59.49
  -3   3  12  612.74   58.59
   3   0  12  618.74   54.79
  -3   3 -12  650.83   55.49
   3   0 -12  745.03   56.79
   0  -3 -12  773.32   48.80
  -3   0  12  706.43   58.19
   3  -3  12  562.04   56.49
   0   3  12  600.04   53.69
  -4   2 -12  169.88   31.80
   2   2 -12  194.18   37.70
   2  -4 -12  147.89   28.10
   4  -2  12  114.99   33.60
  -2   4  12  151.88   33.60
  -2  -2  12  130.39   33.60
   0   0   0    0.00    0.00

_computing_structure_solution     'SHELXT 2014/5 (Sheldrick, 2014)'
;
_shelx_hkl_checksum              24869
_olex2_submission_special_instructions 'No special instructions were received'
loop_
_space_group_symop_operation_xyz
'x, y, z'
'-y, x-y, z'
'-x+y, -x, z'
'x+2/3, y+1/3, z+1/3'
'-y+2/3, x-y+1/3, z+1/3'
'-x+y+2/3, -x+1/3, z+1/3'
'x+1/3, y+2/3, z+2/3'
'-y+1/3, x-y+2/3, z+2/3'
'-x+y+1/3, -x+2/3, z+2/3'
loop_
_atom_site_label
_atom_site_type_symbol
_atom_site_fract_x
_atom_site_fract_y
_atom_site_fract_z
_atom_site_U_iso_or_equiv
_atom_site_adp_type
_atom_site_occupancy
_atom_site_site_symmetry_order
_atom_site_calc_flag
_atom_site_refinement_flags_posn
_atom_site_refinement_flags_adp
_atom_site_refinement_flags_occupancy
_atom_site_disorder_assembly
_atom_site_disorder_group
Zn01 Zn 0.66991(5) 0.64565(5) 0.70848(10) 0.0180(3) Uani 1 1 d . . . . .
Zn02 Zn 0.33806(5) 0.35763(5) 0.54243(10) 0.0187(3) Uani 1 1 d . . . . .
O1 O 0.7483(3) 0.6958(3) 0.6875(8) 0.0256(17) Uani 1 1 d . . . . .
O4 O 0.4169(3) 0.3869(3) 0.5251(8) 0.0248(17) Uani 1 1 d . . . . .
O5 O 0.4037(3) 0.3347(3) 0.3499(7) 0.0255(18) Uani 1 1 d . . . . .
O2 O 0.7402(3) 0.7371(3) 0.5106(7) 0.0270(18) Uani 1 1 d . . . . .
O3 O 0.8715(4) 0.7494(4) 0.4471(8) 0.042(2) Uani 1 1 d . . . . .
O6 O 0.5450(4) 0.4544(3) 0.2745(8) 0.0333(17) Uani 1 1 d . U . . .
N4 N 0.6379(4) 0.5976(4) 0.5561(8) 0.0230(15) Uani 1 1 d . . . . .
N3 N 0.8609(4) 0.7644(4) 0.6601(9) 0.026(2) Uani 1 1 d . . . . .
H3 H 0.8710 0.7642 0.7418 0.031 Uiso 1 1 calc R . . . .
N6 N 0.5273(4) 0.4294(4) 0.4882(9) 0.024(2) Uani 1 1 d . . . . .
H6 H 0.5346 0.4389 0.5713 0.029 Uiso 1 1 calc R . . . .
N5 N 0.6436(4) 0.6137(4) 0.4267(9) 0.0230(15) Uani 1 1 d . . . . .
N2 N 0.9737(4) 0.6934(4) 0.5966(9) 0.025(2) Uani 1 1 d . U . . .
N1 N 0.9712(4) 0.7062(4) 0.7246(9) 0.024(2) Uani 1 1 d . U . . .
C3 C 0.9197(5) 0.7288(5) 0.6067(10) 0.023(2) Uani 1 1 d . U . . .
C4 C 0.8823(5) 0.7479(5) 0.5657(11) 0.026(3) Uani 1 1 d . . . . .
C12 C 0.4898(5) 0.3738(5) 0.4559(11) 0.028(3) Uani 1 1 d . . . . .
H12 H 0.5012 0.3640 0.3721 0.033 Uiso 1 1 calc R . . . .
C9 C 0.5895(5) 0.5247(5) 0.4360(10) 0.024(3) Uani 1 1 d . . . . .
C5 C 0.8219(5) 0.7824(5) 0.6357(11) 0.027(3) Uani 1 1 d . . . . .
H5 H 0.8177 0.7963 0.7226 0.032 Uiso 1 1 calc R . . . .
C8 C 0.6145(5) 0.5693(5) 0.3552(11) 0.029(3) Uani 1 1 d . . . . .
H8 H 0.6114 0.5685 0.2621 0.035 Uiso 1 1 calc R . . . .
C2 C 0.9439(5) 0.7071(5) 0.5269(11) 0.025(2) Uani 1 1 d . U . . .
H2 H 0.9393 0.7029 0.4343 0.030 Uiso 1 1 calc R . . . .
C13 C 0.4326(4) 0.3653(4) 0.4406(10) 0.019(2) Uani 1 1 d . . . . .
C6 C 0.7662(4) 0.7346(4) 0.6064(10) 0.017(2) Uani 1 1 d . . . . .
C10 C 0.6056(5) 0.5440(4) 0.5608(10) 0.024(2) Uani 1 1 d . . . . .
H10 H 0.5953 0.5225 0.6384 0.029 Uiso 1 1 calc R . . . .
C11 C 0.5518(5) 0.4675(5) 0.3933(11) 0.0333(17) Uani 1 1 d . U . . .
C1 C 0.9381(5) 0.7272(5) 0.7299(11) 0.024(2) Uani 1 1 d . U . . .
H1 H 0.9289 0.7393 0.8078 0.029 Uiso 1 1 calc R . . . .
C14 C 0.4877(6) 0.3363(5) 0.5660(14) 0.037(3) Uani 1 1 d . . . . .
H14A H 0.5241 0.3413 0.5798 0.055 Uiso 1 1 calc GR . . . .
H14B H 0.4625 0.2983 0.5417 0.055 Uiso 1 1 calc GR . . . .
H14C H 0.4751 0.3450 0.6472 0.055 Uiso 1 1 calc GR . . . .
C7 C 0.8429(7) 0.8307(8) 0.546(2) 0.073(6) Uani 1 1 d . . . . .
H7A H 0.8770 0.8604 0.5811 0.109 Uiso 1 1 calc GR . . . .
H7B H 0.8159 0.8425 0.5393 0.109 Uiso 1 1 calc GR . . . .
H7C H 0.8495 0.8206 0.4585 0.109 Uiso 1 1 calc GR . . . .
loop_
_atom_site_aniso_label
_atom_site_aniso_U_11
_atom_site_aniso_U_22
_atom_site_aniso_U_33
_atom_site_aniso_U_23
_atom_site_aniso_U_13
_atom_site_aniso_U_12
Zn01 0.0225(7) 0.0225(7) 0.0084(6) -0.0004(5) 0.0005(5) 0.0108(6)
Zn02 0.0229(7) 0.0261(7) 0.0084(6) 0.0005(5) 0.0002(5) 0.0132(6)
O1 0.022(4) 0.033(4) 0.020(4) 0.003(3) -0.004(3) 0.012(4)
O4 0.020(4) 0.031(4) 0.020(4) -0.006(3) 0.002(3) 0.009(3)
O5 0.036(5) 0.030(4) 0.014(4) 0.000(3) -0.003(3) 0.019(4)
O2 0.036(5) 0.030(4) 0.014(4) -0.003(3) -0.008(3) 0.016(4)
O3 0.049(6) 0.081(7) 0.013(4) -0.008(4) -0.011(4) 0.046(5)
O6 0.043(4) 0.031(4) 0.009(3) -0.003(3) -0.004(3) 0.005(3)
N4 0.031(4) 0.030(4) 0.005(3) 0.000(3) 0.000(3) 0.013(3)
N3 0.027(5) 0.040(6) 0.013(4) 0.000(4) -0.004(4) 0.018(5)
N6 0.029(5) 0.030(5) 0.006(4) 0.000(4) 0.001(4) 0.010(4)
N5 0.031(4) 0.030(4) 0.005(3) 0.000(3) 0.000(3) 0.013(3)
N2 0.034(5) 0.031(5) 0.006(4) 0.000(3) 0.001(4) 0.014(4)
N1 0.029(5) 0.035(5) 0.010(4) -0.003(4) -0.001(4) 0.019(4)
C3 0.026(5) 0.031(5) 0.010(5) -0.001(4) -0.003(4) 0.013(4)
C4 0.023(6) 0.034(6) 0.019(6) -0.005(5) -0.003(5) 0.012(5)
C12 0.032(6) 0.039(7) 0.015(6) -0.003(5) 0.001(5) 0.019(6)
C9 0.025(6) 0.027(6) 0.013(5) -0.006(4) -0.002(4) 0.007(5)
C5 0.024(6) 0.033(6) 0.021(6) 0.000(5) 0.005(5) 0.012(5)
C8 0.040(7) 0.030(7) 0.011(6) 0.003(5) 0.001(5) 0.013(6)
C2 0.029(5) 0.039(6) 0.009(5) 0.000(4) -0.007(4) 0.018(4)
C13 0.019(5) 0.021(5) 0.012(5) 0.004(4) -0.003(4) 0.006(4)
C6 0.020(5) 0.023(5) 0.011(5) -0.002(4) -0.001(4) 0.012(5)
C10 0.033(6) 0.020(5) 0.010(5) 0.000(4) 0.001(4) 0.006(5)
C11 0.043(4) 0.031(4) 0.009(3) -0.003(3) -0.004(3) 0.005(3)
C1 0.026(5) 0.038(5) 0.014(5) -0.002(4) -0.002(4) 0.020(4)
C14 0.040(7) 0.031(7) 0.041(8) 0.005(6) -0.005(6) 0.018(6)
C7 0.057(11) 0.061(11) 0.077(13) 0.022(10) -0.011(10) 0.012(10)
loop_
_atom_type_symbol
_atom_type_description
_atom_type_scat_dispersion_real
_atom_type_scat_dispersion_imag
_atom_type_scat_source
C C 0.0033 0.0016 'International Tables Vol C Tables 4.2.6.8 and 6.1.1.4'
H H 0.0000 0.0000 'International Tables Vol C Tables 4.2.6.8 and 6.1.1.4'
N N 0.0061 0.0033 'International Tables Vol C Tables 4.2.6.8 and 6.1.1.4'
O O 0.0106 0.0060 'International Tables Vol C Tables 4.2.6.8 and 6.1.1.4'
Zn Zn 0.2839 1.4301 'International Tables Vol C Tables 4.2.6.8 and 6.1.1.4'
loop_
_geom_angle_atom_site_label_1
_geom_angle_atom_site_label_2
_geom_angle_atom_site_label_3
_geom_angle
_geom_angle_site_symmetry_1
_geom_angle_site_symmetry_3
_geom_angle_publ_flag
O1 Zn01 O2 105.4(3) . 6_565 ?
O1 Zn01 N5 107.2(4) . 6_565 ?
O2 Zn01 N5 113.6(4) 6_565 6_565 ?
N4 Zn01 O1 112.4(4) . . ?
N4 Zn01 O2 101.1(4) . 6_565 ?
N4 Zn01 N5 116.6(4) . 6_565 ?
O4 Zn02 O5 103.9(3) . 5 ?
O4 Zn02 N2 106.2(4) . 2_655 ?
O4 Zn02 N1 114.2(4) . 7_444 ?
O5 Zn02 N2 111.8(4) 5 2_655 ?
N1 Zn02 O5 102.6(4) 7_444 5 ?
N1 Zn02 N2 117.4(4) 7_444 2_655 ?
C6 O1 Zn01 121.4(7) . . ?
C13 O4 Zn02 117.4(7) . . ?
C13 O5 Zn02 142.4(7) . 9_554 ?
C6 O2 Zn01 141.4(8) . 8_654 ?
N5 N4 Zn01 126.1(7) . . ?
C10 N4 Zn01 125.6(7) . . ?
C10 N4 N5 108.3(9) . . ?
C4 N3 H3 118.1 . . ?
C4 N3 C5 123.9(10) . . ?
C5 N3 H3 118.1 . . ?
C12 N6 H6 119.4 . . ?
C11 N6 H6 119.4 . . ?
C11 N6 C12 121.2(9) . . ?
N4 N5 Zn01 121.7(7) . 8_654 ?
C8 N5 Zn01 131.0(8) . 8_654 ?
C8 N5 N4 107.3(9) . . ?
N1 N2 Zn02 121.2(7) . 3_665 ?
C2 N2 Zn02 130.6(8) . 3_665 ?
C2 N2 N1 108.1(10) . . ?
N2 N1 Zn02 126.3(7) . 4 ?
C1 N1 Zn02 126.1(7) . 4 ?
C1 N1 N2 107.4(9) . . ?
C2 C3 C4 127.1(10) . . ?
C1 C3 C4 129.0(10) . . ?
C1 C3 C2 103.9(10) . . ?
O3 C4 N3 121.4(11) . . ?
O3 C4 C3 121.2(11) . . ?
N3 C4 C3 117.5(10) . . ?
N6 C12 H12 109.6 . . ?
N6 C12 C13 110.3(10) . . ?
N6 C12 C14 110.3(10) . . ?
C13 C12 H12 109.6 . . ?
C13 C12 C14 107.3(10) . . ?
C14 C12 H12 109.6 . . ?
C8 C9 C11 125.9(10) . . ?
C10 C9 C8 105.7(10) . . ?
C10 C9 C11 128.3(10) . . ?
N3 C5 H5 104.5 . . ?
N3 C5 C6 110.8(10) . . ?
N3 C5 C7 113.7(11) . . ?
C6 C5 H5 104.5 . . ?
C7 C5 H5 104.5 . . ?
C7 C5 C6 117.3(11) . . ?
N5 C8 C9 109.7(10) . . ?
N5 C8 H8 125.2 . . ?
C9 C8 H8 125.2 . . ?
N2 C2 C3 110.6(10) . . ?
N2 C2 H2 124.7 . . ?
C3 C2 H2 124.7 . . ?
O4 C13 C12 117.4(9) . . ?
O5 C13 O4 124.9(10) . . ?
O5 C13 C12 117.6(10) . . ?
O1 C6 C5 116.0(9) . . ?
O2 C6 O1 124.7(10) . . ?
O2 C6 C5 119.1(10) . . ?
N4 C10 C9 109.1(10) . . ?
N4 C10 H10 125.5 . . ?
C9 C10 H10 125.5 . . ?
O6 C11 N6 120.7(11) . . ?
O6 C11 C9 121.6(11) . . ?
N6 C11 C9 117.5(10) . . ?
N1 C1 C3 109.9(10) . . ?
N1 C1 H1 125.0 . . ?
C3 C1 H1 125.0 . . ?
C12 C14 H14A 109.5 . . ?
C12 C14 H14B 109.5 . . ?
C12 C14 H14C 109.5 . . ?
H14A C14 H14B 109.5 . . ?
H14A C14 H14C 109.5 . . ?
H14B C14 H14C 109.5 . . ?
C5 C7 H7A 109.5 . . ?
C5 C7 H7B 109.5 . . ?
C5 C7 H7C 109.5 . . ?
H7A C7 H7B 109.5 . . ?
H7A C7 H7C 109.5 . . ?
H7B C7 H7C 109.5 . . ?
loop_
_geom_bond_atom_site_label_1
_geom_bond_atom_site_label_2
_geom_bond_distance
_geom_bond_site_symmetry_2
_geom_bond_publ_flag
Zn01 O1 1.962(8) . ?
Zn01 O2 1.971(8) 6_565 ?
Zn01 N4 1.961(9) . ?
Zn01 N5 1.975(10) 6_565 ?
Zn02 O4 1.967(8) . ?
Zn02 O5 1.977(8) 5 ?
Zn02 N2 1.987(10) 2_655 ?
Zn02 N1 1.967(9) 7_444 ?
O1 C6 1.261(13) . ?
O4 C13 1.260(13) . ?
O5 Zn02 1.977(8) 9_554 ?
O5 C13 1.251(13) . ?
O2 Zn01 1.971(8) 8_654 ?
O2 C6 1.246(13) . ?
O3 C4 1.251(14) . ?
O6 C11 1.251(14) . ?
N4 N5 1.376(12) . ?
N4 C10 1.328(15) . ?
N3 H3 0.8800 . ?
N3 C4 1.338(15) . ?
N3 C5 1.453(15) . ?
N6 H6 0.8800 . ?
N6 C12 1.430(15) . ?
N6 C11 1.355(15) . ?
N5 Zn01 1.975(10) 8_654 ?
N5 C8 1.325(15) . ?
N2 Zn02 1.987(10) 3_665 ?
N2 N1 1.363(12) . ?
N2 C2 1.305(15) . ?
N1 Zn02 1.967(9) 4 ?
N1 C1 1.341(15) . ?
C3 C4 1.474(16) . ?
C3 C2 1.390(16) . ?
C3 C1 1.368(15) . ?
C12 H12 1.0000 . ?
C12 C13 1.522(16) . ?
C12 C14 1.526(17) . ?
C9 C8 1.373(16) . ?
C9 C10 1.368(15) . ?
C9 C11 1.493(16) . ?
C5 H5 1.0000 . ?
C5 C6 1.511(16) . ?
C5 C7 1.50(2) . ?
C8 H8 0.9500 . ?
C2 H2 0.9500 . ?
C10 H10 0.9500 . ?
C1 H1 0.9500 . ?
C14 H14A 0.9800 . ?
C14 H14B 0.9800 . ?
C14 H14C 0.9800 . ?
C7 H7A 0.9800 . ?
C7 H7B 0.9800 . ?
C7 H7C 0.9800 . ?
