#------------------------------------------------------------------------------
#$Date: 2020-08-22 01:52:31 +0300 (Sat, 22 Aug 2020) $
#$Revision: 255528 $
#$URL: file:///home/coder/svn-repositories/cod/cif/4/13/51/4135175.cif $
#------------------------------------------------------------------------------
#
# This file is available in the Crystallography Open Database (COD),
# http://www.crystallography.net/
#
# All data on this site have been placed in the public domain by the
# contributors.
#
data_4135175
loop_
_publ_author_name
'Yan, Yong'
'Carrington, Elliot J.'
'P\'etuya, R\'emi'
'Whitehead, George F. S.'
'Verma, Ajay'
'Hylton, Rebecca K.'
'Tang, Chiu C.'
'Berry, Neil G.'
'Darling, George R.'
'Dyer, Matthew S.'
'Antypov, Dmytro'
'Katsoulidis, Alexandros P.'
'Rosseinsky, Matthew J.'
_publ_section_title
;
 Amino Acid Residues Determine the Response of Flexible Metal-Organic
 Frameworks to Guests.
;
_journal_name_full               'Journal of the American Chemical Society'
_journal_paper_doi               10.1021/jacs.0c03853
_journal_year                    2020
_chemical_formula_moiety         'C6 H5 N3 O3 Zn, 0.47(C8 H10)'
_chemical_formula_sum            'C9.79 H9.73 N3 O3 Zn'
_chemical_formula_weight         282.76
_space_group_crystal_system      trigonal
_space_group_IT_number           161
_space_group_name_Hall           'R 3 -2"c'
_space_group_name_H-M_alt        'R 3 c :H'
_atom_sites_solution_hydrogens   geom
_atom_sites_solution_primary     direct
_audit_creation_date             2017-08-18
_audit_creation_method
;
Olex2 1.2
(compiled 2017.08.10 svn.r3458 for OlexSys, GUI svn.r5375)
;
_cell_angle_alpha                90
_cell_angle_beta                 90
_cell_angle_gamma                120
_cell_formula_units_Z            18
_cell_length_a                   27.0749(11)
_cell_length_b                   27.0749(11)
_cell_length_c                   10.1437(4)
_cell_measurement_reflns_used    7165
_cell_measurement_temperature    100
_cell_measurement_theta_max      24.9940
_cell_measurement_theta_min      2.5700
_cell_volume                     6439.6(4)
_computing_cell_refinement       'CrysAlisPro 1.171.38.46 (Rigaku OD, 2015)'
_computing_data_collection       'CrysAlisPro 1.171.38.46 (Rigaku OD, 2015)'
_computing_data_reduction        'CrysAlisPro 1.171.38.46 (Rigaku OD, 2015)'
_computing_molecular_graphics    'Olex2 (Dolomanov et al., 2009)'
_computing_publication_material  'Olex2 (Dolomanov et al., 2009)'
_computing_structure_refinement  'ShelXL (Sheldrick, 2015)'
_computing_structure_solution    'ShelXS (Sheldrick, 2008)'
_diffrn_ambient_temperature      100
_diffrn_detector                 'CCD plate'
_diffrn_measured_fraction_theta_full 0.999
_diffrn_measured_fraction_theta_max 0.999
_diffrn_measurement_details
;
List of Runs (angles in degrees, time in seconds):

  # Type    Start    End  Width  t~exp~   \w     \q     \k     \f   Frames
--------------------------------------------------------------------------
  1  \w   -110.00  15.00   1.00   40.00    --  -20.00 -68.00   0.00  125
  2  \w   -110.00  15.00   1.00   40.00    --  -20.00 -68.00 120.00  125
  3  \w   -110.00  15.00   1.00   40.00    --  -20.00 -68.00 240.00  125
  4  \w   -110.00  15.00   1.00   40.00    --  -20.00 -30.00  90.00  125
;
_diffrn_measurement_device       'abstract diffractometer'
_diffrn_measurement_device_type
'dtrek-CrysAlisPro-abstract goniometer imported rigaku-d*trek images'
_diffrn_measurement_method       '\w scans'
_diffrn_orient_matrix_type
'CrysAlisPro convention (1999,Acta A55,543-557)'
_diffrn_orient_matrix_UB_11      -0.0241255000
_diffrn_orient_matrix_UB_12      0.0030691000
_diffrn_orient_matrix_UB_13      0.0123542000
_diffrn_orient_matrix_UB_21      -0.0182046000
_diffrn_orient_matrix_UB_22      -0.0285916000
_diffrn_orient_matrix_UB_23      -0.0202636000
_diffrn_orient_matrix_UB_31      -0.0011318000
_diffrn_orient_matrix_UB_32      -0.0094095000
_diffrn_orient_matrix_UB_33      0.0657544000
_diffrn_radiation_monochromator  graphite
_diffrn_radiation_probe          x-ray
_diffrn_radiation_type           MoK\a
_diffrn_radiation_wavelength     0.71073
_diffrn_reflns_av_R_equivalents  0.0571
_diffrn_reflns_av_unetI/netI     0.0302
_diffrn_reflns_Laue_measured_fraction_full 0.999
_diffrn_reflns_Laue_measured_fraction_max 0.999
_diffrn_reflns_limit_h_max       32
_diffrn_reflns_limit_h_min       -32
_diffrn_reflns_limit_k_max       32
_diffrn_reflns_limit_k_min       -30
_diffrn_reflns_limit_l_max       10
_diffrn_reflns_limit_l_min       -12
_diffrn_reflns_number            21121
_diffrn_reflns_point_group_measured_fraction_full 0.962
_diffrn_reflns_point_group_measured_fraction_max 0.962
_diffrn_reflns_theta_full        25.014
_diffrn_reflns_theta_max         25.014
_diffrn_reflns_theta_min         2.606
_diffrn_source                   'fine-focus sealed X-ray tube'
_diffrn_source_type              'Enhance (Mo) X-ray Source'
_exptl_absorpt_coefficient_mu    1.715
_exptl_absorpt_correction_T_max  1.00000
_exptl_absorpt_correction_T_min  0.70155
_exptl_absorpt_correction_type   multi-scan
_exptl_absorpt_process_details
;
CrysAlisPro 1.171.38.46 (Rigaku Oxford Diffraction, 2015)
Empirical absorption correction using spherical harmonics,
 implemented in SCALE3 ABSPACK scaling algorithm.
;
_exptl_crystal_colour            white
_exptl_crystal_colour_primary    white
_exptl_crystal_density_diffrn    1.312
_exptl_crystal_description       needle
_exptl_crystal_F_000             2582
_exptl_crystal_preparation       'Solvent Exchange in Ethyl Benzene'
_exptl_crystal_size_max          0.2
_exptl_crystal_size_mid          0.03
_exptl_crystal_size_min          0.03
_refine_diff_density_max         0.964
_refine_diff_density_min         -0.408
_refine_diff_density_rms         0.135
_refine_ls_abs_structure_details
;
 Flack x determined using 977 quotients [(I+)-(I-)]/[(I+)+(I-)]
 (Parsons, Flack and Wagner, Acta Cryst. B69 (2013) 249-259).
;
_refine_ls_abs_structure_Flack   -0.007(13)
_refine_ls_extinction_method     none
_refine_ls_goodness_of_fit_ref   1.096
_refine_ls_hydrogen_treatment    constr
_refine_ls_matrix_type           full
_refine_ls_number_parameters     140
_refine_ls_number_reflns         2431
_refine_ls_number_restraints     9
_refine_ls_restrained_S_all      1.098
_refine_ls_R_factor_all          0.0608
_refine_ls_R_factor_gt           0.0570
_refine_ls_shift/su_max          0.001
_refine_ls_shift/su_mean         0.000
_refine_ls_structure_factor_coef Fsqd
_refine_ls_weighting_details
'w=1/[\s^2^(Fo^2^)+(0.1085P)^2^+12.1998P] where P=(Fo^2^+2Fc^2^)/3'
_refine_ls_weighting_scheme      calc
_refine_ls_wR_factor_gt          0.1509
_refine_ls_wR_factor_ref         0.1538
_reflns_Friedel_coverage         0.913
_reflns_Friedel_fraction_full    0.924
_reflns_Friedel_fraction_max     0.924
_reflns_number_gt                2301
_reflns_number_total             2431
_reflns_threshold_expression     'I > 2\s(I)'
_cod_data_source_file            ZnGlyPyr_EthylBenzene_100K.cif
_cod_data_source_block           ZnGlyPyr_EthylBenzene_100K
_cod_original_cell_volume        6439.7(6)
_cod_original_sg_symbol_H-M      'R 3 c'
_cod_database_code               4135175
_shelx_shelxl_version_number     2014/7
_chemical_oxdiff_formula         'Zn C6 H5 N3 O3'
_shelx_space_group_comment
;
The symmetry employed for this shelxl refinement is uniquely defined
by the following loop, which should always be used as a source of
symmetry information in preference to the above space-group names.
They are only intended as comments.
;
_shelx_estimated_absorpt_t_max   0.950
_shelx_estimated_absorpt_t_min   0.725
_reflns_odcompleteness_completeness 99.78
_reflns_odcompleteness_iscentric 1
_reflns_odcompleteness_theta     24.96
_olex2_refinement_description
;
1. Fixed Uiso
 At 1.2 times of:
  All C(H) groups, All C(H,H) groups, All N(H) groups
 At 1.5 times of:
  All C(H,H,H) groups
2. Uiso/Uaniso restraints and constraints
C14 \\sim C13 \\sim C7 \\sim C8 \\sim C9 \\sim C10 \\sim C11 \\sim C12: within
2A with sigma of 0.02 and sigma for terminal atoms of 0.04
3. Others
 Sof(C13)=Sof(H13A)=Sof(H13B)=Sof(C7)=Sof(C8)=Sof(H8)=Sof(C9)=Sof(H9)=Sof(C10)=
 Sof(H10)=Sof(C11)=Sof(H11)=Sof(C12)=Sof(H12)=Sof(C14)=Sof(H14A)=Sof(H14B)=
 Sof(H14C)=FVAR(1)
4.a Secondary CH2 refined with riding coordinates:
 C5(H5A,H5B), C13(H13A,H13B)
4.b Aromatic/amide H refined with riding coordinates:
 N3(H3), C1(H1), C3(H3A), C8(H8), C9(H9), C10(H10), C11(H11), C12(H12)
4.c Fitted hexagon refined as free rotating group:
 C7(C8,C9,C10,C11,C12)
4.d Idealised Me refined as rotating group:
 C14(H14A,H14B,H14C)
;
_shelx_res_file
;
    yy_zn_gly_pyr_ethylbenzene.res created by SHELXL-2014/7

TITL YY_Zn_Gly_Pyr_Ethylbenzene in R3c #161
REM reset to R3c #161
CELL 0.71073 27.074911 27.074911 10.143741 90 90 120
ZERR 18 0.001081 0.001081 0.000406 0 0 0
LATT -3
SYMM -Y,+X-Y,+Z
SYMM +Y-X,-X,+Z
SYMM +Y-X,+Y,0.5+Z
SYMM +X,+X-Y,0.5+Z
SYMM -Y,-X,0.5+Z
SFAC C H N O Zn
UNIT 176.18 175.23 54 54 18
SIMU 0.02 0.04 2 C14 C13 C7 C8 C9 C10 C11 C12

L.S. 16
PLAN  20
SIZE 0.03 0.03 0.2
TEMP -173.15
BOND
fmap 2
acta
REM <olex2.extras>
REM <HklSrc "%.\\YY_Zn_Gly_Pyr_Ethylbenzene.hkl">
REM </olex2.extras>

WGHT    0.108500   12.199800
FVAR       0.78489   0.47348
ZN1   5    0.675134    0.647855    0.426580    11.00000    0.04111    0.03813 =
         0.01258   -0.00048    0.00009    0.01912
N1    3    0.645749    0.595822    0.275460    11.00000    0.04078    0.03777 =
         0.00778   -0.00210   -0.00302    0.01692
O2    4    0.676547    0.597840    0.565410    11.00000    0.04138    0.04628 =
         0.01831    0.00707    0.00495    0.01972
N2    3    0.630914    0.685296    0.480363    11.00000    0.04640    0.04234 =
         0.01042   -0.00417   -0.00011    0.02480
O1    4    0.755483    0.707810    0.405787    11.00000    0.04105    0.04483 =
         0.01826    0.00148   -0.00410    0.01643
N3    3    0.582571    0.462892    0.703087    11.00000    0.04656    0.03833 =
         0.01286   -0.00183   -0.00149    0.01706
AFIX  43
H3    2    0.574255    0.451594    0.785508    11.00000   -1.20000
AFIX   0
C6    1    0.644274    0.564483    0.656901    11.00000    0.03676    0.04043 =
         0.01524   -0.00403   -0.00211    0.01919
O3    4    0.553867    0.447002    0.490919    11.00000    0.04656    0.05672 =
         0.01842    0.00410    0.00123    0.01655
C4    1    0.541980    0.438912    0.610259    11.00000    0.04219    0.03992 =
         0.01826    0.00080    0.00211    0.01774
C1    1    0.616569    0.540314    0.278350    11.00000    0.03626    0.04019 =
         0.01394   -0.00156   -0.00216    0.01570
AFIX  43
H1    2    0.608671    0.518113    0.356225    11.00000   -1.20000
AFIX   0
C5    1    0.639271    0.506643    0.669836    11.00000    0.03537    0.04490 =
         0.02118   -0.00054    0.00030    0.01794
AFIX  23
H5A   2    0.650570    0.496703    0.585504    11.00000   -1.20000
H5B   2    0.665956    0.508383    0.738841    11.00000   -1.20000
AFIX   0
C2    1    0.482221    0.401476    0.653479    11.00000    0.04970    0.04340 =
         0.01702   -0.00026   -0.00033    0.02691
C3    1    0.611715    0.713041    0.407221    11.00000    0.05050    0.03978 =
         0.02044    0.00113   -0.00048    0.02465
AFIX  43
H3A   2    0.615278    0.717191    0.314144    11.00000   -1.20000
AFIX   0

PART 1
C13   1    0.482355    0.543849    0.291303    21.00000    0.09748
AFIX  23
H13A  2    0.520283    0.566383    0.249495    21.00000   -1.20000
H13B  2    0.463331    0.505952    0.248275    21.00000   -1.20000
AFIX  66
C7    1    0.449973    0.571113    0.259804    21.00000    0.07613
C8    1    0.461096    0.620738    0.325258    21.00000    0.11639
AFIX  43
H8    2    0.491963    0.638169    0.385687    21.00000   -1.20000
AFIX  65
C9    1    0.427055    0.644858    0.302296    21.00000    0.16196
AFIX  43
H9    2    0.434657    0.678774    0.347031    21.00000   -1.20000
AFIX  65
C10   1    0.381891    0.619354    0.213880    21.00000    0.17795
AFIX  43
H10   2    0.358625    0.635840    0.198187    21.00000   -1.20000
AFIX  65
C11   1    0.370767    0.569730    0.148425    21.00000    0.17049
AFIX  43
H11   2    0.339900    0.552300    0.087996    21.00000   -1.20000
AFIX  65
C12   1    0.404808    0.545609    0.171386    21.00000    0.12410
AFIX  43
H12   2    0.397206    0.511693    0.126650    21.00000   -1.20000
AFIX   0
C14   1    0.492396    0.534652    0.439662    21.00000    0.09508
AFIX 137
H14A  2    0.488735    0.496979    0.450135    21.00000   -1.50000
H14B  2    0.463987    0.537074    0.494908    21.00000   -1.50000
H14C  2    0.530730    0.564166    0.466484    21.00000   -1.50000
AFIX   0
HKLF 4

REM  YY_Zn_Gly_Pyr_Ethylbenzene in R3c #161
REM R1 =  0.0570 for    2301 Fo > 4sig(Fo)  and  0.0608 for all    2431 data
REM    140 parameters refined using      9 restraints

END

WGHT      0.1085     12.2075

REM Highest difference peak  0.964,  deepest hole -0.408,  1-sigma level  0.135
Q1    1   0.7131  0.6822  0.4254  11.00000  0.05    0.96
Q2    1   0.6375  0.6154  0.4260  11.00000  0.05    0.94
Q3    1   0.6739  0.6153  0.4283  11.00000  0.05    0.87
Q4    1   0.6422  0.6365  0.4291  11.00000  0.05    0.85
Q5    1   0.7097  0.6447  0.4283  11.00000  0.05    0.75
Q6    1   0.6783  0.6845  0.4216  11.00000  0.05    0.72
Q7    1   0.4930  0.5657  0.2684  11.00000  0.05    0.60
Q8    1   0.4611  0.5313  0.1800  11.00000  0.05    0.58
Q9    1   0.4778  0.5581  0.5359  11.00000  0.05    0.50
Q10   1   0.4890  0.5325  0.3710  11.00000  0.05    0.50
Q11   1   0.4007  0.5416  0.0086  11.00000  0.05    0.44
Q12   1   0.4848  0.5764  0.4691  11.00000  0.05    0.44
Q13   1   0.4795  0.5631  0.3775  11.00000  0.05    0.42
Q14   1   0.6100  0.4913  0.6692  11.00000  0.05    0.38
Q15   1   0.5277  0.4593  0.4991  11.00000  0.05    0.38
Q16   1   0.5582  0.4879  0.6683  11.00000  0.05    0.37
Q17   1   0.4241  0.5869  0.2929  11.00000  0.05    0.37
Q18   1   0.5089  0.4551  0.6370  11.00000  0.05    0.35
Q19   1   0.4236  0.6575  0.2643  11.00000  0.05    0.34
Q20   1   0.7344  0.7232  0.4166  11.00000  0.05    0.33
;
_shelx_res_checksum              64092
_shelx_hkl_file
;
   0   0 -12 26296.4 1371.91   3
   0   0 -12 21234.7 923.228   1
   0   0  -9 230.262 449.444   3
   0   0  -9 569.627 329.039   1
   0   0  -6 118223. 1845.42   3
   0   0  -6 116116. 848.238   4
   0   0  -3-90.3025 77.0423   4
   0   0  -3-94.4348 158.036   1
   0   0   3-123.057 171.094   1
   0   1 -10 24.5368 431.811   3
  -1   0 -10 700.215 299.116   1
   1  -1 -10 330.230 436.958   3
   0   1 -10 427.735 345.540   1
  -1   0 -10-200.536 436.270   3
   1  -1 -10 53.7583 337.326   1
  -1   0  -7-120.192 127.416   4
   0   1  -7 51.6237 322.415   3
  -1   0  -7-86.6720 335.131   3
  -1   0  -7 93.0125 209.985   1
   1  -1  -7-196.156 332.564   3
   1  -1  -7 26.3912 188.119   2
   0   1  -7 11.0593 56.0059   4
   1  -1  -7 368.179 256.129   1
   0   1  -7-20.1396 55.3798   4
   0   1  -7 99.8751 235.398   1
   1  -1  -7 24.1121 67.8636   4
   0   1  -4 10276.0 196.180   4
   0   1  -4 9754.13 387.561   1
  -1   0  -4 9559.34 344.789   1
   1  -1  -4 9990.43 222.028   4
  -1   0  -4 11012.9 278.695   4
  -1   0  -4 9885.49 477.753   3
   1  -1  -4 10200.2 391.826   1
  -1   0  -1 280.148 106.226   3
   0   1  -1 40.2855 77.6300   2
   1  -1  -1 117.883 82.8592   1
   0   1   2 4349.56 184.676   1
   0   1   2 4745.14 151.498   4
  -1   0   2 4739.07 238.228   1
  -1   0   5-238.873 232.909   1
   0   1   5 76.6463 217.077   1
   0  -1 -11-626.922 504.443   3
   0  -1 -11 157.937 352.322   1
  -1   1 -11-164.136 463.560   3
   1   0 -11-371.267 480.304   3
  -1   1 -11 128.429 368.068   1
   1   0 -11 524.057 394.019   1
   0  -1  -8 1291.11 416.880   3
  -1   1  -8 939.818 130.225   4
   0  -1  -8 1415.88 302.748   1
  -1   1  -8 1008.06 279.017   1
  -1   1  -8 582.996 111.290   4
   0  -1  -8 765.414 134.526   4
   1   0  -8 675.533 373.726   3
  -1   1  -8 717.825 367.884   3
   1   0  -8 791.643 278.717   1
   0  -1  -5 8.78279 277.190   3
   0  -1  -5 29.7569 116.037   4
  -1   1  -5 198.068 276.334   3
  -1   1  -5-109.130 105.339   4
   0  -1  -5-218.114 197.281   1
   1   0  -5 267.816 243.462   1
  -1   1  -5 49.9440 199.935   1
  -1   1  -2 5023.43 272.110   3
   0  -1  -2 4484.99 270.065   3
   1   0  -2 4365.96 236.744   1
   0  -1  -2 4697.11 150.340   4
  -1   1  -2 4039.67 201.729   1
   0  -1  -2 4337.88 179.803   1
   1   0   1 67.7945 93.9958   3
  -1   1   1 67.2424 77.8718   1
  -1   1   4 10353.5 414.177   1
   0   2 -11-225.548 409.299   2
  -2   0 -11-149.295 460.838   3
   0   2 -11-249.014 374.305   1
   2  -2 -11 115.694 346.014   1
   0   2 -11-81.7387 478.935   3
  -2   0 -11 379.233 342.449   1
   2  -2 -11-429.886 472.449   3
   0   2  -8 7758.19 523.126   1
  -2   0  -8 7220.11 441.017   1
  -2   0  -8 6733.60 318.719   4
  -2   0  -8 7440.45 622.905   3
   0   2  -8 6638.90 599.323   3
   2  -2  -8 7490.09 482.686   1
   2  -2  -8 6935.93 622.911   3
   0   2  -5-104.105 213.865   1
  -2   0  -5 19.0755 134.107   4
   0   2  -5 18.3015 53.4498   4
  -2   0  -5-108.990 264.815   3
   2  -2  -5 28.0077 153.653   2
   2  -2  -5-29.0957 237.007   1
   2  -2  -5-116.561 81.4235   4
  -2   0  -5 1.37633 181.294   1
   0   2  -5 19.8535 60.4246   4
   2  -2  -2 37437.8 523.879   1
   2  -2  -2 38842.6 434.719   2
   2  -2  -2 38699.0 368.315   4
   0   2  -2 38256.6 555.883   2
  -2   0  -2 37398.4 617.840   3
   2  -2   1-12.6948 89.3224   3
  -2   0   1-32.3525 122.353   1
   0   2   1-13.4881 77.7439   4
   0   2   1-74.7301 84.2238   2
   0   2   1 35.1200 127.717   3
   0   2   4 13015.3 407.923   1
  -2   0   4 12309.1 480.991   1
   2  -1 -12 4035.14 552.746   1
   1  -2 -12 3467.46 501.986   1
  -1  -1 -12 5123.61 737.384   3
  -1   2 -12 4455.20 557.859   1
   1  -2 -12 5534.89 796.961   3
  -1   2 -12 5581.80 767.969   3
   2  -1 -12 4271.14 626.370   2
   1   1 -12 5093.69 687.515   2
   2  -1 -12 6039.15 818.423   3
   1   1 -12 3487.94 535.518   1
   1   1 -12 6242.13 806.450   3
  -2   1 -12 4427.92 668.404   3
  -1   2 -12 4121.94 682.861   2
  -1  -1  -9 25559.3 797.880   1
  -1   2  -9 25624.8 885.455   1
  -1  -1  -9 26289.2 1142.28   3
   2  -1  -9 25677.7 1126.84   3
   2  -1  -9 27571.3 917.824   1
   1   1  -9 26292.5 929.050   1
  -2   1  -9 19043.9 463.509   4
  -2   1  -9 25714.0 822.893   1
   1  -2  -9 25914.9 1134.78   3
   1  -2  -9 24930.6 830.813   1
  -1   2  -9 25270.4 1093.77   3
   1   1  -9 25089.8 1102.74   3
  -2   1  -9 25464.1 1101.31   3
   1  -2  -6 38233.1 849.486   2
  -1   2  -6 37358.7 485.062   4
   2  -1  -6 37292.4 869.125   1
  -2   1  -6 35970.6 766.090   1
   1  -2  -6 37520.0 804.924   1
  -1  -1  -6 36040.7 1047.31   3
  -1  -1  -6 37429.5 744.817   1
  -2   1  -6 37742.3 593.639   4
  -1   2  -6 35766.3 1000.08   3
   1  -2  -6 35322.1 526.033   4
  -1   2  -6 35045.0 482.535   4
  -1   2  -6 36834.8 855.391   1
   1   1  -6 36595.1 879.455   1
  -2   1  -6 36628.6 1030.11   3
  -1  -1  -6 37021.9 606.371   4
   1  -2  -6 34285.8 1053.07   3
  -1  -1  -3 107553. 822.053   1
   1  -2  -3 109323. 954.227   1
   1  -2  -3 112809. 754.120   4
   1  -2  -3 111815. 1005.20   2
   1   1  -3 109801. 1126.40   1
  -1   2  -3 109744. 682.792   4
  -2   1  -3 107945. 1201.76   3
  -2   1  -3 110662. 905.415   1
  -1   2  -3 108577. 1048.25   1
   2  -1  -3 105915. 1077.30   1
  -1  -1  -3 106491. 1261.58   3
  -1  -1  -3 113035. 837.573   4
   1   1   3 108729. 849.328   1
  -2   1   3 109995. 1113.30   1
  -1   2   3 108804. 737.018   4
  -1  -1   3 109377. 1121.05   1
  -1   2   3 106007. 963.166   1
  -2   1   6 40736.4 928.531   1
  -1   2   6 40814.8 869.835   1
   2   0 -10 2190.61 399.718   1
  -2   2 -10 2708.42 382.221   1
   0  -2 -10 3195.73 609.775   3
   0  -2 -10 1972.52 391.162   1
   2   0 -10 1974.85 547.969   3
  -2   2 -10 2402.54 559.758   3
  -2   2  -7 78.9655 127.164   4
  -2   2  -7-53.9439 114.816   4
  -2   2  -7 107.460 246.125   1
   2   0  -7-160.637 262.618   1
   0  -2  -7 144.463 218.561   2
   0  -2  -7-108.856 141.038   4
   0  -2  -7 223.882 334.755   3
   0  -2  -7-36.4388 217.678   1
  -2   2  -7-2.88831 329.404   3
  -2   2  -4 12300.2 505.436   3
   0  -2  -4 12461.3 367.093   1
   0  -2  -4 13108.8 448.409   2
   0  -2  -4 11642.7 541.586   3
   0  -2  -4 13100.8 330.952   4
   2   0  -4 12083.0 458.697   1
  -2   2  -4 12457.6 412.333   1
   0  -2  -1-12.7918 117.387   3
  -2   2  -1-19.5724 81.0516   4
   0  -2  -1-49.1412 89.7098   4
  -2   2  -1-167.983 93.8554   3
   0  -2  -1-6.22962 91.7151   2
   2   0  -1-126.073 119.512   1
  -2   2   2 35637.1 431.269   2
   2   0   2 35560.4 613.750   3
  -2   2   2 36257.0 536.542   1
  -2   2   2 35329.2 359.752   4
  -2   2   5 355.206 246.892   1
   3  -3 -12 11815.5 739.900   1
   0   3 -12 13828.0 883.751   1
   0   3 -12 15091.7 1051.74   2
  -3   0  -9 201.866 209.935   4
  -3   0  -9-74.6759 379.228   3
   0   3  -9-113.746 314.947   1
   3  -3  -9 231.281 403.918   3
   0   3  -9-93.5638 368.314   3
  -3   0  -9 314.977 259.870   1
   0   3  -9-5.38209 318.919   2
   3  -3  -9-61.6621 306.934   1
  -3   0  -6 150196. 1360.22   4
   0   3  -6 147639. 1824.91   1
   3  -3  -6 154688. 1561.60   2
  -3   0  -6 151045. 1386.67   1
  -3   0  -6 151096. 2101.16   3
   3  -3  -6 150436. 1675.76   1
  -3   0  -3 194.691 232.873   3
   0   3  -3 70.7958 78.6834   4
   0   3  -3 237.909 186.011   2
  -3   0  -3 118.651 116.150   1
  -3   0  -3-3.74586 137.891   4
   3  -3  -3 43.8352 100.807   4
   0   3  -3 181.526 197.693   1
   3  -3  -3-47.0308 110.779   2
   3  -3  -3-57.6424 181.464   1
  -3   0   0 177927. 966.551   3
   0   3   0 177237. 987.104   4
   3  -3   0 183104. 994.103   4
  -3   0   0 182553. 874.847   1
   3  -3   0 183016. 998.613   2
  -3   0   3 13.8168 213.784   1
   0   3   3 202.390 143.057   1
   0   3   3 5.83013 133.113   4
  -3   0   6 101507. 1547.11   1
   0   3   6 105157. 1291.15   1
  -1   3 -10-273.338 434.485   3
   1   2 -10 56.4608 345.054   1
   3  -2 -10 170.086 344.633   1
   1   2 -10-288.040 361.188   2
  -3   1 -10 7.65979 167.395   4
   2  -3 -10 327.754 344.414   1
  -3   1 -10 76.2662 443.294   3
  -2  -1 -10-47.1750 440.641   3
  -2  -1 -10 359.738 280.821   1
   1   2 -10 109.296 408.989   3
  -1   3 -10 491.394 404.203   2
  -1   3 -10 185.038 332.848   1
   2  -3 -10-320.992 437.025   3
  -3   1 -10 8.74753 272.895   1
   3  -2 -10 238.410 442.055   3
   1   2  -7 17828.0 718.481   1
  -2  -1  -7 16663.4 479.607   4
  -3   1  -7 17737.6 816.721   3
   2  -3  -7 18330.8 866.203   3
  -2  -1  -7 18390.1 566.070   1
  -2  -1  -7 18702.2 853.533   3
  -3   1  -7 18219.6 589.988   1
   3  -2  -7 18637.7 695.150   1
   2  -3  -7 14780.8 350.541   4
   2  -3  -7 18791.3 654.017   2
   2  -3  -7 18764.2 634.576   1
   3  -2  -7 18598.8 608.824   2
  -1   3  -7 16969.0 676.222   1
  -3   1  -7 17312.5 480.454   4
  -1   3  -7 17728.9 800.447   3
  -1   3  -7 14896.4 295.224   4
  -1   3  -4 763.012 198.074   1
   2  -3  -4 1057.36 174.041   2
   2  -3  -4 1174.56 144.402   4
  -3   1  -4 1041.58 291.407   3
  -2  -1  -4 1037.24 155.982   1
   2  -3  -4 1072.87 220.327   1
  -2  -1  -4 995.605 158.948   4
   3  -2  -4 764.486 78.9007   4
   3  -2  -4 1012.60 226.263   1
   3  -2  -4 1061.99 154.171   2
  -1   3  -4 1200.76 118.734   4
  -2  -1  -4 1005.71 283.294   3
   1   2  -4 919.688 268.717   1
  -3   1  -4 895.522 189.124   1
   1   2  -1 11384.5 214.489   4
  -2  -1  -1 9525.46 288.305   3
  -1   3  -1 11775.0 302.382   2
   1   2  -1 11632.6 227.090   3
   2  -3  -1 10966.5 248.569   1
  -2  -1  -1 11287.2 270.325   4
   3  -2  -1 11262.8 223.066   4
  -1   3  -1 11440.2 241.199   4
   2  -3  -1 11387.9 239.019   2
  -2  -1  -1 10449.6 286.559   2
   1   2  -1 10391.5 219.988   2
   2  -3  -1 11683.4 253.568   4
  -3   1  -1 10923.2 283.184   3
   3  -2  -1 10904.2 278.816   1
   1   2   2 48797.7 578.210   4
  -3   1   2 48411.3 694.974   1
  -1   3   2 49086.5 543.535   1
  -2  -1   2 50293.0 715.245   1
  -1   3   2 47478.3 562.115   4
   1   2   2 47987.9 749.284   3
   3  -2   2 51154.8 684.141   3
   1   2   2 49582.9 407.685   1
  -1   3   2 49508.8 622.979   2
   1   2   5 945.077 214.229   1
  -3   1   5 521.878 267.506   1
  -1   3   5 481.758 223.019   1
  -3   2 -11 46.0123 462.683   3
   2   1 -11 410.372 404.344   1
   3  -1 -11 164.490 388.795   1
  -1  -2 -11-92.9149 325.443   1
   2   1 -11 260.519 498.664   3
  -3   2 -11-112.991 303.703   1
  -2   3 -11-110.214 349.939   1
   2   1 -11 390.369 448.385   2
  -1  -2 -11-2.67474 465.665   3
   1  -3 -11 175.245 478.690   3
   1  -3 -11 338.550 366.695   1
  -2   3 -11-296.128 471.236   3
  -2   3 -11-172.628 419.146   2
   3  -1 -11 571.305 492.934   3
  -3   2  -8 193.695 165.133   4
   2   1  -8 565.724 320.055   1
   3  -1  -8 172.343 200.310   2
  -2   3  -8 314.716 122.210   4
   2   1  -8-189.169 387.797   3
   1  -3  -8 219.796 129.404   4
  -3   2  -8 375.819 380.133   3
  -2   3  -8 293.166 108.752   4
  -2   3  -8 383.604 267.108   1
   1  -3  -8 320.902 381.798   3
  -3   2  -8 274.233 169.893   4
  -2   3  -8-14.3044 343.535   3
  -3   2  -8 77.6804 242.460   1
  -1  -2  -8 461.855 242.792   1
   3  -1  -8 26.1278 318.506   1
  -1  -2  -8 5.86114 178.015   4
   1  -3  -8-133.703 270.408   1
  -1  -2  -8 7.63204 365.782   3
   2   1  -5 625.561 256.504   1
  -2   3  -5 806.161 293.374   3
  -2   3  -5 830.900 138.703   4
  -3   2  -5 1013.06 229.044   1
  -2   3  -5 778.824 223.539   1
   1  -3  -5 626.202 140.071   4
   1  -3  -5 563.058 208.204   1
   3  -1  -5 277.459 246.671   1
  -1  -2  -5 712.360 170.558   4
   1  -3  -5 690.584 209.634   2
  -3   2  -5 538.748 265.705   3
   1  -3  -5 702.273 302.782   3
  -1  -2  -5 927.665 194.969   1
  -1  -2  -5 949.908 333.871   3
  -1  -2  -5 618.557 215.388   2
   2   1  -2 47638.3 702.594   1
  -1  -2  -2 46535.3 566.231   4
   1  -3  -2 47243.1 521.826   1
  -2   3  -2 47018.4 499.688   4
   1  -3  -2 47450.3 605.307   2
  -2   3  -2 45829.9 594.281   3
   2   1  -2 46374.9 474.931   2
  -3   2  -2 46523.9 643.909   3
   3  -1  -2 46293.6 666.580   1
  -1  -2  -2 47019.4 383.148   1
   1  -3  -2 46916.6 542.101   4
  -1  -2  -2 48110.0 669.779   2
   1  -3  -2 46779.6 744.730   3
  -3   2   1 11095.1 218.723   4
   2   1   1 11368.8 264.409   4
  -2   3   1 11484.9 263.713   1
  -2   3   1 10750.2 241.594   4
   1  -3   1 11418.4 237.211   4
  -2   3   1 10548.3 227.476   2
   3  -1   1 11420.2 286.733   3
  -1  -2   1 11575.2 213.086   4
   1  -3   1 11072.4 299.934   2
   2   1   1 11155.2 302.755   3
  -1  -2   1 10810.3 234.912   2
  -3   2   1 11476.2 289.671   1
  -3   2   4 1184.08 248.180   1
  -2   3   4 1244.97 229.843   1
  -2   3   4 1049.00 136.754   4
  -3   2   4 1107.42 91.9331   4
  -3   2   7 18968.6 733.622   1
  -2   3   7 19235.6 690.607   1
  -3   3 -12 13801.5 769.200   1
   3   0 -12 15121.1 876.349   1
   3   0  -9-493.599 336.843   1
   0  -3  -9-61.6691 281.789   1
  -3   3  -9 138.454 132.915   4
  -3   3  -9 139.051 145.383   4
   3   0  -9 27.8132 395.952   3
  -3   3  -9 677.217 417.058   3
  -3   3  -9 389.784 299.767   1
   0  -3  -9-18.3604 395.519   3
   0  -3  -9-67.8162 156.072   4
   0  -3  -6 98466.4 1078.73   4
  -3   3  -6 99121.8 1003.97   4
   0  -3  -6 101953. 1192.08   1
   3   0  -6 101234. 1506.53   1
   0  -3  -6 101685. 1469.64   2
   0  -3  -6 95370.5 1737.15   3
  -3   3  -6 99624.6 1344.22   1
  -3   3  -6 98343.8 1624.80   3
   0  -3  -3-76.3103 231.415   3
   3   0  -3-132.670 212.329   1
  -3   3  -3 50.4055 181.788   3
   0  -3  -3 42.1006 163.458   2
   0  -3  -3-41.3467 139.323   4
   0  -3  -3-21.3484 142.080   1
   3   0   0 175280. 962.021   3
  -3   3   0 172254. 889.386   1
  -3   3   0 167460. 933.272   4
   0  -3   0 181449. 982.486   4
   0  -3   0 166996. 712.889   3
   0  -3   0 174516. 940.338   2
  -3   3   0 181735. 996.834   2
  -3   3   3 142.077 202.289   1
   3   0   3 305.750 246.775   3
  -3   3   3 41.2627 101.862   4
   0  -3   3 91.3295 84.9956   4
  -3   3   6 166366. 1862.77   1
  -4   0 -10 7656.61 462.341   1
   4  -4 -10 8131.01 803.204   3
   0   4 -10 8070.71 651.623   2
   0   4 -10 8440.78 766.806   3
   0   4 -10 8458.00 652.014   1
  -4   0 -10 9701.23 804.541   3
   4  -4 -10 8148.54 606.512   1
   0   4  -7 217.004 279.202   1
   4  -4  -7 137.308 265.195   1
   4  -4  -7 254.434 178.654   2
  -4   0  -7 80.3766 185.396   4
   0   4  -7 200.422 253.513   2
  -4   0  -7 42.2366 316.852   3
  -4   0  -7-88.2251 187.306   1
   4  -4  -7 31.7123 78.4182   4
   0   4  -4 5196.20 342.145   2
  -4   0  -4 4546.97 393.230   3
  -4   0  -4 3902.62 199.460   1
   4  -4  -4 4599.60 206.937   4
   0   4  -4 4441.85 172.840   4
   4  -4  -4 4233.88 321.000   1
   4  -4  -4 4747.72 256.410   2
   0   4  -4 4697.87 376.400   1
  -4   0  -4 4362.95 284.750   4
   0   4  -1 25.7831 121.638   4
  -4   0  -1 58.1707 169.943   3
   4  -4  -1 149.625 157.673   1
   0   4  -1 18.5670 87.1274   3
   0   4  -1 100.528 139.996   2
   4  -4  -1-72.1623 121.183   2
   4  -4  -1 22.7004 122.279   4
   0   4   2 40134.6 621.978   4
  -4   0   2 40714.1 735.050   1
   0   4   2 41891.6 742.250   3
   0   4   2 41962.0 665.586   2
   0   4   2 43978.9 469.599   1
   4  -4   2 43004.4 597.970   3
   0   4   5 216.925 188.976   1
   0   4   5 36.0535 150.274   4
  -4   0   5-106.306 262.829   1
   4  -3 -11 300.975 518.265   3
   1   3 -11-77.0922 396.706   1
  -1   4 -11 373.498 382.443   1
   1   3 -11 486.563 415.896   2
  -4   1 -11-24.3704 279.709   1
  -3  -1 -11 449.572 325.679   1
   4  -3 -11 60.2859 374.984   1
   1   3 -11 441.063 459.318   3
  -3  -1 -11-290.251 501.075   3
  -1   4 -11-349.955 482.522   3
  -1   4 -11-3.80805 426.824   2
   3  -4 -11 77.5340 366.052   1
   3  -4 -11 296.380 486.980   3
  -4   1 -11 242.148 476.906   3
  -3  -1  -8 5533.74 357.529   1
  -4   1  -8 5699.10 382.893   1
  -1   4  -8 6135.46 565.215   3
   1   3  -8 5858.99 489.602   2
  -4   1  -8 6257.39 596.444   3
   1   3  -8 5871.97 575.544   3
   1   3  -8 5989.99 495.649   1
  -3  -1  -8 5900.49 577.676   3
   3  -4  -8 4806.87 581.385   3
  -4   1  -8 4895.57 326.714   4
   4  -3  -8 6747.29 494.362   1
   3  -4  -8 6368.92 468.264   1
  -1   4  -8 6555.47 506.792   1
  -1   4  -8 6371.62 518.915   2
  -3  -1  -8 5231.14 345.159   4
   3  -4  -8 3672.91 183.453   4
   4  -3  -8 5866.23 394.404   2
   3  -4  -5 10163.9 409.731   2
   4  -3  -5 10252.3 365.102   2
   4  -3  -5 8440.56 210.122   4
  -1   4  -5 9515.47 257.394   4
  -3  -1  -5 9771.05 375.414   4
  -1   4  -5 10554.3 502.096   2
   1   3  -5 10105.5 448.153   2
  -1   4  -5 10590.9 506.644   1
   4  -3  -5 10117.6 475.082   1
  -4   1  -5 9392.63 517.896   3
  -3  -1  -5 9710.02 324.188   1
   3  -4  -5 10398.2 443.002   1
   3  -4  -5 9916.36 308.753   4
   1   3  -5 9983.54 519.714   1
  -4   1  -5 10048.6 381.004   4
  -4   1  -5 10028.9 357.413   1
  -3  -1  -5 10804.7 576.082   3
   3  -4  -2 4679.08 212.456   2
   1   3  -2 4162.25 216.583   2
   4  -3  -2 4288.53 271.696   1
   3  -4  -2 4152.17 207.841   4
   4  -3  -2 4404.13 184.407   4
  -1   4  -2 4711.92 283.282   2
  -4   1  -2 4578.01 284.365   3
   3  -4  -2 4562.07 261.129   1
   4  -3  -2 4870.81 158.064   2
  -3  -1  -2 4347.49 244.852   4
   1   3  -2 4654.94 174.841   4
  -1   4  -2 4693.73 202.685   4
  -3  -1  -2 4177.85 292.045   3
  -1   4   1 3395.53 202.134   4
   1   3   1 2882.94 136.695   1
   3  -4   1 2853.31 243.845   2
   1   3   1 3483.96 204.437   4
   3  -4   1 3473.78 194.755   4
  -1   4   1 3278.49 226.092   3
   1   3   1 3059.90 207.479   2
  -3  -1   1 3200.65 124.287   2
  -3  -1   1 3174.05 241.807   1
  -1   4   1 3315.41 174.034   1
  -3  -1   1 3143.44 188.944   3
   4  -3   1 3563.55 181.157   3
   1   3   1 3413.67 232.622   3
  -4   1   1 2958.19 190.747   3
  -1   4   1 3282.03 192.922   2
  -3  -1   1 3435.40 158.035   4
   4  -3   1 3027.11 156.065   1
  -4   1   1 3240.46 234.498   1
   1   3   4 1715.35 192.037   1
  -1   4   4 1729.22 234.119   1
  -3  -1   4 1871.33 296.751   1
   1   3   4 1502.03 203.430   4
  -4   1   4 2091.25 312.185   1
  -1   4   4 1324.60 180.643   4
  -1   4   7 4442.07 373.096   1
   4  -2  -9 23843.5 884.086   1
   2   2  -9 24100.3 914.617   2
   2  -4  -9 23477.6 804.465   1
   2   2  -9 24215.0 938.330   1
  -2  -2  -9 23111.4 1101.75   3
  -2  -2  -9 21607.9 676.597   1
   2   2  -9 22842.7 1080.17   3
  -4   2  -9 24159.6 1069.44   3
  -4   2  -9 22380.3 757.088   1
  -4   2  -9 20556.6 598.751   4
  -4   2  -9 18181.7 535.240   4
  -2  -2  -9 18182.2 579.577   4
  -2   4  -9 23163.0 1025.46   3
   4  -2  -9 23140.5 1133.56   3
   2  -4  -9 22975.4 1112.28   3
  -2   4  -9 21900.1 853.805   1
  -2   4  -9 25207.8 1031.75   2
  -4   2  -6 18477.5 740.531   3
  -4   2  -6 17320.7 550.605   1
   2  -4  -6 17471.8 431.640   4
   2  -4  -6 19678.0 628.085   2
  -2   4  -6 17833.0 651.237   1
  -4   2  -6 17821.7 491.576   4
  -2  -2  -6 17364.7 505.436   4
   4  -2  -6 19040.7 669.029   1
   2   2  -6 17514.0 693.163   1
   2  -4  -6 18897.9 588.354   1
  -2  -2  -6 18742.9 488.130   1
  -2   4  -6 18366.1 727.788   3
   2   2  -6 18190.6 604.430   2
   2  -4  -6 17813.3 802.097   3
  -2   4  -6 18119.9 397.878   4
   4  -2  -6 19985.5 545.503   2
  -2  -2  -6 18546.4 695.914   2
  -2  -2  -6 17825.4 779.656   3
   4  -2  -3 117086. 1239.16   1
   4  -2  -3 118036. 762.170   2
  -2  -2  -3 116337. 1066.56   4
  -2  -2  -3 116269. 1374.84   3
  -2  -2  -3 119921. 1291.92   2
  -2  -2  -3 114859. 681.611   1
  -4   2  -3 117746. 1270.38   3
  -2   4  -3 118576. 880.486   4
  -2   4  -3 114634. 1162.58   3
   2  -4  -3 116384. 966.917   4
   2  -4  -3 118907. 1052.69   1
   2   2  -3 119464. 1012.64   2
   2  -4  -3 119964. 1102.59   2
   2   2  -3 115578. 1307.37   1
  -2   4  -3 117886. 1332.66   2
  -2   4   0 70287.0 676.098   2
   2  -4   0 70653.5 687.117   2
  -2  -2   0 70241.9 640.895   4
  -4   2   0 71381.1 603.079   3
   2  -4   0 69499.2 602.970   1
   2   2   0 67228.5 631.350   4
   2   2   0 70916.4 630.673   3
  -2  -2   0 72600.4 628.973   3
   2   2   0 69956.6 607.837   2
  -2  -2   0 70607.2 611.634   2
  -4   2   0 69875.5 603.778   1
  -2   4   0 69632.1 674.138   4
   4  -2   0 69666.7 592.564   1
  -2   4   0 70875.0 604.455   1
   4  -2   0 72493.4 615.560   3
  -2   4   3 128273. 1158.66   2
   4  -2   3 130911. 1365.43   3
   2   2   3 129891. 1481.45   3
  -2   4   3 129808. 1137.09   1
  -2   4   3 125964. 1026.43   4
  -4   2   3 123537. 685.093   4
  -4   2   3 130750. 1322.40   1
   2   2   3 125936. 757.384   1
  -2   4   6 21325.1 660.452   1
  -4   2   6 19502.2 722.784   1
  -3   4 -10 3580.63 440.241   1
  -3   4 -10 3893.87 577.747   3
  -4   3 -10 3725.20 580.711   3
   1  -4 -10 3675.59 600.562   3
   3   1 -10 4596.24 528.972   2
  -4   3 -10 3854.16 438.183   1
   1  -4 -10 3227.81 419.082   1
  -1  -3 -10 3155.59 584.621   3
   3   1 -10 3888.45 516.035   1
   4  -1 -10 3650.95 614.705   3
   3   1 -10 3919.02 635.888   3
  -3   4 -10 3899.17 576.068   2
  -4   3 -10 2728.10 244.066   4
   4  -1 -10 3881.37 496.805   1
  -1  -3 -10 3864.78 403.864   1
  -4   3  -7 4411.44 271.473   4
   1  -4  -7 4046.78 504.056   3
  -1  -3  -7 4736.39 339.184   1
   1  -4  -7 4275.49 278.260   4
  -1  -3  -7 3869.40 294.664   4
  -4   3  -7 4287.64 362.767   1
  -1  -3  -7 4099.93 505.112   3
  -3   4  -7 4226.68 443.649   3
   4  -1  -7 4808.38 331.802   2
   1  -4  -7 5287.16 375.759   1
   1  -4  -7 4552.58 398.266   2
  -3   4  -7 4211.74 247.410   4
   4  -1  -7 4217.10 418.449   1
   3   1  -7 4716.46 460.796   1
  -3   4  -7 4029.86 384.621   1
  -4   3  -7 5092.22 476.853   3
  -1  -3  -4 1177.07 181.261   1
  -3   4  -4 980.343 148.096   4
  -4   3  -4 1107.32 262.420   3
   4  -1  -4 1213.46 264.959   1
  -3   4  -4 911.447 213.584   3
  -1  -3  -4 963.480 189.281   4
  -1  -3  -4 821.685 218.120   2
   1  -4  -4 1090.31 213.125   2
   1  -4  -4 1122.35 177.186   4
   1  -4  -4 1013.84 286.456   3
   3   1  -4 1030.24 253.302   1
   1  -4  -4 1290.33 209.446   1
   3   1  -4 996.110 178.787   2
  -1  -3  -4 520.499 271.074   3
   3   1  -1 3274.48 129.138   2
  -3   4  -1 3640.20 196.808   4
   4  -1  -1 3159.05 226.342   1
   1  -4  -1 3514.57 215.747   4
  -4   3  -1 4113.13 196.072   3
  -4   3  -1 3432.43 175.951   1
   3   1  -1 3454.99 228.329   1
   1  -4  -1 3438.54 221.630   3
  -1  -3  -1 3094.20 221.075   3
  -1  -3  -1 3484.17 209.241   4
   4  -1  -1 3248.76 192.709   3
   1  -4  -1 3407.70 169.967   1
  -3   4  -1 3427.34 242.924   2
   3   1  -1 3200.16 183.055   3
  -1  -3  -1 3042.70 213.771   2
  -3   4  -1 3414.40 191.797   1
   1  -4  -1 3135.18 198.478   2
   4  -1   2 6027.42 314.808   3
  -1  -3   2 5426.71 181.988   4
  -4   3   2 5792.57 313.389   1
   1  -4   2 5497.71 209.523   4
  -3   4   2 5641.38 222.723   2
   3   1   2 5614.19 328.733   3
  -3   4   2 5547.98 228.923   4
  -3   4   2 5528.70 278.072   1
   1  -4   2 5863.16 298.707   2
  -1  -3   2 5489.11 255.391   2
  -4   3   2 5467.14 198.062   4
  -4   3   2 5484.78 172.718   2
  -3   4   5 9371.98 442.655   1
  -4   3   5 10176.1 497.010   1
  -3   4   5 9453.47 289.453   4
   4   0 -11 420.208 503.661   3
   4   0 -11 178.146 401.056   2
   0  -4 -11 243.019 480.847   3
  -4   4 -11 33.2812 422.895   2
  -4   4 -11 907.526 520.157   3
   0  -4 -11-18.7345 316.041   1
   4   0 -11-49.3454 409.439   1
  -4   4 -11-80.1490 328.124   1
  -4   4  -8 26240.0 619.198   4
   0  -4  -8 27400.9 740.264   1
   4   0  -8 26832.6 749.102   2
  -4   4  -8 26401.0 824.702   1
  -4   4  -8 26206.8 1007.47   3
   4   0  -8 27114.4 940.135   1
   0  -4  -8 26913.9 1112.27   3
  -4   4  -8 23980.2 546.893   4
   0  -4  -8 23855.6 629.375   4
   0  -4  -5 295.455 201.834   1
   4   0  -5 197.303 257.004   1
   0  -4  -5 42.3591 161.859   4
   0  -4  -5 97.2257 207.719   2
  -4   4  -5-198.172 245.417   3
  -4   4  -5-24.0493 197.549   1
  -4   4  -5-72.4098 131.713   4
   0  -4  -5-332.063 318.945   3
   4   0  -2 43748.7 736.088   1
   0  -4  -2 44530.5 759.815   3
   0  -4  -2 46901.5 471.436   1
  -4   4  -2 45198.4 622.937   4
  -4   4  -2 46285.5 586.692   3
   0  -4  -2 45612.0 699.538   2
   0  -4  -2 46590.9 650.106   4
  -4   4   1 146.310 107.745   2
   4   0   1 271.426 173.284   3
   0  -4   1-56.1426 149.643   2
  -4   4   1 79.5844 129.018   4
   0  -4   1 159.074 128.084   4
  -4   4   1 204.519 172.580   1
   4   0   4 3180.65 371.214   3
  -4   4   4 3587.43 340.334   1
  -4   4   4 3233.18 193.896   4
  -5   0 -11-48.6637 479.654   3
   0   5 -11 323.646 404.151   2
   5  -5 -11-770.483 571.302   3
   5  -5 -11 22.5347 382.228   1
   0   5 -11 252.378 466.445   3
   0   5 -11-55.0906 420.929   1
   0   5  -8 1605.14 361.375   1
  -5   0  -8 1343.37 247.158   1
   0   5  -8 1653.78 419.752   3
  -5   0  -8 1545.20 432.702   3
   5  -5  -8 749.085 99.8776   4
   0   5  -8 2061.97 375.066   2
  -5   0  -8 969.500 237.348   4
   5  -5  -8 1535.79 271.202   2
   5  -5  -8 2080.38 387.853   1
   5  -5  -5-15.4215 240.758   1
   0   5  -5-290.011 265.289   1
   5  -5  -5 107.344 146.300   2
   0   5  -5 205.695 95.0377   4
  -5   0  -5-34.3112 173.206   4
  -5   0  -5 380.812 284.879   3
  -5   0  -5 64.4990 123.288   1
   5  -5  -5 40.5577 121.162   4
   0   5  -5-68.9813 216.900   2
  -5   0  -2 83538.5 1049.26   3
   5  -5  -2 84532.5 756.650   2
   5  -5  -2 83066.3 952.469   1
   5  -5  -2 81823.5 832.326   4
   0   5  -2 82706.4 806.472   4
   0   5  -2 84033.0 944.457   2
   5  -5   1 44.2385 194.954   2
   5  -5   1 36.1515 142.922   1
  -5   0   1 3.23961 155.180   3
   0   5   1-22.1686 125.076   1
  -5   0   1 32.5924 88.8308   2
   0   5   1-53.3665 145.658   2
   0   5   1 199.433 182.760   3
   5  -5   1-105.521 156.174   4
  -5   0   1 149.605 203.928   1
   0   5   1-35.5241 162.841   4
   5  -5   1-7.65700 122.129   3
   0   5   4 23242.4 506.959   1
   0   5   4 22222.2 553.361   4
  -5   0   4 24237.5 740.475   1
   0   5   7 11.2435 223.530   1
  -4  -1  -9 12639.7 850.232   3
  -1   5  -9 12774.7 796.171   3
  -1   5  -9 13847.6 777.087   2
  -5   1  -9 11535.7 788.914   3
  -5   1  -9 12323.4 528.088   1
   5  -4  -9 12839.9 689.726   1
   4  -5  -9 13644.6 687.945   1
   1   4  -9 13098.2 747.326   1
   1   4  -9 13296.4 841.835   3
  -4  -1  -9 9186.99 463.979   4
   1   4  -9 14008.5 730.725   2
  -1   5  -9 12407.8 699.422   1
  -5   1  -9 9427.80 454.608   4
   4  -5  -9 12905.5 891.652   3
   5  -4  -9 12378.3 889.525   3
  -4  -1  -9 11555.9 489.689   1
   1   4  -6 21233.6 776.025   1
  -4  -1  -6 20249.5 589.317   4
  -1   5  -6 21146.3 741.810   2
  -4  -1  -6 21111.6 462.230   1
   5  -4  -6 17772.4 327.447   4
  -1   5  -6 19525.8 374.606   4
   4  -5  -6 21025.7 612.772   2
   5  -4  -6 21170.8 698.644   1
  -1   5  -6 20610.4 761.354   1
  -5   1  -6 19958.8 581.537   4
  -4  -1  -6 21993.9 850.992   3
   1   4  -6 21293.0 685.479   2
   4  -5  -6 20287.9 446.506   4
  -5   1  -6 21513.8 823.823   3
  -5   1  -6 20522.4 504.150   1
   4  -5  -6 21876.0 678.577   1
   5  -4  -6 21062.7 556.425   2
  -5   1  -3 44171.1 843.653   3
  -1   5  -3 42700.0 801.330   2
  -5   1  -3 38540.6 357.713   1
   5  -4  -3 45007.0 534.777   2
  -4  -1  -3 42093.1 857.649   3
   1   4  -3 44589.9 720.001   2
  -1   5  -3 43744.1 577.967   4
   1   4  -3 41515.0 852.689   1
   4  -5  -3 44358.9 648.475   2
   1   4  -3 44586.6 511.274   4
  -4  -1  -3 41456.5 729.734   4
   4  -5  -3 42463.3 613.501   4
   5  -4  -3 42895.9 771.408   1
   4  -5  -3 43797.6 734.906   1
   5  -4  -3 43441.8 546.392   4
   4  -5   0 25543.2 497.572   2
   1   4   0 25368.8 447.808   2
   1   4   0 25870.9 398.716   3
  -1   5   0 24750.6 461.940   2
  -5   1   0 24789.5 435.143   1
   4  -5   0 23897.9 471.337   4
   1   4   0 25109.0 470.764   4
  -5   1   0 25321.5 466.137   3
  -4  -1   0 23507.2 431.534   1
   5  -4   0 26420.1 382.171   3
   5  -4   0 23114.2 483.265   2
   4  -5   0 25649.0 302.516   3
  -4  -1   0 26325.2 483.108   3
  -1   5   0 24316.8 474.126   4
   5  -4   0 26094.8 432.049   1
  -4  -1   0 24839.1 408.548   2
  -4  -1   0 26091.6 462.257   4
   4  -5   0 24861.2 430.351   1
  -1   5   0 24335.1 327.256   3
  -4  -1   3 96841.9 1287.87   1
  -5   1   3 97278.6 1282.64   1
  -1   5   3 96410.7 910.219   1
   1   4   3 94699.7 747.600   1
  -5   1   3 94110.1 631.587   4
   1   4   3 93020.1 1039.84   4
   1   4   3 97112.2 1345.83   3
  -1   5   3 95895.2 1141.40   2
  -1   5   3 93834.7 1018.02   4
   5  -4   3 99031.1 1161.62   3
   1   4   3 93899.8 1192.26   2
  -1   5   6 12459.7 493.719   1
   1   4   6 12413.3 443.229   1
  -1   5   6 11263.5 402.813   4
  -5   2 -10 9662.00 783.812   3
   3  -5 -10 7886.06 566.688   1
  -3  -2 -10 7929.62 753.520   3
   2   3 -10 7623.11 616.460   2
  -3  -2 -10 6996.22 458.661   1
  -2   5 -10 8556.58 754.979   3
   2   3 -10 8003.20 655.292   1
  -2   5 -10 7104.17 593.404   1
   2   3 -10 7320.06 741.148   3
   5  -3 -10 7805.75 809.665   3
  -5   2 -10 6052.31 397.801   4
  -2   5 -10 7789.84 690.828   2
   3  -5 -10 7239.85 748.159   3
   5  -3 -10 8271.07 640.492   1
  -5   2 -10 7306.27 483.320   1
   5  -3  -7 17952.1 707.296   1
   2   3  -7 17426.5 651.255   2
  -3  -2  -7 18644.5 863.932   3
  -2   5  -7 17946.7 774.128   2
  -5   2  -7 16581.0 529.315   4
   3  -5  -7 16488.6 631.132   2
   3  -5  -7 18396.7 646.498   1
  -2   5  -7 17116.9 703.453   1
   5  -3  -7 16802.4 530.360   2
  -2   5  -7 17428.7 790.769   3
  -5   2  -7 18500.3 819.389   3
   3  -5  -7 17143.3 858.792   3
   2   3  -7 18414.8 761.208   1
  -3  -2  -7 16047.4 545.053   4
  -2   5  -7 15475.7 375.075   4
  -5   2  -7 16702.8 543.801   1
   3  -5  -7 15546.8 430.180   4
  -3  -2  -7 17655.1 496.141   1
  -2   5  -4 2439.49 281.079   2
   2   3  -4 2303.89 315.299   1
   3  -5  -4 2118.32 229.816   2
  -3  -2  -4 2326.09 239.214   4
   2   3  -4 2567.34 238.070   2
  -2   5  -4 2546.69 181.876   4
  -3  -2  -4 2556.38 341.033   3
  -5   2  -4 3241.74 349.002   3
   3  -5  -4 2317.94 202.327   4
  -3  -2  -4 2071.42 142.285   1
   3  -5  -4 2612.80 272.219   1
   5  -3  -4 2454.99 304.189   1
   5  -3  -4 2052.75 160.247   2
  -3  -2  -4 2338.79 290.479   2
  -5   2  -1 23449.5 358.073   1
  -3  -2  -1 23766.1 498.025   3
   3  -5  -1 24211.4 452.953   2
   3  -5  -1 25459.5 475.972   4
  -2   5  -1 24761.9 513.131   2
   3  -5  -1 25345.2 432.919   1
  -3  -2  -1 25428.4 497.291   2
  -3  -2  -1 25987.4 483.033   4
   2   3  -1 24540.6 392.620   3
  -2   5  -1 25244.0 462.645   4
   5  -3  -1 24953.5 448.939   3
   5  -3  -1 24009.1 347.970   2
   2   3  -1 25268.6 414.184   4
  -5   2  -1 25498.6 469.809   3
   2   3  -1 24945.5 391.314   2
   2   3   2 32586.1 654.419   2
  -2   5   2 32202.8 572.349   4
   2   3   2 32836.3 595.427   4
  -5   2   2 34713.9 695.391   1
  -3  -2   2 32866.6 698.595   1
   3  -5   2 34744.7 553.892   4
  -3  -2   2 35647.6 435.703   4
   3  -5   2 31873.9 710.861   2
  -3  -2   2 32565.8 458.607   2
  -2   5   2 31859.4 571.266   2
   2   3   2 34503.5 706.698   3
   2   3   2 28611.4 286.672   1
   5  -3   2 33881.1 608.583   3
  -5   2   2 34695.9 450.557   4
  -2   5   2 33570.5 535.142   1
  -5   2   5 8551.23 496.069   1
   2   3   5 7910.86 315.099   1
  -2   5   5 7684.57 326.549   4
  -2   5   5 8541.50 409.255   1
  -2   5   8 17165.8 706.379   1
   2  -5 -11 1282.12 574.891   3
   3   2 -11 76.4113 368.025   2
  -3   5 -11 748.082 464.529   2
   5  -2 -11-200.400 373.634   2
  -3   5 -11 756.337 375.540   1
  -2  -3 -11-270.165 534.821   3
  -2  -3 -11 948.557 333.614   1
  -5   3 -11 49.4411 310.112   1
   5  -2 -11 857.642 425.866   1
   3   2 -11 365.314 477.309   3
  -5   3 -11 1183.72 473.240   3
  -3   5 -11 564.732 442.372   3
   5  -2 -11 760.819 539.548   3
   3   2 -11 456.200 433.091   1
   2  -5 -11 659.624 370.471   1
  -5   3  -8 15971.3 619.418   1
  -2  -3  -8 16605.1 556.462   1
   2  -5  -8 13157.2 433.428   4
   3   2  -8 16551.9 672.445   2
  -3   5  -8 15503.9 792.157   3
   5  -2  -8 16506.8 751.480   1
   2  -5  -8 16692.7 914.462   3
   3   2  -8 17948.2 805.223   1
  -5   3  -8 17189.9 845.201   3
  -5   3  -8 14599.3 495.560   4
  -3   5  -8 13393.8 371.487   4
  -2  -3  -8 13526.3 522.567   4
  -3   5  -8 14519.7 404.481   4
   5  -2  -8 15245.7 548.668   2
  -3   5  -8 16573.4 707.758   1
  -2  -3  -8 17473.4 905.244   3
   2  -5  -8 17209.0 645.591   1
  -3   5  -8 16519.4 820.147   2
   5  -2  -5 6816.51 280.975   2
  -3   5  -5 6739.03 420.413   3
   2  -5  -5 6810.16 381.139   2
   2  -5  -5 6219.77 491.359   3
  -3   5  -5 6112.24 423.501   2
  -2  -3  -5 6992.28 284.805   1
  -2  -3  -5 6586.79 418.037   2
  -3   5  -5 6334.23 397.544   1
   2  -5  -5 7483.84 373.795   1
  -2  -3  -5 6285.57 333.072   4
  -5   3  -5 7499.88 343.351   1
   3   2  -5 6599.18 450.380   1
  -5   3  -5 7447.55 461.623   3
  -2  -3  -5 6853.17 493.285   3
   5  -2  -5 7513.34 454.030   1
   3   2  -5 6540.76 343.393   2
   2  -5  -5 6361.68 313.034   4
  -3   5  -5 6858.37 275.650   4
   3   2  -2 36822.5 436.476   4
   5  -2  -2 36004.1 684.769   1
  -2  -3  -2 33775.6 610.211   4
   3   2  -2 34986.1 430.594   2
   2  -5  -2 34279.2 594.968   4
   2  -5  -2 36544.4 710.314   3
  -2  -3  -2 35973.9 707.461   3
   2  -5  -2 35085.0 520.636   1
  -3   5  -2 34577.1 494.651   3
  -5   3  -2 34149.0 429.013   1
   3   2  -2 35759.6 710.514   1
   3   2  -2 36468.5 565.361   3
  -3   5  -2 36866.2 740.437   2
   2  -5  -2 34014.9 604.886   2
  -2  -3  -2 34233.9 663.617   2
  -5   3  -2 35956.6 620.929   3
  -3   5  -2 34972.4 557.719   4
   3   2   1 25471.5 491.940   2
   5  -2   1 25283.5 337.278   1
  -5   3   1 25372.8 440.499   4
   3   2   1 25949.9 510.430   3
  -3   5   1 25520.8 435.961   2
  -2  -3   1 27358.7 441.127   4
   2  -5   1 25397.2 462.209   4
  -3   5   1 25249.6 477.156   4
  -3   5   1 25556.1 459.824   1
  -5   3   1 24725.6 502.294   1
   5  -2   1 26143.5 483.754   3
   3   2   1 25405.2 484.081   4
  -2  -3   1 24278.8 407.277   2
  -5   3   1 24331.4 338.820   2
   2  -5   1 25518.9 532.167   2
  -2  -3   1 24853.5 398.466   3
  -3   5   4 2584.34 252.615   2
   5  -2   4 2523.21 335.935   3
   3   2   4 2524.54 343.157   3
  -3   5   4 2040.53 216.152   4
  -5   3   4 2308.19 324.417   1
  -3   5   4 2863.30 291.195   1
  -5   3   4 2372.42 143.930   4
  -3   5   7 19137.8 723.329   1
  -1  -4  -9 26000.2 1168.16   3
  -1  -4  -9 21012.5 650.970   4
  -1  -4  -9 24366.7 737.092   1
  -4   5  -9 25792.9 1089.66   3
  -4   5  -9 19644.7 482.443   4
   1  -5  -9 26676.8 817.437   1
  -4   5  -9 21048.6 545.423   4
  -5   4  -9 25496.1 840.531   1
   5  -1  -9 23960.2 720.895   2
  -5   4  -9 23921.3 666.354   4
  -5   4  -9 27664.9 1116.41   3
  -4   5  -9 25743.0 885.217   1
   5  -1  -9 25888.7 994.603   1
   4   1  -9 26190.3 1006.32   1
  -4   5  -9 26533.1 1105.69   2
   1  -5  -9 19914.7 570.327   4
   1  -5  -9 25112.9 1156.71   3
   4   1  -9 24673.0 789.945   2
   4   1  -9 26572.0 887.613   2
  -5   4  -9 20661.7 558.016   4
  -1  -4  -6 10227.7 428.897   4
   5  -1  -6 11225.8 385.906   2
   4   1  -6 10301.0 426.736   2
   4   1  -6 10218.7 568.325   1
   5  -1  -6 10983.4 559.306   1
  -1  -4  -6 11219.8 401.019   1
   1  -5  -6 10366.7 510.962   2
  -1  -4  -6 10274.1 537.941   2
  -1  -4  -6 10349.2 651.062   3
  -5   4  -6 11820.8 606.510   3
  -4   5  -6 11580.9 588.835   3
  -4   5  -6 10435.8 502.025   1
   1  -5  -6 10034.5 646.036   3
   1  -5  -6 10151.4 416.071   4
  -4   5  -6 10851.8 375.051   4
   1  -5  -6 12562.6 471.636   1
  -5   4  -6 10617.5 472.375   1
  -4   5  -3 88919.5 1278.54   2
   1  -5  -3 88503.5 1265.11   3
  -4   5  -3 86230.8 993.567   3
   1  -5  -3 86894.6 995.717   4
  -1  -4  -3 85255.8 1018.28   4
  -4   5  -3 86529.8 923.643   4
   5  -1  -3 88997.7 1176.21   1
   1  -5  -3 87188.0 822.600   1
  -1  -4  -3 88352.7 1131.81   2
   4   1  -3 86171.2 1188.77   1
  -1  -4  -3 86565.0 670.686   1
  -5   4  -3 87720.3 1052.39   3
   1  -5  -3 88494.0 1094.95   2
   4   1  -3 86237.4 686.523   2
  -1  -4  -3 88727.1 1255.22   3
   5  -1   0 20954.9 435.350   3
  -4   5   0 20912.1 445.907   2
  -5   4   0 19082.2 427.860   2
   5  -1   0 20118.3 382.079   1
   4   1   0 20754.0 444.383   3
   4   1   0 20470.7 387.420   1
   4   1   0 20681.4 381.309   2
  -4   5   0 20631.3 410.134   1
  -5   4   0 20079.5 431.065   4
   1  -5   0 21010.0 439.429   2
  -1  -4   0 21504.4 446.238   4
   1  -5   0 20533.3 295.076   3
  -1  -4   0 21316.4 367.646   3
  -1  -4   0 20921.6 411.719   2
  -5   4   0 21573.7 350.209   3
   1  -5   0 20406.6 437.721   4
  -5   4   0 20521.6 413.428   1
  -1  -4   3 42880.0 497.290   4
  -4   5   3 42782.1 755.412   1
  -4   5   3 39858.6 612.752   4
  -5   4   3 41091.1 557.239   4
   1  -5   3 41861.5 552.342   4
  -5   4   3 41775.6 805.875   1
  -4   5   3 41107.9 632.704   2
   5  -1   3 42921.6 847.384   3
  -1  -4   3 44649.3 738.789   2
  -5   4   3 40634.0 534.597   2
   4   1   3 43051.4 889.194   3
  -4   5   6 23334.6 741.830   1
  -4   5   6 21523.0 443.512   4
  -5   4   6 23762.1 792.722   1
  -5   5 -10 11987.7 844.894   2
   0  -5 -10 11271.6 574.369   1
   5   0 -10 12635.0 968.095   3
   5   0 -10 12290.1 679.398   2
   0  -5 -10 12540.4 938.051   3
  -5   5 -10 13246.3 868.909   3
   5   0 -10 12940.9 780.801   1
  -5   5 -10 11700.8 664.672   1
   0  -5  -7 19.3520 384.212   3
   5   0  -7 66.7024 190.424   2
  -5   5  -7-228.577 319.760   3
   0  -5  -7 157.107 190.931   4
  -5   5  -7 81.2845 156.804   4
   5   0  -7 52.9865 298.090   1
  -5   5  -7-25.5840 241.721   1
   0  -5  -7-37.9023 209.997   1
  -5   5  -4 20456.1 516.208   4
  -5   5  -4 20721.7 602.546   3
   0  -5  -4 22078.0 637.513   2
   0  -5  -4 21722.8 549.661   4
   0  -5  -4 20990.3 439.312   1
   0  -5  -4 21282.1 745.434   3
   5   0  -4 21358.9 689.049   1
  -5   5  -1 31.3988 118.924   3
   0  -5  -1-18.4263 156.534   2
  -5   5  -1-72.9761 197.239   2
   5   0  -1 30.9748 162.028   3
  -5   5  -1 238.405 155.982   1
   5   0  -1 260.568 194.262   1
   0  -5  -1 61.8751 161.921   4
  -5   5  -1 125.813 159.560   4
   0  -5  -1 45.6902 166.001   3
  -5   5   2 86782.4 1000.89   1
   0  -5   2 87726.2 1015.41   2
  -5   5   2 84904.1 741.709   2
   5   0   2 85363.2 1062.46   3
  -5   5   2 84503.3 858.419   4
  -5   5   5 45.6321 122.563   4
  -5   5   5 100.558 264.120   1
   5   0   5-137.818 291.568   3
   6  -6  -9-298.152 330.910   1
  -6   0  -9-9.33605 199.948   1
   0   6  -9 82.1093 379.105   1
   0   6  -9 99.5026 368.289   3
   6  -6  -9-276.607 415.614   3
   0   6  -9-466.159 350.063   2
  -6   0  -9-9.35940 405.639   3
   6  -6  -6 33351.2 580.650   4
   0   6  -6 34836.2 1022.54   1
   6  -6  -6 34846.3 897.373   1
   6  -6  -6 32795.3 722.562   2
  -6   0  -6 30237.3 496.338   1
   0   6  -6 32161.2 481.911   4
  -6   0  -6 34111.6 1050.10   3
  -6   0  -6 32299.7 792.429   4
   0   6  -6 34256.9 909.601   2
   6  -6  -3 243.485 158.435   4
  -6   0  -3-122.315 238.532   3
   0   6  -3 62.5666 179.957   2
   6  -6  -3 193.582 213.549   1
   6  -6  -3 266.586 138.268   2
   0   6  -3 211.274 137.956   4
   6  -6   0 18941.5 499.820   4
   6  -6   0 19766.3 360.773   3
  -6   0   0 15986.4 461.187   3
   6  -6   0 18407.3 503.005   2
  -6   0   0 18345.3 424.907   2
   0   6   0 20353.5 394.377   3
   0   6   0 18684.9 478.150   2
  -6   0   0 16918.4 444.276   1
   6  -6   0 19658.8 455.225   1
   0   6   0 18859.8 499.909   4
  -6   0   3 168.534 112.775   4
   6  -6   3 12.2723 191.216   3
   0   6   3 205.680 162.777   1
  -6   0   3 362.672 277.913   1
   0   6   3-40.6940 195.167   2
   0   6   3 212.458 176.659   4
   0   6   3 173.724 281.057   3
   0   6   6 32101.8 747.090   4
   0   6   6 35747.2 737.958   1
  -1   6 -10 355.066 369.425   1
  -5  -1 -10 405.297 446.533   3
   1   5 -10-177.786 402.560   1
  -1   6 -10 373.229 397.107   3
   5  -6 -10 211.612 452.945   3
  -5  -1 -10 214.779 238.830   1
  -1   6 -10 160.118 370.906   2
   1   5 -10-242.263 360.685   2
   6  -5 -10 74.3978 349.759   1
  -6   1 -10 256.361 235.538   1
   5  -6 -10 271.054 357.867   1
   1   5 -10 92.8519 417.254   3
   6  -5 -10 729.696 508.089   3
  -6   1 -10 819.916 454.061   3
  -6   1  -7 20190.6 514.881   1
  -6   1  -7 20049.1 873.691   3
   6  -5  -7 18874.3 572.049   2
  -5  -1  -7 19019.9 630.939   4
  -6   1  -7 18583.8 609.734   4
  -1   6  -7 20695.8 789.224   2
   1   5  -7 19493.6 714.616   2
   1   5  -7 19783.4 832.112   1
  -1   6  -7 20395.6 832.708   1
   6  -5  -7 19877.0 742.092   1
  -5  -1  -7 19015.7 452.939   1
  -1   6  -7 16772.3 347.556   4
   5  -6  -7 18616.2 634.417   2
  -1   6  -7 18447.9 785.271   3
   5  -6  -7 21704.1 733.792   1
   5  -6  -7 17748.5 442.201   4
  -5  -1  -7 19819.9 891.872   3
   5  -6  -4 1229.26 271.171   1
   6  -5  -4 912.048 154.655   2
  -6   1  -4 780.385 273.439   3
   6  -5  -4 1169.80 159.149   4
   1   5  -4 1013.77 294.110   1
   1   5  -4 1153.40 140.946   4
  -5  -1  -4 885.065 211.982   4
  -6   1  -4 781.732 121.028   1
  -1   6  -4 872.139 219.582   2
  -6   1  -4 816.260 96.0403   1
  -1   6  -4 1189.30 155.999   4
   6  -5  -4 1174.61 279.300   1
  -5  -1  -4 874.455 281.819   3
   5  -6  -4 1037.01 193.324   2
   5  -6  -4 1065.47 171.529   4
   1   5  -4 1265.36 244.114   2
  -1   6  -1 88776.6 529.779   3
   5  -6  -1 85815.6 915.850   1
  -1   6  -1 84772.1 929.567   4
   1   5  -1 90480.0 729.460   3
   6  -5  -1 86623.7 919.571   4
   1   5  -1 86588.6 889.590   2
  -6   1  -1 86387.1 719.739   1
  -1   6  -1 86655.6 982.242   2
   6  -5  -1 87131.5 937.768   1
  -5  -1  -1 83154.0 666.537   1
   1   5  -1 85648.0 898.432   4
   6  -5  -1 87180.8 852.329   3
  -5  -1  -1 85949.2 984.614   2
  -5  -1  -1 88755.0 982.974   4
   5  -6  -1 85609.4 909.113   2
  -6   1  -1 84072.3 985.555   3
   6  -5  -1 85183.5 839.223   2
   5  -6  -1 84865.5 934.117   4
   1   5   2 819.873 189.478   4
   5  -6   2 848.870 179.264   4
   1   5   2 859.700 196.830   2
  -5  -1   2 634.016 131.375   4
  -5  -1   2 693.267 101.044   2
  -1   6   2 918.976 198.722   4
   5  -6   2 745.080 168.726   3
  -6   1   2 734.185 238.234   1
   6  -5   2 1167.43 196.861   3
  -5  -1   2 944.235 244.941   1
  -1   6   2 1017.28 190.332   2
  -1   6   2 848.727 243.032   3
   1   5   2 1114.50 135.073   1
   1   5   2 1103.72 249.984   3
  -1   6   2 824.263 162.736   1
   1   5   5 8752.89 397.566   4
  -1   6   5 8432.34 383.803   4
   1   5   5 9971.25 349.728   1
  -5  -1   5 9887.12 552.100   1
  -6   1   5 9347.05 547.880   1
  -1   6   5 9575.52 409.195   1
  -1   6   8 1631.74 311.376   1
   2   4 -11 3251.03 523.381   2
  -6   2 -11 3381.29 604.898   3
   2   4 -11 2684.66 565.203   3
  -2   6 -11 2638.11 586.471   3
   4  -6 -11 2807.27 665.961   3
   4  -6 -11 2359.74 430.843   1
   6  -4 -11 2302.26 633.463   3
  -2   6 -11 2125.00 537.578   2
  -4  -2 -11 3036.69 620.577   3
   6  -4 -11 2495.87 489.127   1
  -2   6 -11 2184.68 464.594   1
   2   4 -11 3213.19 551.499   1
  -6   2  -8-119.065 204.574   4
  -2   6  -8-0.38888 86.9351   4
   4  -6  -8 71.5547 371.923   3
  -2   6  -8-283.009 309.843   2
   2   4  -8 351.212 254.335   2
  -4  -2  -8 378.877 377.695   3
  -4  -2  -8-209.087 196.948   1
  -6   2  -8-95.8648 217.641   1
  -2   6  -8-52.2033 289.935   1
   4  -6  -8 216.726 303.236   1
   2   4  -8-343.499 359.774   1
  -4  -2  -8 16.8577 216.057   4
  -2   6  -8 303.093 350.434   3
   4  -6  -8 159.390 142.966   4
  -6   2  -8 141.322 349.950   3
  -2   6  -8 21.4929 77.3629   4
   6  -4  -8 166.374 306.447   1
   6  -4  -8-38.1032 175.902   2
   4  -6  -5 21859.3 634.953   1
   2   4  -5 20742.6 741.023   1
  -2   6  -5 19483.7 683.399   2
   4  -6  -5 19583.3 490.404   4
  -4  -2  -5 21062.9 774.659   3
   4  -6  -5 20047.3 575.885   2
   6  -4  -5 20616.3 674.968   1
  -6   2  -5 19791.9 718.537   3
  -4  -2  -5 19290.2 579.995   4
  -4  -2  -5 18987.7 342.986   1
   2   4  -5 21062.0 601.985   2
   6  -4  -5 20486.7 449.334   2
  -2   6  -5 20463.2 441.667   4
  -6   2  -5 20240.3 463.071   1
  -2   6  -5 19490.7 651.602   3
  -4  -2  -5 20416.7 714.595   2
   2   4  -2 25109.8 458.304   3
   4  -6  -2 26308.5 505.005   2
   6  -4  -2 25350.6 355.221   2
  -6   2  -2 25272.3 334.003   1
  -4  -2  -2 24108.2 608.785   2
   6  -4  -2 24727.1 578.739   1
   4  -6  -2 24153.4 509.296   1
  -6   2  -2 24694.3 573.058   3
   2   4  -2 25468.1 475.744   2
  -2   6  -2 25543.2 509.264   4
  -2   6  -2 24052.5 602.254   2
  -4  -2  -2 23073.3 553.334   4
   2   4  -2 24682.6 440.593   4
   4  -6  -2 24009.8 521.223   4
   2   4   1 7299.74 330.402   3
   6  -4   1 7027.75 292.252   3
  -4  -2   1 6423.59 328.913   1
  -4  -2   1 6520.32 221.909   2
  -4  -2   1 7084.46 291.692   3
   6  -4   1 6864.45 249.293   1
   4  -6   1 6881.12 305.522   4
  -2   6   1 6423.25 269.015   1
   2   4   1 6988.78 321.198   2
  -2   6   1 7111.37 293.676   2
  -6   2   1 6992.77 346.106   1
  -6   2   1 7004.30 309.454   3
  -2   6   1 6863.27 316.878   4
  -4  -2   1 6948.72 266.002   4
   2   4   1 6754.10 315.844   4
  -2   6   4 9699.06 402.319   1
  -2   6   4 8911.74 428.035   2
   2   4   4 10145.7 565.600   3
  -6   2   4 8212.20 209.683   4
   2   4   4 9545.28 288.443   1
  -2   6   4 9006.88 385.406   4
   6  -4   4 9673.66 505.058   3
  -6   2   4 9873.60 519.522   1
   2   4   4 9899.89 405.107   4
  -4  -2   4 9942.82 511.011   1
  -2   6   7 24200.0 761.268   1
  -6   3  -9 351.880 231.876   4
  -6   3  -9 2.85015 383.641   3
   3   3  -9 373.175 278.877   2
  -3   6  -9 752.939 369.654   2
  -3   6  -9 161.594 99.6852   4
  -6   3  -9 202.484 278.871   1
  -3  -3  -9 211.181 250.460   4
   3  -6  -9 191.412 160.304   4
  -3  -3  -9 554.372 406.337   3
   6  -3  -9 45.7481 346.434   1
   3  -6  -9 78.9771 402.947   3
  -6   3  -9 218.580 213.334   4
  -3  -3  -9 229.275 238.893   1
   6  -3  -9 277.865 198.026   2
  -3   6  -9 484.986 311.523   1
  -3   6  -9 154.861 95.3384   4
   3   3  -9 273.286 368.374   1
  -3   6  -9 389.267 398.458   3
   3  -6  -9 867.347 343.235   1
  -3   6  -6 31653.0 957.111   2
   6  -3  -6 31399.0 599.005   2
   6  -3  -6 32292.1 898.708   1
  -3  -3  -6 32167.0 1041.13   3
   3  -6  -6 35107.6 814.017   1
  -3  -3  -6 33048.7 562.986   1
  -3   6  -6 30084.7 850.698   1
  -6   3  -6 32653.7 969.637   3
   3  -6  -6 30934.6 795.270   2
  -3  -3  -6 30003.4 732.622   4
   3  -6  -6 30407.2 647.257   4
   3   3  -6 31833.8 967.848   1
   3   3  -6 31925.2 754.029   2
  -3   6  -6 30237.0 890.653   3
  -6   3  -6 31159.9 684.749   1
  -3   6  -6 32311.5 596.962   4
  -3  -3  -3 4436.09 333.353   2
   6  -3  -3 2913.82 119.344   2
   3   3  -3 4583.95 181.587   4
   3   3  -3 4499.80 365.530   1
  -6   3  -3 4348.61 321.617   3
  -3   6  -3 3963.24 338.900   2
  -6   3  -3 4294.31 191.928   1
  -3  -3  -3 3766.66 345.176   3
  -3  -3  -3 3649.29 286.315   4
   3  -6  -3 3904.21 266.576   4
  -3   6  -3 4308.20 271.920   3
   6  -3  -3 4103.10 327.278   1
   3  -6  -3 4291.38 271.120   1
   3   3  -3 4300.83 229.360   2
   3  -6  -3 4096.95 280.385   2
  -3   6  -3 3996.56 242.290   4
  -6   3   0 321765. 1604.26   1
   3  -6   0 307743. 1712.37   4
   3   3   0 326046. 1656.67   3
   3  -6   0 323509. 1798.64   2
  -3  -3   0 331659. 1611.35   2
  -3  -3   0 335225. 1666.41   3
  -6   3   0 326040. 1587.77   3
   6  -3   0 333345. 1641.79   3
  -3   6   0 319489. 1767.24   4
  -3  -3   0 321401. 1691.54   4
  -3   6   0 316191. 1584.71   1
   3   3   0 299576. 1642.79   4
  -3  -3   3 4447.22 189.183   4
  -3   6   3 4254.85 269.862   4
  -6   3   3 4407.62 362.657   1
   3  -6   3 4394.28 247.464   4
   6  -3   3 4507.66 348.609   3
  -3  -3   3 4648.62 256.960   2
   3   3   3 4528.73 287.614   4
  -3   6   3 4185.15 283.830   2
   3   3   3 4589.31 384.777   3
  -3   6   3 4391.26 291.665   1
  -6   3   3 4492.06 197.761   4
  -3   6   6 39631.6 891.485   1
  -3   6   6 36030.6 670.675   4
  -6   4 -10 905.635 269.012   4
   2  -6 -10 917.238 501.071   3
  -2  -4 -10 1099.92 309.446   1
   4   2 -10 982.284 343.974   2
   4   2 -10 834.993 440.167   1
   4   2 -10 997.530 468.168   3
  -6   4 -10 747.523 471.072   3
  -2  -4 -10 1580.07 557.748   3
  -4   6 -10 1461.28 457.571   2
  -6   4 -10 1290.65 335.971   1
   2  -6 -10 1402.11 370.138   1
  -4   6 -10 2379.89 508.247   3
   6  -2 -10 303.826 398.173   1
  -4   6 -10 1245.84 360.415   1
   6  -2 -10 1304.84 371.741   2
  -2  -4  -7 23282.7 563.173   1
  -4   6  -7 21517.2 752.013   1
   2  -6  -7 23703.2 695.841   1
  -6   4  -7 23401.2 894.359   3
   6  -2  -7 22983.1 838.659   1
  -2  -4  -7 20238.4 646.874   4
  -4   6  -7 22447.0 861.110   3
   4   2  -7 22501.6 666.553   2
  -6   4  -7 21460.3 673.557   1
   2  -6  -7 23096.1 997.985   3
  -4   6  -7 21000.0 864.274   2
  -2  -4  -7 22063.6 968.089   3
   4   2  -7 23614.7 872.263   1
  -4   6  -7 22246.0 550.719   4
   6  -2  -7 22123.5 554.966   2
   2  -6  -7 19891.1 576.321   4
  -2  -4  -4 10587.0 474.835   2
  -2  -4  -4 9795.90 255.662   1
   2  -6  -4 10645.8 395.909   4
  -6   4  -4 10413.7 473.088   3
   2  -6  -4 9909.05 551.060   3
  -4   6  -4 9989.94 429.802   3
   6  -2  -4 8069.44 217.297   2
  -2  -4  -4 8728.72 508.181   3
  -4   6  -4 10305.4 362.712   4
  -4   6  -4 9956.81 518.884   2
   2  -6  -4 10152.1 378.713   1
   6  -2  -4 10121.5 492.549   1
   4   2  -4 9989.63 516.856   1
   2  -6  -4 10250.9 439.829   2
   4   2  -4 10446.4 334.344   2
  -2  -4  -4 9490.47 399.855   4
   2  -6  -1 6009.29 280.779   3
   4   2  -1 6022.24 218.135   2
   4   2  -1 5966.86 273.376   3
  -4   6  -1 5617.06 290.371   4
  -2  -4  -1 6096.49 316.294   3
   6  -2  -1 5933.32 281.367   3
   4   2  -1 5869.30 256.432   4
  -2  -4  -1 5823.10 304.672   4
   4   2  -1 6492.21 333.992   1
   2  -6  -1 5923.73 304.251   4
  -4   6  -1 6023.15 330.213   2
   6  -2  -1 5636.85 306.132   1
   2  -6  -1 5858.44 256.376   1
  -2  -4  -1 6058.27 299.176   2
  -6   4  -1 6028.75 262.545   3
  -4   6  -1 5923.62 271.746   1
   2  -6  -1 6747.94 306.549   2
  -6   4  -1 5622.16 257.552   1
  -4   6   2 25381.4 561.946   1
  -6   4   2 26369.3 628.425   1
  -6   4   2 25606.9 464.515   4
   2  -6   2 25486.6 636.886   2
  -2  -4   2 26969.2 463.243   4
   2  -6   2 26289.3 512.877   4
  -6   4   2 24636.0 332.567   2
   4   2   2 25852.6 635.059   3
  -4   6   2 24811.9 512.401   4
   6  -2   2 24995.5 319.401   1
  -4   6   2 25612.5 488.033   2
   6  -2   2 26561.3 598.611   3
  -2  -4   2 25910.4 521.189   2
  -4   6   5 20161.0 483.916   4
   6  -2   5 20611.7 768.318   3
  -4   6   5 20775.4 659.635   1
  -6   4   5 20741.2 706.227   1
   5   1 -11 2286.05 609.419   3
  -5   6 -11 1746.64 520.094   3
   6  -1 -11 1569.94 472.369   1
  -5   6 -11 1475.02 407.755   1
  -6   5 -11 1605.16 517.631   3
   6  -1 -11 2992.90 683.587   3
   5   1 -11 1525.74 494.094   1
   1  -6 -11 1931.56 590.076   3
   1  -6 -11 1415.81 368.766   1
  -6   5 -11 1593.03 387.509   1
   5   1 -11 1204.58 365.816   2
  -5   6 -11 1868.25 512.361   2
  -6   5 -11 1975.10 511.107   2
  -1  -5 -11 1785.48 554.873   3
   5   1  -8 1541.84 274.776   2
  -6   5  -8 1563.77 244.198   4
  -1  -5  -8 2204.78 473.092   3
   1  -6  -8 2225.08 503.286   3
   5   1  -8 1579.79 401.699   1
   1  -6  -8 1406.12 248.527   4
  -6   5  -8 1522.07 323.875   1
  -1  -5  -8 1352.85 276.610   4
  -5   6  -8 1570.32 342.005   1
   6  -1  -8 1592.34 226.094   2
  -5   6  -8 1453.77 368.515   2
  -5   6  -8 1863.13 420.174   3
   1  -6  -8 1690.79 303.589   1
   6  -1  -8 1845.05 283.618   2
  -1  -5  -8 1962.56 292.365   1
  -5   6  -8 1609.02 237.187   4
  -6   5  -8 2076.01 425.848   3
   6  -1  -8 2193.67 415.665   1
   5   1  -5 9758.09 343.387   2
  -6   5  -5 10616.7 526.636   3
  -5   6  -5 9915.40 386.541   4
   6  -1  -5 8935.82 299.700   2
   5   1  -5 10618.2 556.398   1
  -1  -5  -5 10068.1 513.625   2
  -1  -5  -5 10592.9 336.215   1
   6  -1  -5 9424.68 280.619   2
  -5   6  -5 9304.46 541.028   2
   1  -6  -5 10478.3 387.655   1
   1  -6  -5 9590.02 419.475   4
   1  -6  -5 10114.2 588.289   3
  -5   6  -5 10417.0 496.153   3
  -1  -5  -5 9295.37 422.122   4
   1  -6  -5 10436.5 496.636   2
   6  -1  -5 11027.4 554.870   1
  -1  -5  -5 9044.22 570.906   3
  -5   6  -2 447.246 166.081   4
   1  -6  -2 479.857 182.905   2
  -1  -5  -2 557.118 234.206   3
   5   1  -2 322.257 227.687   1
  -5   6  -2 433.182 242.368   2
   1  -6  -2 363.972 180.602   4
   1  -6  -2 480.086 147.477   1
   5   1  -2 415.651 164.717   3
   6  -1  -2 623.754 190.051   3
  -6   5  -2 480.251 144.846   1
  -6   5  -2 531.907 169.398   3
   6  -1  -2 557.426 228.328   1
  -5   6  -2 704.578 167.314   1
  -5   6  -2 778.654 143.205   3
   5   1  -2 464.812 83.9852   2
   1  -6  -2 610.392 243.089   3
  -1  -5  -2 333.386 191.367   2
  -1  -5  -2 227.433 174.783   4
  -6   5  -2 231.199 163.741   4
   6  -1   1 88544.0 690.150   1
   1  -6   1 88044.4 506.111   3
  -6   5   1 86368.2 907.176   4
  -5   6   1 89494.0 952.509   1
  -1  -5   1 86895.5 939.785   2
  -6   5   1 86285.5 815.279   2
   1  -6   1 88900.3 1022.28   2
  -5   6   1 87467.8 874.843   2
  -1  -5   1 86867.8 930.118   4
   1  -6   1 90235.5 948.808   4
  -5   6   1 85495.9 955.780   4
   5   1   1 87111.4 1022.99   3
   6  -1   1 87866.0 1022.78   3
  -1  -5   1 89314.8 709.075   3
   5   1   1 85189.7 653.060   1
   6  -1   4 579.043 292.212   3
   1  -6   4 735.857 149.176   4
  -5   6   4 840.661 186.173   2
  -6   5   4 1059.10 159.045   4
  -5   6   4 770.660 263.962   1
  -6   5   4 986.796 292.883   1
  -1  -5   4 967.684 136.370   4
  -5   6   4 917.990 172.411   4
   5   1   4 1051.46 316.643   3
  -5   6   7 18233.7 433.577   4
  -6   6  -9-79.1896 361.516   2
   6   0  -9 137.347 249.292   2
   6   0  -9 69.9477 208.463   2
   0  -6  -9-9.19540 422.550   3
  -6   6  -9 589.109 409.890   3
   6   0  -9 15.7511 371.222   1
  -6   6  -9 128.496 216.510   4
   0  -6  -9-23.1606 244.069   4
   0  -6  -9 125.108 260.033   1
  -6   6  -9 47.9158 192.878   4
  -6   6  -9-89.7425 295.910   1
   0  -6  -6 28983.3 618.356   1
   6   0  -6 28635.3 918.586   1
   0  -6  -6 24731.7 951.473   3
   0  -6  -6 26272.4 710.382   4
  -6   6  -6 29792.8 901.009   3
  -6   6  -6 27539.1 682.005   4
   6   0  -6 27100.0 562.907   2
  -6   6  -3 122.064 163.868   3
   6   0  -3 116.588 195.336   3
   0  -6  -3 117.670 255.789   3
   0  -6  -3 114.784 195.545   2
   0  -6  -3 210.804 132.209   1
  -6   6  -3 39.7605 243.835   2
  -6   6  -3 57.9889 159.369   4
   0  -6  -3 255.206 200.342   4
   6   0  -3 48.1714 224.777   1
   6   0   0 11615.2 421.506   3
   6   0   0 11738.0 367.163   1
   0  -6   0 12461.8 315.781   3
   0  -6   0 11026.8 406.244   2
  -6   6   0 11108.2 393.644   1
  -6   6   0 11828.4 411.451   4
   0  -6   0 12132.8 430.523   4
  -6   6   0 12688.7 310.532   3
  -6   6   0 11880.0 420.726   2
  -6   6   3 328.496 233.342   1
   0  -6   3 158.986 206.497   2
  -6   6   3 275.646 155.089   4
   0  -6   3 47.1192 134.184   4
  -6   6   3 178.815 137.319   2
   6   0   3 516.880 258.797   3
  -6   6   6 31937.3 921.455   1
  -6   6   6 30135.8 545.198   4
   7  -7 -10 19354.6 882.698   1
   0   7 -10 17402.4 975.237   3
   0   7 -10 18827.6 940.279   1
   0   7 -10 20774.1 954.188   2
   7  -7 -10 19321.7 1157.85   3
  -7   0 -10 21217.1 1131.03   3
   7  -7  -7 207.288 153.593   4
   0   7  -7-5.81110 340.299   1
  -7   0  -7 155.152 229.657   4
   0   7  -7 142.109 93.9060   4
  -7   0  -7 298.736 354.622   3
   0   7  -7 561.995 294.761   2
  -7   0  -7 199.950 123.269   1
   7  -7  -7-4.96711 185.790   2
   7  -7  -7-151.757 300.324   1
  -7   0  -4 8709.06 429.119   4
   7  -7  -4 8595.49 338.384   2
   7  -7  -4 8622.07 345.610   4
   0   7  -4 8591.17 426.476   2
   0   7  -4 8494.27 321.781   4
   7  -7  -4 9112.13 470.095   1
  -7   0  -4 8423.57 497.939   3
   0   7  -1 114.076 130.356   3
  -7   0  -1 69.5745 147.984   1
   0   7  -1 6.14066 168.498   2
   7  -7  -1-88.5836 176.439   1
   7  -7  -1-51.4036 176.145   2
   0   7  -1-27.3470 160.209   4
   7  -7  -1-27.3740 174.015   4
   0   7   2 40238.7 798.236   2
   0   7   2 42403.8 589.540   1
   0   7   2 41190.0 793.090   4
   7  -7   2 42588.8 615.294   3
  -7   0   2 42193.9 772.360   3
  -7   0   2 40155.4 876.097   1
   0   7   2 42454.7 838.496   3
   0   7   5 212.899 191.782   1
   0   7   5-39.7066 183.171   4
   0   7   8 33543.9 846.645   1
   7  -6 -11 5158.62 712.713   3
   1   6 -11 4018.79 637.982   3
   6  -7 -11 3893.20 525.332   1
  -6  -1 -11 4367.52 700.437   3
  -7   1 -11 5029.44 691.620   3
  -1   7 -11 5057.82 672.485   3
  -1   7 -11 4422.26 591.742   2
   1   6 -11 4740.29 575.018   2
  -1   7 -11 4659.34 588.788   1
   7  -6 -11 4477.37 559.399   1
   1   6 -11 4843.72 623.352   1
   6  -7 -11 5236.03 779.327   3
  -6  -1  -8 4043.94 539.157   3
   6  -7  -8 2278.21 307.088   2
  -1   7  -8 3521.73 436.504   2
  -6  -1  -8 2759.50 211.150   1
  -6  -1  -8 2662.35 328.265   4
   6  -7  -8 3164.90 535.148   3
  -7   1  -8 2588.40 245.022   1
  -7   1  -8 3798.83 503.481   3
   7  -6  -8 3444.87 416.916   1
   1   6  -8 3211.14 398.274   2
  -1   7  -8 1364.83 116.391   4
   6  -7  -8 3807.54 432.697   1
  -7   1  -8 2494.22 331.827   4
   1   6  -8 2526.19 425.139   1
  -1   7  -8 3956.39 481.605   1
   6  -7  -8 2705.36 223.444   4
   7  -6  -8 2603.96 280.398   2
  -1   7  -8 2478.78 413.871   3
  -6  -1  -5 7687.46 423.343   4
   6  -7  -5 8470.11 377.290   2
  -7   1  -5 8204.61 507.824   3
   1   6  -5 8817.44 451.473   2
  -7   1  -5 7785.44 416.394   4
   1   6  -5 8364.38 267.089   4
   7  -6  -5 8402.35 331.295   2
   7  -6  -5 8649.41 317.825   4
  -1   7  -5 8430.94 301.491   4
   6  -7  -5 8872.79 470.018   1
  -1   7  -5 7846.96 452.110   2
  -7   1  -5 5992.52 181.512   1
  -6  -1  -5 8288.35 529.812   3
  -7   1  -5 6354.30 215.750   1
   1   6  -5 9045.07 535.644   1
   6  -7  -5 8125.42 340.748   4
   7  -6  -5 8820.87 492.101   1
  -6  -1  -2 4227.43 303.667   4
  -6  -1  -2 4459.75 341.859   3
  -1   7  -2 4525.80 173.023   3
   6  -7  -2 4568.15 281.691   4
  -6  -1  -2 3718.52 301.957   2
   1   6  -2 4052.69 245.529   4
   7  -6  -2 4243.33 229.630   2
   6  -7  -2 4347.46 292.931   1
   1   6  -2 4355.16 277.183   2
  -7   1  -2 4331.65 174.962   1
  -1   7  -2 4138.31 299.501   2
  -7   1  -2 4359.22 328.722   3
   7  -6  -2 4338.86 312.316   1
   6  -7  -2 4019.32 252.791   2
   7  -6  -2 3943.23 258.906   4
   1   6  -2 4667.93 222.800   3
  -1   7  -2 4432.12 270.097   4
  -1   7   1 2577.35 229.142   2
   1   6   1 2344.42 245.144   3
  -6  -1   1 2406.70 268.216   1
  -6  -1   1 2920.98 228.462   4
  -7   1   1 2335.56 267.192   1
  -6  -1   1 2498.57 240.081   3
   7  -6   1 2746.00 210.293   1
   6  -7   1 2674.37 245.487   4
   1   6   1 2404.42 251.499   4
  -1   7   1 2773.00 248.202   3
  -1   7   1 2718.28 215.301   1
  -1   7   1 2676.58 259.996   4
   1   6   1 2567.05 243.931   2
   6  -7   1 2401.00 277.062   2
  -7   1   1 2519.12 160.269   2
   6  -7   1 3110.75 167.118   3
  -7   1   1 2027.12 235.396   3
   6  -7   1 2661.99 227.146   1
   7  -6   1 2421.23 204.790   3
  -6  -1   1 2630.35 170.061   2
  -7   1   4 10113.0 263.519   4
  -6  -1   4 11742.0 579.319   1
  -6  -1   4 9484.95 243.918   4
   7  -6   4 10910.3 497.198   3
   1   6   4 10691.9 462.338   4
   1   6   4 10786.4 530.817   2
   1   6   4 10518.5 582.645   3
  -1   7   4 10255.9 493.787   2
  -7   1   4 11230.6 571.263   1
   1   6   4 10362.5 340.152   1
  -1   7   4 10634.2 399.020   1
  -1   7   4 10364.7 440.525   4
  -1   7   7 5864.55 366.088   4
  -1   7   7 6564.06 418.159   1
   1   6   7 6436.22 371.269   1
   5  -7  -9 2215.24 202.806   4
  -2   7  -9 3202.86 448.822   1
   2   5  -9 3612.34 518.333   1
  -5  -2  -9 3330.57 559.247   3
  -7   2  -9 3825.90 562.357   3
  -5  -2  -9 2291.63 248.273   1
  -7   2  -9 2587.82 303.896   1
   2   5  -9 2900.50 402.261   2
  -2   7  -9 3205.77 471.913   2
   7  -5  -9 3266.33 463.638   1
   7  -5  -9 2286.16 303.759   2
   5  -7  -9 3060.09 558.057   3
  -2   7  -9 3477.46 512.102   3
   5  -7  -9 2688.43 413.657   1
  -7   2  -6 10744.6 478.418   4
  -5  -2  -6 9484.44 248.993   1
  -5  -2  -6 11487.1 661.111   3
   5  -7  -6 11231.4 485.861   2
  -2   7  -6 10020.9 528.192   3
   5  -7  -6 10508.3 389.845   4
  -5  -2  -6 10686.8 483.962   4
  -2   7  -6 10908.3 566.979   2
   2   5  -6 11113.2 636.190   1
   7  -5  -6 11156.1 562.236   1
   5  -7  -6 11173.4 524.325   1
  -2   7  -6 11729.9 354.800   4
  -7   2  -6 11472.3 372.911   1
   2   5  -6 12535.0 528.919   2
  -7   2  -6 11593.5 632.550   3
  -2   7  -6 10938.5 588.170   1
   7  -5  -6 11363.4 380.173   2
   7  -5  -3 60920.5 754.417   4
   2   5  -3 61162.4 846.564   2
   7  -5  -3 61397.1 618.952   2
  -7   2  -3 61611.8 1043.81   3
  -2   7  -3 59659.9 818.933   4
   5  -7  -3 62426.8 855.072   2
   2   5  -3 61834.3 820.270   3
  -7   2  -3 57142.5 505.324   1
   7  -5  -3 59663.3 1000.38   1
   2   5  -3 63437.5 1132.00   1
  -2   7  -3 60595.9 1045.17   2
  -5  -2  -3 60867.6 1101.50   3
   5  -7  -3 61098.0 899.964   1
  -5  -2  -3 60936.0 1088.58   2
   2   5  -3 62690.9 720.932   4
  -5  -2  -3 61861.5 964.604   4
   5  -7  -3 62786.7 868.237   4
  -2   7   0 115834. 1177.29   4
  -7   2   0 116041. 1109.24   3
  -5  -2   0 116640. 1020.32   2
   5  -7   0 119660. 1222.28   2
   7  -5   0 118034. 982.181   3
   2   5   0 114881. 1088.58   2
   2   5   0 117637. 1017.09   3
   5  -7   0 118243. 1172.33   4
   2   5   0 116927. 1144.21   4
  -5  -2   0 117000. 1145.60   3
  -2   7   0 116663. 1153.84   2
  -2   7   0 115570. 1045.16   1
  -5  -2   0 116100. 1030.46   1
  -7   2   0 116122. 1075.33   1
   7  -5   0 115844. 1031.48   1
  -5  -2   0 117987. 1119.71   4
   2   5   3 87703.3 702.298   1
  -2   7   3 88361.3 1171.69   2
   7  -5   3 89889.8 1148.90   3
  -2   7   3 90699.6 1000.44   1
  -5  -2   3 91321.6 802.629   2
   2   5   3 87050.5 1134.05   4
   2   5   3 90688.3 1349.00   3
  -7   2   3 91386.8 1317.57   1
   2   5   3 88315.8 1247.86   2
  -5  -2   3 91655.9 1325.23   1
  -5  -2   3 91669.6 790.377   4
  -2   7   3 86949.7 1110.46   4
  -2   7   6 8152.34 394.499   4
  -2   7   6 8564.12 439.996   1
  -3   7 -10 2366.38 498.046   2
  -3   7 -10 2216.62 489.490   3
  -7   3 -10 2879.02 563.490   3
   3   4 -10 2926.90 445.876   2
   4  -7 -10 2427.57 564.768   3
  -3   7 -10 2363.18 422.004   1
   3   4 -10 2875.57 587.778   3
  -7   3 -10 2546.50 357.175   1
  -4  -3 -10 3128.15 589.069   3
   3   4 -10 3288.81 530.052   1
   4  -7 -10 3409.86 469.815   1
  -4  -3 -10 1964.19 267.909   1
  -7   3 -10 1653.94 296.453   4
   7  -4 -10 2196.76 436.043   1
   7  -4  -7 582.472 161.030   2
  -4  -3  -7 761.035 165.874   1
  -3   7  -7 920.691 159.452   4
   3   4  -7 700.174 248.675   2
  -4  -3  -7 269.732 214.555   4
  -3   7  -7 458.966 258.346   1
  -3   7  -7 677.922 279.555   2
  -3   7  -7 598.997 276.507   3
  -7   3  -7 769.559 342.318   3
  -7   3  -7 723.298 216.464   1
   3   4  -7 846.858 356.432   1
   4  -7  -7 786.645 195.237   4
  -4  -3  -7 815.881 362.130   3
   7  -4  -7 282.951 301.603   1
   4  -7  -7 297.315 211.035   2
  -7   3  -7 623.662 223.585   4
   4  -7  -7 766.839 271.146   1
   4  -7  -7 531.634 384.718   3
  -3   7  -4 17913.1 465.744   4
  -3   7  -4 17331.8 642.556   2
   7  -4  -4 17162.7 605.677   1
   3   4  -4 17891.4 327.112   4
  -4  -3  -4 17922.8 678.963   3
  -7   3  -4 17717.0 354.331   1
   4  -7  -4 18038.6 535.902   2
  -4  -3  -4 17957.3 645.887   2
  -7   3  -4 17179.7 616.768   3
   4  -7  -4 17881.1 514.750   4
   4  -7  -4 18140.7 534.176   1
   3   4  -4 17784.0 479.785   2
  -4  -3  -4 17394.0 544.999   4
  -3   7  -4 16673.3 526.427   3
   3   4  -4 18113.3 670.282   1
   7  -4  -4 16131.9 308.389   2
  -7   3  -1 36316.4 642.795   3
  -7   3  -1 39335.6 557.149   1
   3   4  -1 37617.8 570.841   2
   4  -7  -1 36603.1 613.232   1
   3   4  -1 38975.8 587.891   3
   4  -7  -1 36535.9 663.384   2
  -4  -3  -1 39398.4 682.407   2
   7  -4  -1 37944.1 617.620   3
  -4  -3  -1 36398.1 691.937   3
   4  -7  -1 37331.2 685.198   4
  -3   7  -1 37734.2 684.348   4
   3   4  -1 37316.2 607.129   4
   7  -4  -1 37766.0 679.822   1
  -3   7  -1 38443.4 724.338   2
  -4  -3  -1 37093.6 675.208   4
  -3   7   2 10323.8 378.264   2
   7  -4   2 10152.9 279.837   1
  -3   7   2 10987.4 372.603   1
   4  -7   2 10825.9 382.111   4
   4  -7   2 10721.3 479.159   2
   3   4   2 10944.0 413.964   4
  -4  -3   2 10247.6 300.739   2
   7  -4   2 10648.8 398.003   3
  -3   7   2 9908.47 383.783   4
   3   4   2 9944.22 212.793   1
  -4  -3   2 10748.3 324.764   4
   3   4   2 10521.4 460.836   3
  -7   3   2 10039.6 451.577   1
   3   4   2 10086.6 423.159   2
  -3   7   5 5479.98 312.700   4
  -7   3   5 4504.10 169.021   4
  -3   7   5 6152.09 393.044   1
   3   4   5 5331.66 230.085   1
  -7   3   5 5665.26 465.160   1
   7  -4   5 6110.64 457.489   3
   4   3 -11 1090.96 467.024   1
   7  -3 -11 2019.05 645.660   3
  -3  -4 -11 1812.96 608.580   3
  -4   7 -11 979.181 437.096   3
   3  -7 -11 1292.94 378.474   1
   4   3 -11 970.565 354.948   2
   4   3 -11 2176.39 651.476   3
   3  -7 -11 1460.98 549.809   3
  -4   7 -11 1661.10 502.296   2
  -4   7 -11 1197.20 365.759   1
  -7   4 -11 1379.83 344.355   1
   7  -3 -11 628.145 424.103   1
  -7   4 -11 1504.51 493.858   3
   7  -3  -8 5921.32 513.413   1
  -4   7  -8 5331.24 528.846   2
  -4   7  -8 5410.79 488.470   1
   3  -7  -8 6168.60 443.934   1
  -3  -4  -8 5447.15 314.692   1
  -7   4  -8 6601.78 588.478   3
  -4   7  -8 5502.07 522.037   3
  -3  -4  -8 4259.78 380.970   4
  -7   4  -8 5341.28 401.213   1
  -4   7  -8 5351.64 306.839   4
   3  -7  -8 5201.31 583.853   3
   3  -7  -8 4826.67 330.223   4
  -7   4  -8 5058.78 363.239   4
   4   3  -8 6958.28 584.473   1
   7  -3  -8 5414.42 316.077   2
   4   3  -8 5736.72 417.022   2
  -3  -4  -8 6847.91 655.849   3
   3  -7  -5 5387.73 347.959   1
   4   3  -5 5690.35 446.869   1
   7  -3  -5 4744.93 194.334   2
  -3  -4  -5 4529.07 187.313   1
  -3  -4  -5 5533.02 416.638   2
  -4   7  -5 5458.05 294.294   4
  -4   7  -5 4950.15 366.566   3
  -3  -4  -5 4538.92 330.202   4
  -4   7  -5 5037.66 433.100   2
   7  -3  -5 5838.78 441.724   1
  -7   4  -5 5447.07 425.263   3
   3  -7  -5 4415.79 301.537   4
  -3  -4  -5 5607.72 468.592   3
   3  -7  -5 5123.17 471.405   3
   4   3  -5 5660.90 308.715   2
   3  -7  -5 5328.51 360.215   2
   7  -3  -2 7790.81 355.169   3
  -4   7  -2 7324.44 215.595   3
   4   3  -2 7745.71 278.336   4
   4   3  -2 7923.91 324.435   3
  -7   4  -2 7290.16 340.086   3
  -3  -4  -2 7761.81 399.563   3
  -3  -4  -2 6645.48 348.704   4
  -4   7  -2 7102.58 328.664   4
  -7   4  -2 7426.15 260.745   1
  -4   7  -2 7338.92 419.443   2
  -3  -4  -2 7560.96 366.348   2
   3  -7  -2 7020.63 351.494   4
   4   3  -2 7319.99 248.926   2
   3  -7  -2 7617.82 303.352   1
   4   3  -2 7366.69 409.447   1
   7  -3  -2 6988.18 364.559   1
   3  -7  -2 7491.85 338.191   2
   3  -7  -2 7529.58 399.856   3
  -4   7   1 38326.6 647.388   2
  -7   4   1 40561.6 723.703   1
  -3  -4   1 40440.2 595.088   3
   4   3   1 38518.9 706.399   2
  -7   4   1 37835.4 549.572   2
  -4   7   1 40480.4 658.455   1
  -3  -4   1 39896.4 604.473   2
   3  -7   1 40642.3 775.038   2
   3  -7   1 41325.6 698.178   4
   4   3   1 39912.5 698.383   4
   7  -3   1 39719.9 524.437   1
  -4   7   1 39601.9 696.543   4
  -7   4   1 39165.1 647.333   3
   4   3   1 39124.6 715.146   3
  -3  -4   1 40901.5 653.557   4
   7  -3   1 40227.6 693.328   3
  -7   4   1 41243.2 663.243   4
   3  -7   4 20475.1 484.729   4
  -4   7   4 20838.5 599.815   1
  -7   4   4 18990.5 400.060   4
  -3  -4   4 18943.6 344.910   4
  -4   7   4 18188.5 513.826   4
   4   3   4 19152.5 721.165   3
   7  -3   4 20117.8 692.867   3
  -7   4   4 21375.5 702.422   1
  -4   7   4 18448.1 561.918   2
  -4   7   7 509.449 178.030   4
  -4   7   7 509.389 295.277   1
  -7   5  -9 14548.6 552.133   4
  -5   7  -9 18347.9 821.582   1
  -5   7  -9 18488.2 925.323   3
  -5   7  -9 19309.4 978.937   2
   7  -2  -9 18952.8 886.831   1
  -7   5  -9 19423.3 953.725   3
   2  -7  -9 18155.6 697.680   1
   7  -2  -9 14594.7 511.459   2
  -7   5  -9 17611.3 698.667   1
   5   2  -9 17472.2 674.878   2
   2  -7  -9 18399.9 1034.81   3
   2  -7  -9 13511.7 534.569   4
  -2  -5  -9 18661.5 1027.01   3
   5   2  -9 19584.5 925.163   1
  -2  -5  -9 15998.1 538.406   1
  -5   7  -9 16981.3 544.788   4
  -7   5  -9 18195.4 668.013   4
   7  -2  -9 16764.2 648.364   2
  -5   7  -6 7594.12 361.874   4
  -7   5  -6 7688.63 511.766   3
   7  -2  -6 6317.00 258.070   2
  -2  -5  -6 6650.02 405.722   4
   5   2  -6 7562.61 547.601   1
   5   2  -6 7502.02 349.660   2
   2  -7  -6 7826.33 390.697   1
  -2  -5  -6 7485.46 584.104   3
   2  -7  -6 6916.79 570.955   3
   7  -2  -6 7858.12 530.637   1
   2  -7  -6 6203.22 441.226   2
   2  -7  -6 6720.98 387.135   4
  -5   7  -6 7345.65 465.086   3
  -2  -5  -6 7661.32 293.400   1
  -5   7  -6 7090.09 538.932   2
  -5   7  -3 84452.0 914.333   3
   2  -7  -3 84942.3 905.317   1
   2  -7  -3 89470.2 1150.77   2
  -5   7  -3 84606.4 1016.28   4
  -2  -5  -3 84085.8 1118.98   4
  -2  -5  -3 85216.7 640.397   1
  -5   7  -3 85699.2 1363.44   2
   5   2  -3 84212.3 691.894   2
   5   2  -3 87286.1 1087.38   3
  -7   5  -3 86130.9 1095.35   3
   2  -7  -3 87578.8 1110.06   4
  -7   5  -3 86926.4 851.879   1
   2  -7  -3 85894.1 1290.53   3
   7  -2  -3 85641.8 1238.49   1
  -2  -5  -3 86668.6 1218.03   2
   5   2  -3 85502.8 1280.20   1
  -2  -5  -3 85305.2 1277.15   3
  -7   5   0 108177. 1156.75   2
  -2  -5   0 111549. 1077.88   2
   7  -2   0 111594. 1113.02   3
  -7   5   0 111342. 1128.57   4
   5   2   0 109251. 1122.19   3
   2  -7   0 109877. 1163.54   4
  -7   5   0 111186. 943.881   3
  -2  -5   0 112241. 1138.66   4
  -2  -5   0 114421. 994.199   3
  -7   5   0 110013. 1071.52   1
  -5   7   0 110599. 1149.28   2
   5   2   0 110288. 1003.70   2
   5   2   0 108303. 1005.70   1
   2  -7   0 109355. 731.093   3
   7  -2   0 108183. 978.823   1
  -5   7   0 109976. 1051.51   1
  -2  -5   3 65316.2 936.117   2
  -7   5   3 66784.4 1111.35   1
   7  -2   3 63249.3 1076.30   3
  -5   7   3 62738.8 871.721   2
   5   2   3 63648.5 1143.80   3
  -7   5   3 62559.0 617.581   2
   2  -7   3 63248.5 823.471   4
   2  -7   3 65164.2 1125.66   2
  -2  -5   3 64606.5 734.138   4
  -7   5   3 61389.0 772.613   4
  -5   7   3 63258.1 882.534   4
  -5   7   3 65443.7 982.629   1
  -5   7   6 13211.7 603.026   1
  -5   7   6 12481.2 414.885   4
  -1  -6 -10 806.176 488.687   3
  -6   7 -10 640.384 230.206   4
   1  -7 -10 606.868 484.901   3
  -7   6 -10 637.358 441.230   3
   7  -1 -10 534.952 288.138   2
  -1  -6 -10 863.677 278.337   1
   6   1 -10 455.573 287.787   2
   1  -7 -10 876.422 280.801   1
  -6   7 -10 802.016 352.318   1
  -7   6 -10 568.495 324.234   1
   6   1 -10 845.053 428.222   1
  -6   7 -10 70.4278 376.495   2
  -6   7 -10 965.910 442.713   3
   7  -1 -10 406.747 396.096   1
  -7   6 -10 819.880 405.041   2
  -7   6 -10 692.304 260.885   4
  -6   7  -7 6432.42 518.693   3
   7  -1  -7 7164.06 561.897   1
   1  -7  -7 5821.87 390.901   4
  -1  -6  -7 6400.51 337.949   1
  -7   6  -7 7122.09 544.623   3
  -7   6  -7 6598.21 404.738   4
   1  -7  -7 5160.20 557.706   3
  -6   7  -7 5567.75 449.691   1
  -7   6  -7 5648.65 409.021   1
  -1  -6  -7 6671.20 615.793   3
   1  -7  -7 6682.56 380.539   1
   6   1  -7 6211.25 342.269   2
   6   1  -7 6625.23 543.720   1
  -1  -6  -7 5409.03 399.503   4
  -6   7  -7 6073.53 546.945   2
   7  -1  -7 5452.23 295.893   2
   7  -1  -7 6256.91 287.098   2
  -6   7  -7 6836.08 385.508   4
   7  -1  -4 11282.7 551.902   1
  -6   7  -4 10836.9 424.067   4
   1  -7  -4 10754.0 483.712   2
   6   1  -4 9125.40 238.472   2
  -1  -6  -4 11067.0 458.019   4
  -1  -6  -4 10540.2 298.933   1
  -6   7  -4 10875.7 427.222   3
  -7   6  -4 10435.5 428.983   4
   1  -7  -4 10093.3 565.949   3
  -1  -6  -4 10477.4 562.158   3
   6   1  -4 11964.4 566.806   1
  -1  -6  -4 11091.9 508.859   2
  -6   7  -4 10975.9 606.084   2
   1  -7  -4 11123.4 374.669   1
  -7   6  -4 10508.2 458.757   3
   1  -7  -4 11014.7 453.701   4
  -1  -6  -1 2749.18 257.226   4
   7  -1  -1 2579.28 236.054   3
   6   1  -1 2921.11 180.775   2
   1  -7  -1 3034.20 254.200   2
  -1  -6  -1 2535.43 251.220   3
  -7   6  -1 2686.88 232.315   1
   1  -7  -1 2895.16 268.595   4
  -1  -6  -1 3101.38 267.252   2
   7  -1  -1 3032.41 276.365   1
  -7   6  -1 3005.93 196.916   3
   1  -7  -1 3060.48 245.307   3
  -6   7  -1 2599.96 245.591   4
   6   1  -1 2697.10 236.756   3
  -7   6  -1 3195.00 299.600   2
  -6   7  -1 2992.88 300.093   2
  -6   7  -1 2904.68 238.711   1
  -6   7  -1 3153.58 148.833   3
  -7   6  -1 2675.57 256.260   4
   6   1  -1 2970.25 274.047   1
   7  -1   2 3996.21 323.319   3
  -7   6   2 3510.97 201.405   2
  -1  -6   2 4403.75 253.329   4
  -6   7   2 3709.59 263.500   4
  -6   7   2 3891.60 234.247   2
   1  -7   2 4004.71 314.971   2
  -6   7   2 3782.63 304.040   1
  -1  -6   2 3738.11 282.766   2
  -7   6   2 3704.38 255.773   4
   7  -1   2 3665.23 151.262   1
   1  -7   2 3894.95 259.221   4
  -7   6   2 3510.19 315.426   1
   6   1   2 4374.69 346.794   3
  -6   7   5 6871.27 316.146   4
   1  -7   5 7189.68 280.295   4
  -7   6   5 8056.12 495.634   1
  -1  -6   5 6817.31 242.620   4
  -7   6   5 7264.69 288.624   4
  -6   7   5 7498.19 468.461   1
   7   0 -11 6.57199 452.752   1
   0  -7 -11 427.109 540.901   3
  -7   7 -11 58.8710 451.077   3
  -7   7 -11 266.225 460.479   2
  -7   7 -11 125.242 402.876   1
   0  -7  -8 30871.2 1228.63   3
   7   0  -8 27146.5 655.692   2
   7   0  -8 31391.3 1093.85   1
  -7   7  -8 30113.9 902.769   1
   0  -7  -8 26827.0 838.823   4
  -7   7  -8 30127.2 1166.31   2
   7   0  -8 28652.8 631.145   2
  -7   7  -8 32295.0 837.526   4
  -7   7  -8 32380.8 1092.55   3
   0  -7  -8 29683.4 718.055   1
   7   0  -5-21.8889 78.0094   2
  -7   7  -5 93.5182 273.892   2
   0  -7  -5-137.342 219.943   2
   7   0  -5 15.6652 274.731   1
  -7   7  -5-185.496 205.351   3
   0  -7  -5-36.4854 298.250   3
  -7   7  -5 34.7092 178.903   4
   0  -7  -5 235.904 200.719   4
   0  -7  -5 40.4298 154.214   1
  -7   7  -2 41886.2 680.376   1
   7   0  -2 40985.1 747.737   3
  -7   7  -2 43010.5 599.171   3
   0  -7  -2 41770.2 812.391   3
   0  -7  -2 42146.8 828.085   2
   7   0  -2 42571.2 844.896   1
  -7   7  -2 37380.5 906.368   2
  -7   7  -2 38789.3 760.148   4
   0  -7  -2 41821.9 805.921   4
   0  -7   1-28.2312 114.095   3
   0  -7   1-53.5677 176.487   4
   7   0   1 76.7676 141.785   1
  -7   7   1-3.66781 213.324   1
   0  -7   1-93.5947 175.015   2
  -7   7   1-315.816 176.300   4
  -7   7   1 219.763 164.656   2
  -7   7   4 6985.62 456.238   1
   0  -7   4 7256.16 430.707   2
   0  -7   4 6733.58 289.664   4
   7   0   4 6729.78 481.840   3
  -7   7   4 6801.79 311.511   2
  -7   7   4 6244.35 307.717   4
  -7   7   7 21.7841 139.924   4
   0   8 -11-9.24363 409.568   1
   8  -8 -11 659.601 539.242   3
   0   8 -11 543.676 468.223   3
   8  -8 -11-516.031 436.951   1
   0   8 -11 24.8882 379.490   2
  -8   0 -11 53.0082 524.387   3
   0   8  -8 11623.3 740.892   1
   0   8  -8 11342.8 661.506   2
   8  -8  -8 9008.99 452.757   2
   8  -8  -8 10779.6 401.560   4
   8  -8  -8 12376.2 678.481   1
  -8   0  -8 12256.4 801.546   3
   8  -8  -5 38.7960 152.802   4
   0   8  -5 81.0141 286.000   1
   0   8  -5 311.222 155.381   4
   0   8  -5 150.983 189.813   2
  -8   0  -5-222.592 297.435   3
   8  -8  -5-16.2540 158.835   2
  -8   0  -5 0.20436 203.378   4
   8  -8  -5 169.197 260.832   1
   8  -8  -2 71545.1 1013.26   4
   8  -8  -2 72155.4 941.802   2
   0   8  -2 75480.3 724.792   3
   0   8  -2 73336.4 1068.66   2
   8  -8  -2 72776.8 1040.40   1
  -8   0  -2 71296.7 1123.92   3
   0   8  -2 71714.6 984.571   4
  -8   0  -2 72398.1 645.739   1
   8  -8   1 208.157 198.322   4
   0   8   1-41.0335 193.052   3
   8  -8   1-37.5972 167.749   1
   0   8   1 106.451 188.837   4
   0   8   1-142.998 158.722   1
   8  -8   1 102.712 154.378   3
   8  -8   1 63.1360 225.787   2
  -8   0   1 125.232 222.293   1
  -8   0   1-151.759 198.223   3
   0   8   1 72.8634 183.579   2
  -8   0   1 72.7469 123.786   2
   8  -8   4 18151.2 588.211   3
  -8   0   4 17044.1 726.127   1
   0   8   4 18033.4 607.451   4
   0   8   4 16370.2 635.746   2
   0   8   4 18789.6 490.192   1
  -8   0   4 18063.2 392.110   4
   0   8   7 171.520 231.474   1
   0   8   7 101.637 235.896   4
  -8   1  -9 2966.91 234.587   1
  -7  -1  -9 4932.58 613.016   3
   1   7  -9 4166.70 556.304   3
   1   7  -9 4214.41 474.217   2
   7  -8  -9 4045.97 636.748   3
  -1   8  -9 4533.47 503.943   2
  -1   8  -9 3183.04 444.013   3
  -7  -1  -9 2812.13 183.435   1
   8  -7  -9 4531.23 513.469   1
  -8   1  -9 4495.68 591.744   3
  -1   8  -9 4005.93 524.315   1
   1   7  -9 3762.16 534.116   1
   7  -8  -9 3739.28 471.795   1
  -7  -1  -6 1536.66 389.684   3
  -8   1  -6 1785.91 367.652   3
   1   7  -6 1900.31 302.142   2
  -1   8  -6 1735.37 186.505   4
   7  -8  -6 1495.16 209.083   4
   7  -8  -6 2258.46 344.465   1
  -7  -1  -6 1127.82 257.193   4
  -8   1  -6 944.430 88.9578   1
  -1   8  -6 1757.34 283.975   2
  -8   1  -6 1516.06 277.001   4
   8  -7  -6 1635.16 326.812   1
   1   7  -6 1751.73 369.869   1
  -8   1  -6 1053.93 116.988   1
   7  -8  -6 1734.53 240.342   2
  -1   8  -6 2017.95 361.664   1
   8  -7  -6 1851.91 203.865   4
   1   7  -6 1746.00 159.873   4
   8  -7  -6 1734.57 222.318   2
   8  -7  -3 6762.18 283.968   2
  -1   8  -3 6636.76 330.976   4
   1   7  -3 7072.65 359.615   2
   1   7  -3 7296.42 294.026   3
  -7  -1  -3 7083.90 446.847   3
  -7  -1  -3 6598.32 427.362   2
   8  -7  -3 7024.39 333.597   4
   7  -8  -3 7200.65 389.277   1
   7  -8  -3 6941.17 348.064   4
   8  -7  -3 6889.04 408.242   1
  -1   8  -3 7322.38 402.933   2
   7  -8  -3 6487.29 319.759   2
  -7  -1  -3 6468.57 380.822   4
  -8   1  -3 6300.74 426.186   3
   1   7  -3 6732.58 310.792   4
   7  -8   0 176.944 202.999   2
  -7  -1   0 189.384 190.015   1
   7  -8   0 374.355 174.576   1
  -7  -1   0 284.847 195.781   3
   1   7   0 166.272 180.419   4
   7  -8   0 442.886 194.860   4
  -1   8   0 382.291 148.184   3
   1   7   0 192.235 163.218   3
  -7  -1   0 356.603 193.019   4
   8  -7   0 285.998 170.806   1
  -8   1   0 202.275 185.934   3
   8  -7   0 261.072 140.870   3
  -8   1   0 233.286 194.387   1
  -1   8   0 235.595 199.068   4
  -7  -1   0 175.577 156.288   2
   7  -8   0 399.184 125.384   3
   1   7   0 304.143 164.509   2
   8  -7   0 360.263 201.271   2
  -1   8   0 170.875 169.238   2
   8  -7   0 78.9071 173.978   4
   1   7   3 36814.5 858.539   2
   1   7   3 38759.3 929.472   3
   1   7   3 37722.0 822.089   4
   8  -7   3 37979.6 744.005   3
  -1   8   3 38568.5 849.270   2
  -1   8   3 37593.8 635.105   1
   1   7   3 38999.9 561.492   1
  -7  -1   3 38137.9 589.790   4
  -8   1   3 40773.2 959.919   1
   7  -8   3 37696.4 676.058   3
  -1   8   3 36574.5 799.602   4
  -7  -1   3 35386.9 895.674   1
  -1   8   6 3564.24 316.652   1
  -1   8   6 2464.87 280.513   4
   1   7   6 2838.41 309.064   4
   1   7   6 3622.15 274.174   1
  -8   2 -10 7723.80 737.621   3
  -2   8 -10 6637.64 657.254   2
  -6  -2 -10 7562.28 782.420   3
   6  -8 -10 6291.04 556.161   1
   8  -6 -10 5982.80 768.997   3
  -2   8 -10 5531.35 617.119   3
   2   6 -10 6820.19 686.987   1
   6  -8 -10 5866.05 708.546   3
   8  -6 -10 6529.63 625.824   1
   2   6 -10 6207.74 547.107   2
  -8   2 -10 5060.09 350.988   1
   2   6 -10 6450.48 706.458   3
  -2   8 -10 7087.76 664.549   1
  -2   8  -7 28035.0 949.399   2
   6  -8  -7 25941.5 760.845   2
   2   6  -7 30899.7 1055.86   1
  -2   8  -7 28105.8 557.697   4
   8  -6  -7 26356.1 624.450   2
   2   6  -7 28767.3 845.787   2
  -6  -2  -7 24740.3 784.888   4
  -2   8  -7 27125.0 908.359   3
  -8   2  -7 25276.3 529.988   1
   6  -8  -7 29555.6 880.025   1
  -8   2  -7 25093.3 770.281   4
  -2   8  -7 29595.5 998.869   1
   6  -8  -7 26138.3 631.679   4
  -6  -2  -7 29902.2 1091.14   3
   8  -6  -7 28123.2 917.792   1
  -8   2  -7 29450.1 1051.77   3
  -8   2  -4 13698.0 589.860   3
   6  -8  -4 13571.1 503.421   1
  -2   8  -4 13322.0 419.866   4
   8  -6  -4 13710.3 569.393   1
   2   6  -4 13893.3 366.807   4
  -8   2  -4 11106.2 239.937   1
  -6  -2  -4 12716.0 591.844   2
   8  -6  -4 13455.8 397.716   4
   2   6  -4 13065.7 466.107   2
   6  -8  -4 13521.2 452.426   4
  -6  -2  -4 13534.5 522.090   4
   8  -6  -4 13106.1 340.731   2
   6  -8  -4 13815.6 467.199   2
  -6  -2  -4 13239.6 602.878   3
  -2   8  -4 13371.7 560.254   2
   2   6  -4 13091.4 611.643   1
   2   6  -1 21867.0 534.947   4
   6  -8  -1 21838.3 567.989   4
  -2   8  -1 21880.0 559.483   4
  -8   2  -1 20984.1 572.483   3
  -2   8  -1 22019.2 587.849   2
  -8   2  -1 22027.2 464.951   1
  -6  -2  -1 20028.7 552.202   4
   6  -8  -1 22357.3 540.266   1
   6  -8  -1 22276.8 568.899   2
   8  -6  -1 22258.3 519.393   2
  -6  -2  -1 21778.5 565.248   2
   8  -6  -1 21529.4 547.140   1
   2   6  -1 22242.9 465.482   3
   8  -6  -1 22498.5 495.905   3
  -6  -2  -1 22206.6 584.238   3
   2   6  -1 21014.3 508.813   2
  -2   8   2 33405.7 600.277   1
   2   6   2 32584.8 757.295   3
  -8   2   2 32230.0 763.614   1
   6  -8   2 33546.4 697.588   4
  -6  -2   2 33134.2 461.908   2
   6  -8   2 32930.5 830.210   2
  -6  -2   2 32378.0 574.155   4
  -2   8   2 31882.6 695.464   2
  -2   8   2 31199.3 705.328   4
   2   6   2 33877.3 466.544   1
   8  -6   2 32065.9 556.985   1
   2   6   2 33203.6 725.516   4
   6  -8   2 30616.1 451.650   3
   8  -6   2 32916.0 631.812   3
  -6  -2   2 30443.4 757.806   1
   2   6   2 32207.5 743.854   2
  -6  -2   2 32706.3 671.426   3
  -2   8   5 6595.71 376.770   1
  -2   8   5 6004.21 417.314   2
   8  -6   5 6666.91 473.406   3
   2   6   5 6981.18 293.633   1
   2   6   5 6411.63 389.887   4
  -2   8   5 6634.46 385.042   4
  -2   8   8 7717.06 507.047   1
  -5  -3 -11 3450.54 655.797   3
   3   5 -11 2847.36 621.375   3
   5  -8 -11 3053.64 474.265   1
   3   5 -11 2709.92 545.318   1
  -3   8 -11 2627.70 542.047   2
  -8   3 -11 2417.53 569.524   3
  -3   8 -11 1905.69 524.771   3
   8  -5 -11 2511.74 663.363   3
   8  -5 -11 2710.62 505.777   1
   3   5 -11 2944.61 456.228   2
  -3   8 -11 2195.32 437.562   1
   5  -8 -11 2346.77 635.748   3
   3   5  -8 11975.2 584.720   2
   5  -8  -8 10536.9 435.870   4
  -5  -3  -8 8899.41 292.736   1
  -3   8  -8 12786.4 696.459   3
  -8   3  -8 10492.8 533.217   4
   5  -8  -8 13485.0 646.271   1
   3   5  -8 12616.7 745.826   1
  -8   3  -8 13895.4 798.950   3
   8  -5  -8 13108.7 695.318   1
  -3   8  -8 13045.6 683.820   1
  -5  -3  -8 12038.2 787.237   3
  -5  -3  -8 10465.4 551.996   4
  -8   3  -8 12290.8 474.682   1
   8  -5  -8 11440.9 434.864   2
  -3   8  -8 11771.8 375.733   4
   5  -8  -8 9956.06 772.272   3
  -3   8  -8 12563.9 719.837   2
   8  -5  -5 11489.9 308.267   2
   5  -8  -5 12211.7 496.248   2
  -5  -3  -5 12704.3 654.475   3
   5  -8  -5 13285.2 523.989   1
  -3   8  -5 12019.3 521.842   3
  -3   8  -5 11355.5 572.477   2
   5  -8  -5 12037.8 454.967   4
  -8   3  -5 12415.2 606.422   3
  -5  -3  -5 11666.4 503.620   4
  -3   8  -5 12559.3 423.829   4
  -8   3  -5 11897.2 304.731   1
   3   5  -5 13242.5 653.387   1
   3   5  -5 11969.3 279.131   4
   3   5  -5 12893.9 479.059   2
   8  -5  -5 12448.6 572.720   1
   8  -5  -2 9924.01 282.538   2
  -5  -3  -2 10249.1 431.186   4
   3   5  -2 10743.8 356.073   3
  -5  -3  -2 10103.6 467.361   3
  -5  -3  -2 10517.9 439.663   2
   5  -8  -2 10548.0 405.605   4
  -3   8  -2 10410.3 401.984   4
   3   5  -2 10222.8 342.349   2
   8  -5  -2 10690.2 405.232   3
   8  -5  -2 10165.5 436.693   1
   3   5  -2 10615.6 353.830   4
   5  -8  -2 10625.5 390.745   1
  -8   3  -2 10855.1 429.178   3
  -3   8  -2 9288.59 436.343   2
   5  -8  -2 10707.3 400.303   2
  -8   3  -2 10652.7 301.092   1
   8  -5   1 49663.4 762.932   3
   8  -5   1 48216.8 651.944   1
   3   5   1 48030.6 818.621   2
  -5  -3   1 48253.0 743.929   3
  -3   8   1 46795.7 723.698   1
  -8   3   1 46052.9 773.507   3
  -3   8   1 46580.1 773.698   2
  -5  -3   1 47647.2 733.736   4
   3   5   1 48468.6 806.596   3
   3   5   1 46547.1 809.399   4
  -5  -3   1 46627.7 649.773   2
  -8   3   1 48912.7 846.687   1
   5  -8   1 49529.1 811.901   4
  -3   8   1 47634.0 831.158   4
   5  -8   1 49129.3 920.590   2
  -3   8   4 44920.4 856.806   4
  -3   8   4 47055.5 838.097   1
  -8   3   4 47332.1 1065.04   1
   3   5   4 45969.2 1117.92   3
  -8   3   4 45715.7 592.391   4
  -5  -3   4 43878.0 548.203   4
   3   5   4 45870.9 901.295   4
   8  -5   4 47200.0 1000.79   3
  -3   8   4 45707.4 918.044   2
  -3   8   7 5258.75 422.133   1
  -3   8   7 5312.25 348.484   4
   4  -8  -9 5646.91 692.969   3
  -4   8  -9 5057.07 507.833   1
   4   4  -9 5747.51 462.708   2
   8  -4  -9 5086.70 540.982   1
  -4  -4  -9 3789.65 269.079   1
  -8   4  -9 4666.78 395.472   1
  -4  -4  -9 5564.28 649.002   3
  -4   8  -9 5380.83 565.886   2
   4  -8  -9 5539.71 473.533   1
   4   4  -9 5920.63 608.540   1
  -4   8  -9 4290.21 259.154   4
  -8   4  -9 5817.27 629.309   3
  -4   8  -9 5603.38 578.032   3
  -4  -4  -6 1378.89 255.766   4
   4  -8  -6 1301.13 272.052   1
  -4   8  -6 1746.52 324.439   2
  -8   4  -6 1983.42 354.594   3
   8  -4  -6 1222.91 303.427   1
   4  -8  -6 969.295 380.598   3
   4  -8  -6 1359.78 226.530   4
   4   4  -6 1141.86 330.065   1
   4   4  -6 1477.27 236.532   2
   8  -4  -6 1306.25 146.688   2
   4  -8  -6 1324.57 266.019   2
  -8   4  -6 1467.96 220.638   1
  -4   8  -6 1494.43 288.212   3
  -4  -4  -6 1023.87 116.408   1
  -4  -4  -6 1342.71 366.122   3
  -4   8  -6 1739.26 215.702   4
   4   4  -3 36243.5 577.578   2
   4  -8  -3 35700.2 681.331   1
   4   4  -3 35544.8 888.485   1
   4  -8  -3 36245.7 744.654   4
  -8   4  -3 34669.5 507.007   1
  -4   8  -3 36458.7 901.053   2
  -4  -4  -3 34168.8 816.490   2
  -4   8  -3 34741.7 573.205   3
   4   4  -3 36890.6 561.262   4
   4   4  -3 35933.7 693.865   3
   8  -4  -3 34202.7 812.733   1
   4  -8  -3 36857.3 739.848   2
  -8   4  -3 35125.5 778.545   3
  -4  -4  -3 35862.0 872.559   3
  -4  -4  -3 35390.3 762.129   4
  -4   8  -3 35643.3 698.849   4
   4   4   0 2650.31 277.275   2
  -4   8   0 2548.56 271.453   1
  -4  -4   0 2639.35 274.129   4
   8  -4   0 2390.79 265.142   3
  -4   8   0 2847.26 301.380   2
  -4   8   0 2736.17 305.569   4
   4   4   0 2584.80 282.382   3
  -8   4   0 2953.61 269.990   3
   4  -8   0 2966.49 280.599   1
  -8   4   0 2785.79 284.334   1
   4   4   0 3042.85 290.790   4
   8  -4   0 3222.99 277.703   1
   4  -8   0 2605.52 302.090   2
  -4  -4   0 2910.34 289.180   3
   4  -8   0 2962.52 301.023   4
  -4  -4   0 2663.80 260.234   2
   4  -8   3 39463.0 726.885   4
  -4  -4   3 39635.2 671.728   2
  -4   8   3 35930.1 738.629   4
   4   4   3 36797.8 779.759   4
   4  -8   3 39834.3 935.843   2
   4   4   3 38943.5 918.281   3
  -8   4   3 40814.4 913.522   1
  -4  -4   3 38924.3 606.538   4
  -8   4   3 37959.0 610.378   4
  -4   8   3 36858.3 751.508   2
   8  -4   3 37848.5 818.083   3
  -4   8   3 40027.0 771.372   1
  -4   8   6 1727.54 240.611   4
  -8   4   6 1720.90 122.701   4
  -4   8   6 2109.43 335.502   1
  -3  -5 -10 1737.47 253.840   1
  -8   5 -10 2257.94 506.964   3
  -5   8 -10 1865.03 462.963   3
  -8   5 -10 2277.52 374.575   1
   5   3 -10 3064.91 556.243   1
   3  -8 -10 1422.71 541.970   3
  -5   8 -10 2242.20 484.346   2
   8  -3 -10 2157.43 346.198   2
   3  -8 -10 2192.04 389.677   1
  -3  -5 -10 1988.67 544.464   3
  -8   5 -10 1852.57 320.947   4
   5   3 -10 2254.64 365.978   2
   8  -3 -10 1618.17 450.525   1
  -5   8 -10 1787.39 394.875   1
  -5   8  -7 5646.53 458.158   3
   5   3  -7 5207.06 345.645   2
  -3  -5  -7 4664.83 241.888   1
   8  -3  -7 4935.72 479.624   1
  -3  -5  -7 4307.23 377.427   4
   8  -3  -7 4476.16 235.997   2
  -8   5  -7 5397.47 503.886   3
  -8   5  -7 5347.71 375.792   1
  -5   8  -7 5160.39 501.440   2
   3  -8  -7 5115.15 587.014   3
   5   3  -7 5514.15 523.663   1
  -5   8  -7 5064.15 320.538   4
   3  -8  -7 5354.01 381.034   1
   3  -8  -7 4436.37 347.146   4
  -3  -5  -7 5766.08 583.991   3
  -5   8  -7 5222.64 436.354   1
  -3  -5  -4 47540.0 1008.03   2
   5   3  -4 46256.1 638.694   2
   5   3  -4 46662.8 889.005   3
  -8   5  -4 45871.1 650.694   1
  -3  -5  -4 45795.7 898.646   4
   3  -8  -4 47259.8 923.005   2
  -5   8  -4 45040.6 808.002   3
  -8   5  -4 45387.7 935.715   3
   3  -8  -4 46692.8 861.597   4
   8  -3  -4 42504.1 965.593   1
   5   3  -4 45334.5 1047.57   1
   3  -8  -4 44764.3 1074.90   3
  -5   8  -4 45447.9 803.744   4
  -5   8  -4 45420.1 1094.44   2
   3  -8  -4 46390.5 778.076   1
  -3  -5  -4 44700.6 1056.42   3
  -8   5  -1 46949.5 669.762   1
   5   3  -1 46302.9 716.754   4
   8  -3  -1 45745.9 780.668   1
   3  -8  -1 48596.6 831.715   4
   5   3  -1 46429.1 815.018   1
  -3  -5  -1 46548.2 818.653   4
  -8   5  -1 46825.3 704.417   3
   5   3  -1 47260.5 646.322   2
   8  -3  -1 46077.7 754.873   3
  -3  -5  -1 45487.3 791.472   3
   3  -8  -1 48428.8 817.142   2
   3  -8  -1 46859.7 680.945   3
   5   3  -1 47354.2 750.692   3
  -3  -5  -1 49851.6 812.195   2
  -5   8  -1 45663.6 801.049   4
  -5   8  -1 47393.0 741.659   1
   3  -8  -1 46582.9 708.274   1
   5   3   2 8877.38 218.876   1
  -8   5   2 10085.8 367.886   4
  -8   5   2 10816.2 472.337   1
  -5   8   2 10679.2 406.344   4
  -3  -5   2 11021.7 371.748   4
   5   3   2 10581.5 468.713   3
   8  -3   2 10069.3 265.603   1
  -3  -5   2 10406.8 354.422   3
  -3  -5   2 10430.1 372.204   2
  -5   8   2 10447.8 375.154   2
   5   3   2 10707.9 423.418   4
   3  -8   2 10851.5 396.973   4
  -5   8   2 10512.5 402.235   1
   3  -8   2 10288.9 477.396   2
  -8   5   2 10252.0 266.444   2
   8  -3   2 11008.7 443.870   3
  -8   5   5 12685.0 345.642   4
  -8   5   5 12868.2 633.359   1
   8  -3   5 12631.1 641.986   3
  -5   8   5 12810.3 514.287   2
  -5   8   5 12725.0 457.192   4
  -3  -5   5 10957.0 270.134   4
  -5   8   5 13092.5 565.657   1
  -5   8   8 10749.9 414.658   4
  -6   8 -11 5885.70 719.464   2
  -6   8 -11 5954.61 593.817   1
   2  -8 -11 5994.13 777.277   3
  -8   6 -11 4954.40 512.759   1
  -8   6 -11 6240.75 717.831   3
  -8   6 -11 4961.40 694.791   2
  -6   8 -11 6429.27 695.022   3
  -2  -6 -11 6028.48 781.710   3
   2  -8 -11 4941.49 452.531   1
   6   2 -11 5793.87 671.165   1
   8  -2 -11 6329.19 674.969   1
  -8   6  -8 6738.86 456.299   1
  -8   6  -8 6506.36 437.729   4
   6   2  -8 6831.46 595.092   1
   8  -2  -8 7461.89 593.941   1
  -2  -6  -8 6311.55 332.812   1
   2  -8  -8 7170.13 448.290   1
   8  -2  -8 5733.67 281.966   2
  -6   8  -8 6811.62 621.939   2
  -2  -6  -8 4744.10 421.145   4
  -6   8  -8 7457.08 422.653   4
  -2  -6  -8 8596.07 739.809   3
   2  -8  -8 5709.82 406.028   4
   6   2  -8 7085.37 399.265   2
   8  -2  -8 5236.10 310.794   2
  -6   8  -8 7020.68 509.544   1
   2  -8  -8 7303.48 688.325   3
  -8   6  -8 7417.50 614.463   3
  -6   8  -8 7339.64 576.720   3
   2  -8  -5 7263.46 551.673   3
  -8   6  -5 7661.45 466.638   3
   2  -8  -5 6273.43 423.036   2
  -2  -6  -5 7009.63 249.227   1
   6   2  -5 7285.91 503.617   1
  -6   8  -5 7096.59 403.371   3
  -2  -6  -5 6382.08 398.135   4
   2  -8  -5 6335.70 388.177   4
   8  -2  -5 7459.98 489.623   1
  -6   8  -5 6862.17 517.434   2
  -6   8  -5 6875.99 367.202   4
   6   2  -5 7074.02 274.113   2
  -2  -6  -5 7071.15 529.376   3
   2  -8  -5 7306.52 354.140   1
   2  -8  -2 30916.5 566.077   1
   8  -2  -2 30668.8 732.662   1
   6   2  -2 29910.5 739.331   1
   2  -8  -2 29876.0 699.635   3
  -6   8  -2 31232.0 629.810   1
   8  -2  -2 30433.4 661.510   3
  -2  -6  -2 29977.3 702.950   4
  -6   8  -2 32275.3 424.752   3
   2  -8  -2 30516.5 703.529   4
   6   2  -2 29336.8 629.842   3
  -2  -6  -2 31953.7 729.989   3
  -6   8  -2 31670.2 814.767   2
   6   2  -2 32001.1 452.234   2
  -8   6  -2 30827.8 562.815   1
  -6   8  -2 30048.9 665.072   4
  -2  -6  -2 31251.4 718.054   2
  -8   6  -2 31712.7 598.717   3
   2  -8  -2 31123.5 704.933   2
  -6   8   1 18064.8 539.961   4
   6   2   1 18534.4 557.720   3
  -8   6   1 18895.4 509.891   4
   2  -8   1 18539.4 577.457   2
  -2  -6   1 18800.7 416.352   3
   8  -2   1 18349.2 405.555   1
  -2  -6   1 19156.3 516.705   4
  -8   6   1 18888.9 462.078   2
  -6   8   1 17627.2 489.774   2
   6   2   1 18630.5 383.248   1
  -8   6   1 18658.2 558.324   1
  -2  -6   1 17277.2 495.516   2
   8  -2   1 19297.4 554.544   3
  -6   8   1 19319.6 524.452   1
   2  -8   1 19456.4 539.799   4
   2  -8   4 13281.5 584.951   2
  -8   6   4 14374.7 611.286   1
  -6   8   4 13737.5 471.791   2
  -6   8   4 12764.6 532.023   1
  -2  -6   4 13133.6 361.990   4
   6   2   4 12247.6 622.528   3
  -8   6   4 12467.3 394.165   4
  -6   8   4 13069.2 452.206   4
   8  -2   4 12696.7 589.918   3
  -8   6   4 12734.8 338.646   2
   2  -8   4 13490.5 418.797   4
  -2  -6   4 14071.0 520.841   2
  -6   8   7 27843.5 638.004   4
  -8   6   7 23719.8 435.926   4
  -7   8  -9 23899.0 757.693   4
   8  -1  -9 22630.4 1000.68   1
  -8   7  -9 24398.3 1031.46   3
   8  -1  -9 17425.8 551.205   2
  -8   7  -9 21315.3 809.868   1
  -7   8  -9 21541.9 847.194   1
  -8   7  -9 21537.5 751.025   4
  -7   8  -9 21933.8 1099.98   2
  -8   7  -9 21461.3 1104.54   2
   7   1  -9 22785.7 1028.97   1
  -1  -7  -9 22538.9 1150.53   3
   1  -8  -9 24119.4 1196.82   3
   1  -8  -9 21534.4 701.187   1
  -1  -7  -9 19854.3 599.569   1
  -7   8  -9 22371.2 988.649   3
   7   1  -9 19550.4 621.337   2
  -1  -7  -6 2447.79 214.372   1
  -8   7  -6 2580.91 352.968   3
  -7   8  -6 2531.82 414.776   2
   7   1  -6 2911.28 402.544   1
  -7   8  -6 2309.57 256.476   4
   1  -8  -6 2719.03 261.986   1
  -8   7  -6 1943.90 267.490   4
   7   1  -6 1960.75 171.935   2
  -1  -7  -6 2631.35 427.103   3
   1  -8  -6 2246.08 424.893   3
   8  -1  -6 2669.01 414.086   1
   8  -1  -6 1408.94 126.266   2
   8  -1  -6 1724.64 127.642   2
  -1  -7  -6 2101.53 297.103   4
   1  -8  -6 2114.70 294.726   4
  -7   8  -6 2314.79 308.587   3
   8  -1  -3 35717.4 780.653   3
  -7   8  -3 36073.5 972.543   2
  -8   7  -3 34700.2 976.261   2
  -1  -7  -3 34036.2 818.462   2
  -8   7  -3 33620.5 754.402   4
  -8   7  -3 35793.1 699.881   3
  -7   8  -3 35986.6 694.677   1
  -7   8  -3 34167.8 741.402   4
  -8   7  -3 36112.3 655.701   1
   7   1  -3 35196.3 756.065   3
   1  -8  -3 36219.6 799.895   4
   1  -8  -3 35972.6 825.128   2
  -1  -7  -3 34339.8 784.213   4
  -7   8  -3 35089.2 617.432   3
   1  -8  -3 35439.4 864.756   3
   7   1  -3 34773.4 863.797   1
  -1  -7  -3 34924.8 864.422   3
  -1  -7  -3 34839.2 522.341   1
   1  -8  -3 35312.8 592.437   1
   8  -1  -3 35347.0 865.644   1
  -7   8   0 356.529 193.339   1
   8  -1   0 535.248 186.266   1
   7   1   0 551.540 195.494   1
  -1  -7   0 412.648 162.386   3
   1  -8   0 248.100 139.480   3
   1  -8   0 504.068 206.247   4
  -1  -7   0 372.893 197.859   4
  -8   7   0 387.074 206.599   1
   7   1   0 505.825 206.130   3
  -8   7   0 349.009 174.194   4
   1  -8   0 82.4595 188.834   2
  -8   7   0 581.857 150.065   3
  -1  -7   0 378.241 180.884   2
  -7   8   0 495.558 203.716   2
  -7   8   0 182.569 183.158   4
   8  -1   0 68.0325 201.282   3
  -8   7   0 480.788 221.569   2
   7   1   3 7444.43 464.587   3
   8  -1   3 7368.10 452.403   3
   1  -8   3 7608.49 440.041   2
  -1  -7   3 7729.52 417.237   2
  -7   8   3 7937.72 450.378   1
  -1  -7   3 7155.24 320.242   4
  -8   7   3 6602.61 334.180   4
  -8   7   3 7002.62 273.041   2
   1  -8   3 7247.55 334.361   4
  -7   8   3 7250.14 320.949   2
  -7   8   3 6816.54 350.365   4
  -8   7   3 6837.69 445.879   1
  -7   8   6 908.482 185.560   4
  -8   7   6 1081.01 176.068   4
  -8   8 -10 9235.71 838.012   2
  -8   8 -10 9828.24 758.849   3
   8   0 -10 8484.19 743.888   1
   0  -8 -10 8951.85 852.322   3
   0  -8 -10 7462.10 458.079   1
  -8   8 -10 8288.17 589.679   1
  -8   8 -10 8209.91 515.837   4
  -8   8  -7-500.576 346.388   2
  -8   8  -7 96.6881 203.258   4
   0  -8  -7 46.5278 392.122   3
   0  -8  -7-47.0900 231.247   4
   8   0  -7 47.1532 122.109   2
   0  -8  -7 118.557 196.526   1
   8   0  -7 353.739 339.795   1
  -8   8  -7 355.313 293.317   3
   8   0  -7 23.0073 103.467   2
   8   0  -4 21229.4 761.955   1
  -8   8  -4 21099.4 557.924   1
   0  -8  -4 19989.3 686.274   2
   8   0  -4 19442.2 641.496   3
   0  -8  -4 19283.9 440.021   1
  -8   8  -4 19346.8 804.237   2
  -8   8  -4 19017.5 597.944   4
  -8   8  -4 20121.6 580.928   3
   0  -8  -4 19031.5 751.478   3
   0  -8  -4 19896.0 645.755   4
  -8   8  -1-41.5013 218.638   2
  -8   8  -1 286.817 195.078   4
   8   0  -1 215.990 210.072   1
  -8   8  -1 128.603 181.855   1
   8   0  -1-310.596 211.819   3
   0  -8  -1 165.334 189.253   3
   0  -8  -1-84.2069 181.755   2
   0  -8  -1-256.140 196.971   4
  -8   8  -1 53.8698 122.896   3
  -8   8   2 68953.7 995.572   4
   0  -8   2 73092.3 1004.67   4
  -8   8   2 73309.0 1132.69   1
   8   0   2 70006.4 605.570   1
   8   0   2 71747.1 1149.47   3
   0  -8   2 73921.3 1121.40   2
  -8   8   2 67655.7 868.759   2
  -8   8   5 91.4512 278.999   1
  -8   8   5-69.5508 158.879   2
  -8   8   5-9.64708 154.519   4
   0  -8   5 305.686 150.868   4
  -8   8   8 9997.10 357.909   4
   0   9  -9-168.747 332.992   3
   0   9  -9 173.212 304.933   2
  -9   0  -9 41.6760 420.042   3
   0   9  -9-165.120 385.618   1
   9  -9  -9 565.650 391.752   1
   9  -9  -6 4209.43 408.705   1
   0   9  -6 3986.03 463.786   1
   0   9  -6 3488.28 366.141   2
   0   9  -6 3950.15 270.049   4
   9  -9  -6 3194.02 281.165   4
   9  -9  -6 3660.91 283.627   2
  -9   0  -6 3677.79 470.024   3
  -9   0  -3 161.042 259.986   3
   0   9  -3-53.4392 184.621   4
   9  -9  -3 81.9930 165.939   2
   9  -9  -3 184.578 177.074   4
   0   9  -3 12.4325 205.400   2
   0   9  -3 19.7707 139.396   3
  -9   0  -3-55.7421 73.6830   1
   9  -9  -3 293.437 251.167   1
   9  -9   0 24319.4 687.246   2
   9  -9   0 24484.2 605.949   1
  -9   0   0 22998.9 569.794   2
   0   9   0 24954.1 516.788   3
   0   9   0 23947.6 621.730   2
   0   9   0 24488.1 662.695   4
   9  -9   0 25021.6 673.857   4
   9  -9   0 24350.0 477.123   3
  -9   0   0 23791.6 599.413   1
   9  -9   3-4.98581 189.445   3
   0   9   3 548.547 235.759   4
  -9   0   3 156.974 282.894   1
  -9   0   3 146.066 152.697   4
   0   9   3-176.702 284.186   3
   0   9   3-10.0479 170.859   1
   0   9   3 263.634 233.046   2
   0   9   6 6101.34 413.515   4
   0   9   6 6330.55 357.837   1
   8  -9 -10 3563.64 514.960   1
  -1   9 -10 4369.73 555.793   3
   1   8 -10 3942.26 571.512   1
  -1   9 -10 4578.49 598.434   1
  -1   9 -10 3707.32 515.383   2
   1   8 -10 3362.32 442.726   2
  -9   1 -10 4797.97 668.877   3
  -8  -1 -10 4433.93 653.006   3
   1   8 -10 4283.84 555.472   3
   9  -8 -10 4013.01 690.828   3
   8  -9 -10 4365.96 709.636   3
   9  -8 -10 3161.76 510.644   1
   8  -9  -7 24202.8 630.203   4
  -9   1  -7 25172.1 1005.53   3
   1   8  -7 27327.5 1031.18   1
   9  -8  -7 21740.9 595.971   2
  -1   9  -7 25229.7 547.007   4
   1   8  -7 24829.9 843.177   2
  -8  -1  -7 25447.5 1030.93   3
   9  -8  -7 25604.8 894.806   1
  -1   9  -7 23953.5 884.292   2
   1   8  -7 22750.2 437.910   4
  -1   9  -7 26344.5 995.219   1
   8  -9  -7 26541.3 886.955   1
   8  -9  -7 22266.4 677.969   2
  -8  -1  -4 8703.04 468.511   4
  -1   9  -4 8390.00 376.245   4
   8  -9  -4 8021.59 373.422   2
  -8  -1  -4 7642.88 510.055   2
   8  -9  -4 8323.79 391.043   4
   9  -8  -4 7542.00 319.103   2
   1   8  -4 8242.24 417.513   2
   9  -8  -4 8781.62 503.814   1
   1   8  -4 8278.32 352.518   4
   9  -8  -4 8719.41 379.139   4
   8  -9  -4 7395.30 436.690   1
  -1   9  -4 8791.71 479.339   2
   1   8  -4 8549.25 364.645   3
  -9   1  -4 9263.16 538.263   3
  -8  -1  -4 8131.58 515.924   3
  -8  -1  -1 27335.6 528.393   1
   9  -8  -1 27490.8 637.254   2
   1   8  -1 27836.5 520.141   3
  -8  -1  -1 26991.0 691.619   4
   9  -8  -1 27811.7 653.981   1
  -1   9  -1 27558.9 681.906   2
  -9   1  -1 26818.5 548.240   1
  -1   9  -1 29625.1 428.278   3
   8  -9  -1 27779.2 668.301   4
   9  -8  -1 28313.5 564.888   3
  -8  -1  -1 27186.4 676.207   2
   1   8  -1 27275.1 640.329   2
   1   8  -1 27638.1 654.759   4
   9  -8  -1 28255.7 679.225   4
  -1   9  -1 27367.5 659.839   4
   8  -9  -1 27490.9 643.174   1
   8  -9  -1 27444.6 667.318   2
  -9   1  -1 26830.8 676.949   3
  -9   1   2 6534.46 433.130   1
   9  -8   2 6905.69 325.677   1
  -1   9   2 7346.70 317.980   1
   1   8   2 7237.71 287.638   1
  -8  -1   2 6610.56 435.685   1
   8  -9   2 7419.91 400.206   4
  -1   9   2 7337.59 404.733   3
   1   8   2 6905.04 398.529   2
   8  -9   2 7027.83 457.846   2
  -8  -1   2 7339.35 385.108   3
  -9   1   2 7042.72 394.366   3
  -8  -1   2 7192.44 234.256   2
  -1   9   2 6550.12 389.943   4
  -9   1   2 6570.25 192.337   2
   9  -8   2 6999.59 323.465   3
   1   8   2 7474.01 425.833   3
   8  -9   2 7188.58 270.781   3
  -8  -1   2 6520.43 321.712   4
   1   8   2 7134.82 406.974   4
  -1   9   2 6424.68 382.853   2
   1   8   5 17155.3 457.325   1
  -1   9   5 16665.6 519.140   1
  -1   9   5 15177.5 587.179   4
  -1   9   5 15842.7 669.647   2
   9  -8   5 16298.5 653.589   3
  -8  -1   5 13480.8 315.799   4
   1   8   5 14772.7 586.525   4
  -9   1   5 13077.2 322.570   4
  -9   1   5 13988.6 327.673   4
   1   8   5 15002.6 669.548   2
  -1   9   8 9967.92 523.992   1
   1   8   8 10447.9 473.983   1
   7  -9 -11 6685.38 597.747   1
   7  -9 -11 7061.66 849.300   3
  -9   2 -11 8034.87 840.862   3
   9  -7 -11 5851.73 837.621   3
  -7  -2 -11 6942.25 789.265   3
   9  -7 -11 6016.00 635.769   1
   2   7 -11 6256.57 596.250   2
   2   7 -11 6743.83 743.814   3
  -2   9 -11 6578.68 692.522   3
  -2   9 -11 6475.38 684.827   1
   2   7 -11 5801.88 677.325   1
  -2   9 -11 6544.38 705.834   2
  -9   2  -8 3300.12 533.307   3
   2   7  -8 2280.74 351.224   2
   9  -7  -8 2407.80 433.575   1
   2   7  -8 3283.27 488.186   1
  -9   2  -8 1566.57 185.821   1
   7  -9  -8 1827.89 240.867   4
  -9   2  -8 1571.65 147.928   1
   7  -9  -8 2016.25 391.857   1
  -7  -2  -8 2024.53 473.883   3
   7  -9  -8 1396.31 452.711   3
  -2   9  -8 2286.30 392.673   3
  -2   9  -8 2337.65 448.883   1
  -2   9  -8 2118.08 378.107   2
  -2   9  -8 2107.09 194.175   4
   9  -7  -8 1918.67 241.821   2
   7  -9  -5 30276.7 804.622   1
   9  -7  -5 28095.9 535.287   2
   9  -7  -5 29984.1 868.210   1
   2   7  -5 29437.5 754.052   2
   7  -9  -5 29074.3 703.989   2
  -7  -2  -5 29203.0 818.149   4
  -9   2  -5 23158.6 374.677   1
  -2   9  -5 28926.5 628.667   4
   7  -9  -5 28832.8 677.790   4
  -9   2  -5 29059.9 908.398   3
  -7  -2  -5 28254.9 934.603   3
   2   7  -5 31115.2 978.633   1
   2   7  -5 31087.1 557.784   4
  -2   9  -5 27659.0 844.546   2
   7  -9  -2 20196.2 556.777   2
   2   7  -2 19476.2 528.351   2
  -2   9  -2 20019.2 562.038   4
  -7  -2  -2 20065.8 611.224   4
  -7  -2  -2 20287.7 636.094   2
  -2   9  -2 20276.4 303.236   3
  -2   9  -2 19320.8 599.716   2
  -9   2  -2 20083.6 409.346   1
   9  -7  -2 20909.7 559.669   3
   7  -9  -2 19682.9 563.641   1
   7  -9  -2 20530.1 570.913   4
  -9   2  -2 20197.5 615.542   3
   2   7  -2 20372.2 464.253   3
   9  -7  -2 20222.4 599.852   1
  -7  -2  -2 18192.1 605.184   3
   2   7  -2 19982.5 527.785   4
   9  -7  -2 19586.0 536.939   4
   9  -7  -2 20506.8 488.488   2
   7  -9   1 13681.9 557.110   2
  -7  -2   1 12779.3 444.016   4
   7  -9   1 14564.1 504.159   4
   9  -7   1 14072.9 436.649   3
   7  -9   1 15239.5 290.615   3
  -7  -2   1 13891.3 475.758   3
  -9   2   1 13846.4 480.407   3
  -9   2   1 13423.9 514.618   1
  -7  -2   1 13687.2 501.864   1
  -7  -2   1 12844.9 379.590   2
  -2   9   1 13582.3 474.349   2
   2   7   1 13658.5 492.201   2
   9  -7   1 13636.0 419.039   1
   2   7   1 11186.6 458.051   4
  -2   9   1 12848.1 417.878   1
   2   7   1 13895.5 474.879   3
  -2   9   1 14363.8 512.215   4
   7  -9   1 13241.1 452.769   1
  -2   9   1 12799.9 423.748   3
   9  -7   4 1387.09 266.040   3
   2   7   4 1735.96 192.778   1
  -2   9   4 1336.13 245.275   4
   2   7   4 1698.74 300.742   2
  -7  -2   4 1222.76 160.602   4
   2   7   4 1198.72 247.036   4
   2   7   4 1650.41 342.710   3
  -9   2   4 1807.90 363.195   1
  -2   9   4 1287.67 253.402   1
  -7  -2   4 1546.31 354.270   1
  -9   2   4 1412.11 172.531   4
  -2   9   4 1411.71 261.028   2
   2   7   7 3507.09 284.768   1
  -2   9   7 3986.70 383.108   1
  -2   9   7 3690.10 339.168   4
   3   6  -9 311.621 260.627   2
   6  -9  -9 385.441 450.033   3
  -6  -3  -9-47.1754 428.001   3
   3   6  -9 261.886 386.450   1
  -3   9  -9-73.5060 339.840   1
  -9   3  -9 513.585 426.776   3
  -3   9  -9-652.199 362.279   2
  -3   9  -9-209.704 325.293   3
   6  -9  -9 193.759 340.667   1
  -3   9  -9 56.2673 105.035   4
  -9   3  -9-51.4147 200.013   1
  -6  -3  -9-39.7404 81.9420   1
   9  -6  -9 1.74497 383.818   1
  -9   3  -6 20699.4 842.715   3
  -3   9  -6 21078.1 813.199   2
   6  -9  -6 19173.7 581.686   4
   3   6  -6 21990.4 893.148   1
   3   6  -6 18054.0 331.787   4
   3   6  -6 21570.3 666.251   2
  -9   3  -6 19524.7 446.577   1
  -3   9  -6 20651.8 543.071   4
   6  -9  -6 19173.2 647.084   2
  -9   3  -6 19278.5 385.018   1
  -6  -3  -6 20464.7 874.730   3
   6  -9  -6 20750.9 692.896   1
  -6  -3  -6 18222.9 667.364   4
   9  -6  -6 19928.7 763.936   1
   9  -6  -6 18450.1 428.585   2
  -3   9  -6 20343.0 715.640   3
   6  -9  -3 11494.7 455.953   1
  -6  -3  -3 10826.3 519.491   2
   3   6  -3 11652.3 377.630   4
   3   6  -3 11925.1 573.343   1
  -3   9  -3 11527.2 435.031   4
  -6  -3  -3 10639.2 534.105   3
   9  -6  -3 11374.9 306.060   2
  -3   9  -3 11642.0 530.790   2
   3   6  -3 12025.5 407.089   2
  -9   3  -3 11348.6 508.659   3
   6  -9  -3 12334.2 461.590   4
  -9   3  -3 11629.1 302.827   1
   9  -6  -3 11886.8 524.718   1
  -6  -3  -3 10918.3 484.891   4
   6  -9  -3 11995.5 450.094   2
   3   6  -3 11754.0 400.868   3
  -9   3   0 39597.2 741.811   3
   9  -6   0 40064.9 702.665   1
  -6  -3   0 41603.9 711.043   2
   6  -9   0 41584.1 805.268   4
  -6  -3   0 41547.9 779.867   3
  -3   9   0 41789.6 720.349   1
  -3   9   0 41022.9 800.859   4
   6  -9   0 41077.3 837.526   2
   6  -9   0 41208.9 728.225   1
   3   6   0 39113.3 768.908   4
   3   6   0 39447.4 701.944   3
  -9   3   0 38775.2 732.204   1
  -6  -3   0 40361.8 761.853   4
   9  -6   0 40377.6 688.436   3
   3   6   0 42023.0 746.422   2
  -3   9   3-138.556 188.777   4
   9  -6   3 296.291 215.016   3
   3   6   3 91.3632 226.085   2
  -3   9   3 58.5807 205.467   1
  -9   3   3 235.571 291.451   1
  -6  -3   3-78.4157 136.784   2
   6  -9   3 163.397 196.913   4
   3   6   3 553.725 226.761   4
   3   6   3 494.062 307.690   3
  -3   9   3 153.806 198.647   2
   3   6   3 192.945 128.479   1
  -6  -3   3 498.006 166.852   4
  -3   9   6 9231.36 460.051   4
   3   6   6 8999.52 316.215   1
   9  -5 -10 2657.76 505.985   1
  -4   9 -10 1882.24 450.297   3
  -4   9 -10 2120.96 445.887   1
  -9   4 -10 1390.47 289.531   4
   5  -9 -10 1841.36 384.598   1
   4   5 -10 1553.42 345.773   2
   4   5 -10 2423.76 533.971   1
   5  -9 -10 1754.33 602.321   3
  -9   4 -10 1574.14 305.538   1
  -5  -4 -10 2549.79 598.992   3
  -4   9 -10 1955.05 453.562   2
  -9   4 -10 2760.68 550.308   3
   9  -5  -7 27840.4 950.136   1
   5  -9  -7 24662.1 697.179   4
  -4   9  -7 29451.4 685.581   4
   5  -9  -7 25644.7 1069.40   3
   4   5  -7 27948.9 760.099   2
   5  -9  -7 28208.1 819.182   1
   4   5  -7 27960.9 1021.01   1
  -9   4  -7 28103.6 1008.99   3
  -4   9  -7 27874.8 939.617   1
  -9   4  -7 27315.3 549.606   1
  -4   9  -7 26477.1 969.258   2
  -5  -4  -7 27868.2 1091.52   3
   9  -5  -7 23567.9 499.850   2
  -4   9  -7 27594.3 899.521   3
  -9   4  -7 26875.7 636.265   1
  -5  -4  -4 400.733 224.197   4
  -9   4  -4 189.151 253.079   3
  -5  -4  -4 161.878 277.188   3
   5  -9  -4 318.705 199.912   4
  -5  -4  -4 436.732 247.089   2
   4   5  -4 283.600 278.624   1
   4   5  -4 147.467 130.595   4
   4   5  -4 337.718 214.199   3
  -4   9  -4 51.9235 245.815   2
  -9   4  -4 385.755 125.389   1
   4   5  -4 292.085 154.610   2
   9  -5  -4 164.662 263.471   1
  -4   9  -4 301.578 191.817   3
   5  -9  -4 420.795 221.508   1
  -4   9  -4 258.415 186.959   4
   5  -9  -4 118.655 184.905   2
   9  -5  -4 133.083 73.7286   2
   4   5  -1 37584.9 704.350   4
   5  -9  -1 37981.8 694.778   1
  -5  -4  -1 38650.2 763.265   3
  -9   4  -1 38323.7 731.527   3
   9  -5  -1 39963.1 757.742   1
   5  -9  -1 38823.9 788.591   2
   9  -5  -1 39353.2 703.892   3
  -9   4  -1 39273.4 658.236   1
  -5  -4  -1 40054.0 779.855   2
   4   5  -1 39592.3 669.775   2
  -4   9  -1 38617.8 810.998   2
  -4   9  -1 39354.3 725.580   1
   4   5  -1 38561.8 692.854   3
  -4   9  -1 39538.9 781.906   4
   5  -9  -1 38763.6 792.633   4
  -5  -4  -1 35596.4 750.398   4
  -5  -4   2 7825.90 305.504   2
   5  -9   2 7972.94 446.003   2
  -5  -4   2 6862.04 316.541   4
   4   5   2 7533.95 408.886   2
  -5  -4   2 7445.52 352.688   3
   9  -5   2 7400.05 278.977   1
   9  -5   2 7717.41 388.934   3
  -9   4   2 6318.72 212.243   2
  -4   9   2 7668.53 366.913   2
  -9   4   2 8142.43 445.929   1
  -4   9   2 7524.77 386.410   4
   4   5   2 7791.35 418.187   3
  -4   9   2 7767.46 367.425   1
   4   5   2 7273.44 386.397   4
   5  -9   2 7798.58 369.894   4
  -4   9   5 21015.7 661.479   1
   9  -5   5 20148.8 761.494   3
  -4   9   5 19969.3 681.863   2
   4   5   5 16205.6 294.857   1
  -4   9   5 19273.8 602.641   4
  -5  -4   5 16132.4 329.696   4
  -9   4   5 18765.7 411.812   4
  -4   9   8 3349.07 307.768   4
   5   4 -11 8775.69 867.839   3
  -5   9 -11 9060.89 769.575   3
   4  -9 -11 8009.46 864.063   3
   4  -9 -11 7919.67 583.503   1
  -5   9 -11 8213.42 660.491   1
  -4  -5 -11 8364.44 856.828   3
   5   4 -11 8720.98 768.910   1
  -5   9 -11 8089.75 759.160   2
  -9   5 -11 8976.65 827.273   3
   9  -4 -11 7816.90 724.400   1
   4  -9  -8 2757.53 322.994   4
   5   4  -8 3447.98 495.013   1
   9  -4  -8 1927.33 182.554   2
  -9   5  -8 3155.17 488.387   3
  -5   9  -8 1666.07 381.276   2
  -4  -5  -8 1804.55 169.390   1
  -4  -5  -8 3401.79 527.136   3
   4  -9  -8 2897.16 518.991   3
   5   4  -8 3086.79 326.823   2
  -5   9  -8 3155.98 420.378   3
  -5   9  -8 3184.26 289.443   4
  -9   5  -8 2612.90 311.230   1
   4  -9  -8 3302.65 377.965   1
  -5   9  -8 2992.49 409.952   1
   9  -4  -8 3086.49 461.103   1
  -5   9  -5 19845.0 631.409   3
   5   4  -5 20822.3 813.479   1
   9  -4  -5 18961.8 731.575   1
  -4  -5  -5 18413.4 775.493   3
   4  -9  -5 19030.2 645.806   2
  -9   5  -5 19735.9 718.804   3
  -9   5  -5 20359.0 462.628   1
  -5   9  -5 19983.6 578.657   4
  -4  -5  -5 18402.4 650.154   4
  -5   9  -5 18279.4 770.353   2
   5   4  -5 20427.6 511.377   2
   4  -9  -5 19427.4 815.937   3
   4  -9  -5 20850.1 609.367   1
   4  -9  -5 19640.8 618.233   4
   9  -4  -2 6322.94 342.654   3
   5   4  -2 6484.26 271.717   2
   4  -9  -2 6358.54 364.975   2
  -9   5  -2 6384.11 350.598   3
   4  -9  -2 6089.47 357.971   4
  -5   9  -2 5984.20 349.982   4
  -4  -5  -2 6131.09 392.178   3
   4  -9  -2 6401.04 318.542   1
   5   4  -2 5673.46 316.624   3
  -5   9  -2 6322.04 402.693   2
   5   4  -2 6334.02 421.830   1
  -9   5  -2 6245.87 284.044   1
  -4  -5  -2 6451.07 374.610   2
   5   4  -2 6022.48 292.034   4
   9  -4  -2 5694.99 369.866   1
   4  -9  -2 6111.27 377.407   3
  -4  -5  -2 6325.48 366.912   4
   5   4   1 36460.3 771.421   3
   5   4   1 37807.0 763.066   4
   9  -4   1 37612.1 760.165   3
  -5   9   1 38097.8 771.376   4
  -9   5   1 37266.8 779.917   1
  -4  -5   1 38131.4 668.444   3
   4  -9   1 38603.1 775.976   4
   5   4   1 36852.0 756.596   2
  -9   5   1 38832.1 639.523   2
  -9   5   1 36390.3 706.906   3
  -4  -5   1 37702.8 665.488   2
   4  -9   1 38505.7 851.188   2
  -5   9   1 38202.2 739.234   2
  -4  -5   1 37487.0 720.956   4
   9  -4   1 37418.5 596.109   1
  -5   9   1 38953.8 724.492   1
  -9   5   4 316.680 149.018   4
  -9   5   4 425.721 306.362   1
  -5   9   4 319.257 204.983   2
  -5   9   4 266.475 181.258   4
   4  -9   4 126.159 171.720   4
  -5   9   4 280.400 239.815   1
   9  -4   4 191.877 254.304   3
  -4  -5   4 380.517 138.986   4
  -4  -5   4 47.6116 187.917   2
   5   4   4-131.117 306.946   3
  -5   9   7 24126.5 666.060   4
  -3  -6  -9 338.523 189.246   1
   3  -9  -9 410.322 297.738   1
   3  -9  -9 514.405 442.497   3
  -6   9  -9 389.392 349.942   3
  -9   6  -9 401.944 396.440   3
  -9   6  -9 329.868 262.343   4
   9  -3  -9 292.915 186.474   2
  -6   9  -9 444.227 323.081   1
   6   3  -9 283.159 224.900   2
  -3  -6  -9 586.927 437.210   3
   9  -3  -9 74.2962 372.048   1
  -6   9  -9 69.6840 360.270   2
  -9   6  -9 441.752 295.081   1
  -6   9  -9 238.393 200.911   4
   6   3  -9 297.868 418.660   1
  -3  -6  -6 6725.59 233.504   1
   6   3  -6 8636.69 589.393   1
  -9   6  -6 9057.06 377.240   1
  -6   9  -6 8001.81 592.060   2
  -3  -6  -6 7792.35 599.809   3
  -9   6  -6 9228.41 540.214   3
   3  -9  -6 8696.23 635.210   3
  -3  -6  -6 7189.14 458.582   4
   9  -3  -6 9571.40 598.313   1
  -6   9  -6 8532.50 487.426   3
   6   3  -6 8881.52 353.054   2
  -6   9  -6 9100.48 427.568   4
   3  -9  -6 8020.71 443.734   4
   3  -9  -6 9106.00 432.397   1
   9  -3  -3 479.086 262.667   1
  -3  -6  -3-163.192 222.550   4
  -9   6  -3 32.1887 159.297   1
   6   3  -3 254.468 129.709   2
  -6   9  -3 316.711 283.459   2
  -3  -6  -3 406.627 276.922   3
   3  -9  -3 143.943 274.682   3
   3  -9  -3 263.463 202.164   4
   3  -9  -3-46.4720 210.037   2
  -3  -6  -3 214.694 215.509   2
  -6   9  -3 102.100 196.127   4
  -6   9  -3 273.617 159.584   3
   9  -3  -3 46.1696 210.017   3
  -9   6  -3 174.378 219.375   3
   6   3  -3 250.815 291.383   1
   3  -9  -3 343.821 171.406   1
   6   3  -3 225.272 192.326   3
   6   3   0 32844.2 709.392   3
  -9   6   0 33601.5 695.973   1
   6   3   0 32740.1 652.015   2
   9  -3   0 33170.0 630.392   1
  -9   6   0 32036.3 716.403   4
  -6   9   0 32303.9 721.397   2
  -3  -6   0 33443.9 730.168   4
  -9   6   0 32631.4 733.753   2
   9  -3   0 32060.4 690.674   3
   6   3   0 31945.5 639.277   1
  -6   9   0 28046.4 631.079   1
   3  -9   0 35007.1 753.906   4
   3  -9   0 32754.7 745.863   2
  -6   9   0 28403.3 678.769   4
  -9   6   0 32255.1 606.023   3
  -3  -6   0 32931.8 642.149   3
   3  -9   0 31513.9 446.138   3
  -3  -6   0 32828.2 679.981   2
   6   3   0 33257.8 696.764   4
  -9   6   3 12844.2 575.807   1
  -6   9   3 12956.0 525.339   1
  -9   6   3 11460.5 404.725   4
   3  -9   3 12404.0 576.862   2
   9  -3   3 11332.4 527.549   3
   3  -9   3 12233.1 438.663   4
  -6   9   3 11990.6 457.838   4
  -3  -6   3 12636.7 456.670   2
  -6   9   3 12006.6 441.790   2
  -3  -6   3 12415.5 410.295   4
  -9   6   3 12025.5 287.521   2
   6   3   3 11314.5 555.111   3
  -6   9   6 19543.0 583.499   4
  -9   6   6 20055.0 440.622   4
  -7   9 -10 2440.46 454.566   1
   2  -9 -10 3071.94 632.539   3
  -9   7 -10 2274.91 365.074   4
  -7   9 -10 2911.36 575.755   2
  -7   9 -10 2485.27 321.055   4
  -2  -7 -10 2195.64 289.912   1
   7   2 -10 2224.79 524.760   1
  -9   7 -10 2637.97 544.994   2
   7   2 -10 2028.24 283.388   2
   9  -2 -10 3007.46 506.386   1
  -9   7 -10 2665.64 397.940   1
   2  -9 -10 2174.16 360.648   1
  -2  -7 -10 2454.98 610.335   3
  -7   9 -10 2320.17 495.721   3
  -9   7 -10 3413.50 560.129   3
   9  -2  -7 1710.68 137.697   2
   9  -2  -7 1884.83 124.842   2
   2  -9  -7 3917.86 332.560   1
  -7   9  -7 3957.88 402.861   3
  -7   9  -7 3264.10 469.241   2
   7   2  -7 3723.82 480.180   1
  -9   7  -7 3539.32 348.188   4
   9  -2  -7 3527.76 464.064   1
   2  -9  -7 2659.17 327.923   4
  -7   9  -7 3567.56 333.307   4
  -9   7  -7 3942.27 447.447   3
   2  -9  -7 3360.21 520.778   3
  -2  -7  -7 2875.42 361.221   4
   7   2  -7 2975.54 232.058   2
  -2  -7  -7 3071.06 227.681   1
  -2  -7  -7 3191.98 494.321   3
   7   2  -4 1239.99 108.133   2
   2  -9  -4 1629.45 358.089   3
  -2  -7  -4 1569.39 282.681   2
   9  -2  -4 1564.40 293.402   3
  -7   9  -4 1529.39 342.461   2
  -2  -7  -4 1668.31 270.289   4
  -9   7  -4 1525.36 279.153   3
  -7   9  -4 1915.45 261.941   4
   7   2  -4 1513.26 331.625   1
  -9   7  -4 1209.40 233.718   4
   7   2  -4 1285.69 258.101   3
   2  -9  -4 884.826 249.051   2
  -2  -7  -4 1354.79 322.421   3
   9  -2  -4 1577.25 323.334   1
   2  -9  -4 1435.91 213.892   1
  -7   9  -4 1643.94 241.178   3
  -9   7  -4 1494.93 198.950   1
   2  -9  -4 1597.42 269.533   4
  -7   9  -1 13727.3 501.193   4
  -2  -7  -1 14090.5 505.684   2
   9  -2  -1 13307.6 477.066   3
   2  -9  -1 14026.4 500.233   2
  -7   9  -1 13114.5 453.325   1
  -7   9  -1 14429.3 257.088   3
  -9   7  -1 13967.4 395.614   3
   2  -9  -1 13594.6 430.919   3
  -9   7  -1 14056.0 444.464   1
   9  -2  -1 13271.0 489.093   1
   7   2  -1 13825.5 503.859   1
   7   2  -1 13609.6 472.699   3
   7   2  -1 13846.0 383.999   2
   2  -9  -1 14959.4 524.120   4
  -9   7  -1 13586.2 508.052   4
  -2  -7  -1 13649.5 510.853   4
  -7   9  -1 12966.2 547.073   2
  -9   7  -1 14640.0 584.161   2
  -2  -7  -1 13690.0 470.562   3
   2  -9   2 22144.9 674.767   2
   7   2   2 18638.6 338.211   1
  -7   9   2 21894.4 620.076   1
  -9   7   2 19515.7 550.963   4
  -9   7   2 21313.5 648.743   1
  -7   9   2 21061.6 592.662   4
  -2  -7   2 22038.9 583.784   2
  -9   7   2 21134.5 463.419   2
  -2  -7   2 21498.0 570.362   4
  -2  -7   2 20023.7 456.326   3
   7   2   2 21672.8 673.325   3
   9  -2   2 20876.9 378.564   1
   2  -9   2 22431.6 594.401   4
   9  -2   2 21855.2 652.011   3
  -7   9   2 20435.6 523.517   2
  -7   9   5 30827.4 738.496   2
  -2  -7   5 30266.6 544.888   4
  -9   7   5 29988.7 604.510   4
   2  -9   5 31423.4 652.019   4
  -7   9   5 29406.9 693.736   4
  -7   9   5 31721.7 901.993   1
  -9   7   8 1998.09 142.479   4
  -7   9   8 2484.11 250.548   4
  -9   8 -11 9708.73 827.847   3
   1  -9 -11 8404.52 876.893   3
  -1  -8 -11 9385.07 930.564   3
   8   1 -11 7206.95 729.400   1
   9  -1 -11 7350.72 734.286   1
  -8   9 -11 8481.36 852.271   2
  -8   9 -11 9142.68 786.942   3
  -9   8 -11 7219.42 816.162   2
  -9   8 -11 7346.32 582.642   1
  -8   9 -11 7419.05 627.897   1
  -1  -8  -8 10884.4 814.308   3
  -8   9  -8 10920.0 549.409   4
   9  -1  -8 6392.87 249.716   2
   9  -1  -8 11693.2 753.862   1
   8   1  -8 8194.11 332.465   2
   1  -9  -8 10357.5 788.914   3
  -9   8  -8 9677.98 765.849   2
  -1  -8  -8 9425.78 400.225   1
  -8   9  -8 11020.9 794.512   2
  -9   8  -8 10416.5 557.319   4
  -9   8  -8 10817.7 679.938   3
   1  -9  -8 7926.51 520.478   4
  -8   9  -8 9609.97 563.149   1
   8   1  -8 10755.3 728.583   1
   1  -9  -8 10796.3 490.367   1
  -9   8  -8 11334.5 586.174   1
   8   1  -8 8371.73 336.666   2
  -8   9  -8 10934.9 672.080   3
  -9   8  -5 14583.1 773.022   2
   8   1  -5 15555.2 708.541   1
  -1  -8  -5 14640.4 605.125   4
   1  -9  -5 15850.0 457.936   1
  -8   9  -5 15534.4 775.207   2
  -9   8  -5 16336.3 501.680   1
  -1  -8  -5 14945.0 388.047   1
  -1  -8  -5 15130.1 720.577   3
  -9   8  -5 16253.7 607.800   3
   1  -9  -5 15111.6 602.796   4
  -9   8  -5 14783.5 571.354   4
  -8   9  -5 15551.7 560.397   3
   1  -9  -5 15540.6 741.237   3
  -8   9  -5 15729.0 573.911   4
   9  -1  -5 16108.8 714.041   1
   8   1  -2 7572.49 248.953   2
   1  -9  -2 7857.25 409.809   3
   8   1  -2 7833.68 440.461   1
  -1  -8  -2 7579.31 421.169   2
  -8   9  -2 8302.09 270.470   3
   1  -9  -2 7907.18 422.451   2
   9  -1  -2 6986.84 375.829   3
   8   1  -2 7116.47 372.384   3
  -9   8  -2 7735.87 518.969   2
  -9   8  -2 7517.02 410.833   4
  -8   9  -2 7227.28 354.180   1
  -8   9  -2 7394.85 402.274   4
  -8   9  -2 8049.39 490.764   2
   9  -1  -2 8341.81 456.379   1
  -1  -8  -2 7597.84 412.859   3
   1  -9  -2 8052.71 439.342   4
  -9   8  -2 7504.15 346.543   1
  -1  -8  -2 7893.75 432.959   4
  -9   8  -2 8360.53 327.608   3
   1  -9   1 27254.6 664.329   4
   8   1   1 25138.9 701.960   3
  -9   8   1 25777.4 607.688   2
   1  -9   1 27481.1 699.558   2
   9  -1   1 26432.4 509.021   1
  -1  -8   1 28366.3 678.801   2
  -1  -8   1 27358.8 678.857   4
   8   1   1 26397.2 510.897   1
  -8   9   1 26821.3 678.095   4
  -9   8   1 26086.1 686.823   1
  -8   9   1 25979.2 631.468   2
  -1  -8   1 27571.6 495.345   3
   1  -9   1 27554.6 397.118   3
  -8   9   1 26609.9 666.175   1
   9  -1   1 25667.7 697.266   3
  -9   8   1 26485.5 655.052   4
   1  -9   4 8901.91 513.326   2
   1  -9   4 8994.58 373.838   4
  -9   8   4 9122.81 551.910   1
   8   1   4 8241.55 538.366   3
  -8   9   4 8825.79 382.343   2
  -1  -8   4 8691.95 356.774   4
  -8   9   4 8540.24 397.038   4
   9  -1   4 8029.98 526.741   3
  -1  -8   4 9412.51 489.504   2
  -9   8   4 8676.94 394.777   4
  -9   8   4 8350.08 329.258   2
  -8   9   4 8279.88 499.282   1
  -8   9   7 24524.8 609.093   4
  -9   8   7 24385.5 554.690   4
  -9   9  -9 20.4221 357.674   3
   0  -9  -9 959.222 512.016   3
   0  -9  -9 26.5975 239.564   1
   9   0  -9 110.348 406.492   1
  -9   9  -9 402.901 320.103   1
   9   0  -9 162.689 126.484   2
  -9   9  -9 252.371 429.656   2
  -9   9  -9-231.282 261.080   4
   0  -9  -6 4751.77 523.902   3
  -9   9  -6 5202.07 554.728   2
   0  -9  -6 4898.75 414.065   4
  -9   9  -6 5192.79 419.188   3
   9   0  -6 4707.07 484.182   1
   0  -9  -6 5391.51 298.887   1
  -9   9  -6 4458.37 358.274   4
   9   0  -3-167.531 224.642   3
   0  -9  -3-63.3142 209.653   4
   0  -9  -3 262.546 270.517   3
  -9   9  -3 72.9633 183.725   1
  -9   9  -3 87.9722 171.925   3
   9   0  -3-108.370 268.934   1
  -9   9  -3 39.1370 191.577   4
  -9   9  -3-99.6919 276.628   2
   0  -9  -3 225.552 232.950   2
   0  -9   0 23221.2 481.682   3
   9   0   0 21601.3 558.501   1
  -9   9   0 21970.2 642.348   2
  -9   9   0 22015.1 639.132   4
   0  -9   0 22557.9 632.970   2
   0  -9   0 23126.6 671.508   4
  -9   9   0 22356.7 612.763   1
   9   0   0 20717.2 630.759   3
   9   0   3 290.003 64.5070   1
  -9   9   3-29.8006 162.193   2
  -9   9   3 144.180 276.288   1
   0  -9   3-70.1775 189.747   4
  -9   9   3-43.3541 184.303   4
   0  -9   3-23.2189 239.695   2
   9   0   3 58.3927 271.831   3
   0  -9   6 3925.63 257.809   4
  -9   9   6 4126.07 297.072   4
  -9   9   9-2.61700 119.549   4
   0  10 -10 17273.4 878.326   2
  10 -10 -10 16070.4 855.711   1
   0  10 -10 15777.7 900.706   3
 -10   0 -10 17140.2 1055.01   3
   0  10 -10 17283.1 973.402   1
  10 -10  -7-58.9664 204.935   4
   0  10  -7-8.46033 243.452   2
   0  10  -7 59.0204 165.198   4
   0  10  -7-21.0808 354.938   1
  10 -10  -7 0.87906 310.885   1
 -10   0  -7 357.056 351.261   3
  10 -10  -7 188.808 191.145   2
 -10   0  -4 73967.4 1324.41   4
  10 -10  -4 78892.1 1165.36   4
  10 -10  -4 76089.4 1286.44   1
   0  10  -4 76983.3 1296.57   2
   0  10  -4 79373.8 971.481   3
   0  10  -4 78360.8 1114.41   4
 -10   0  -4 74830.6 1425.99   3
  10 -10  -4 76203.7 1061.74   2
 -10   0  -1 43.1859 238.921   3
  10 -10  -1 150.738 215.869   2
 -10   0  -1 56.9118 211.653   2
  10 -10  -1 249.791 171.534   3
  10 -10  -1 111.881 219.694   4
   0  10  -1 244.944 201.579   4
 -10   0  -1 224.501 193.344   1
  10 -10  -1 259.235 212.916   1
   0  10  -1-37.3870 157.635   3
   0  10  -1 71.7970 191.275   2
 -10   0   2 72361.6 720.322   2
  10 -10   2 68826.5 1012.57   1
   0  10   2 67832.3 1140.59   3
   0  10   2 68542.5 1199.44   4
   0  10   2 71499.9 911.854   1
  10 -10   2 67991.8 855.023   3
 -10   0   2 69689.4 1260.28   1
   0  10   2 68166.9 1168.91   2
 -10   0   2 68042.9 1139.23   3
   0  10   5-41.0032 208.838   4
   0  10   5 99.0142 191.450   1
  10 -10   5 70.9006 247.878   3
   0  10   5-213.901 255.172   2
 -10   0   5 138.657 134.193   4
   0  10   8 21853.3 695.401   1
   0  10   8 20224.4 765.379   4
  -1  10 -11 3435.42 550.661   3
  -9  -1 -11 3861.10 714.761   3
   1   9 -11 2990.79 572.076   3
 -10   1 -11 4503.10 717.302   3
  -1  10 -11 3380.16 585.978   1
   9 -10 -11 3727.14 527.107   1
   1   9 -11 3531.52 508.909   2
   1   9 -11 4006.42 619.460   1
  10  -9 -11 3452.05 700.796   3
  -1  10 -11 3669.32 541.819   2
  10  -9 -11 2792.05 523.305   1
   9 -10 -11 3279.17 718.809   3
  -1  10  -8 624.700 340.816   3
  -9  -1  -8 343.752 408.838   3
  -1  10  -8 591.237 292.704   2
  -1  10  -8 427.443 372.033   1
   1   9  -8 733.944 389.669   1
   9 -10  -8 712.903 237.038   4
   9 -10  -8 441.379 235.616   2
 -10   1  -8 418.317 403.208   3
   9 -10  -8 735.073 353.924   1
  10  -9  -8 649.193 363.755   1
   1   9  -8 821.921 311.409   2
   1   9  -8 360.613 88.5886   4
  -1  10  -8 382.835 146.709   4
  10  -9  -8 459.143 212.920   2
   1   9  -5 4817.80 295.236   4
  10  -9  -5 4689.17 420.438   1
   9 -10  -5 4406.79 311.323   2
   1   9  -5 5206.36 383.049   2
  -1  10  -5 4820.20 309.218   4
  -1  10  -5 4721.37 393.570   2
   9 -10  -5 4593.88 321.333   4
  -9  -1  -5 4321.06 444.968   3
   1   9  -5 4396.14 465.656   1
 -10   1  -5 4561.26 454.872   3
  10  -9  -5 4561.79 314.090   4
   9 -10  -5 4970.13 418.334   1
   1   9  -5 4864.19 317.890   3
  10  -9  -5 4192.84 266.088   2
  10  -9  -2 4684.30 304.878   2
   9 -10  -2 4339.05 343.047   1
  -1  10  -2 5146.92 336.746   4
  -9  -1  -2 4840.99 398.041   3
  10  -9  -2 5106.08 375.671   1
  10  -9  -2 5231.58 348.186   4
   1   9  -2 4866.70 331.166   4
  -9  -1  -2 4650.74 361.848   4
   9 -10  -2 4652.28 340.091   4
  -1  10  -2 4511.71 214.746   3
   9 -10  -2 4624.31 334.257   2
  -1  10  -2 4759.44 355.757   2
 -10   1  -2 4685.28 259.570   1
   1   9  -2 4779.39 266.840   3
   1   9  -2 5041.20 347.214   2
 -10   1  -2 4485.93 375.525   3
  -9  -1  -2 4487.33 232.234   1
  -9  -1  -2 4324.55 367.730   2
   1   9   1 605.673 211.830   2
   1   9   1 802.906 238.488   3
  -1  10   1 780.617 234.982   4
 -10   1   1 516.477 155.406   2
  -1  10   1 217.954 203.092   2
   9 -10   1 568.055 212.582   1
  -1  10   1 435.084 197.948   1
   9 -10   1 591.075 230.868   4
  -9  -1   1 553.612 263.574   1
   9 -10   1 465.065 156.172   3
  10  -9   1 536.885 194.793   1
  -9  -1   1 348.763 152.700   2
 -10   1   1 420.017 223.688   3
   9 -10   1 572.357 264.627   2
 -10   1   1 718.538 256.514   1
  10  -9   1 464.154 186.733   3
  -9  -1   1 483.390 231.518   3
  -1  10   1 409.150 206.497   3
   1   9   1 322.527 220.830   4
  -9  -1   1 702.713 211.124   4
   1   9   4 8643.84 514.368   2
  -1  10   4 9113.08 395.604   1
  10  -9   4 9441.44 463.102   3
   1   9   4 8740.36 480.399   4
  -1  10   4 8895.71 509.225   2
  -1  10   4 8757.77 474.364   4
   1   9   4 9724.47 354.990   1
  -9  -1   4 8936.60 333.355   4
   9 -10   4 8979.20 420.167   3
  -1  10   7 6964.31 433.948   1
  -1  10   7 7179.64 466.293   4
   1   9   7 7024.86 469.971   4
   1   9   7 6553.11 363.567   1
  -2  10  -9 4354.33 521.466   2
   2   8  -9 4095.69 585.245   1
  -2  10  -9 3159.05 457.232   3
   2   8  -9 3950.49 447.754   2
  -2  10  -9 4179.85 556.720   1
   8 -10  -9 3624.85 460.435   1
 -10   2  -9 1675.98 145.926   1
   8 -10  -9 3502.08 569.514   3
  -2  10  -9 2557.35 182.057   4
  10  -8  -9 3981.99 538.921   1
 -10   2  -9 3598.58 575.940   3
  -8  -2  -9 3668.67 598.423   3
   2   8  -6 10205.6 510.510   2
   8 -10  -6 9698.03 539.004   1
   2   8  -6 10104.8 340.766   4
   2   8  -6 10214.0 654.688   1
   8 -10  -6 8815.08 436.775   2
  -2  10  -6 9113.21 554.124   2
  10  -8  -6 10199.7 590.521   1
  -2  10  -6 10045.0 413.287   4
  10  -8  -6 8733.04 346.107   2
 -10   2  -6 9937.47 643.498   3
  -8  -2  -6 9001.54 635.492   3
   8 -10  -6 8690.14 419.487   4
 -10   2  -3 15903.1 346.031   1
  -8  -2  -3 16007.4 603.749   4
   8 -10  -3 16741.0 548.742   4
  -8  -2  -3 15087.5 618.913   2
 -10   2  -3 16364.5 628.412   3
   2   8  -3 16437.9 531.236   2
  -8  -2  -3 15067.8 626.552   3
   2   8  -3 16476.1 455.174   3
  -2  10  -3 16844.2 536.150   4
  -2  10  -3 16218.2 617.143   2
  -2  10  -3 17282.9 349.993   3
   8 -10  -3 16580.2 534.374   2
   8 -10  -3 16002.7 555.324   1
  10  -8  -3 15422.9 599.795   1
  10  -8  -3 16195.2 511.414   4
  10  -8  -3 15774.9 433.561   2
   2   8  -3 15997.2 492.636   4
   8 -10   0 11389.9 502.548   2
  -2  10   0 10677.6 325.698   3
   2   8   0 10414.8 453.879   4
   2   8   0 10459.8 400.035   3
   8 -10   0 10861.4 433.596   1
  10  -8   0 10621.6 375.281   3
 -10   2   0 9842.29 434.781   3
  -8  -2   0 10459.3 463.859   3
   8 -10   0 10932.0 291.031   3
   8 -10   0 11127.2 474.064   4
  -8  -2   0 10183.4 450.371   4
   2   8   0 10207.2 450.041   2
  -8  -2   0 10146.9 413.430   1
  -2  10   0 10365.1 451.126   4
 -10   2   0 10320.8 435.993   1
  -2  10   0 10355.8 419.610   1
  10  -8   0 10059.3 412.939   1
  -2  10   0 10949.0 447.568   2
  -8  -2   0 10405.3 411.581   2
   2   8   3 19102.0 423.884   1
  -8  -2   3 17987.4 481.945   4
  -2  10   3 19259.5 643.968   4
   2   8   3 18842.1 644.254   4
 -10   2   3 18366.8 719.684   1
   2   8   3 18555.9 695.387   3
   8 -10   3 20616.0 630.027   4
  -8  -2   3 18268.6 713.113   1
  -2  10   3 18970.3 525.969   1
   2   8   3 17161.4 648.966   2
  -2  10   3 18085.9 627.867   2
  -8  -2   3 17430.1 375.209   2
  10  -8   3 18243.5 566.087   3
   8 -10   3 18276.9 456.680   3
  -2  10   6 1288.29 284.653   1
   2   8   6 1070.28 200.022   1
  -8  -2   6 432.833 58.7414   4
 -10   2   6 832.899 99.7304   4
  -2  10   6 1119.42 285.816   2
   2   8   6 1140.71 258.655   4
  -2  10   6 1106.88 238.579   4
 -10   2   6 670.287 94.0303   4
   7 -10 -10 7259.81 827.685   3
 -10   3 -10 8775.92 800.535   3
  -3  10 -10 7706.55 666.389   3
  -7  -3 -10 7461.16 814.955   3
   3   7 -10 8006.44 575.807   2
  -3  10 -10 9453.10 746.269   2
   3   7 -10 7773.74 734.675   1
   7 -10 -10 8105.59 593.243   1
  10  -7 -10 7785.64 676.902   1
  -3  10 -10 8292.90 712.936   1
   7 -10  -7-287.341 284.907   1
  10  -7  -7 87.8412 147.699   2
  -3  10  -7 10.4574 178.367   4
  10  -7  -7 106.926 307.182   1
  -7  -3  -7 505.786 373.250   3
  -3  10  -7 213.636 249.609   2
   7 -10  -7 201.417 196.435   4
 -10   3  -7 118.316 136.258   1
 -10   3  -7-145.708 335.500   3
 -10   3  -7-31.5947 108.332   1
   7 -10  -7 176.811 219.639   2
   3   7  -7-132.631 379.330   1
   3   7  -7 197.966 230.010   2
  -3  10  -7 268.790 286.115   3
   7 -10  -7 194.643 362.193   3
  -3  10  -7-131.485 317.247   1
 -10   3  -4 55638.5 1155.92   3
  -7  -3  -4 55228.9 1223.61   3
  10  -7  -4 51699.7 662.871   2
  -3  10  -4 54798.3 923.962   4
  10  -7  -4 57286.9 1145.55   1
  -7  -3  -4 55244.0 1098.20   4
   3   7  -4 57231.0 824.406   4
   7 -10  -4 58195.8 999.400   2
 -10   3  -4 55474.4 599.935   1
   3   7  -4 56929.3 925.438   3
   3   7  -4 60764.8 1296.40   1
   3   7  -4 56702.0 945.483   2
   7 -10  -4 56975.6 1017.96   1
   7 -10  -4 57468.4 991.709   4
  -3  10  -4 55800.5 1176.26   2
  -7  -3  -1 10433.6 444.500   2
   3   7  -1 10131.3 383.484   3
   7 -10  -1 10396.2 450.740   4
  -7  -3  -1 10356.6 454.753   3
  10  -7  -1 10615.3 393.644   3
 -10   3  -1 9912.03 377.838   1
  -7  -3  -1 10330.9 462.263   4
  10  -7  -1 10027.8 423.834   1
  -3  10  -1 10435.5 463.536   2
   3   7  -1 10002.4 406.128   2
   3   7  -1 10159.3 417.792   4
   7 -10  -1 10677.9 463.954   2
  -3  10  -1 9964.73 442.060   4
 -10   3  -1 9944.29 439.516   3
   7 -10  -1 9978.56 412.974   1
   3   7   2 25051.0 730.596   3
  -3  10   2 23803.6 682.488   4
  -3  10   2 25835.8 605.226   1
  -7  -3   2 24807.3 649.914   3
  -7  -3   2 25045.9 740.895   1
 -10   3   2 21615.5 395.310   2
   7 -10   2 25242.1 680.304   4
   3   7   2 23673.7 702.151   2
  -7  -3   2 24238.2 585.565   4
  -3  10   2 23609.0 654.336   2
 -10   3   2 25404.2 759.275   1
   3   7   2 25387.0 457.318   1
  10  -7   2 25563.6 618.576   3
   3   7   2 24707.1 704.566   4
  -7  -3   2 25338.5 491.031   2
   7 -10   2 24611.1 799.135   2
  10  -7   2 23046.2 530.096   1
   7 -10   2 20025.9 335.653   3
  10  -7   5 3194.01 382.548   3
  -3  10   5 3343.73 348.152   2
   3   7   5 3426.22 201.651   1
  -3  10   5 3832.91 335.793   4
 -10   3   5 2876.38 190.754   4
  -7  -3   5 2715.03 176.306   4
  -3  10   5 3564.56 333.785   1
   3   7   5 3143.57 328.273   4
  -3  10   8 20945.3 701.632   4
  -6  -4 -11 744.003 522.742   3
   6 -10 -11 601.226 517.943   3
 -10   4 -11 141.750 486.582   3
   4   6 -11 788.075 483.266   1
  -4  10 -11 544.183 388.412   1
  -4  10 -11 395.664 406.351   2
   6 -10 -11 927.871 411.488   1
  10  -6 -11 1190.36 499.144   1
  -4  10 -11 470.496 408.978   3
   4   6 -11 577.465 493.361   3
 -10   4  -8 4479.54 260.330   1
  -6  -4  -8 5320.05 618.602   3
  10  -6  -8 4858.90 521.470   1
  -4  10  -8 5368.20 330.112   4
   6 -10  -8 4665.24 427.724   1
  -4  10  -8 5059.13 532.977   2
 -10   4  -8 5797.61 575.935   3
   4   6  -8 5878.79 593.906   1
   4   6  -8 5143.77 413.268   2
 -10   4  -8 4978.21 317.559   1
  10  -6  -8 3614.21 232.232   2
  -4  10  -8 5697.67 511.826   3
  -4  10  -8 5102.71 515.523   1
   6 -10  -8 4480.76 361.647   4
   6 -10  -8 5462.91 641.056   3
   4   6  -5 14246.6 556.668   3
   4   6  -5 14989.2 501.517   2
  -6  -4  -5 14096.3 704.601   3
   6 -10  -5 14187.2 536.864   4
  -6  -4  -5 13102.8 585.898   4
  -4  10  -5 14597.1 538.867   3
   6 -10  -5 14353.5 561.312   2
  10  -6  -5 13978.4 645.577   1
 -10   4  -5 14522.7 656.031   3
  -4  10  -5 14849.2 699.575   2
  -4  10  -5 15114.8 523.988   4
   6 -10  -5 14922.4 562.073   1
   4   6  -5 14853.1 381.653   4
 -10   4  -5 13442.0 332.713   1
   4   6  -5 15490.5 735.839   1
   4   6  -2 16304.1 476.920   3
  -4  10  -2 17266.3 625.622   2
   6 -10  -2 17096.5 523.630   1
  -6  -4  -2 17128.4 608.598   3
  10  -6  -2 16573.1 586.047   1
  -6  -4  -2 17567.7 601.699   2
   6 -10  -2 16894.1 553.928   2
 -10   4  -2 16924.2 447.148   1
 -10   4  -2 16681.1 558.088   3
  -6  -4  -2 16409.4 575.875   4
  -4  10  -2 16232.9 544.992   4
  10  -6  -2 16970.1 535.349   3
   4   6  -2 18636.2 660.361   1
   4   6  -2 16715.0 490.138   4
   6 -10  -2 16674.4 563.934   4
   4   6  -2 16028.7 465.165   2
  -4  10   1 413.185 197.580   1
  10  -6   1 568.906 182.374   1
 -10   4   1 801.207 262.374   1
  -4  10   1 697.494 199.640   2
  -4  10   1 618.028 214.615   4
   6 -10   1 774.163 224.130   4
  -6  -4   1 573.150 205.670   3
  -6  -4   1 675.344 206.896   4
 -10   4   1 795.394 215.219   3
   6 -10   1 698.070 245.109   2
  10  -6   1 710.164 225.052   3
   4   6   1 707.664 230.872   3
   4   6   1 660.706 221.961   4
   4   6   1 300.077 193.139   2
  -6  -4   1 730.900 173.474   2
  10  -6   4 11369.7 546.508   3
   4   6   4 10922.5 511.015   4
   4   6   4 9089.78 242.697   1
  -4  10   4 11060.3 485.407   1
 -10   4   4 11097.3 377.044   4
  -6  -4   4 11309.4 400.420   2
   6 -10   4 11273.1 458.594   4
  -4  10   4 10389.7 499.382   2
  -4  10   4 10354.7 477.579   4
  -6  -4   4 10781.1 366.727   4
  -4  10   7 1767.06 345.411   1
  -4  10   7 1496.37 257.239   4
   5   5  -9 7317.48 681.415   1
 -10   5  -9 7750.29 705.169   3
  -5  10  -9 7550.78 655.107   2
  -5  10  -9 6887.86 363.249   4
   5 -10  -9 7309.14 520.248   1
   5   5  -9 6801.58 452.865   2
   5 -10  -9 6166.09 707.090   3
  -5  10  -9 7208.84 587.135   1
  10  -5  -9 7058.02 637.451   1
  10  -5  -9 4214.02 308.964   2
 -10   5  -9 6622.77 411.442   1
  -5  10  -9 7025.90 593.617   3
  -5  -5  -9 8483.06 766.083   3
 -10   5  -6 7665.41 309.074   1
   5 -10  -6 8526.54 463.273   1
  -5  10  -6 7771.87 397.543   4
  -5  10  -6 7561.09 572.867   2
  -5  10  -6 7580.02 461.407   3
   5   5  -6 8030.40 392.503   2
 -10   5  -6 8221.09 555.284   3
   5   5  -6 8547.15 613.514   1
   5 -10  -6 7225.76 416.943   4
   5 -10  -6 7127.24 456.815   2
  10  -5  -6 6816.20 499.228   1
  -5  -5  -6 7832.73 606.838   3
   5 -10  -6 6816.88 586.075   3
  -5  10  -3 22050.0 405.795   3
  -5  -5  -3 23172.8 750.823   3
  -5  -5  -3 24043.5 748.172   2
  -5  -5  -3 22514.7 677.676   4
   5 -10  -3 23620.7 664.177   2
  10  -5  -3 23947.5 679.015   3
  -5  10  -3 23644.2 651.658   4
   5   5  -3 20370.9 732.363   1
  10  -5  -3 22483.7 702.871   1
   5 -10  -3 23226.8 661.387   4
  -5  10  -3 23185.4 775.589   2
   5   5  -3 23191.2 536.235   4
   5   5  -3 22388.6 588.344   3
 -10   5  -3 23400.9 486.817   1
 -10   5  -3 22676.7 672.682   3
   5   5  -3 23002.5 505.289   2
   5 -10  -3 23092.1 595.318   1
   5 -10  -3 23567.2 752.308   3
   5 -10   0 27655.2 410.513   3
  10  -5   0 26238.2 643.520   3
   5   5   0 26776.4 626.322   2
   5   5   0 25040.8 631.924   3
   5   5   0 26901.9 653.664   4
 -10   5   0 26259.6 604.273   3
   5 -10   0 28390.2 702.610   4
  10  -5   0 26120.0 593.248   1
  -5  -5   0 26119.9 631.395   2
  -5  10   0 26266.3 683.862   4
  -5  10   0 27022.3 688.878   2
  -5  10   0 27115.8 619.290   1
 -10   5   0 26050.5 636.355   1
   5 -10   0 27656.3 723.621   2
  -5  -5   0 26871.6 663.210   4
  -5  -5   0 27173.7 649.284   3
   5 -10   0 26164.7 622.567   1
  -5  -5   3 25146.5 583.763   2
  10  -5   3 24256.0 704.616   3
  -5  10   3 23571.6 648.002   2
   5   5   3 23076.4 755.537   2
 -10   5   3 24085.6 582.149   4
   5 -10   3 25499.8 655.524   4
  -5  -5   3 23623.9 565.058   4
   5   5   3 23303.7 775.436   3
   5   5   3 24101.3 711.143   4
  -5  10   3 24334.7 680.115   4
  -5  10   3 25368.7 676.070   1
   5 -10   3 25399.6 822.959   2
 -10   5   3 25219.4 807.277   1
   5   5   3 20078.2 300.034   1
  -5  10   6 7172.98 408.594   4
  -5  10   6 7407.20 473.810   2
  -5  10   6 8237.02 514.380   1
 -10   5   6 6362.50 253.123   4
  -6  10 -10 7453.42 709.544   2
 -10   6 -10 7104.93 481.681   1
   4 -10 -10 7345.30 836.981   3
 -10   6 -10 6690.25 507.027   4
  -6  10 -10 8496.09 689.949   3
   6   4 -10 6750.55 444.739   2
  -6  10 -10 7846.83 641.515   1
 -10   6 -10 9345.74 786.347   3
   4 -10 -10 8233.75 551.546   1
  10  -4 -10 7724.24 682.604   1
   6   4 -10 7532.78 698.373   1
  -4  -6 -10 8850.89 857.523   3
  -6  10  -7 1544.90 253.626   4
   6   4  -7 1400.13 379.765   1
  -4  -6  -7 948.699 112.831   1
 -10   6  -7 1423.41 208.333   1
 -10   6  -7 1640.83 377.596   3
 -10   6  -7 1675.37 257.408   1
   4 -10  -7 2019.18 459.204   3
  10  -4  -7 1442.24 376.427   1
  10  -4  -7 692.527 98.1668   2
  -6  10  -7 1810.64 407.166   2
   4 -10  -7 1470.01 288.300   4
   4 -10  -7 1498.43 281.850   1
   6   4  -7 2240.12 253.005   2
  -4  -6  -7 1382.75 436.456   3
  10  -4  -7 751.439 86.4597   2
  -6  10  -7 1786.40 326.163   3
   6   4  -4 12803.8 648.226   1
   4 -10  -4 11606.6 518.424   2
  -6  10  -4 12269.7 415.162   3
   4 -10  -4 13147.8 648.964   3
  -6  10  -4 11597.8 624.258   2
  10  -4  -4 11720.3 580.148   1
   4 -10  -4 12253.2 458.698   1
  -6  10  -4 12274.8 492.538   4
 -10   6  -4 11566.8 375.015   1
   6   4  -4 11358.1 484.943   3
 -10   6  -4 12441.6 545.352   3
  -4  -6  -4 10722.9 559.722   2
  -4  -6  -4 11347.2 602.943   3
  -4  -6  -4 11572.2 531.537   4
   4 -10  -4 12029.6 512.000   4
   6   4  -4 12169.2 349.460   2
  -4  -6  -1 745.808 226.636   3
   6   4  -1 518.643 166.997   2
   4 -10  -1 594.918 225.655   4
   4 -10  -1 515.644 186.970   3
  10  -4  -1 680.105 200.586   3
 -10   6  -1 394.508 188.906   3
  -4  -6  -1 414.163 198.670   2
   6   4  -1 883.674 203.389   4
  10  -4  -1 669.402 234.014   1
  -6  10  -1 851.713 229.652   4
  -4  -6  -1 763.580 230.628   4
  -6  10  -1 602.466 213.326   1
  -6  10  -1 540.052 231.740   2
   6   4  -1 829.616 248.279   1
   4 -10  -1 558.953 196.695   1
 -10   6  -1 691.818 204.462   1
   6   4  -1 413.076 198.839   3
   4 -10  -1 604.257 213.936   2
  -6  10   2 18573.2 571.775   1
  10  -4   2 18173.4 604.824   3
  -6  10   2 18534.6 544.634   2
  -4  -6   2 19500.4 541.478   4
   6   4   2 18688.0 609.930   4
   4 -10   2 19582.6 583.134   4
 -10   6   2 18036.5 408.224   2
   6   4   2 18834.1 639.130   3
 -10   6   2 19134.7 558.616   4
  -4  -6   2 17951.9 494.821   3
   6   4   2 18307.3 629.794   2
   4 -10   2 19294.4 681.294   2
  10  -4   2 17813.6 404.457   1
  -6  10   2 18146.9 584.298   4
   6   4   2 19129.3 378.632   1
  -4  -6   2 19210.3 526.962   2
 -10   6   2 18592.0 642.481   1
  -6  10   5 13684.7 521.957   4
  -4  -6   5 14550.1 383.057   4
   4 -10   5 16063.0 520.510   4
  -6  10   5 15402.3 579.472   2
 -10   6   5 14670.4 424.447   4
  -6  10   5 15334.5 622.267   1
  -6  10   8 5455.30 362.947   4
 -10   7 -11 1535.73 584.789   2
  -7  10 -11 490.682 415.759   3
  -7  10 -11 536.882 429.735   2
 -10   7 -11 710.484 517.775   3
  -3  -7 -11 1010.91 520.505   3
  10  -3 -11 1190.23 463.065   1
   3 -10 -11 771.453 580.154   3
  -7  10 -11 596.842 346.646   1
   3 -10 -11 976.111 348.404   1
   7   3 -11 1411.23 516.607   1
   3 -10  -8 24050.7 1144.30   3
   7   3  -8 22603.6 599.406   2
 -10   7  -8 24816.1 996.720   3
 -10   7  -8 22699.7 803.849   4
  -7  10  -8 25992.1 794.513   4
   3 -10  -8 19561.2 753.336   4
  -7  10  -8 22200.1 865.805   1
   3 -10  -8 24543.5 762.315   1
  -7  10  -8 22404.6 1041.27   2
 -10   7  -8 22895.8 725.928   1
  10  -3  -8 22872.1 982.654   1
   7   3  -8 24304.0 1039.20   1
  -7  10  -8 23597.5 911.314   3
 -10   7  -8 23684.5 659.418   1
  -3  -7  -8 25780.5 1165.45   3
   3 -10  -5 3119.40 411.605   3
 -10   7  -5 3578.46 248.943   1
  -7  10  -5 3190.46 429.448   2
   7   3  -5 3439.42 196.019   2
   7   3  -5 3470.13 422.599   1
  -3  -7  -5 2942.23 335.376   4
  10  -3  -5 3305.64 380.867   1
  -3  -7  -5 2940.71 421.991   3
   3 -10  -5 3097.20 343.572   2
  -7  10  -5 3639.81 315.169   4
 -10   7  -5 3106.95 348.075   3
   3 -10  -5 3134.79 275.526   1
   3 -10  -5 3425.64 333.055   4
  -7  10  -5 3252.33 296.584   3
  -7  10  -2 26319.3 651.495   1
   7   3  -2 27423.9 504.768   2
  -7  10  -2 26537.2 341.635   3
  -3  -7  -2 24881.3 716.103   4
   7   3  -2 25140.4 646.866   3
   3 -10  -2 26721.4 719.776   4
  -3  -7  -2 26018.9 723.792   2
   3 -10  -2 26529.6 596.977   1
  -7  10  -2 26093.5 693.629   4
   3 -10  -2 26531.8 681.679   3
  10  -3  -2 25162.0 664.803   3
   7   3  -2 27341.5 763.582   1
   3 -10  -2 27064.4 716.019   2
  -7  10  -2 26629.4 820.224   2
 -10   7  -2 26109.1 593.901   1
 -10   7  -2 26199.9 610.763   3
  10  -3  -2 26184.8 730.060   1
  -3  -7  -2 26916.7 725.126   3
  -7  10   1 10121.3 436.930   1
   3 -10   1 10128.7 477.341   2
   3 -10   1 10585.5 454.260   4
 -10   7   1 10229.7 444.488   4
  10  -3   1 9486.01 457.038   3
  -3  -7   1 10668.3 437.516   4
 -10   7   1 8976.28 454.129   1
  10  -3   1 10208.9 355.500   1
  -7  10   1 9614.51 420.880   2
   7   3   1 8994.11 338.627   1
   7   3   1 9914.98 440.872   2
  -3  -7   1 10392.8 421.019   2
 -10   7   1 9140.33 381.271   2
  -7  10   1 9497.00 439.698   4
   7   3   1 9422.25 457.746   3
  -3  -7   1 10051.7 368.467   3
 -10   7   4 54545.4 859.231   4
   3 -10   4 59923.2 1279.23   2
  10  -3   4 54828.9 1189.78   3
 -10   7   4 54447.3 658.687   2
  -7  10   4 57504.2 1101.70   1
  -7  10   4 57597.0 978.451   2
  -3  -7   4 57880.3 1049.41   2
 -10   7   4 58710.3 1242.30   1
   3 -10   4 58986.8 947.891   4
  -7  10   4 56080.6 1001.33   4
  -3  -7   4 55985.8 830.002   4
  -7  10   7 85.8522 181.450   4
 -10   7   7 169.501 132.232   4
  -8  10  -9 6196.14 662.860   2
  -2  -8  -9 4995.53 293.007   1
 -10   8  -9 6368.53 495.311   1
 -10   8  -9 7955.77 667.000   3
  -2  -8  -9 7147.26 757.005   3
   8   2  -9 5067.52 306.592   2
  -8  10  -9 6973.58 607.526   3
 -10   8  -9 6177.07 708.772   2
  -8  10  -9 6742.12 472.340   4
   2 -10  -9 6585.87 734.860   3
  -8  10  -9 7505.65 582.892   1
  10  -2  -9 7098.08 669.271   1
   2 -10  -9 6407.29 448.854   1
 -10   8  -9 5995.76 481.122   4
   8   2  -9 7213.63 674.430   1
 -10   8  -6 804.731 240.230   4
  -2  -8  -6 565.809 346.380   3
  10  -2  -6 1182.96 367.592   1
 -10   8  -6 794.727 194.259   1
  -8  10  -6 882.080 352.857   2
   8   2  -6 1248.63 371.832   1
   2 -10  -6 1269.37 228.051   1
   8   2  -6 873.132 117.031   2
  -2  -8  -6 866.198 156.671   1
   2 -10  -6 1161.54 284.601   4
  -8  10  -6 1405.91 263.522   4
   2 -10  -6 1039.42 376.411   3
 -10   8  -6 1523.81 330.112   3
  -8  10  -6 1090.84 270.591   3
  -2  -8  -3 16305.1 645.041   3
  10  -2  -3 16311.4 658.052   1
   2 -10  -3 18015.4 653.204   3
  -8  10  -3 16726.3 714.183   2
  -2  -8  -3 17277.1 624.112   4
   2 -10  -3 17527.7 491.640   1
 -10   8  -3 17118.8 609.693   4
 -10   8  -3 16319.2 730.082   2
   2 -10  -3 18125.8 637.233   4
   8   2  -3 16547.3 660.048   1
  -2  -8  -3 17445.1 645.688   2
   8   2  -3 16739.4 571.875   3
  10  -2  -3 16612.5 596.442   3
  -8  10  -3 18038.3 429.004   3
 -10   8  -3 17342.1 513.489   1
  -8  10  -3 17002.2 580.868   4
   8   2  -3 16889.6 340.520   2
   2 -10  -3 18046.4 639.509   2
  -8  10  -3 18092.1 561.213   1
 -10   8  -3 17338.4 541.129   3
  10  -2   0 8916.81 440.505   3
   8   2   0 8371.58 441.167   3
  -8  10   0 9391.98 451.972   4
 -10   8   0 9818.05 362.546   3
  -8  10   0 9363.12 425.770   1
 -10   8   0 9363.32 449.962   4
  -8  10   0 9476.45 459.132   2
  10  -2   0 9357.86 391.741   1
  -2  -8   0 9977.07 457.936   4
  -2  -8   0 9532.18 386.213   3
   2 -10   0 10327.5 470.181   2
 -10   8   0 9685.95 466.465   2
 -10   8   0 9549.21 433.610   1
   2 -10   0 10388.8 458.314   4
   2 -10   0 10312.9 306.943   3
   8   2   0 9179.92 392.815   1
  -2  -8   0 9749.47 432.322   2
  10  -2   3 13653.2 606.182   3
   2 -10   3 15249.8 628.910   2
 -10   8   3 14036.0 372.803   2
 -10   8   3 13875.9 485.488   4
   8   2   3 13230.2 610.811   3
  -2  -8   3 13804.7 465.288   4
  -8  10   3 13849.8 575.101   1
  -8  10   3 13498.8 510.272   4
  10  -2   3 12378.1 279.524   1
  -2  -8   3 14463.5 552.569   2
   2 -10   3 14889.4 508.013   4
 -10   8   3 14210.0 624.341   1
  -8  10   3 14128.8 472.523   2
   2 -10   6 9455.72 390.028   4
  -8  10   6 8822.14 457.234   2
  -2  -8   6 8669.15 314.431   4
 -10   8   6 8896.55 375.617   4
  -8  10   6 8664.26 415.749   4
  -8  10   9 3218.59 270.311   4
   9   1 -10 1392.31 464.294   1
 -10   9 -10 1986.03 365.121   4
   1 -10 -10 1853.81 319.062   1
  10  -1 -10 2068.38 522.375   1
  -9  10 -10 1613.42 526.744   2
   1 -10 -10 2807.17 635.049   3
  -9  10 -10 2306.55 434.939   1
 -10   9 -10 2207.33 411.479   1
  -1  -9 -10 2263.73 616.035   3
  -9  10 -10 2303.30 364.104   4
  -9  10 -10 2300.84 482.648   3
 -10   9 -10 1978.69 495.521   3
 -10   9 -10 2164.85 608.496   2
   1 -10  -7 6720.60 655.924   3
  -9  10  -7 6405.76 452.593   4
  10  -1  -7 6013.93 580.221   1
 -10   9  -7 5046.19 595.297   2
  -1  -9  -7 6091.47 616.923   3
 -10   9  -7 6237.98 459.681   4
 -10   9  -7 6146.67 388.938   1
   9   1  -7 3498.72 158.249   2
  -1  -9  -7 5985.19 310.152   1
   1 -10  -7 6040.41 359.072   1
   9   1  -7 6258.52 583.038   1
  -9  10  -7 5116.50 574.217   2
 -10   9  -7 6694.89 523.212   3
   9   1  -7 3456.25 167.851   2
  -9  10  -7 5874.22 463.994   3
  -1  -9  -4 8447.56 538.097   3
   1 -10  -4 9000.91 493.116   4
   1 -10  -4 8421.86 349.056   1
   1 -10  -4 8277.33 487.027   2
   1 -10  -4 8426.40 542.276   3
  -9  10  -4 8658.68 597.656   2
 -10   9  -4 8814.31 620.801   2
  -9  10  -4 8343.13 444.956   4
 -10   9  -4 8792.81 401.799   1
  10  -1  -4 8609.00 529.178   1
  -9  10  -4 8875.05 384.192   3
 -10   9  -4 7948.04 444.279   4
  -1  -9  -4 8246.97 470.712   4
   9   1  -4 8102.28 526.135   1
 -10   9  -4 8781.84 426.156   3
  -9  10  -4 8576.98 416.678   1
  -9  10  -1 291.304 197.942   4
  -1  -9  -1 390.460 226.078   2
  -9  10  -1-41.9038 240.091   2
  -1  -9  -1 104.635 233.214   4
  -1  -9  -1-74.7301 213.985   3
   9   1  -1 186.496 224.086   1
  10  -1  -1 646.582 237.958   1
   9   1  -1 646.237 240.500   3
  10  -1  -1-33.3976 207.062   3
 -10   9  -1 240.398 152.823   3
  -9  10  -1 474.523 132.481   3
  -9  10  -1 176.275 220.772   1
 -10   9  -1 199.667 196.063   4
   1 -10  -1-112.312 186.473   3
   1 -10  -1 560.571 250.130   4
   1 -10  -1 297.880 206.671   2
 -10   9  -1 631.188 228.517   1
 -10   9  -1 464.880 252.347   2
  -9  10   2 5102.20 316.866   2
   9   1   2 4890.37 406.296   3
   1 -10   2 5225.82 384.905   2
  -9  10   2 5237.72 361.724   4
  -1  -9   2 4478.24 244.574   3
   9   1   2 4995.47 229.736   1
  -9  10   2 5267.76 408.450   1
  10  -1   2 5529.31 253.122   1
  10  -1   2 4722.61 382.273   3
  -1  -9   2 5749.42 359.964   4
 -10   9   2 5240.28 430.246   1
   1 -10   2 5260.82 360.542   4
 -10   9   2 5123.16 350.529   4
 -10   9   2 5126.41 303.987   2
  -1  -9   2 5560.05 382.341   2
  -9  10   5 5597.26 358.541   4
 -10   9   5 6167.04 311.868   2
   1 -10   5 5693.75 470.346   2
 -10   9   5 5732.78 336.303   4
  -1  -9   5 5711.14 444.062   2
   1 -10   5 6028.95 324.571   4
  -1  -9   5 5584.83 302.601   4
  -9  10   5 5619.28 339.801   2
  -9  10   8 617.678 196.285   4
 -10   9   8 588.185 161.286   4
 -10  10 -11-368.917 509.399   2
  10   0 -11 426.663 517.536   1
 -10  10 -11 48.2376 480.430   3
   0 -10 -11 680.890 573.483   3
 -10  10 -11-74.5861 364.908   1
   0 -10  -8 22598.1 1112.77   3
 -10  10  -8 24177.0 943.842   3
 -10  10  -8 22499.1 1130.53   2
   0 -10  -8 20399.6 585.503   1
 -10  10  -8 23892.9 856.245   4
  10   0  -8 23802.7 1056.13   1
   0 -10  -5-164.940 154.435   1
   0 -10  -5-9.29436 323.601   3
 -10  10  -5-59.0529 212.860   3
 -10  10  -5 229.509 209.274   4
 -10  10  -5 258.579 324.057   2
 -10  10  -5 123.519 200.814   1
   0 -10  -5 348.494 235.271   4
  10   0  -5-115.789 295.019   1
 -10  10  -2 70507.3 821.039   3
  10   0  -2 65340.6 1103.64   3
 -10  10  -2 67963.1 1155.40   4
   0 -10  -2 70895.6 1221.36   2
 -10  10  -2 68681.8 1062.89   1
   0 -10  -2 69569.2 1126.17   3
 -10  10  -2 68982.5 1376.59   2
   0 -10  -2 70673.4 1228.68   4
  10   0  -2 70298.3 1204.48   1
  10   0   1-272.292 257.765   3
 -10  10   1 22.0337 211.350   2
   0 -10   1 20.7320 144.712   3
   0 -10   1 244.977 234.660   4
  10   0   1 273.877 192.402   1
 -10  10   1 259.975 214.100   4
 -10  10   1 141.102 272.998   1
   0 -10   1 64.0856 221.276   2
 -10  10   4 83107.6 1062.90   2
   0 -10   4 85871.2 1453.35   2
   0 -10   4 82762.2 1148.09   4
 -10  10   7-12.8012 184.521   4
   0  11 -11-18.9449 355.133   2
  11 -11 -11-153.815 390.467   1
   0  11 -11-210.006 379.433   3
  11 -11 -11-721.523 601.342   3
 -11   0 -11-718.595 509.583   3
   0  11 -11 87.1135 452.175   1
   0  11  -8 3936.90 554.344   1
   0  11  -8 2923.71 402.595   2
  11 -11  -8 3512.51 480.751   1
 -11   0  -8 3477.38 535.856   3
   0  11  -8 2897.96 239.339   4
  11 -11  -8 2389.40 295.090   2
   0  11  -5-21.9127 180.255   4
  11 -11  -5 426.848 283.951   1
   0  11  -5-183.119 228.697   2
 -11   0  -5-22.9702 298.397   3
  11 -11  -5-76.3681 185.491   2
  11 -11  -5-91.6929 195.606   4
   0  11  -5 17.7188 161.767   3
  11 -11  -2 8021.96 459.143   1
  11 -11  -2 7528.48 411.246   2
  11 -11  -2 7645.75 436.462   4
  11 -11  -2 8127.89 402.347   3
 -11   0  -2 8548.60 505.229   2
   0  11  -2 8007.76 426.876   4
   0  11  -2 7843.05 438.751   2
   0  11  -2 7544.03 309.986   3
 -11   0  -2 7562.47 468.857   3
 -11   0  -2 7527.26 320.062   1
 -11   0   1 222.777 238.459   3
  11 -11   1 30.4827 267.859   2
 -11   0   1 335.321 172.025   2
  11 -11   1 267.979 246.774   4
  11 -11   1-228.379 181.717   3
 -11   0   1 128.128 267.631   1
   0  11   1-323.398 242.799   3
  11 -11   1-16.4857 198.923   1
   0  11   1 93.9817 223.091   4
   0  11   1-158.242 201.034   2
   0  11   1 77.1952 192.096   1
   0  11   4 15097.8 474.911   1
   0  11   4 15085.3 662.589   2
   0  11   4 14793.4 624.972   4
 -11   0   4 13936.4 459.366   4
  11 -11   4 13475.9 527.286   3
   0  11   7 120.305 239.914   1
   0  11   7-350.756 265.076   4
  -1  11  -9 5570.09 569.665   3
  -1  11  -9 5616.67 617.274   1
   1  10  -9 5392.39 514.755   2
  -1  11  -9 4853.14 526.639   2
  10 -11  -9 5246.39 539.129   1
  11 -10  -9 5453.80 565.167   1
 -10  -1  -9 5948.69 698.140   3
 -11   1  -9 5336.80 656.723   3
   1  10  -9 5237.10 642.144   1
  -1  11  -6 312.800 232.850   2
  10 -11  -6 573.710 224.174   2
  -1  11  -6 616.993 192.193   4
  10 -11  -6 655.943 219.333   4
   1  10  -6 468.887 364.964   1
  11 -10  -6 726.567 322.649   1
  10 -11  -6 898.799 303.190   1
  11 -10  -6 312.917 180.285   2
  11 -10  -6 591.823 229.396   4
   1  10  -6 641.588 233.333   2
 -10  -1  -6 909.588 362.822   3
   1  10  -6 751.139 238.028   3
   1  10  -6 723.130 194.626   4
 -11   1  -6 257.923 325.903   3
 -11   1  -3 3752.26 198.347   1
 -10  -1  -3 4285.30 423.646   3
 -10  -1  -3 3850.63 374.579   4
  10 -11  -3 4387.59 325.298   2
  10 -11  -3 4620.63 382.857   1
   1  10  -3 4539.92 330.254   4
  10 -11  -3 4316.93 333.975   4
   1  10  -3 4619.38 273.597   3
  -1  11  -3 4431.91 229.514   3
  11 -10  -3 4638.79 336.836   4
  -1  11  -3 4085.15 322.905   4
  11 -10  -3 4460.38 377.314   1
  -1  11  -3 4713.47 377.540   2
 -11   1  -3 3951.50 390.235   3
 -10  -1  -3 3870.97 383.792   2
   1  10  -3 4152.34 339.699   2
  11 -10  -3 4069.10 296.622   2
 -10  -1   0-4.66719 218.875   4
  10 -11   0 420.059 223.146   1
  -1  11   0 476.618 216.801   2
  10 -11   0 76.3146 240.699   2
  11 -10   0 169.940 215.885   1
  -1  11   0 162.477 224.196   4
 -10  -1   0 424.907 239.624   3
  11 -10   0 103.282 162.919   3
 -11   1   0 316.338 218.726   3
  10 -11   0 418.653 233.893   4
  10 -11   0 72.8130 144.941   3
 -11   1   0-203.153 201.031   2
 -10  -1   0 52.8665 184.431   2
   1  10   0 427.409 217.072   2
 -11   1   0 462.807 246.271   1
 -10  -1   0-75.9123 224.014   1
   1  10   0 284.671 227.552   4
  -1  11   0 238.335 185.140   3
   1  10   0 360.581 201.074   3
  11 -10   0 290.781 226.874   4
  11 -10   0-121.390 241.081   2
   1  10   3 6303.09 483.043   3
  -1  11   3 6824.67 446.422   4
  10 -11   3 6180.06 317.714   3
  11 -10   3 6096.08 352.150   3
 -11   1   3 5963.16 490.539   1
 -10  -1   3 6419.86 513.797   1
   1  10   3 6681.37 315.292   1
  -1  11   3 6253.74 425.769   2
 -10  -1   3 5324.87 210.397   2
 -10  -1   3 6326.95 340.075   4
   1  10   3 6174.12 426.350   4
   1  10   3 6170.10 423.383   2
  -1  11   3 7237.98 358.222   1
  -1  11   3 6430.40 460.811   3
   1  10   6 1114.66 255.636   4
   1  10   6 1351.25 245.484   1
 -11   1   6 905.450 132.465   4
  -1  11   6 1228.36 256.054   1
 -11   1   6 1074.83 133.645   4
  -1  11   6 1329.55 316.875   2
  -1  11   6 1577.27 296.455   4
 -10  -1   6 999.005 126.893   4
   2   9 -10 1511.96 448.045   3
   9 -11 -10 1963.42 604.275   3
   2   9 -10 1385.91 489.650   1
  11  -9 -10 1317.41 448.621   1
  -2  11 -10 2620.38 488.497   3
  -9  -2 -10 1533.58 546.278   3
 -11   2 -10 1813.59 561.619   3
   9 -11 -10 1128.21 394.489   1
  -2  11 -10 1981.24 506.775   1
  -2  11 -10 1872.43 450.151   2
   2   9 -10 1902.09 382.268   2
   2   9  -7 16140.0 419.974   4
  -9  -2  -7 16559.5 881.029   3
   9 -11  -7 13097.3 563.406   2
  11  -9  -7 17814.7 806.230   1
   9 -11  -7 14557.9 561.556   4
   2   9  -7 17088.1 693.641   2
   2   9  -7 18271.8 911.266   1
   9 -11  -7 16731.8 737.994   1
  -2  11  -7 17667.2 861.919   1
  11  -9  -7 13895.9 456.982   2
  -2  11  -7 17684.4 798.164   2
  -2  11  -7 17022.3 534.007   4
 -11   2  -7 16865.6 870.369   3
  -2  11  -7 15331.1 694.373   3
  11  -9  -4 17971.7 562.366   4
  11  -9  -4 16582.3 461.304   2
  -2  11  -4 18826.2 588.767   4
   2   9  -4 17300.3 528.781   4
 -11   2  -4 16525.9 707.510   3
  -2  11  -4 18294.7 436.723   3
   2   9  -4 17279.1 511.961   3
   9 -11  -4 17944.9 583.596   2
  -9  -2  -4 15923.3 706.816   3
   9 -11  -4 16863.5 576.933   4
  -2  11  -4 18114.1 690.103   2
   2   9  -4 17239.5 596.788   2
 -11   2  -4 14816.7 296.414   1
   9 -11  -4 17655.5 634.794   1
  11  -9  -4 17693.3 692.236   1
  -2  11  -1 36147.8 482.808   3
  -2  11  -1 37103.5 847.662   4
  11  -9  -1 37901.1 818.239   1
 -11   2  -1 37336.6 858.714   3
  -9  -2  -1 37782.3 837.753   2
  11  -9  -1 37366.7 717.409   3
   2   9  -1 37923.5 798.321   2
   2   9  -1 37399.3 826.871   4
   9 -11  -1 38648.2 865.602   2
  -9  -2  -1 36868.5 864.786   3
  -9  -2  -1 36533.8 686.290   1
   2   9  -1 37616.1 695.638   3
   9 -11  -1 37449.8 797.056   1
  11  -9  -1 37826.2 819.560   2
  -2  11  -1 37427.4 856.212   2
 -11   2  -1 38070.9 734.073   1
   9 -11  -1 38577.1 868.186   4
  -9  -2  -1 38892.0 883.759   4
  -2  11   2 11494.6 530.337   4
   9 -11   2 10443.6 298.469   3
   2   9   2 9183.26 476.263   2
   9 -11   2 12715.4 542.941   4
  11  -9   2 11291.1 436.786   3
  -9  -2   2 10857.0 489.171   3
  -2  11   2 11457.4 431.286   1
 -11   2   2 11046.1 550.902   1
   2   9   2 11347.5 375.112   1
   9 -11   2 10394.9 572.357   2
 -11   2   2 8544.32 451.450   3
 -11   2   2 10864.6 284.919   2
  11  -9   2 10461.5 419.056   1
  -9  -2   2 10660.5 547.780   1
  -2  11   2 10562.1 494.880   2
  -9  -2   2 11299.7 344.906   2
   2   9   2 10826.3 518.517   3
   2   9   2 11491.9 525.037   4
  -9  -2   2 10502.5 431.763   4
  -2  11   5 12900.5 501.955   1
  11  -9   5 12540.0 596.267   3
 -11   2   5 11799.0 383.326   4
  -2  11   5 12323.0 610.386   2
  -9  -2   5 11319.5 355.405   4
   2   9   5 13240.4 668.192   2
   2   9   5 13417.2 401.047   1
  -2  11   5 12375.7 569.243   4
   2   9   5 13059.4 598.221   4
  -2  11   8 8403.83 517.166   4
   2   9   8 7330.59 371.665   1
  -2  11   8 7532.73 504.017   1
   3   8 -11 2785.09 607.125   1
  -3  11 -11 1969.84 471.495   3
 -11   3 -11 3091.78 632.061   3
  11  -8 -11 2364.49 656.084   3
   3   8 -11 1440.01 516.789   3
  -8  -3 -11 3157.88 705.408   3
   8 -11 -11 2404.97 457.805   1
  -3  11 -11 1982.79 497.514   1
  11  -8 -11 1642.90 516.156   1
  -3  11 -11 1895.19 470.967   2
   8 -11 -11 1733.37 649.326   3
   3   8 -11 2033.48 418.568   2
   8 -11  -8 1795.92 481.968   3
  -3  11  -8 2004.31 254.115   4
 -11   3  -8 2482.54 472.110   3
   3   8  -8 2309.97 489.657   1
  -8  -3  -8 1392.47 452.812   3
  -3  11  -8 2165.42 395.968   2
   8 -11  -8 2228.19 387.333   1
   3   8  -8 2103.91 338.074   2
  -3  11  -8 3055.69 491.158   1
 -11   3  -8 1068.67 136.044   1
   8 -11  -8 1515.58 267.488   4
  11  -8  -8 1414.84 198.877   2
  -3  11  -8 2409.30 391.845   3
  11  -8  -8 1976.64 438.040   1
 -11   3  -8 1014.12 111.077   1
  -8  -3  -5 10474.9 643.628   3
  -3  11  -5 11160.0 464.166   4
  11  -8  -5 9116.49 317.073   2
   3   8  -5 10516.2 472.821   2
  11  -8  -5 10734.7 588.067   1
 -11   3  -5 9445.82 255.056   1
   3   8  -5 11381.0 402.901   4
   8 -11  -5 10486.7 478.215   4
   3   8  -5 11063.9 490.015   3
  -3  11  -5 11437.5 616.450   2
   8 -11  -5 10371.7 519.512   1
 -11   3  -5 10626.7 600.583   3
   3   8  -5 12244.7 694.489   1
   8 -11  -5 10918.4 494.093   2
 -11   3  -2 31732.0 600.051   1
  -3  11  -2 26697.9 321.179   3
   3   8  -2 30907.8 698.320   2
   8 -11  -2 32357.5 785.134   4
  -8  -3  -2 32537.2 829.192   2
 -11   3  -2 30720.5 796.110   3
   3   8  -2 31039.0 651.764   3
   8 -11  -2 31082.1 733.449   1
  11  -8  -2 32351.6 733.300   3
  -3  11  -2 31168.0 764.161   4
  -3  11  -2 31722.4 829.157   2
  11  -8  -2 30763.3 648.325   2
   8 -11  -2 32734.4 782.691   2
  -8  -3  -2 31590.6 820.383   4
  11  -8  -2 27711.1 748.713   1
  -8  -3  -2 30882.0 823.674   3
   3   8  -2 31782.0 725.850   4
 -11   3   1 3571.16 365.347   1
   3   8   1 3985.91 334.927   3
   8 -11   1 4003.80 315.675   1
  11  -8   1 4233.98 295.530   1
   8 -11   1 4491.46 175.614   3
  -3  11   1 4009.92 324.626   2
  -8  -3   1 4018.78 266.251   2
   8 -11   1 4172.45 390.055   2
  -8  -3   1 3656.64 310.659   4
  -8  -3   1 3942.59 350.263   1
   3   8   1 3872.68 335.830   2
 -11   3   1 4324.67 345.228   3
  -8  -3   1 4379.55 338.127   3
  11  -8   1 4076.59 317.954   3
   3   8   1 4076.09 336.530   4
   8 -11   1 4243.71 350.646   4
  -3  11   1 3975.54 310.493   1
  -3  11   1 3825.48 340.522   4
  -8  -3   4 10610.0 380.831   4
  -3  11   4 11138.8 535.642   2
 -11   3   4 10567.3 395.770   4
  -3  11   4 10642.9 465.744   1
   3   8   4 11490.3 324.385   1
  -3  11   4 10522.2 518.644   4
  -8  -3   4 10606.0 341.272   2
  11  -8   4 10811.0 522.037   3
   3   8   4 10723.3 531.050   4
   3   8   4 10789.7 568.815   2
   3   8   7 1833.91 205.242   1
  -3  11   7 1877.29 334.596   1
  -3  11   7 2215.32 305.527   4
   7 -11  -9 1775.04 519.721   3
   4   7  -9 2153.05 516.940   1
  -4  11  -9 2114.51 411.919   3
 -11   4  -9 1700.22 472.041   3
  -7  -4  -9 2565.87 567.355   3
   7 -11  -9 2004.57 383.961   1
   4   7  -9 2587.92 352.679   2
  -4  11  -9 2380.26 447.383   2
  -4  11  -9 2080.66 236.453   4
 -11   4  -9 1798.09 226.819   1
  11  -7  -9 2659.70 479.198   1
  -4  11  -9 2805.49 476.399   1
 -11   4  -6 234.421 111.437   1
  -7  -4  -6 402.142 330.731   3
   7 -11  -6 456.708 211.717   4
  -4  11  -6 159.581 242.148   3
  11  -7  -6 94.0404 96.4070   2
   4   7  -6 528.679 202.980   2
   7 -11  -6 109.033 206.873   2
   4   7  -6 217.707 124.509   4
  -4  11  -6 664.034 300.683   2
   7 -11  -6 119.091 246.778   1
  11  -7  -6 70.2916 292.494   1
  -4  11  -6 506.436 202.748   4
   4   7  -6-263.590 323.904   1
 -11   4  -6 253.741 290.936   3
  11  -7  -3 16762.1 650.100   1
  -4  11  -3 15148.1 332.278   3
   7 -11  -3 17689.1 590.770   2
  -4  11  -3 18087.2 309.134   3
  -7  -4  -3 16866.5 678.881   3
 -11   4  -3 17602.6 636.968   3
   7 -11  -3 17997.8 579.243   1
  -7  -4  -3 16897.4 675.738   2
   4   7  -3 16854.8 516.331   3
  -7  -4  -3 17199.3 634.304   4
  11  -7  -3 17033.3 592.513   3
   4   7  -3 17586.5 707.957   1
   7 -11  -3 17977.6 608.967   4
   4   7  -3 17109.9 510.026   2
  -4  11  -3 18159.0 589.435   4
  -4  11  -3 17121.8 678.702   2
  11  -7  -3 16172.3 394.073   2
 -11   4  -3 17599.4 434.784   1
   4   7  -3 18569.2 525.363   4
   7 -11   0 914.104 263.994   2
  -4  11   0 809.695 233.013   2
  -7  -4   0 692.142 197.496   2
 -11   4   0 724.256 244.558   1
   7 -11   0 894.731 220.287   4
  11  -7   0 728.135 219.987   1
   4   7   0 862.271 213.458   2
  11  -7   0 521.483 190.078   3
  -4  11   0 835.484 235.144   4
 -11   4   0 605.436 215.483   3
   4   7   0 740.424 226.352   4
   4   7   0 732.685 228.254   3
  -7  -4   0 606.422 225.327   3
   7 -11   0 499.124 206.231   1
  -7  -4   0 855.533 241.003   4
  -4  11   0 817.208 217.992   1
   4   7   3 8629.97 533.619   3
  -4  11   3 9199.67 419.185   1
  11  -7   3 9280.64 462.203   3
 -11   4   3 8331.28 523.318   1
  -7  -4   3 8854.36 379.383   4
   4   7   3 8302.53 507.796   2
   4   7   3 8929.13 271.541   1
   7 -11   3 9350.25 557.920   2
  -4  11   3 9075.62 470.267   4
   4   7   3 8388.21 461.995   4
  -4  11   3 9493.80 463.614   2
  -7  -4   3 8846.05 343.942   2
   7 -11   3 10302.5 463.968   4
 -11   4   6 1119.84 145.725   4
  -4  11   6 1247.51 300.365   1
  -7  -4   6 966.362 107.586   4
  -4  11   6 1511.52 279.079   4
   4   7   6 985.996 132.072   1
  -4  11   6 1465.80 297.573   2
  -4  11   9 7869.28 485.571   4
   6 -11 -10 4183.16 685.864   3
 -11   5 -10 5090.50 684.512   3
  -6  -5 -10 3596.48 652.954   3
  -5  11 -10 3897.85 511.012   1
   5   6 -10 4770.97 440.776   2
  -5  11 -10 4558.91 541.433   3
   5   6 -10 4555.29 654.984   1
   6 -11 -10 4410.78 470.132   1
 -11   5 -10 2465.03 374.235   4
  11  -6 -10 4020.74 559.445   1
  -5  11 -10 4941.93 610.654   2
  -5  11  -7 14075.4 663.954   3
  -5  11  -7 14040.4 775.064   2
   5   6  -7 13710.3 534.218   2
  11  -6  -7 14450.7 740.586   1
  -6  -5  -7 12999.1 800.181   3
 -11   5  -7 13745.1 752.074   3
  -5  11  -7 14347.7 554.500   4
   5   6  -7 15064.2 826.368   1
   6 -11  -7 14033.2 623.720   1
   6 -11  -7 11129.7 528.732   4
 -11   5  -7 13055.0 392.743   1
   6 -11  -7 13732.5 835.455   3
 -11   5  -7 13494.3 456.341   1
  -5  11  -4 9250.63 557.418   2
  -6  -5  -4 9304.30 572.454   3
   5   6  -4 9376.36 576.616   1
   6 -11  -4 9418.82 479.816   2
  -5  11  -4 8901.97 351.571   3
   5   6  -4 9631.36 375.785   2
  11  -6  -4 9737.62 540.434   1
   5   6  -4 8969.01 421.879   3
  -5  11  -4 9872.85 465.457   4
 -11   5  -4 9242.78 320.530   1
   6 -11  -4 8709.83 449.788   4
   6 -11  -4 8894.96 444.555   1
   5   6  -4 9531.07 366.413   4
 -11   5  -4 9724.89 519.890   3
  -6  -5  -4 8236.07 478.394   4
   5   6  -1 50494.5 962.720   1
  -6  -5  -1 49056.4 926.663   3
   5   6  -1 47881.5 851.750   3
   6 -11  -1 47489.9 843.074   1
  -5  11  -1 48050.2 944.471   4
 -11   5  -1 48532.8 823.203   1
   6 -11  -1 49654.1 969.771   2
  -5  11  -1 47036.7 863.268   1
  11  -6  -1 48662.5 919.268   1
  -5  11  -1 47233.2 966.655   2
   5   6  -1 47302.4 809.643   2
  -6  -5  -1 50099.5 938.692   2
  11  -6  -1 47896.6 856.899   3
  -6  -5  -1 49025.1 956.180   4
 -11   5  -1 47785.9 870.617   3
   5   6  -1 48383.0 875.808   4
   6 -11  -1 49162.0 958.706   4
  -6  -5   2 18186.8 488.847   2
  -5  11   2 18268.4 560.952   1
   5   6   2 16885.9 628.819   3
   5   6   2 17460.0 614.208   4
 -11   5   2 17738.2 656.970   1
   5   6   2 16969.6 618.471   2
  11  -6   2 18500.1 603.323   3
  -6  -5   2 17023.2 541.844   3
  11  -6   2 16504.5 450.841   1
   6 -11   2 18078.5 686.941   2
 -11   5   2 17586.5 401.934   2
  -5  11   2 16916.2 562.689   2
  -6  -5   2 16850.4 525.448   4
  -5  11   2 17430.7 613.058   4
   6 -11   2 17537.1 582.671   4
  11  -6   5 15891.9 718.854   3
  -5  11   5 16327.9 602.327   4
  -5  11   5 17021.8 653.472   2
 -11   5   5 16415.6 449.625   4
  -6  -5   5 16354.4 413.817   4
  -5  11   5 16312.1 620.154   1
  -5  11   8 14964.3 604.350   4
  -6  11 -11 8945.89 750.849   3
  -5  -6 -11 9176.10 928.540   3
   5 -11 -11 9258.57 957.154   3
   5 -11 -11 7108.22 558.393   1
  -6  11 -11 8438.46 791.351   2
  11  -5 -11 8326.11 749.636   1
  -6  11 -11 7864.82 665.747   1
   6   5 -11 9440.25 829.897   1
 -11   6 -11 9885.84 869.060   3
  -5  -6  -8 16978.3 979.072   3
   6   5  -8 16758.4 901.872   1
  -6  11  -8 15746.1 869.395   2
  11  -5  -8 15176.9 826.145   1
 -11   6  -8 17046.4 883.169   3
 -11   6  -8 15200.8 486.146   1
   5 -11  -8 15098.3 934.878   3
 -11   6  -8 15370.4 566.184   1
  -6  11  -8 16122.9 775.152   1
   5 -11  -8 13049.3 610.291   4
  -6  11  -8 16571.2 760.521   3
   5 -11  -8 16346.3 692.415   1
  -6  11  -8 17936.1 645.497   4
   6   5  -8 15144.3 552.836   2
  -5  -6  -5 16318.7 766.029   3
  -6  11  -5 16563.2 544.525   3
   5 -11  -5 17038.1 585.329   1
   5 -11  -5 16480.9 777.974   3
 -11   6  -5 15993.5 428.122   1
  11  -5  -5 15527.0 695.412   1
  -6  11  -5 15182.1 744.965   2
   5 -11  -5 16080.5 626.820   4
  -6  11  -5 16981.1 591.639   4
   6   5  -5 16649.6 789.469   1
   6   5  -5 16117.6 454.580   2
 -11   6  -5 17840.3 706.618   3
   5 -11  -5 15778.8 627.957   2
   6   5  -2 17625.1 658.989   1
   6   5  -2 17553.2 471.577   2
  -5  -6  -2 18196.2 637.880   2
 -11   6  -2 17262.4 558.264   3
  -6  11  -2 17562.2 606.744   4
  -5  -6  -2 17363.5 611.239   4
  11  -5  -2 16772.9 554.983   3
 -11   6  -2 17153.1 490.551   1
  11  -5  -2 18632.7 642.508   1
  -6  11  -2 18445.9 576.759   1
   5 -11  -2 18487.8 627.060   4
   5 -11  -2 18457.3 619.662   2
   6   5  -2 17728.0 528.833   4
  -5  -6  -2 16800.2 612.632   3
   6   5  -2 17291.1 540.190   3
   5 -11  -2 18033.9 541.105   1
  -6  11  -2 17585.6 668.932   2
   5 -11  -2 17539.3 587.818   3
  11  -5   1 45122.7 902.162   3
  -5  -6   1 45918.3 816.542   3
   6   5   1 44601.0 907.426   3
   5 -11   1 48276.9 933.215   4
  -6  11   1 45757.8 859.084   1
   6   5   1 44013.6 901.469   2
  -5  -6   1 45868.9 876.787   4
   5 -11   1 47823.8 1023.36   2
 -11   6   1 46203.1 860.323   3
  -6  11   1 44627.0 926.533   4
 -11   6   1 44989.0 793.799   2
 -11   6   1 45127.8 926.693   1
  -6  11   1 44095.0 873.346   2
  11  -5   1 43995.9 728.787   1
   6   5   1 44849.2 915.402   4
  -5  -6   1 46635.2 808.418   2
   6   5   1 43976.7 722.624   1
  11  -5   4 6924.09 471.090   3
  -5  -6   4 8021.75 398.164   2
   5 -11   4 8230.68 550.188   2
  -6  11   4 7782.24 426.578   2
  -6  11   4 8288.83 460.495   1
  -5  -6   4 7805.63 349.966   4
   5 -11   4 8910.61 433.356   4
 -11   6   4 7633.38 353.093   4
  -6  11   4 7893.76 434.897   4
 -11   6   7 11399.9 324.457   4
  -6  11   7 14285.5 571.404   4
  -4  -7  -9 9466.23 828.611   3
   7   4  -9 7815.40 408.904   2
 -11   7  -9 8134.03 557.558   4
   4 -11  -9 8913.55 796.267   3
  -7  11  -9 8909.06 637.277   3
 -11   7  -9 8462.52 509.690   1
   4 -11  -9 8921.83 550.474   1
 -11   7  -9 9955.26 747.148   3
  -7  11  -9 8369.24 729.091   2
  11  -4  -9 8636.50 700.762   1
  -7  11  -9 9695.66 517.925   4
  -7  11  -9 8906.20 630.895   1
   7   4  -9 9568.83 769.155   1
  -4  -7  -6 1535.97 390.909   3
   7   4  -6 1037.71 366.543   1
   4 -11  -6 1941.87 427.812   3
  -7  11  -6 1273.27 261.532   4
   4 -11  -6 1359.73 249.136   1
  -7  11  -6 827.882 262.357   3
 -11   7  -6 1368.36 330.926   3
   7   4  -6 1266.18 174.463   2
  -7  11  -6 1277.02 362.559   2
 -11   7  -6 1386.54 208.974   1
   4 -11  -6 1256.20 285.180   4
  11  -4  -6 1737.09 396.582   1
   4 -11  -3 8147.00 484.771   3
   7   4  -3 8516.53 309.205   2
   4 -11  -3 8480.98 463.063   2
  -4  -7  -3 7566.65 481.079   2
  11  -4  -3 6880.86 455.798   1
   7   4  -3 7552.18 404.317   3
  -7  11  -3 8420.16 431.320   1
   4 -11  -3 8291.69 459.464   4
  -7  11  -3 8312.27 260.773   3
 -11   7  -3 8061.43 418.082   3
 -11   7  -3 8025.54 355.409   1
  -7  11  -3 7914.26 515.329   2
   7   4  -3 7893.81 515.434   1
   4 -11  -3 8250.28 381.036   1
  -4  -7  -3 7580.49 443.143   4
  -7  11  -3 8313.16 439.195   4
  11  -4  -3 8349.25 445.566   3
  -4  -7  -3 7295.46 473.495   3
  11  -4   0 954.428 232.901   1
 -11   7   0 737.899 229.547   4
  -4  -7   0 721.933 216.317   3
  -7  11   0 569.270 220.828   1
  -7  11   0 661.574 223.750   4
   7   4   0 919.242 252.722   3
   7   4   0 672.177 226.534   1
   4 -11   0 1119.29 253.632   2
  11  -4   0 516.280 237.871   3
   4 -11   0 990.055 250.876   4
 -11   7   0 711.188 202.133   3
 -11   7   0 1126.38 266.456   2
  -4  -7   0 1041.07 224.752   2
   4 -11   0 649.105 139.844   3
   7   4   0 932.932 221.575   2
  -4  -7   0 921.035 241.418   4
  -7  11   0 1043.50 247.658   2
 -11   7   0 750.144 257.168   1
   7   4   0 902.751 222.877   4
 -11   7   3 16551.9 692.087   1
  11  -4   3 15231.8 367.418   1
   7   4   3 13290.2 250.803   1
   4 -11   3 16563.5 690.449   2
 -11   7   3 15162.9 504.645   4
   4 -11   3 17012.7 563.157   4
  -7  11   3 15675.3 530.895   2
  -7  11   3 16675.0 622.151   1
  11  -4   3 14904.6 614.377   3
  -4  -7   3 15726.5 538.298   2
  -7  11   3 16024.1 580.152   4
   7   4   3 14412.4 641.169   3
  -4  -7   3 15903.7 509.383   4
 -11   7   3 16561.6 351.569   2
 -11   7   6 334.513 156.928   4
  -7  11   6 208.646 222.817   2
  -7  11   6 411.409 214.229   4
  -4  -7   6 254.548 120.762   4
  -7  11   9 1962.36 274.093   4
  -3  -8 -10 7018.55 811.263   3
  11  -3 -10 5378.46 640.518   1
 -11   8 -10 6115.73 685.823   3
 -11   8 -10 5817.63 502.122   1
 -11   8 -10 5418.21 493.933   4
  -8  11 -10 5969.75 455.897   4
  -8  11 -10 5575.54 571.199   1
 -11   8 -10 5551.87 753.572   2
  -8  11 -10 6227.41 614.751   3
   3 -11 -10 4624.31 435.100   1
  -8  11 -10 6224.99 697.731   2
   8   3 -10 5630.19 677.828   1
   3 -11 -10 5738.62 743.806   3
  -8  11  -7 2166.26 457.904   2
 -11   8  -7 2825.53 422.903   3
   8   3  -7 2158.72 195.446   2
  -3  -8  -7 2764.33 502.413   3
 -11   8  -7 2676.48 283.501   1
  -3  -8  -7 1914.08 169.156   1
  -8  11  -7 3518.39 365.438   4
  11  -3  -7 1679.00 410.964   1
   3 -11  -7 2444.29 476.859   3
 -11   8  -7 2759.23 363.647   4
   3 -11  -7 2331.91 309.460   1
   8   3  -7 2875.38 480.253   1
  -8  11  -7 2264.15 355.230   3
   3 -11  -4 10317.0 590.821   3
   3 -11  -4 10019.8 529.956   2
  -3  -8  -4 9892.02 580.656   3
  -8  11  -4 10585.2 389.045   3
 -11   8  -4 10949.4 505.657   3
   8   3  -4 9197.38 482.490   3
  -3  -8  -4 9212.33 506.407   4
 -11   8  -4 10266.6 405.903   1
   8   3  -4 10185.7 288.287   2
 -11   8  -4 9721.04 497.983   4
  -8  11  -4 10530.8 492.051   4
   3 -11  -4 9590.34 501.485   4
  -8  11  -4 10836.9 486.935   1
   3 -11  -4 9770.67 400.133   1
   8   3  -4 10511.0 607.774   1
  -8  11  -4 10422.7 634.877   2
  11  -3  -4 10252.1 578.027   1
  -3  -8  -1 3983.94 348.617   4
  -3  -8  -1 4709.80 368.882   2
  -8  11  -1 3952.58 373.386   2
 -11   8  -1 4532.66 285.951   3
  11  -3  -1 4125.38 337.531   1
 -11   8  -1 3987.73 354.662   4
  11  -3  -1 3512.66 325.932   3
   8   3  -1 4513.82 284.324   2
   8   3  -1 4486.91 352.864   1
  -8  11  -1 4084.68 343.389   4
  -8  11  -1 4326.24 335.521   1
  -3  -8  -1 4439.99 335.109   3
   3 -11  -1 3775.06 341.762   4
 -11   8  -1 4258.41 332.202   1
   3 -11  -1 3956.89 288.812   3
   3 -11  -1 4362.58 369.187   2
 -11   8  -1 3995.13 385.720   2
   8   3  -1 4286.59 341.074   3
   3 -11   2 35301.1 909.829   2
 -11   8   2 32728.1 853.752   1
  -3  -8   2 34389.8 650.466   3
  -3  -8   2 35493.6 778.670   4
   3 -11   2 35449.8 815.775   4
  11  -3   2 34280.7 865.636   3
 -11   8   2 33436.3 633.130   2
  -8  11   2 34904.5 831.220   1
   8   3   2 34396.0 525.729   1
  -3  -8   2 35611.4 786.140   2
 -11   8   2 33871.5 776.240   4
   8   3   2 33143.4 871.994   3
  11  -3   2 33684.7 551.846   1
  -8  11   2 35031.3 838.655   4
  -8  11   2 33274.0 741.313   2
  -3  -8   5 10840.2 533.853   2
  -3  -8   5 11117.9 396.948   4
   3 -11   5 11210.9 459.954   4
  -8  11   5 10818.5 490.265   4
 -11   8   5 10772.2 428.130   4
 -11   8   5 9799.01 319.116   2
  -8  11   5 11772.9 508.644   2
 -11   8   8 1788.36 163.618   4
  -8  11   8 2194.73 266.347   4
   2 -11 -11 7114.59 894.748   3
  -2  -9 -11 7987.73 880.075   3
  -9  11 -11 7190.57 710.625   3
  11  -2 -11 7361.18 766.172   1
 -11   9 -11 6389.09 844.892   2
  -9  11 -11 6159.65 608.706   1
  -9  11 -11 6095.71 782.571   2
 -11   9 -11 7827.73 758.592   3
   9   2 -11 7645.86 813.551   1
   2 -11  -8 9089.63 467.453   1
   2 -11  -8 10301.6 830.491   3
  11  -2  -8 10445.2 741.471   1
  -9  11  -8 9652.60 610.571   3
 -11   9  -8 10464.0 680.290   3
 -11   9  -8 10056.0 587.943   4
  -9  11  -8 10883.4 587.274   4
 -11   9  -8 8509.58 765.533   2
  -9  11  -8 9596.71 770.381   2
   9   2  -8 8655.20 696.220   1
   9   2  -8 6414.61 265.338   2
  -2  -9  -8 10680.9 829.632   3
  -2  -9  -8 7824.09 323.396   1
   9   2  -8 6572.41 251.917   2
  11  -2  -5 13156.5 684.410   1
  -9  11  -5 13019.4 549.782   1
  -9  11  -5 13142.5 511.107   3
   2 -11  -5 12011.7 589.055   4
   9   2  -5 9977.11 230.883   2
 -11   9  -5 13797.3 492.415   1
 -11   9  -5 12970.0 588.671   4
 -11   9  -5 12318.3 775.993   2
  -9  11  -5 12440.9 716.044   2
  -9  11  -5 13347.7 572.775   4
   2 -11  -5 13188.6 461.095   1
  -2  -9  -5 12219.9 674.902   3
   9   2  -5 13231.5 696.149   1
 -11   9  -5 12911.7 564.602   3
   2 -11  -5 12997.5 707.930   3
   2 -11  -2 10144.5 520.343   4
 -11   9  -2 10044.3 394.011   3
  -9  11  -2 10706.0 273.257   3
   9   2  -2 9329.42 464.050   3
  -9  11  -2 10387.5 489.597   4
 -11   9  -2 10564.8 509.643   4
 -11   9  -2 10206.7 443.257   1
   2 -11  -2 11222.9 482.483   3
   9   2  -2 10289.3 336.732   2
  -9  11  -2 10918.9 597.486   2
  -2  -9  -2 10508.2 497.652   3
 -11   9  -2 10391.6 612.935   2
  11  -2  -2 10071.9 510.522   1
  -2  -9  -2 10793.7 537.432   4
   9   2  -2 9518.74 497.889   1
   2 -11  -2 11331.5 527.553   2
  -9  11  -2 10557.1 457.282   1
  11  -2  -2 9143.41 462.114   3
  -2  -9  -2 9177.46 491.145   2
  11  -2   1 36318.8 892.946   3
   2 -11   1 39232.5 892.094   4
   9   2   1 37124.5 669.987   1
   9   2   1 37199.0 888.648   3
   2 -11   1 36029.5 451.675   3
  -2  -9   1 37558.9 665.329   3
  11  -2   1 37097.6 677.941   1
  -9  11   1 36726.5 866.250   4
  -2  -9   1 37944.4 853.840   4
  -2  -9   1 38694.0 847.925   2
  -9  11   1 36010.2 825.805   2
 -11   9   1 37427.9 850.202   4
 -11   9   1 37651.9 893.405   1
   2 -11   1 39180.7 920.331   2
  -9  11   1 37649.3 854.742   1
 -11   9   1 37801.0 795.523   2
  -9  11   4 16686.5 543.088   2
 -11   9   4 16754.7 435.186   2
   2 -11   4 17555.1 563.188   4
   2 -11   4 17837.4 736.099   2
  -2  -9   4 16941.4 642.502   2
  -2  -9   4 16733.1 532.805   4
  -9  11   4 17066.7 592.216   4
 -11   9   4 15587.3 535.920   4
 -11   9   7 16707.0 505.845   4
  -9  11   7 16360.8 586.804   4
 -10  11  -9 2214.37 448.223   3
   1 -11  -9 3109.55 622.001   3
 -11  10  -9 2552.56 465.859   3
 -10  11  -9 2223.05 393.354   1
  -1 -10  -9 1803.38 240.280   1
   1 -11  -9 2034.76 294.649   1
 -10  11  -9 1868.91 506.285   2
  -1 -10  -9 3875.58 687.616   3
  11  -1  -9 2040.72 498.123   1
 -11  10  -9 1994.76 359.960   1
 -10  11  -9 2493.46 407.939   4
 -11  10  -9 1827.23 370.523   4
 -11  10  -9 1935.16 527.866   2
  10   1  -9 2657.56 522.158   1
  -1 -10  -6 1627.36 423.947   3
  -1 -10  -6 1760.89 209.619   1
  11  -1  -6 2081.60 423.715   1
 -11  10  -6 1792.60 324.866   3
 -10  11  -6 1525.44 424.172   2
 -11  10  -6 1111.32 394.160   2
   1 -11  -6 1338.58 220.064   1
 -11  10  -6 2066.11 323.322   4
 -11  10  -6 1063.00 232.707   1
 -10  11  -6 1102.36 275.717   3
 -10  11  -6 1453.73 282.913   4
  10   1  -6 1501.75 402.740   1
   1 -11  -6 856.018 368.218   3
   1 -11  -3 6397.30 452.845   2
 -10  11  -3 6503.37 514.195   2
  -1 -10  -3 6209.73 445.088   2
  11  -1  -3 7037.30 504.555   1
 -10  11  -3 7359.07 320.992   3
  -1 -10  -3 6818.63 474.467   3
   1 -11  -3 6339.88 435.100   3
   1 -11  -3 6651.21 452.048   4
  10   1  -3 5919.91 396.699   3
 -11  10  -3 6855.89 549.093   2
 -11  10  -3 6158.70 366.036   1
 -11  10  -3 6099.24 402.992   4
  -1 -10  -3 6805.47 448.894   4
 -11  10  -3 7304.18 363.001   3
  10   1  -3 6450.31 475.967   1
 -10  11  -3 6408.51 378.838   1
 -10  11  -3 6008.87 407.910   4
   1 -11   0 88.5459 231.698   2
 -11  10   0 127.765 223.181   2
   1 -11   0 86.0294 159.065   3
  11  -1   0-132.986 253.529   3
  10   1   0-151.237 239.139   3
 -10  11   0 236.139 227.954   4
  -1 -10   0 310.556 183.474   3
 -11  10   0-50.4135 244.824   1
  10   1   0 309.440 231.684   1
  -1 -10   0 62.3864 233.174   4
 -11  10   0 87.8161 217.697   4
  -1 -10   0 107.366 217.469   2
   1 -11   0-113.753 235.453   4
 -10  11   0 191.638 225.472   2
 -10  11   0 99.8574 237.364   1
  11  -1   0 418.738 230.576   1
   1 -11   3 5031.84 355.331   4
  -1 -10   3 4689.94 336.819   4
  11  -1   3 4112.85 179.367   1
 -10  11   3 5258.40 451.106   1
  10   1   3 4555.79 442.964   3
 -11  10   3 4335.18 424.838   1
  -1 -10   3 4873.55 386.794   2
  11  -1   3 4126.84 415.435   3
  10   1   3 3494.25 147.499   1
 -10  11   3 4712.68 359.339   4
 -11  10   3 4330.65 271.578   2
 -11  10   3 4727.31 353.126   4
   1 -11   3 5111.44 418.617   2
 -10  11   3 4071.16 295.218   2
  -1 -10   6 877.124 191.567   4
 -10  11   6 670.291 234.590   2
   1 -11   6 606.948 179.433   4
 -11  10   6 972.064 223.174   4
 -10  11   6 509.944 206.737   4
 -10  11   9 4973.27 319.596   4
 -11  10   9 4103.88 253.447   4
 -11  11 -10 2682.54 494.579   3
   0 -11 -10 1569.34 603.509   3
 -11  11 -10 2639.25 439.312   4
  11   0 -10 2223.26 552.545   1
 -11  11 -10 1833.55 414.456   1
 -11  11 -10 2016.11 549.639   2
   0 -11  -7-363.457 411.743   3
  11   0  -7-267.841 365.734   1
 -11  11  -7-386.952 364.318   2
   0 -11  -7-77.3888 186.914   1
 -11  11  -7 458.158 299.817   3
 -11  11  -7 177.410 246.622   4
   0 -11  -4 13000.2 650.263   3
 -11  11  -4 13605.3 499.021   3
 -11  11  -4 13549.8 524.423   1
 -11  11  -4 13461.9 750.980   2
 -11  11  -4 12134.1 564.935   4
  11   0  -4 11214.5 623.909   1
 -11  11  -1 74.1244 243.114   1
   0 -11  -1-73.9783 230.693   2
  11   0  -1 258.290 255.155   1
   0 -11  -1 292.668 200.291   3
  11   0  -1 264.917 244.738   3
 -11  11  -1 67.8106 150.264   3
 -11  11  -1-76.7946 216.164   4
   0 -11  -1 257.641 249.969   4
 -11  11  -1-202.974 269.420   2
 -11  11   2 7088.12 383.595   2
  11   0   2 6178.71 475.415   3
  11   0   2 7257.85 297.783   1
   0 -11   2 7200.16 453.338   2
 -11  11   2 7268.19 489.522   1
 -11  11   2 6606.72 422.966   4
   0 -11   2 7788.18 436.799   4
   0 -11   5 109.478 182.733   4
 -11  11   5-38.3191 184.435   4
   0 -11   5-203.179 287.433   2
 -11  11   5 104.810 175.734   2
 -11  11   8 2901.10 291.219   4
  12 -12  -9 543.106 414.552   1
 -12   0  -9-425.479 465.167   3
   0  12  -9-253.172 422.193   1
   0  12  -9-204.005 355.778   3
   0  12  -9-291.888 296.174   2
 -12   0  -6 10831.2 721.605   3
   0  12  -6 10510.3 475.029   3
   0  12  -6 11895.5 501.197   4
   0  12  -6 12593.0 787.845   1
  12 -12  -6 10815.3 544.132   4
  12 -12  -6 11588.6 643.403   1
  12 -12  -6 9394.57 459.334   2
   0  12  -6 11870.7 619.748   2
 -12   0  -3-204.359 132.247   1
   0  12  -3-208.074 206.603   4
 -12   0  -3-220.575 255.246   3
  12 -12  -3-387.587 210.696   4
  12 -12  -3 15.4588 240.947   1
   0  12  -3 122.869 158.673   3
  12 -12  -3-63.4137 203.156   2
   0  12  -3-78.2043 208.238   2
   0  12   0 1347.93 229.659   3
  12 -12   0 1203.76 266.038   4
   0  12   0 1422.75 255.260   2
  12 -12   0 1211.86 197.461   3
 -12   0   0 836.008 253.335   3
 -12   0   0 1168.32 240.055   2
  12 -12   0 1136.79 239.524   1
  12 -12   0 1429.30 288.474   2
   0  12   0 1572.25 281.365   4
 -12   0   0 1078.38 274.323   1
 -12   0   3 9.56913 93.7875   2
   0  12   3-45.5297 220.293   2
   0  12   3 56.0358 279.621   3
  12 -12   3-57.2070 198.693   3
   0  12   3-160.795 187.926   1
   0  12   3 539.507 274.694   4
 -12   0   3-180.297 185.157   4
   0  12   6 10503.1 473.856   1
   0  12   6 9601.49 651.265   2
   0  12   6 10283.3 578.872   4
  -1  12 -10 7232.69 655.500   3
 -11  -1 -10 8946.10 873.089   3
  -1  12 -10 7212.71 735.763   1
  12 -11 -10 7331.97 669.228   1
 -12   1 -10 7167.27 787.626   3
  11 -12 -10 7766.63 881.487   3
  -1  12 -10 7820.68 649.841   2
   1  11 -10 7172.34 770.885   1
   1  11 -10 7366.46 624.083   2
  11 -12 -10 7083.52 628.821   1
   1  11 -10 7115.27 671.471   3
 -11  -1  -7 14282.5 849.814   3
 -12   1  -7 15032.0 847.131   3
   1  11  -7 16126.4 891.546   1
   1  11  -7 14521.7 685.481   2
   1  11  -7 15575.1 506.141   4
  11 -12  -7 14510.5 728.391   1
  -1  12  -7 15037.4 535.034   4
  12 -11  -7 11293.3 473.605   2
  -1  12  -7 14871.5 733.471   2
  12 -11  -7 14918.1 757.226   1
  -1  12  -7 16298.8 890.181   1
  11 -12  -7 14056.4 598.308   4
  11 -12  -7 11815.0 538.788   2
   1  11  -4 17768.6 656.441   2
  -1  12  -4 17608.4 696.202   2
  12 -11  -4 15932.3 522.909   2
  -1  12  -4 17613.0 602.032   4
  -1  12  -4 16882.0 440.338   3
 -12   1  -4 16177.4 732.498   3
 -11  -1  -4 15804.7 724.084   3
  11 -12  -4 16191.3 650.029   1
   1  11  -4 16663.7 495.147   3
   1  11  -4 17437.0 584.445   4
  11 -12  -4 16084.5 571.243   2
  11 -12  -4 16581.0 617.584   4
  12 -11  -4 16707.7 670.001   1
  12 -11  -4 16788.7 610.749   4
  12 -11  -1 39384.3 744.538   3
  -1  12  -1 39046.8 612.182   3
   1  11  -1 39725.9 706.082   3
  12 -11  -1 37943.8 872.518   1
  -1  12  -1 39243.2 914.803   4
  11 -12  -1 35738.3 838.826   1
 -11  -1  -1 34634.1 889.668   3
 -12   1  -1 38552.7 934.736   3
  12 -11  -1 39638.3 927.281   4
 -11  -1  -1 40486.0 914.230   2
   1  11  -1 40149.1 919.999   4
 -11  -1  -1 40210.0 963.592   4
  11 -12  -1 41168.1 719.169   3
 -12   1  -1 39182.0 916.750   2
  11 -12  -1 41148.1 970.795   4
 -11  -1  -1 38024.3 753.043   1
  11 -12  -1 40012.8 954.039   2
  12 -11  -1 38509.9 913.084   2
 -12   1  -1 38192.7 775.608   1
  -1  12  -1 35715.7 877.419   2
   1  11  -1 38266.4 870.763   2
   1  11   2 24060.0 750.829   3
  11 -12   2 23391.7 502.010   3
  12 -11   2 23898.8 598.096   3
  -1  12   2 23592.8 711.303   3
   1  11   2 20742.7 712.556   2
 -11  -1   2 23220.8 736.630   3
 -12   1   2 23883.7 748.007   3
  12 -11   2 25823.2 673.367   1
  -1  12   2 24791.9 615.788   1
  11 -12   2 22202.1 847.889   2
 -11  -1   2 23566.7 671.858   4
 -11  -1   2 22608.3 786.253   1
  -1  12   2 24451.3 783.245   4
   1  11   2 25536.3 599.610   1
 -12   1   2 24869.6 476.504   2
 -12   1   2 24867.9 825.232   1
 -11  -1   2 24985.2 512.096   2
  -1  12   2 23259.8 740.368   2
   1  11   2 24593.4 781.035   4
  11 -12   2 25177.2 779.650   4
  -1  12   5 8394.98 540.089   2
   1  11   5 8841.54 394.254   1
  -1  12   5 8873.04 436.206   1
   1  11   5 8073.06 545.738   2
   1  11   5 8630.70 524.330   4
  12 -11   5 8634.21 519.461   3
  -1  12   5 8754.94 522.264   4
 -11  -1   5 7990.80 344.125   4
 -12   1   5 7798.42 346.715   4
   1  11   8 2638.05 322.971   1
  -1  12   8 2485.57 368.131   1
   1  11   8 2334.87 392.086   4
  -1  12   8 2636.93 378.721   4
  12 -10 -11 1504.89 641.060   3
  10 -12 -11 1267.51 644.992   3
  -2  12 -11 1410.22 439.035   3
   2  10 -11 1666.28 569.047   1
 -10  -2 -11 1720.35 629.986   3
  12 -10 -11 1794.97 510.617   1
 -12   2 -11 1086.62 551.895   3
  -2  12 -11 2616.97 563.814   1
   2  10 -11 1989.56 493.579   3
  10 -12 -11 1770.40 440.281   1
  -2  12 -11 2214.72 488.614   2
   2  10 -11 1648.34 394.909   2
  -2  12  -8 1682.65 242.823   4
  12 -10  -8 1547.28 404.060   1
  10 -12  -8 1393.54 281.441   4
  -2  12  -8 2054.26 466.232   1
  -2  12  -8 1606.76 374.033   2
 -12   2  -8 1697.15 476.558   3
  10 -12  -8 1746.58 390.648   1
 -10  -2  -8 1692.12 467.220   3
   2  10  -8 1298.52 147.739   4
   2  10  -8 1433.93 496.276   1
  -2  12  -8 2007.56 396.102   3
   2  10  -8 1677.56 324.611   2
  12 -10  -8 1013.20 212.855   2
   2  10  -5 5425.29 335.439   4
  12 -10  -5 5419.73 463.171   1
  -2  12  -5 5582.00 368.821   4
  -2  12  -5 5899.76 316.036   3
 -12   2  -5 5625.74 495.025   3
  10 -12  -5 5750.41 442.266   1
   2  10  -5 5844.49 361.700   3
 -10  -2  -5 5371.96 504.664   3
  12 -10  -5 4990.22 296.941   2
  -2  12  -5 5595.65 453.583   2
   2  10  -5 5329.57 390.361   2
   2  10  -5 6011.30 553.532   1
  10 -12  -5 5327.42 379.364   2
  10 -12  -5 5517.36 382.588   4
  12 -10  -2 11730.1 533.757   1
  -2  12  -2 10859.6 523.030   2
  -2  12  -2 11943.4 293.976   3
  12 -10  -2 11630.3 481.002   2
   2  10  -2 12010.8 431.293   3
 -12   2  -2 11450.7 552.095   3
  10 -12  -2 12144.4 525.558   2
  10 -12  -2 12463.3 529.546   1
 -10  -2  -2 11078.3 543.991   2
 -10  -2  -2 11396.6 569.130   3
  10 -12  -2 11998.7 527.545   4
  12 -10  -2 12005.2 488.872   3
   2  10  -2 12212.8 503.885   2
   2  10  -2 12870.6 510.781   4
 -10  -2  -2 11802.8 564.730   4
  -2  12  -2 12010.0 519.235   4
 -12   2  -2 11984.3 420.455   1
  -2  12   1 10214.2 489.847   2
  12 -10   1 10610.1 441.290   1
 -12   2   1 10164.3 513.957   1
   2  10   1 10281.0 491.917   2
  10 -12   1 10080.2 563.562   2
  -2  12   1 11247.9 451.094   1
  10 -12   1 11702.9 337.969   3
 -10  -2   1 11522.3 408.981   2
  10 -12   1 10965.7 472.721   1
 -10  -2   1 10702.7 509.085   3
 -12   2   1 10636.9 389.946   2
 -12   2   1 10252.5 492.001   3
   2  10   1 10436.9 471.969   3
  12 -10   1 10751.0 438.117   3
  10 -12   1 11545.0 541.243   4
 -10  -2   1 10563.4 517.014   1
   2  10   1 10188.3 511.897   4
  -2  12   1 10218.9 518.121   4
  -2  12   1 10318.6 437.262   3
 -10  -2   1 10826.8 493.976   4
   2  10   4 2750.70 335.833   4
  -2  12   4 2440.36 333.514   2
  12 -10   4 2274.64 295.307   3
 -10  -2   4 2266.08 241.759   4
 -10  -2   4 1447.54 135.971   2
   2  10   4 2442.97 348.365   2
  -2  12   4 2291.65 264.197   1
   2  10   4 2375.58 216.256   1
  -2  12   4 2433.08 317.743   4
   2  10   7 946.299 218.805   1
  -2  12   7 1686.61 335.078   1
 -12   2   7 440.900 66.3506   4
  -2  12   7 1437.87 305.902   4
   2  10   7 1283.50 304.575   4
  12  -9  -9 399.016 405.163   1
  -3  12  -9 110.567 328.836   3
 -12   3  -9 290.045 430.141   3
   9 -12  -9 277.136 466.488   3
  -9  -3  -9 511.576 482.652   3
  -3  12  -9 2.21850 175.760   4
   9 -12  -9 145.387 329.667   1
   3   9  -9 488.628 275.241   2
  -3  12  -9-99.4655 311.320   2
   3   9  -9-571.056 459.046   1
  -3  12  -9-2.12563 390.067   1
  -9  -3  -6 4873.03 536.756   3
  -3  12  -6 5514.51 418.585   3
   9 -12  -6 4815.44 367.225   4
   9 -12  -6 5391.17 462.248   1
  12  -9  -6 4968.54 479.722   1
 -12   3  -6 5808.77 535.327   3
   3   9  -6 5256.95 303.352   4
  12  -9  -6 4015.53 240.604   2
  -3  12  -6 5391.87 360.500   4
   3   9  -6 5250.74 380.892   2
   9 -12  -6 4593.00 381.671   2
  -3  12  -6 5566.26 489.905   2
   3   9  -6 5507.13 546.469   1
  -3  12  -3 370.782 225.726   2
  12  -9  -3 458.571 279.177   1
   9 -12  -3 479.575 243.003   1
   3   9  -3 326.589 172.528   3
 -12   3  -3 9.49210 244.902   3
  12  -9  -3 65.2402 162.679   2
  -3  12  -3 255.737 88.8193   3
 -12   3  -3 252.634 166.447   1
  12  -9  -3 308.912 218.368   3
  -9  -3  -3 208.001 227.367   4
   9 -12  -3 187.378 214.307   4
   3   9  -3 469.253 201.552   2
  -3  12  -3 338.695 216.516   4
   3   9  -3 573.594 203.651   4
  -9  -3  -3 680.506 278.210   3
   9 -12  -3 63.6699 202.227   2
   3   9   0 9016.10 452.148   2
   3   9   0 8896.80 428.759   3
  12  -9   0 9603.85 442.328   1
  12  -9   0 9401.56 408.061   3
  -9  -3   0 9627.10 423.675   2
  -9  -3   0 8614.94 464.351   4
   9 -12   0 9484.76 458.749   1
 -12   3   0 9228.86 454.585   3
   9 -12   0 9762.84 290.235   3
  -3  12   0 8293.14 320.195   3
   9 -12   0 10285.2 528.012   2
  -3  12   0 9610.01 446.836   1
  -9  -3   0 9969.65 492.368   3
  -3  12   0 9586.77 496.978   4
   3   9   0 9781.99 482.586   4
 -12   3   0 9707.18 469.741   1
   9 -12   0 9303.96 475.721   4
  -3  12   0 8788.54 459.911   2
   3   9   3 360.547 156.101   1
   3   9   3 825.748 307.800   3
   9 -12   3 529.762 151.259   3
  12  -9   3 730.634 229.999   3
  -3  12   3 582.930 234.180   1
  -3  12   3 845.978 236.177   2
  -3  12   3 981.946 244.177   4
   3   9   3 529.947 242.548   2
   9 -12   3 842.469 253.290   4
  -9  -3   3 869.662 169.414   2
  -9  -3   3 656.651 196.343   4
   3   9   3 629.841 258.441   4
 -12   3   6 5830.12 266.361   4
  -3  12   6 6998.77 522.829   2
   3   9   6 6586.69 296.915   1
 -12   3   6 5233.60 254.148   4
  -9  -3   6 4574.60 218.045   4
  -3  12   6 6559.28 446.643   4
   3   9   6 7194.27 501.491   4
  -3  12   6 6317.32 429.143   1
  -3  12   9 773.606 289.589   4
  -8  -4 -10 1322.24 518.004   3
   4   8 -10 545.503 445.514   1
  -4  12 -10 2059.66 450.510   2
 -12   4 -10 1219.52 489.155   3
   8 -12 -10 1568.45 566.607   3
  -4  12 -10 1868.17 462.685   3
  -4  12 -10 1005.98 410.137   1
   4   8 -10 1075.17 317.511   2
   8 -12 -10 951.478 390.625   1
  12  -8 -10 1233.81 471.850   1
  -4  12  -7 17110.9 700.827   3
   4   8  -7 16989.8 637.272   2
  -8  -4  -7 17400.1 918.616   3
 -12   4  -7 17163.1 856.365   3
  12  -8  -7 16399.4 795.653   1
 -12   4  -7 13057.2 362.718   1
 -12   4  -7 13029.6 317.885   1
   8 -12  -7 17796.8 718.970   1
   8 -12  -7 15028.9 622.655   4
  -4  12  -7 17137.9 839.665   2
   4   8  -7 18136.7 931.886   1
  -4  12  -7 17575.5 604.299   4
   8 -12  -7 14408.8 850.204   3
  -8  -4  -4 14612.2 692.995   3
   8 -12  -4 14769.6 579.229   1
 -12   4  -4 16424.3 410.487   1
   4   8  -4 14355.5 515.565   3
  12  -8  -4 12288.2 351.273   2
   4   8  -4 14894.8 491.966   4
  12  -8  -4 16060.7 690.855   1
  -4  12  -4 15541.7 702.290   2
  -4  12  -4 14663.4 550.075   4
   8 -12  -4 15147.3 579.329   2
  -4  12  -4 14417.8 413.520   3
   4   8  -4 15253.2 521.385   2
   4   8  -4 16056.0 745.427   1
 -12   4  -4 14124.8 639.381   3
   8 -12  -4 15009.9 581.621   4
 -12   4  -1 59805.9 955.552   1
   4   8  -1 57778.5 972.948   2
  -4  12  -1 62055.8 1054.04   1
   8 -12  -1 61874.2 1146.65   2
  -4  12  -1 58392.4 1083.66   4
  -8  -4  -1 61848.8 1065.16   2
  -8  -4  -1 57174.1 1086.34   3
   8 -12  -1 62286.6 1116.65   4
   4   8  -1 59339.7 944.254   3
 -12   4  -1 58802.4 1049.91   3
  -4  12  -1 59655.1 1126.18   2
  12  -8  -1 58323.2 1017.31   1
  -8  -4  -1 57684.5 1092.99   4
   4   8  -1 58564.2 1035.81   4
  12  -8  -1 58257.3 948.406   3
   8 -12  -1 59089.6 1005.47   1
   4   8   2 2125.85 334.418   3
  -8  -4   2 1856.87 282.811   3
  12  -8   2 2164.55 291.822   3
   4   8   2 2392.54 301.110   2
 -12   4   2 2151.55 207.894   2
   8 -12   2 2557.68 310.785   4
  -8  -4   2 2522.76 230.684   2
 -12   4   2 2407.46 310.328   3
   8 -12   2 2260.19 361.677   2
  -4  12   2 2223.44 277.473   2
  -4  12   2 2591.52 325.068   4
   4   8   2 2327.08 302.655   4
  -8  -4   2 2153.56 263.934   4
  12  -8   2 2104.36 237.819   1
 -12   4   2 2531.84 373.983   1
  -4  12   2 2506.19 285.777   1
  12  -8   5 29066.7 920.024   3
   4   8   5 28561.0 461.394   1
 -12   4   5 27919.8 603.259   4
  -4  12   5 29147.6 881.335   2
  -4  12   5 29998.3 799.306   1
  -8  -4   5 28190.3 576.562   4
  -4  12   5 28945.4 835.039   4
   4   8   5 28844.0 873.239   4
  -4  12   8 733.897 293.417   4
   7 -12 -11 9466.24 969.326   3
 -12   5 -11 7883.91 828.821   3
   5   7 -11 6846.13 755.485   1
  12  -7 -11 6814.55 724.478   1
  -5  12 -11 7517.41 761.258   2
  -5  12 -11 7289.29 677.534   1
  -5  12 -11 7129.94 675.920   3
 -12   5 -11 4910.24 496.875   4
   7 -12 -11 6544.93 603.777   1
  -7  -5 -11 7373.11 869.327   3
   5   7  -8 2167.01 460.011   1
  -7  -5  -8 2494.12 522.845   3
   7 -12  -8 1667.44 306.439   4
   7 -12  -8 1877.95 479.363   3
 -12   5  -8 1949.89 432.617   3
  -5  12  -8 1822.54 368.878   3
  -5  12  -8 1697.83 264.341   4
   7 -12  -8 2059.10 388.060   1
   5   7  -8 2054.74 291.617   2
  12  -7  -8 668.438 106.072   2
 -12   5  -8 1773.66 228.621   1
 -12   5  -8 1393.17 178.817   1
  -5  12  -8 2116.44 440.246   1
  -5  12  -8 1773.46 407.759   2
  12  -7  -8 2037.62 447.125   1
  -5  12  -5 40322.2 799.195   3
 -12   5  -5 40175.6 1066.98   3
  12  -7  -5 40361.0 1087.46   1
   5   7  -5 36892.4 881.709   3
   7 -12  -5 41604.8 943.593   1
   7 -12  -5 40323.2 945.835   4
  -5  12  -5 40882.0 1147.50   2
  -7  -5  -5 38799.3 1147.77   3
   5   7  -5 42802.3 1221.57   1
  -5  12  -5 41621.4 918.978   4
 -12   5  -5 40616.7 619.298   1
   5   7  -5 39542.4 797.100   2
   7 -12  -5 39647.3 965.099   2
   5   7  -5 40893.4 719.188   4
   7 -12  -5 37829.3 1143.96   3
  -7  -5  -2 4335.98 371.690   2
   5   7  -2 3855.11 283.294   2
  12  -7  -2 4384.61 330.883   3
  12  -7  -2 3642.28 359.358   1
   7 -12  -2 4504.43 362.720   4
 -12   5  -2 4516.57 309.229   1
   7 -12  -2 4050.96 321.692   1
  -5  12  -2 3923.41 370.036   2
   5   7  -2 4071.11 314.542   3
  -5  12  -2 4606.62 355.593   4
   5   7  -2 4257.66 411.935   1
   7 -12  -2 4449.65 352.107   2
 -12   5  -2 4443.82 365.228   3
  -7  -5  -2 4000.55 370.449   4
   5   7  -2 4214.15 313.716   4
  -7  -5  -2 4267.82 381.721   3
  -7  -5   1 15347.7 491.885   2
 -12   5   1 14877.6 601.377   1
   5   7   1 15376.7 580.808   3
  12  -7   1 15112.0 483.384   1
  12  -7   1 15529.9 552.164   3
   5   7   1 15386.4 578.013   2
   7 -12   1 15576.5 589.716   4
   5   7   1 16114.6 598.289   4
  -7  -5   1 15462.0 549.966   3
 -12   5   1 15255.6 545.209   3
  -5  12   1 15609.4 541.058   1
  -7  -5   1 15166.0 544.181   4
  -5  12   1 14721.4 585.040   4
   7 -12   1 15909.3 660.295   2
  -5  12   1 15512.4 559.386   2
  12  -7   4 8103.67 507.373   3
 -12   5   4 7566.27 371.460   4
   5   7   4 6905.83 221.815   1
   5   7   4 8238.59 495.473   4
  -5  12   4 8188.59 463.820   4
  -7  -5   4 8534.68 385.914   2
  -5  12   4 8073.94 456.981   1
   7 -12   4 8843.12 459.553   4
  -7  -5   4 8253.28 364.439   4
  -5  12   4 7982.73 453.818   2
  -5  12   7 10007.4 532.254   4
 -12   5   7 7503.40 254.790   4
 -12   6  -9-22.4892 232.649   1
  -6  12  -9 211.462 219.392   4
 -12   6  -9 80.8241 281.228   4
   6 -12  -9 438.324 456.689   3
  -6  -6  -9-178.804 442.180   3
 -12   6  -9 367.834 418.067   3
  -6  12  -9-375.186 349.720   1
   6   6  -9 77.4812 217.983   2
  -6  12  -9-33.9008 360.656   2
  12  -6  -9-477.413 425.932   1
   6 -12  -9-234.996 303.979   1
  -6  12  -9-430.343 356.015   3
   6   6  -9-69.3065 417.721   1
  -6  12  -6 8261.40 459.994   3
   6 -12  -6 8914.31 481.279   1
  -6  -6  -6 8185.58 630.347   3
  12  -6  -6 7677.08 575.605   1
   6   6  -6 8524.86 648.215   1
 -12   6  -6 7435.84 314.182   1
  -6  12  -6 8810.96 643.617   2
   6 -12  -6 7002.63 456.114   4
  -6  12  -6 8836.51 470.723   4
   6   6  -6 8023.95 373.964   2
 -12   6  -6 7734.18 548.165   3
   6 -12  -6 7885.73 650.382   3
   6 -12  -3 586.568 240.580   2
   6 -12  -3 511.396 280.825   3
  -6  12  -3 487.836 85.1748   3
   6 -12  -3 634.207 225.463   1
  -6  -6  -3 866.579 315.527   3
 -12   6  -3 688.044 202.071   1
  -6  12  -3 678.311 233.175   4
 -12   6  -3 492.677 250.612   3
  12  -6  -3 231.360 270.615   1
  -6  -6  -3 716.554 267.183   2
   6   6  -3 270.864 199.271   3
  12  -6  -3 366.571 226.799   3
   6   6  -3 768.016 308.632   1
  -6  12  -3 582.330 276.106   2
  -6  -6  -3 773.002 261.717   4
   6 -12  -3 592.852 239.543   4
   6   6  -3 973.652 201.484   4
   6   6  -3 624.406 177.028   2
  -6  -6   0 63151.9 1029.26   2
   6   6   0 60117.0 1059.89   4
   6   6   0 59176.6 1028.36   3
 -12   6   0 59377.7 1023.48   1
  -6  -6   0 60570.3 1024.49   3
  12  -6   0 58468.6 1010.86   3
   6   6   0 60303.5 993.491   1
   6 -12   0 63028.3 1126.48   4
 -12   6   0 59312.9 980.293   3
   6 -12   0 59550.5 640.115   3
  12  -6   0 58717.4 940.308   1
  -6  -6   0 59486.1 1069.29   4
   6   6   0 60048.2 1012.44   2
  -6  12   0 59403.0 1110.09   4
   6 -12   0 62890.7 1180.09   2
  -6  12   0 59914.8 1092.28   2
  -6  12   0 61261.6 1015.00   1
  -6  12   3 643.394 236.022   2
   6 -12   3 627.070 214.179   4
   6   6   3 227.198 309.555   3
 -12   6   3 366.537 307.645   1
  12  -6   3 654.802 164.303   1
 -12   6   3 993.574 219.221   4
   6   6   3 980.849 274.688   2
   6   6   3 1100.42 272.633   4
   6 -12   3 895.680 325.769   2
  -6  12   3 1324.24 280.032   4
  -6  -6   3 1050.11 220.461   2
 -12   6   3 748.102 102.603   2
  -6  -6   3 634.785 206.169   4
   6   6   3 637.702 118.621   1
  12  -6   3 589.638 271.103   3
  -6  12   3 717.891 259.692   1
  -6  12   6 7867.31 520.879   2
 -12   6   6 7902.39 333.080   4
  -6  12   6 8233.01 459.849   4
  -6  12   9 164.267 236.645   4
  -5  -7 -10 552.687 526.288   3
   5 -12 -10 867.994 536.953   3
  -7  12 -10 991.990 386.677   3
  12  -5 -10 665.224 461.047   1
   7   5 -10 900.919 489.353   1
  -7  12 -10 578.587 332.748   1
 -12   7 -10 1239.35 492.506   3
 -12   7 -10 1118.91 364.875   4
  -7  12 -10 834.217 404.547   2
   5 -12 -10 556.392 337.978   1
   5 -12  -7 11378.1 791.725   3
  -7  12  -7 11213.0 744.559   2
  -7  12  -7 11284.8 604.985   3
 -12   7  -7 11566.8 689.057   3
  -5  -7  -7 11244.1 776.143   3
   5 -12  -7 11626.0 560.506   1
   7   5  -7 10942.8 746.731   1
  12  -5  -7 10085.7 662.411   1
  -7  12  -7 10393.6 540.543   4
 -12   7  -7 10182.7 406.938   1
   7   5  -7 10840.0 419.068   2
  -5  -7  -4 7206.82 522.380   3
 -12   7  -4 7897.39 463.923   3
  12  -5  -4 7986.34 523.000   1
   5 -12  -4 8304.46 481.373   2
   7   5  -4 9070.84 604.924   1
   7   5  -4 7332.56 433.768   3
   5 -12  -4 7662.66 532.523   3
  -7  12  -4 8663.10 323.510   3
   5 -12  -4 8035.47 407.793   1
 -12   7  -4 7829.19 351.682   1
  -7  12  -4 7777.56 552.729   2
  -7  12  -4 8321.89 464.264   4
   5 -12  -4 8453.57 487.804   4
   7   5  -4 8380.82 324.121   2
   5 -12  -1 17924.2 567.310   1
   5 -12  -1 17545.6 491.936   3
  -7  12  -1 17676.9 670.421   2
   7   5  -1 17491.2 575.358   4
  -5  -7  -1 17621.5 589.608   3
 -12   7  -1 17543.8 539.354   3
  -7  12  -1 18973.4 602.324   1
  12  -5  -1 17078.0 574.459   3
  12  -5  -1 16987.6 611.301   1
 -12   7  -1 17748.8 571.492   1
   7   5  -1 18486.0 630.698   1
  -7  12  -1 17669.5 631.929   4
   7   5  -1 18433.0 534.508   2
  -5  -7  -1 17334.4 618.457   4
   5 -12  -1 18456.3 641.683   2
   7   5  -1 17389.8 580.951   3
   5 -12  -1 18314.2 637.783   4
  -5  -7  -1 18930.5 627.137   2
  -7  12   2 4134.39 351.159   4
 -12   7   2 3795.45 405.414   1
 -12   7   2 4346.55 268.017   2
   7   5   2 4078.89 389.067   3
  12  -5   2 3969.49 254.826   1
  -5  -7   2 4201.46 310.425   2
   7   5   2 4581.36 386.157   2
  -5  -7   2 4574.21 317.751   3
  12  -5   2 4263.99 381.505   3
   5 -12   2 4774.00 438.145   2
   7   5   2 4455.81 252.690   1
   5 -12   2 5200.52 375.300   4
 -12   7   2 4685.72 354.522   4
   7   5   2 3933.78 348.710   4
  -5  -7   2 4357.31 330.302   4
  -7  12   2 4617.51 368.899   1
  -7  12   2 4555.88 336.070   2
  -5  -7   5 42902.9 946.868   2
   5 -12   5 43733.7 923.683   4
 -12   7   5 41405.0 780.573   4
  -5  -7   5 40183.3 715.759   4
  -7  12   5 39526.4 939.991   4
  -7  12   5 42419.4 985.831   2
  -7  12   8 1265.51 267.100   4
   4 -12 -11 7624.63 898.582   3
  -8  12 -11 7025.19 681.309   3
  -4  -8 -11 6574.60 831.310   3
  12  -4 -11 7013.94 732.236   1
 -12   8 -11 5896.11 811.771   2
 -12   8 -11 6848.91 757.763   3
  -8  12 -11 7772.53 822.688   2
  -8  12 -11 6780.00 651.176   1
   8   4 -11 7228.85 802.401   1
 -12   8  -8 431.128 218.866   1
   4 -12  -8 648.481 480.197   3
  -8  12  -8 453.092 324.866   3
 -12   8  -8 802.486 366.054   3
   4 -12  -8 699.862 278.236   1
  -4  -8  -8 705.189 476.052   3
 -12   8  -8 539.707 288.774   4
  -8  12  -8 861.636 376.344   2
  -8  12  -8 239.917 263.645   4
   8   4  -8 528.574 166.093   2
 -12   8  -8 326.291 247.317   1
  12  -4  -8 293.510 390.617   1
   8   4  -8 988.190 446.524   1
   4 -12  -5 31520.3 1058.89   3
  -8  12  -5 31338.1 711.365   3
  -4  -8  -5 30510.4 1034.42   3
 -12   8  -5 30811.9 881.433   3
  -8  12  -5 30916.5 842.544   4
  -8  12  -5 30617.5 1086.66   2
 -12   8  -5 31334.5 672.469   1
   4 -12  -5 32540.0 759.688   1
   4 -12  -5 29809.7 873.951   4
   8   4  -5 30727.6 1027.55   1
  12  -4  -5 30702.4 979.421   1
   8   4  -5 30481.8 530.032   2
   4 -12  -2 3226.78 325.013   3
  -4  -8  -2 2657.07 335.958   2
  -8  12  -2 2723.56 307.219   1
 -12   8  -2 2321.28 274.251   3
   8   4  -2 3070.43 380.200   1
   8   4  -2 2619.01 307.740   3
   8   4  -2 2617.50 228.553   2
  12  -4  -2 2258.21 304.752   3
 -12   8  -2 2070.14 296.869   4
 -12   8  -2 2424.24 384.487   2
  -8  12  -2 2425.18 303.616   4
  -8  12  -2 2831.85 346.095   2
   4 -12  -2 2383.29 271.258   1
  -4  -8  -2 2687.12 335.149   3
   4 -12  -2 2947.00 344.152   4
  -4  -8  -2 2220.83 318.540   4
 -12   8  -2 2628.50 286.692   1
   4 -12  -2 2667.92 336.668   2
  12  -4  -2 2687.72 351.744   1
   8   4   1 55565.5 1052.60   2
  -8  12   1 59070.9 1054.64   1
   8   4   1 54390.8 1069.53   3
  12  -4   1 57005.7 1080.49   3
  -4  -8   1 59770.8 1018.22   2
 -12   8   1 58001.8 1105.69   1
  -4  -8   1 57822.3 920.463   3
  -8  12   1 56651.0 1042.50   2
   4 -12   1 61850.9 1197.01   2
  -8  12   1 58662.2 1114.73   4
  12  -4   1 56807.3 861.382   1
   8   4   1 56246.7 864.517   1
 -12   8   1 58318.4 988.982   2
 -12   8   1 57965.3 1074.17   4
   4 -12   1 60100.8 1116.33   4
  -4  -8   1 59507.6 1068.60   4
  -4  -8   4 17252.3 623.296   2
  -8  12   4 16795.0 596.087   2
  -8  12   4 16877.9 665.209   1
   4 -12   4 18318.3 603.391   4
 -12   8   4 16298.5 547.407   4
  -8  12   4 17416.3 635.522   4
  -4  -8   4 16825.5 529.727   4
 -12   8   4 16449.4 378.523   2
 -12   8   7 15773.5 455.946   4
  -8  12   7 15231.0 603.367   4
   9   3  -9 276.798 122.438   2
  -9  12  -9-144.705 395.894   2
   3 -12  -9 1176.60 499.103   3
 -12   9  -9 918.799 343.581   4
  -3  -9  -9 913.021 489.525   3
 -12   9  -9 768.135 411.975   3
  12  -3  -9 758.463 463.859   1
   9   3  -9 933.320 480.454   1
  -3  -9  -9 173.892 121.088   1
  -9  12  -9 826.069 349.669   1
  -9  12  -9 977.976 319.315   4
  -9  12  -9 427.769 331.535   3
   3 -12  -9 784.192 312.736   1
 -12   9  -9 418.999 445.231   2
 -12   9  -9 832.900 324.213   1
   9   3  -6 5523.67 216.403   2
  -3  -9  -6 6859.97 603.294   3
 -12   9  -6 7435.80 525.511   3
 -12   9  -6 6713.50 373.420   1
 -12   9  -6 7180.09 492.727   4
  -9  12  -6 7687.84 483.658   4
  -9  12  -6 7002.47 602.729   2
   3 -12  -6 7063.57 395.343   1
   9   3  -6 6774.84 588.851   1
  12  -3  -6 7558.56 575.184   1
  -9  12  -6 7334.48 452.987   3
   3 -12  -6 7902.97 644.357   3
  -9  12  -3 659.375 307.971   2
   9   3  -3 544.399 299.920   1
   3 -12  -3 619.979 267.679   3
 -12   9  -3 747.485 224.044   1
  -3  -9  -3 863.943 292.230   3
  -9  12  -3 1240.33 154.937   3
   9   3  -3 852.612 157.125   2
 -12   9  -3 813.442 318.400   2
   3 -12  -3 862.485 267.734   4
   9   3  -3 660.099 237.958   3
  12  -3  -3 749.625 276.290   1
 -12   9  -3 815.361 225.459   3
  -9  12  -3 802.541 253.774   1
   3 -12  -3 909.872 219.754   1
  -3  -9  -3 568.657 258.226   4
 -12   9  -3 536.376 239.076   4
  -9  12  -3 1094.08 266.196   4
   3 -12  -3 963.819 253.174   2
  -9  12   0 10407.6 492.614   1
  12  -3   0 10668.6 514.085   3
   9   3   0 10743.9 516.168   3
  -3  -9   0 11068.7 524.906   4
   9   3   0 10553.2 453.787   2
 -12   9   0 11485.0 430.449   3
  -3  -9   0 10394.1 436.622   3
 -12   9   0 10922.6 519.130   4
 -12   9   0 10627.3 513.754   1
 -12   9   0 10995.6 532.165   2
  -9  12   0 10724.3 518.630   4
  -9  12   0 10294.1 511.423   2
   9   3   0 10833.4 463.797   1
   3 -12   0 12182.2 557.107   4
  12  -3   0 10488.5 453.588   1
   3 -12   0 10906.8 532.725   2
   3 -12   0 11190.9 325.156   3
  -3  -9   0 11223.3 498.947   2
 -12   9   3 348.771 150.573   2
   9   3   3 397.106 95.5027   1
  -9  12   3 468.415 283.006   1
  -3  -9   3 360.156 204.788   4
  12  -3   3 96.1899 274.127   3
  12  -3   3 216.340 132.814   1
  -9  12   3 480.589 224.368   4
  -9  12   3 453.750 192.979   2
   3 -12   3 437.315 224.220   4
   3 -12   3 456.802 265.890   2
 -12   9   3 282.376 211.048   4
  -3  -9   3 483.070 242.898   2
  -9  12   6 3750.75 347.204   2
 -12   9   6 3703.95 286.684   4
  -9  12   6 3966.56 353.498   4
   3 -12   6 4167.01 329.078   4
  -3  -9   6 3566.06 256.249   4
  -9  12   9-20.2804 211.950   4
 -10  12 -10 2299.56 397.017   4
 -12  10 -10 1582.31 591.543   2
   2 -12 -10 2503.29 661.708   3
  -2 -10 -10 3118.35 646.225   3
 -10  12 -10 3391.20 513.493   3
 -12  10 -10 2686.19 536.764   3
 -10  12 -10 1661.04 418.184   1
  10   2 -10 2563.66 597.716   1
  12  -2 -10 2040.39 540.465   1
 -10  12 -10 1667.27 528.003   2
 -12  10 -10 2083.77 430.519   4
 -12  10 -10 1915.73 393.873   1
   2 -12 -10 2274.09 333.784   1
 -12  10  -7 1629.30 263.896   1
   2 -12  -7 1289.95 463.573   3
  -2 -10  -7 1642.77 442.827   3
 -10  12  -7 1921.50 325.604   3
 -12  10  -7 1151.03 345.890   3
  10   2  -7 1555.84 459.527   1
   2 -12  -7 1738.68 267.854   1
  12  -2  -7 1677.02 438.586   1
 -12  10  -7 1137.41 315.146   4
 -12  10  -7 1049.75 440.575   2
 -10  12  -7 2090.19 343.403   4
 -10  12  -7 927.151 406.784   2
 -12  10  -4 2093.37 410.415   2
   2 -12  -4 2615.97 385.746   3
 -10  12  -4 2707.81 312.877   4
 -10  12  -4 2830.24 250.744   3
 -12  10  -4 2460.84 287.370   3
 -10  12  -4 2452.09 302.478   1
  12  -2  -4 1967.64 356.609   1
   2 -12  -4 2283.23 250.540   1
  10   2  -4 2785.36 391.754   1
 -12  10  -4 2592.50 285.040   1
 -12  10  -4 2137.96 326.743   4
  -2 -10  -4 2282.91 362.455   3
  10   2  -4 1859.36 129.003   2
 -10  12  -4 2181.73 385.430   2
  10   2  -1 9059.55 482.633   1
 -10  12  -1 7590.91 452.714   4
   2 -12  -1 8735.25 495.188   4
   2 -12  -1 9233.49 398.812   3
  12  -2  -1 8584.70 459.904   1
  12  -2  -1 8137.12 461.069   3
  -2 -10  -1 8540.97 421.084   3
  -2 -10  -1 8906.23 482.281   2
  10   2  -1 8148.08 469.086   3
 -12  10  -1 8389.45 445.568   1
 -12  10  -1 8553.48 364.677   3
 -10  12  -1 8867.05 517.668   2
 -12  10  -1 8262.63 474.184   4
   2 -12  -1 9383.96 504.497   2
  -2 -10  -1 8689.32 496.026   4
 -10  12  -1 8208.96 442.458   1
 -12  10  -1 8084.63 517.965   2
 -10  12   2 12690.0 598.812   1
 -10  12   2 12017.4 561.250   4
  12  -2   2 11425.9 573.321   3
 -12  10   2 11567.3 594.464   1
  10   2   2 11266.8 579.961   3
  -2 -10   2 11548.5 390.352   3
 -12  10   2 11243.2 512.214   4
 -10  12   2 11861.8 494.150   2
 -12  10   2 12693.5 473.765   2
  12  -2   2 11917.7 372.969   1
   2 -12   2 12908.6 541.471   4
   2 -12   2 12601.4 600.067   2
  -2 -10   2 12016.8 532.487   2
  -2 -10   2 12759.9 546.962   4
  10   2   2 12347.3 362.860   1
 -12  10   5 5969.23 305.687   2
 -12  10   5 5979.16 383.026   4
   2 -12   5 5950.16 369.993   4
 -10  12   5 5747.89 394.902   4
 -10  12   5 5841.27 383.467   2
  -2 -10   5 5850.62 344.870   4
  -2 -10   5 6435.55 485.108   2
 -10  12   8 1561.45 272.225   4
 -12  10   8 2096.24 242.251   4
  -1 -11  -8 1709.98 236.908   1
   1 -12  -8 2025.92 512.745   3
  -1 -11  -8 1379.17 501.054   3
 -11  12  -8 1958.01 362.440   4
  11   1  -8 1304.01 473.728   1
 -11  12  -8 2706.49 417.034   3
   1 -12  -8 1694.28 265.003   1
  12  -1  -8 1892.21 486.069   1
 -11  12  -8 2289.94 517.682   2
 -12  11  -8 1861.80 409.387   3
 -12  11  -8 2023.56 518.483   2
 -12  11  -8 1841.81 358.971   4
 -12  11  -5 8539.35 465.206   3
   1 -12  -5 8856.53 618.332   3
 -11  12  -5 8174.36 422.891   3
   1 -12  -5 8151.69 378.612   1
 -12  11  -5 7591.97 418.470   1
 -11  12  -5 8338.08 504.824   4
 -12  11  -5 7728.59 667.617   2
  11   1  -5 7931.39 593.642   1
  -1 -11  -5 7679.55 580.086   3
 -12  11  -5 7750.67 481.052   4
 -11  12  -5 8219.59 654.346   2
  12  -1  -5 7653.54 580.333   1
 -12  11  -2 25792.2 710.685   1
  -1 -11  -2 24101.6 785.103   2
 -12  11  -2 25254.1 569.959   3
  -1 -11  -2 25461.1 815.814   4
 -11  12  -2 24268.8 766.638   4
  12  -1  -2 21135.1 710.254   3
 -11  12  -2 25738.3 907.548   2
 -12  11  -2 24055.4 776.107   4
  11   1  -2 22186.1 716.965   3
 -12  11  -2 25538.7 912.205   2
   1 -12  -2 24582.4 815.176   4
  12  -1  -2 25283.2 800.892   1
   1 -12  -2 25430.9 804.359   2
 -11  12  -2 25570.7 718.507   1
  -1 -11  -2 26157.3 751.209   3
  11   1  -2 25282.5 804.540   1
   1 -12  -2 25551.4 724.604   3
 -11  12  -2 25535.7 479.517   3
  11   1   1 40789.1 753.352   1
  11   1   1 38716.8 983.749   3
  12  -1   1 39019.7 970.619   3
   1 -12   1 40338.7 584.322   3
  -1 -11   1 41614.5 693.502   3
  -1 -11   1 41493.0 967.053   2
 -12  11   1 41320.1 905.616   2
   1 -12   1 43506.5 982.566   4
 -12  11   1 40480.9 988.102   1
   1 -12   1 40270.8 980.273   2
 -12  11   1 38199.7 925.037   4
 -11  12   1 38802.6 936.528   4
 -11  12   1 37757.6 926.629   1
  -1 -11   1 42090.6 986.062   4
  12  -1   1 39485.5 741.444   1
 -11  12   1 41785.8 925.337   2
 -12  11   4 17588.4 519.846   2
 -11  12   4 17971.0 566.125   2
   1 -12   4 18335.1 618.070   4
 -12  11   4 17646.7 626.022   4
  -1 -11   4 18148.7 725.779   2
 -11  12   4 17338.1 636.599   4
  -1 -11   4 18385.6 611.152   4
   1 -12   4 17030.7 750.994   2
 -12  11   7 15176.5 557.186   4
   1 -12   7 14878.8 525.691   4
  -1 -11   7 15059.7 487.063   4
 -11  12   7 15752.9 606.404   4
 -12  12  -9 242.621 337.740   4
   0 -12  -9 795.188 499.270   3
 -12  12  -9 334.363 374.446   3
  12   0  -9 489.631 453.424   1
   0 -12  -9 28.0876 215.589   1
 -12  12  -9-349.261 449.346   2
 -12  12  -9 19.1480 303.155   1
 -12  12  -6 12345.1 624.685   4
   0 -12  -6 11649.4 437.780   1
 -12  12  -6 11903.9 572.899   3
 -12  12  -6 12237.3 828.838   2
   0 -12  -6 11006.1 747.723   3
  12   0  -6 11541.9 714.614   1
 -12  12  -3 25.2900 221.064   1
   0 -12  -3 602.867 294.477   3
 -12  12  -3 15.2604 177.822   3
 -12  12  -3-109.707 290.920   2
 -12  12  -3-152.030 214.313   4
  12   0  -3-205.724 286.655   1
  12   0   0 1582.49 282.137   1
   0 -12   0 1460.80 221.800   3
   0 -12   0 1332.80 278.919   4
  12   0   0 1168.17 301.359   3
 -12  12   0 1248.64 285.833   2
   0 -12   0 1021.77 283.043   2
 -12  12   0 1517.12 294.519   1
 -12  12   0 1432.42 287.984   4
 -12  12   3-164.066 174.409   2
  12   0   3 324.168 120.338   1
   0 -12   3-257.288 257.879   2
 -12  12   3 105.913 213.696   4
   0 -12   3-191.495 219.779   4
   0 -12   6 9852.37 453.996   4
 -12  12   6 10667.6 478.123   2
 -12  12   6 10978.2 522.828   4
 -12  12   9 202.270 185.545   4
   0  13 -10 19073.9 1134.63   1
 -13   0 -10 20191.8 1196.46   3
   0  13 -10 17193.0 885.800   2
  13 -13 -10 18314.3 967.944   1
   0  13 -10 17963.6 939.811   3
   0  13  -7-61.7918 411.010   1
   0  13  -7-87.2951 268.323   2
  13 -13  -7 269.781 365.522   1
  13 -13  -7 268.009 254.695   4
  13 -13  -7 216.370 234.401   2
 -13   0  -7 344.862 371.620   3
   0  13  -7-180.449 217.402   4
  13 -13  -4 59019.5 1191.85   4
 -13   0  -4 58717.1 1377.29   3
   0  13  -4 60490.0 885.875   3
  13 -13  -4 57835.0 1083.94   2
   0  13  -4 62973.7 1162.34   4
   0  13  -4 62185.8 1275.31   2
  13 -13  -4 60900.3 1267.79   1
  13 -13  -1-60.4100 226.633   1
   0  13  -1-379.951 227.927   2
   0  13  -1 105.290 182.374   3
  13 -13  -1 403.145 264.531   2
 -13   0  -1-43.8387 246.398   3
  13 -13  -1 64.9255 179.143   3
 -13   0  -1 8.03431 225.852   2
 -13   0  -1 6.28447 229.167   1
   0  13  -1 64.1622 231.921   4
  13 -13   2 49643.4 825.160   3
   0  13   2 47639.9 1108.31   2
   0  13   2 47574.1 1055.41   3
   0  13   2 51518.9 918.716   1
 -13   0   2 47241.9 1089.33   3
 -13   0   2 51274.5 758.665   2
  13 -13   2 49455.6 992.231   1
   0  13   2 50855.3 1160.54   4
 -13   0   2 49336.6 1030.23   4
   0  13   5-113.633 229.910   1
  13 -13   5-177.166 276.972   3
   0  13   5 199.847 272.344   2
   0  13   5 122.071 282.992   4
 -13   0   5 29.8248 183.995   4
   0  13   8 20151.5 858.782   4
   1  12  -8 719.876 278.435   2
  13 -12  -8 995.625 378.201   1
 -13   1  -8 1075.34 454.985   3
 -12  -1  -8 126.246 418.260   3
  12 -13  -8 755.102 375.784   1
  -1  13  -8 1526.62 467.982   1
   1  12  -8 1406.37 498.204   1
  -1  13  -8 718.250 301.332   2
  -1  13  -8 723.401 236.178   4
   1  12  -8 766.892 199.938   4
  -1  13  -8 952.548 359.485   3
   1  12  -5 1435.97 286.942   2
 -12  -1  -5 1263.97 378.776   3
 -13   1  -5 1290.31 358.308   3
  12 -13  -5 1555.05 290.607   4
  -1  13  -5 1318.66 317.396   2
  12 -13  -5 1229.63 262.373   2
  12 -13  -5 1230.62 324.438   1
  -1  13  -5 1414.37 270.265   4
  13 -12  -5 1179.07 233.781   2
   1  12  -5 1148.26 232.334   3
  13 -12  -5 1182.10 266.757   4
   1  12  -5 1241.49 247.517   4
  13 -12  -5 1844.46 350.755   1
  -1  13  -5 1184.96 205.342   3
  13 -12  -2 2393.00 315.944   4
  13 -12  -2 2005.89 312.060   1
  13 -12  -2 2095.20 287.865   2
  -1  13  -2 2403.42 206.960   3
   1  12  -2 2401.18 294.971   4
  12 -13  -2 2267.79 307.494   1
  12 -13  -2 2215.73 328.087   2
 -13   1  -2 1669.00 320.313   3
  13 -12  -2 2340.97 288.379   3
   1  12  -2 2130.86 238.771   3
  12 -13  -2 2618.97 274.821   3
 -12  -1  -2 1867.86 316.852   2
 -13   1  -2 2338.89 342.177   2
 -12  -1  -2 1821.08 225.573   1
 -12  -1  -2 1844.28 330.320   3
  12 -13  -2 2181.02 313.871   4
 -13   1  -2 2353.47 245.272   1
  -1  13  -2 2400.85 306.379   4
  -1  13  -2 2412.02 308.481   2
   1  12  -2 2827.10 318.760   2
   1  12   1 10338.7 480.684   3
  -1  13   1 10586.0 553.759   4
   1  12   1 10229.5 517.352   2
 -12  -1   1 10272.2 413.197   2
  -1  13   1 10110.5 515.686   2
  13 -12   1 10205.4 427.320   3
 -13   1   1 9957.74 400.921   2
 -12  -1   1 9977.16 504.554   4
 -12  -1   1 10183.3 549.469   1
  12 -13   1 10375.9 481.644   1
 -12  -1   1 10636.5 533.462   3
 -13   1   1 9535.80 512.175   3
   1  12   1 10767.5 452.088   1
 -13   1   1 10008.7 550.698   1
  -1  13   1 10665.3 469.587   3
  -1  13   1 11347.0 476.165   1
  12 -13   1 9989.10 594.744   2
  12 -13   1 10824.2 382.556   3
   1  12   1 10302.1 528.023   4
  13 -12   1 10638.4 481.384   1
  12 -13   4 876.067 228.283   3
  -1  13   4 892.670 274.700   2
   1  12   4 1053.96 283.157   2
   1  12   4 1173.76 220.430   1
  -1  13   4 952.701 233.389   1
  13 -12   4 1042.32 276.208   3
 -12  -1   4 328.960 78.3533   2
  -1  13   4 600.531 244.963   4
   1  12   4 1511.04 305.381   4
 -12  -1   4 1102.83 217.187   4
 -13   1   4 917.685 222.007   4
   1  12   7 8416.63 433.360   1
  -1  13   7 9090.51 576.660   4
   1  12   7 8962.17 587.237   4
  -1  13   7 9859.22 535.977   1
  -2  13  -9 5157.68 539.707   3
 -11  -2  -9 4627.59 643.378   3
  -2  13  -9 5318.71 546.313   2
  13 -11  -9 5238.02 590.765   1
   2  11  -9 5940.44 508.849   2
  -2  13  -9 5184.26 322.046   4
  11 -13  -9 5164.72 552.720   1
 -13   2  -9 5237.39 661.562   3
   2  11  -9 5113.93 638.209   1
  -2  13  -9 5640.61 651.214   1
  11 -13  -9 6060.20 721.126   3
 -11  -2  -6 3675.97 510.488   3
  13 -11  -6 2807.20 412.355   1
   2  11  -6 3266.85 365.966   2
  -2  13  -6 3052.08 287.832   3
   2  11  -6 3058.89 289.145   4
  -2  13  -6 3031.92 313.765   4
  13 -11  -6 2747.51 262.699   2
  -2  13  -6 2915.22 398.594   2
  11 -13  -6 2817.22 335.486   4
  11 -13  -6 2430.75 309.037   2
 -13   2  -6 3347.84 481.352   3
  11 -13  -6 3437.70 403.396   1
   2  11  -6 3909.23 552.391   1
  11 -13  -3 5351.30 415.473   1
  -2  13  -3 5280.72 233.333   3
   2  11  -3 4993.73 309.472   3
  13 -11  -3 5411.97 418.562   1
  11 -13  -3 5471.55 397.336   4
  13 -11  -3 5227.01 353.047   2
 -13   2  -3 5189.25 450.839   3
  -2  13  -3 5485.55 383.826   4
   2  11  -3 5286.87 372.864   4
  -2  13  -3 4859.26 409.662   2
 -11  -2  -3 4566.54 434.435   3
   2  11  -3 5280.88 380.326   2
 -13   2  -3 5189.17 276.435   1
  11 -13  -3 5940.93 409.902   2
  11 -13   0 1521.46 278.097   1
  -2  13   0 928.838 196.023   3
 -13   2   0 889.281 274.301   1
  -2  13   0 1005.76 247.488   1
  -2  13   0 1059.18 251.710   2
  11 -13   0 1142.50 293.924   2
   2  11   0 1423.11 262.033   2
  13 -11   0 1434.74 228.376   3
 -11  -2   0 819.142 223.339   2
 -11  -2   0 1302.83 280.283   3
 -13   2   0 1307.39 281.424   3
  11 -13   0 1123.19 167.350   3
  11 -13   0 1067.83 279.593   4
 -11  -2   0 1384.23 274.636   1
  13 -11   0 779.397 235.952   1
   2  11   0 1706.64 297.971   4
  -2  13   0 1286.02 271.704   4
   2  11   0 820.758 242.634   3
 -11  -2   0 1322.04 289.363   4
   2  11   3 9218.73 577.834   3
  11 -13   3 8715.51 340.336   3
 -11  -2   3 8647.27 307.699   2
  13 -11   3 7803.91 420.560   3
  -2  13   3 8783.86 513.018   2
   2  11   3 9634.23 380.686   1
   2  11   3 8945.79 530.476   2
 -11  -2   3 9045.98 525.821   3
  -2  13   3 9278.16 441.733   1
 -11  -2   3 8476.62 421.784   4
  -2  13   3 9545.73 536.637   4
   2  11   3 9243.52 531.169   4
   2  11   6 3642.55 289.482   1
  -2  13   6 3938.97 380.907   1
  -2  13   6 3172.49 371.037   4
   2  11   6 3366.78 383.269   4
 -11  -2   6 2215.90 199.643   4
  -2  13   6 3705.84 448.413   2
 -13   2   6 2877.07 231.183   4
 -13   2   6 3019.28 231.788   4
  -2  13   9 1982.14 362.188   4
  -3  13 -10 14540.6 855.305   3
   3  10 -10 14023.3 726.959   2
 -10  -3 -10 14340.5 1043.47   3
 -13   3 -10 15208.9 1014.82   3
  -3  13 -10 15538.7 940.406   1
  13 -10 -10 14138.4 874.252   1
   3  10 -10 13869.7 963.107   1
  -3  13 -10 14644.5 884.802   2
  10 -13 -10 14644.6 823.481   1
  10 -13 -10 14642.9 1083.51   3
   3  10  -7 451.105 239.378   2
  -3  13  -7-36.7887 275.464   3
  10 -13  -7 796.543 338.408   1
  13 -10  -7 685.283 389.195   1
  13 -10  -7 135.396 150.993   2
 -10  -3  -7-43.8573 381.670   3
  -3  13  -7 521.346 308.594   2
  -3  13  -7 387.077 238.156   4
   3  10  -7 1161.13 461.389   1
 -13   3  -7 638.920 391.959   3
   3  10  -7 267.780 167.463   4
  10 -13  -7 2.01502 237.802   4
  10 -13  -4 36998.9 945.525   1
 -13   3  -4 36183.5 1024.80   3
  13 -10  -4 36542.4 994.783   1
   3  10  -4 37255.9 786.220   3
  -3  13  -4 38155.7 563.026   3
   3  10  -4 41783.4 1208.03   1
  10 -13  -4 36212.0 908.332   4
  13 -10  -4 34181.2 691.555   2
  -3  13  -4 38651.8 906.217   4
  -3  13  -4 38811.7 1049.18   2
  10 -13  -4 36614.3 900.394   2
   3  10  -4 37927.4 832.316   4
 -10  -3  -4 36960.4 1093.19   3
   3  10  -4 37152.5 873.408   2
 -13   3  -4 37193.5 573.765   1
   3  10  -1 2322.28 267.341   3
  10 -13  -1 1957.39 310.976   2
 -13   3  -1 2016.97 282.647   1
 -10  -3  -1 2110.15 313.447   3
  13 -10  -1 1970.40 248.675   3
 -13   3  -1 1850.63 302.934   3
 -10  -3  -1 1814.65 282.199   2
   3  10  -1 2116.70 278.613   2
  10 -13  -1 2361.17 316.116   4
  -3  13  -1 2012.60 149.108   3
  -3  13  -1 2183.18 304.700   2
  10 -13  -1 2133.94 289.183   1
  -3  13  -1 2297.08 317.294   4
  13 -10  -1 2242.66 291.393   1
   3  10  -1 2130.19 295.147   4
 -10  -3  -1 2036.58 306.445   4
  -3  13   2 69519.3 1253.79   2
   3  10   2 75052.3 968.690   1
  13 -10   2 73853.3 1081.50   1
  13 -10   2 75470.1 1140.94   3
 -13   3   2 73794.2 805.883   2
  -3  13   2 74650.9 1338.11   4
 -10  -3   2 72681.4 1154.30   4
 -10  -3   2 72608.4 1247.24   3
  -3  13   2 80030.8 1156.09   1
  10 -13   2 78031.4 1356.84   4
 -10  -3   2 73080.0 1366.86   1
   3  10   2 72578.2 1316.75   2
   3  10   2 71408.9 1287.74   3
 -13   3   2 72529.4 1364.11   1
   3  10   2 74845.5 1357.31   4
 -10  -3   2 76013.7 965.642   2
 -13   3   2 71109.6 1268.86   3
  13 -10   5 2327.01 354.110   3
   3  10   5 2278.69 226.475   1
  -3  13   5 1872.01 314.129   4
  -3  13   5 2218.17 313.450   1
  -3  13   5 2007.38 340.845   2
 -13   3   5 1634.58 226.382   4
   3  10   5 1922.55 367.235   2
 -10  -3   5 1862.37 220.703   4
   3  10   5 2201.02 333.374   4
  -3  13   8 15750.6 706.018   4
   3  10   8 11063.5 385.022   1
  -4  13  -8 2240.37 406.294   3
  -9  -4  -8 2215.39 515.722   3
 -13   4  -8 2348.49 493.281   3
  -4  13  -8 2044.30 452.114   1
  13  -9  -8 1565.86 423.483   1
   9 -13  -8 2240.68 401.937   1
   9 -13  -8 2427.03 534.929   3
  -4  13  -8 2300.13 294.708   4
   4   9  -8 2285.68 325.494   2
   4   9  -8 3090.17 571.767   1
 -13   4  -8 1028.70 94.9437   1
  -4  13  -8 2512.90 438.221   2
   9 -13  -5 4008.79 392.158   1
  -9  -4  -5 3392.90 438.111   3
 -13   4  -5 3306.43 421.725   3
 -13   4  -5 3510.00 212.684   1
   4   9  -5 3988.75 298.111   4
   4   9  -5 3839.58 327.065   2
   4   9  -5 5660.06 571.126   1
  13  -9  -5 2828.61 207.505   2
   4   9  -5 3285.03 323.822   3
  -4  13  -5 3693.44 300.371   3
  13  -9  -5 3916.58 449.737   1
   9 -13  -5 4007.22 373.275   4
  -4  13  -5 4307.69 452.371   2
  -4  13  -5 4461.21 370.594   4
   9 -13  -5 3790.79 367.576   2
   4   9  -2 10612.5 457.869   2
   4   9  -2 9914.93 426.277   3
 -13   4  -2 10538.8 423.115   1
   9 -13  -2 11093.5 490.493   1
  -4  13  -2 11315.6 558.349   2
  -9  -4  -2 9999.69 535.056   3
  -9  -4  -2 11394.0 555.656   2
 -13   4  -2 9940.15 510.197   3
  13  -9  -2 10252.2 465.657   3
  -4  13  -2 10623.7 511.197   4
   9 -13  -2 10416.7 520.181   4
   9 -13  -2 11030.4 534.912   2
  13  -9  -2 9614.32 495.990   1
  -9  -4  -2 10463.6 543.206   4
   4   9  -2 10536.5 473.854   4
   9 -13   1 19611.7 327.452   3
  -9  -4   1 20572.8 573.885   2
  -4  13   1 19595.7 696.873   4
   4   9   1 19840.8 651.039   3
  13  -9   1 19122.7 613.371   3
   4   9   1 19707.9 670.625   2
  -9  -4   1 19383.3 652.726   3
  13  -9   1 19371.6 577.427   1
 -13   4   1 19857.5 661.523   3
  -4  13   1 20098.7 621.359   1
   9 -13   1 20670.3 705.252   4
   9 -13   1 20047.5 767.390   2
  -9  -4   1 19496.1 644.804   4
   4   9   1 21017.8 710.232   4
 -13   4   1 19838.0 707.377   1
  -4  13   1 19180.7 656.847   2
  13  -9   4 13438.5 589.509   3
 -13   4   4 14304.4 515.882   4
  -9  -4   4 14100.2 430.481   2
   4   9   4 14771.5 704.389   2
  -4  13   4 14525.2 621.644   4
  -4  13   4 14836.5 570.219   1
   9 -13   4 15411.2 620.175   4
  -4  13   4 14437.6 627.201   2
  -9  -4   4 14009.2 488.392   4
   4   9   4 15676.0 383.870   1
   4   9   4 14195.2 644.213   4
 -13   4   7 616.432 119.696   4
  -4  13   7 962.944 344.956   2
   4   9   7 791.591 132.973   1
  -4  13   7 915.618 286.073   4
 -13   4   7 691.002 117.767   4
   5   8  -9 1428.48 493.684   1
   8 -13  -9 2190.57 574.462   3
  -5  13  -9 2117.10 447.635   3
  -5  13  -9 1039.27 374.877   2
 -13   5  -9 1706.12 511.409   3
  -5  13  -9 1624.93 449.016   1
   8 -13  -9 1087.36 367.136   1
  13  -8  -9 1623.80 458.870   1
   5   8  -9 1477.84 301.875   2
  -5  13  -9 2000.04 286.300   4
  -8  -5  -9 1542.57 536.853   3
  -5  13  -6 6410.81 421.374   3
   8 -13  -6 6364.14 460.326   1
  -8  -5  -6 6280.14 579.629   3
  -5  13  -6 6478.72 554.870   2
 -13   5  -6 5584.96 508.857   3
   5   8  -6 5900.59 580.623   1
  13  -8  -6 5990.07 520.309   1
   8 -13  -6 6037.90 573.612   3
 -13   5  -6 5432.30 254.037   1
   8 -13  -6 5663.42 438.236   4
  -5  13  -6 6090.36 403.723   4
   5   8  -6 5968.59 368.561   2
   5   8  -6 5988.60 308.035   4
 -13   5  -3 20951.4 729.308   3
   5   8  -3 17854.9 573.584   3
  13  -8  -3 20779.2 752.562   1
   8 -13  -3 19447.8 641.742   1
   8 -13  -3 19620.8 697.234   4
   5   8  -3 21508.6 821.432   1
   8 -13  -3 20410.1 696.109   2
  -5  13  -3 20606.2 677.766   4
  -5  13  -3 20213.3 778.740   2
 -13   5  -3 20299.2 521.282   1
   5   8  -3 20315.0 601.051   4
  -8  -5  -3 19349.9 762.034   3
   5   8  -3 20303.3 582.563   2
  -5  13   0 13303.5 564.227   2
  -8  -5   0 15264.5 552.985   2
  -5  13   0 14521.2 546.030   1
   5   8   0 14146.7 537.647   3
 -13   5   0 14653.5 575.473   1
   5   8   0 15135.3 561.602   2
  13  -8   0 13968.6 531.664   3
 -13   5   0 14547.3 555.376   3
   8 -13   0 14730.5 637.355   2
  -8  -5   0 14986.7 581.585   3
  -8  -5   0 14159.0 577.103   4
   8 -13   0 12282.8 546.773   4
  -5  13   0 13718.5 589.844   4
   5   8   0 14799.5 591.701   4
  13  -8   0 14156.5 521.229   1
   8 -13   0 12650.0 514.780   1
   5   8   3 10646.4 321.267   1
   5   8   3 9585.10 560.414   2
  -8  -5   3 9436.05 430.773   4
  13  -8   3 9839.71 397.216   1
   8 -13   3 10877.6 525.457   4
   5   8   3 9393.57 521.555   4
  -5  13   3 9881.45 505.131   2
  13  -8   3 9318.74 499.444   3
  -8  -5   3 9200.12 379.438   2
  -5  13   3 9856.71 525.978   4
  -5  13   3 9860.30 486.416   1
 -13   5   6 3340.13 251.218   4
   5   8   6 1834.20 111.745   1
  -8  -5   6 2526.55 199.587   4
  -5  13   6 3803.17 416.562   2
  -5  13   6 2995.03 341.704   4
  -5  13   9 3463.04 383.953   4
   7 -13 -10 5127.64 761.860   3
  -6  13 -10 5726.03 600.097   3
 -13   6 -10 4339.11 626.225   3
  -6  13 -10 4799.85 559.264   1
  13  -7 -10 4972.69 636.630   1
   7 -13 -10 4355.96 494.277   1
   6   7 -10 5286.10 677.180   1
  -6  13 -10 5007.03 623.452   2
  -7  -6 -10 4954.46 735.359   3
 -13   6 -10 3522.89 441.044   4
   6   7  -7 1006.43 216.392   2
   6   7  -7 1462.16 440.402   1
   7 -13  -7 419.862 282.673   1
  -6  13  -7 1103.96 331.228   3
  -7  -6  -7 1169.64 404.447   3
   7 -13  -7 1460.77 454.544   3
  13  -7  -7 975.722 396.408   1
  -6  13  -7 751.704 264.091   4
  -6  13  -7 259.909 322.154   2
 -13   6  -7 1061.38 366.397   3
 -13   6  -7 348.211 159.539   1
  -7  -6  -4 25216.4 901.188   3
 -13   6  -4 25991.0 836.412   3
  13  -7  -4 25869.7 858.896   1
   6   7  -4 23496.7 694.682   3
   7 -13  -4 25819.3 793.045   4
   7 -13  -4 27492.8 918.754   3
   6   7  -4 25987.1 621.290   2
   6   7  -4 24434.6 907.096   1
  -6  13  -4 24569.3 759.924   4
   7 -13  -4 25598.9 727.887   1
 -13   6  -4 25668.1 566.244   1
   6   7  -4 26491.9 651.604   4
  -6  13  -4 25373.9 911.371   2
   7 -13  -4 26311.2 801.678   2
  -6  13  -4 25099.8 469.689   3
   7 -13  -1 15100.8 480.455   3
   6   7  -1 14515.5 520.487   2
   7 -13  -1 14013.3 588.498   4
 -13   6  -1 13643.8 532.518   3
 -13   6  -1 14024.7 526.765   1
  -6  13  -1 13670.5 532.164   1
  13  -7  -1 13110.3 513.842   3
  -7  -6  -1 13572.6 584.341   4
   7 -13  -1 14207.3 542.359   1
   6   7  -1 14986.0 611.893   1
  -7  -6  -1 12864.3 553.143   3
  -7  -6  -1 13985.4 572.130   2
  13  -7  -1 14334.1 582.911   1
  -6  13  -1 14026.5 585.838   4
   7 -13  -1 14714.5 603.224   2
  -6  13  -1 13334.9 598.886   2
   6   7  -1 13728.4 544.751   4
   6   7  -1 13819.6 529.454   3
  -6  13   2 17628.5 620.535   2
   6   7   2 18132.2 693.206   3
  13  -7   2 20654.1 689.773   3
   6   7   2 19713.8 715.164   2
  -7  -6   2 19852.6 619.951   3
  -6  13   2 21313.3 661.300   1
  13  -7   2 18359.8 514.773   1
   7 -13   2 21081.1 688.393   4
   7 -13   2 20724.0 789.071   2
 -13   6   2 20001.3 494.473   2
  -7  -6   2 19373.3 617.760   4
  -7  -6   2 20955.6 581.882   2
  -6  13   2 19718.2 702.701   4
   6   7   2 20044.4 708.043   4
 -13   6   2 19525.0 758.234   1
   7 -13   5 9546.46 489.023   4
  -6  13   5 9603.58 529.971   2
  -7  -6   5 8956.15 434.875   2
 -13   6   5 8252.13 380.802   4
  -7  -6   5 8651.20 373.854   4
  -6  13   5 9174.07 511.678   4
  -6  13   8 5858.59 443.011   4
   6 -13 -11 1059.00 572.829   3
  -7  13 -11 340.186 409.292   3
  -6  -7 -11 807.584 553.971   3
 -13   7 -11 432.929 510.285   3
  -7  13 -11 1288.89 470.181   2
  13  -6 -11 483.116 467.093   1
   6 -13 -11 667.780 356.977   1
   7   6 -11 773.855 517.932   1
  -7  13 -11 899.094 425.760   1
   6 -13  -8 7827.62 735.762   3
  -7  13  -8 7892.13 561.197   3
 -13   7  -8 6774.72 346.816   1
   6 -13  -8 7396.61 517.179   1
 -13   7  -8 8136.08 671.358   3
  -6  -7  -8 7803.17 753.499   3
   7   6  -8 6494.53 378.142   2
 -13   7  -8 6404.55 387.562   1
  -7  13  -8 7200.22 665.180   2
  -7  13  -8 7616.02 489.294   4
   7   6  -8 6587.31 680.775   1
  13  -6  -8 7239.74 648.649   1
   6 -13  -5 8988.04 614.967   3
  -6  -7  -5 8319.37 612.717   3
   7   6  -5 8669.13 627.381   1
 -13   7  -5 8555.93 531.254   3
  13  -6  -5 8211.00 571.478   1
   6 -13  -5 9083.56 475.399   1
  -7  13  -5 8855.13 388.882   3
  -7  13  -5 7967.90 579.384   2
  -7  13  -5 9145.48 492.670   4
   7   6  -5 8468.23 356.806   2
 -13   7  -5 8403.69 362.706   1
   6 -13  -2 18075.9 606.658   3
  -7  13  -2 17975.1 621.128   1
   7   6  -2 17817.7 525.117   2
  -6  -7  -2 18477.6 685.686   2
  -6  -7  -2 16671.6 649.672   3
   6 -13  -2 17976.5 589.639   1
 -13   7  -2 18426.8 619.500   3
   7   6  -2 17833.8 603.741   3
   7   6  -2 18146.5 588.887   4
  13  -6  -2 16953.0 606.255   3
  13  -6  -2 17640.6 672.109   1
 -13   7  -2 17874.6 566.010   1
  -7  13  -2 16793.7 649.568   4
   6 -13  -2 18169.7 664.926   4
   7   6  -2 18103.4 704.329   1
  -7  13  -2 18204.5 723.890   2
   6 -13  -2 18541.9 675.916   2
  -6  -7  -2 16298.4 650.531   4
  -7  13   1 15088.5 588.446   2
  -7  13   1 15233.5 583.163   1
   7   6   1 13789.3 574.858   3
  -7  13   1 14186.2 593.079   4
   7   6   1 14708.0 585.627   2
  -6  -7   1 15236.0 545.254   3
  -6  -7   1 15492.1 540.276   2
   6 -13   1 15705.4 625.886   4
 -13   7   1 14612.3 618.595   1
 -13   7   1 13856.7 542.864   3
  13  -6   1 14975.3 490.607   1
 -13   7   1 15124.6 603.229   4
   7   6   1 13764.4 478.122   1
 -13   7   1 15283.1 539.693   2
  13  -6   1 14785.0 595.794   3
  -6  -7   1 14992.5 576.380   4
   7   6   1 15042.4 602.339   4
   6 -13   1 13471.3 626.700   2
  -7  13   4 26884.3 824.307   1
  -6  -7   4 27111.8 725.800   2
  -7  13   4 26152.1 774.385   2
 -13   7   4 26432.6 687.087   4
  -7  13   4 27396.3 809.172   4
   6 -13   4 28463.1 789.638   4
  -6  -7   4 25865.9 662.098   4
  -7  13   7-19.5823 277.268   2
 -13   7   7 202.783 152.435   4
  -6  -7   7 347.681 98.4901   4
  -7  13  10 4588.61 387.565   4
  -8  13  -9 4426.69 494.496   3
  -5  -8  -9 3073.25 605.552   3
   8   5  -9 3882.62 595.972   1
   5 -13  -9 3163.99 414.996   1
  13  -5  -9 4547.09 606.897   1
  -8  13  -9 4126.63 429.101   4
 -13   8  -9 3312.45 364.751   1
 -13   8  -9 3194.02 453.391   4
  -8  13  -9 3387.00 470.511   1
   5 -13  -9 3761.02 646.516   3
  -8  13  -9 3775.53 570.027   2
   8   5  -9 2971.54 263.948   2
 -13   8  -9 4840.09 596.170   3
   5 -13  -6 3950.39 513.062   3
  -8  13  -6 3717.03 376.589   4
 -13   8  -6 3220.70 276.528   1
   5 -13  -6 4020.83 353.273   1
   8   5  -6 3693.85 488.999   1
  -8  13  -6 3401.91 322.314   3
  -8  13  -6 3457.54 481.041   2
  -5  -8  -6 4200.86 513.201   3
 -13   8  -6 3200.35 406.547   3
  13  -5  -6 3717.80 465.530   1
   8   5  -6 3089.98 218.796   2
   5 -13  -3 10870.8 548.988   3
   8   5  -3 10263.1 378.428   2
  13  -5  -3 9608.94 545.320   1
  -8  13  -3 8814.39 206.145   3
   5 -13  -3 10477.3 458.552   1
  -8  13  -3 10404.4 519.845   4
 -13   8  -3 10330.9 501.905   3
   5 -13  -3 10902.5 549.342   4
 -13   8  -3 10253.2 429.088   1
   8   5  -3 9263.92 471.336   3
  -8  13  -3 10353.5 605.645   2
   8   5  -3 10288.1 596.125   1
   5 -13  -3 9006.42 509.794   2
  -5  -8  -3 9650.07 556.308   3
  -5  -8   0 14881.5 567.733   2
   5 -13   0 14848.2 349.164   3
  -5  -8   0 14131.0 537.875   3
  13  -5   0 12863.3 546.952   3
  -5  -8   0 13505.7 575.284   4
   8   5   0 13768.0 538.950   2
  -8  13   0 13438.2 590.064   4
  -8  13   0 14028.3 591.721   2
 -13   8   0 13941.9 565.466   1
  -8  13   0 14380.0 563.023   1
   5 -13   0 14845.7 621.592   2
  13  -5   0 13867.1 520.960   1
 -13   8   0 15305.6 613.082   2
 -13   8   0 14313.9 598.723   4
   5 -13   0 14625.7 610.131   4
 -13   8   0 14344.1 511.950   3
   8   5   0 13177.2 560.463   3
   8   5   0 14670.3 569.663   4
   8   5   0 14500.7 547.303   1
  -8  13   3 19905.9 644.079   2
  13  -5   3 19159.1 456.360   1
  13  -5   3 18159.0 711.164   3
 -13   8   3 19593.0 630.999   4
  -8  13   3 18802.6 677.021   1
  -5  -8   3 19869.6 623.343   4
   8   5   3 17653.4 363.894   1
  -5  -8   3 20643.1 647.624   2
  -8  13   3 19487.5 682.740   4
   5 -13   3 20189.5 672.568   4
 -13   8   3 20724.4 442.093   2
 -13   8   6 6192.65 352.309   4
  -8  13   6 5773.98 423.215   4
   5 -13   6 5779.65 387.092   4
  -5  -8   6 4956.85 284.061   4
  -8  13   6 6244.80 456.668   2
  -8  13   9 1266.21 290.590   4
   4 -13 -10 2690.99 641.511   3
 -13   9 -10 3426.19 598.205   3
   9   4 -10 2204.04 579.660   1
   4 -13 -10 2244.77 382.957   1
  -9  13 -10 2806.09 417.852   4
  -9  13 -10 2787.31 487.754   1
 -13   9 -10 3112.55 640.593   2
 -13   9 -10 2269.91 393.134   1
 -13   9 -10 1949.90 384.800   4
  -4  -9 -10 3394.86 694.395   3
  13  -4 -10 2463.13 556.108   1
  -9  13 -10 2721.19 480.802   3
  -9  13 -10 2544.42 589.203   2
  -9  13  -7 891.270 290.540   4
   9   4  -7 686.255 121.297   2
   9   4  -7 833.499 424.986   1
  -4  -9  -7 817.154 404.734   3
 -13   9  -7 1569.89 385.038   3
 -13   9  -7 1106.94 224.329   1
   4 -13  -7 1178.57 439.169   3
  -9  13  -7 1080.63 310.819   3
  13  -4  -7 1710.95 455.026   1
   4 -13  -7 858.870 259.435   1
  -9  13  -7 1091.06 427.264   2
 -13   9  -7 799.126 295.347   4
   4 -13  -4 14668.6 523.021   1
  -4  -9  -4 14121.5 686.499   3
   9   4  -4 14806.1 392.454   2
  13  -4  -4 14470.3 674.898   1
  -9  13  -4 16667.7 429.884   3
 -13   9  -4 15755.6 610.748   3
 -13   9  -4 14961.5 511.467   1
  -9  13  -4 15159.0 630.311   4
   4 -13  -4 15350.5 715.847   3
  -9  13  -4 15088.6 777.847   2
 -13   9  -4 14607.6 649.290   4
   9   4  -4 15213.2 736.642   1
 -13   9  -1 18153.9 685.498   4
  -4  -9  -1 17740.1 606.330   3
   9   4  -1 17130.3 628.013   3
  13  -4  -1 17914.8 644.805   1
  13  -4  -1 16723.1 621.425   3
   9   4  -1 17661.1 538.298   2
 -13   9  -1 17555.7 538.926   3
  -4  -9  -1 19565.4 678.901   2
  -9  13  -1 18722.5 639.804   1
  -4  -9  -1 17578.1 672.213   4
  -9  13  -1 18856.9 691.388   4
 -13   9  -1 19239.4 756.525   2
   4 -13  -1 18015.1 688.658   2
   4 -13  -1 19380.7 712.253   4
  -9  13  -1 17790.4 700.999   2
 -13   9  -1 18286.0 624.135   1
   9   4  -1 18205.9 654.888   1
   4 -13  -1 17723.7 519.108   3
   4 -13   2 11983.4 611.924   2
  13  -4   2 11105.5 566.327   3
  -9  13   2 11872.9 563.826   4
   9   4   2 10960.7 360.872   1
   9   4   2 10858.3 573.297   3
  -4  -9   2 11348.0 444.576   3
 -13   9   2 10988.5 578.974   1
  -4  -9   2 11483.8 504.826   2
  -9  13   2 10868.1 524.195   1
 -13   9   2 11606.3 429.089   2
 -13   9   2 11243.3 509.327   4
   4 -13   2 12571.8 559.418   4
  -4  -9   2 12265.8 526.069   4
  -9  13   2 10921.9 484.696   2
  13  -4   2 12107.1 400.218   1
 -13   9   5 3478.22 307.241   4
  -9  13   5 3957.44 361.765   2
 -13   9   5 3114.06 195.912   2
  -9  13   5 4080.00 370.198   4
   4 -13   5 3937.49 336.905   4
  -4  -9   5 4160.64 389.647   2
  -4  -9   5 3530.94 293.286   4
 -13   9   8 2127.66 215.209   4
  -9  13   8 1619.66 287.825   4
   3 -13  -8 16583.1 1015.44   3
  -3 -10  -8 17265.9 1013.40   3
  13  -3  -8 16267.5 909.814   1
 -13  10  -8 17164.6 852.826   3
 -13  10  -8 16320.4 784.025   4
 -13  10  -8 15008.5 1011.16   2
   3 -13  -8 16399.2 622.245   1
 -10  13  -8 16262.6 749.308   3
 -10  13  -8 15481.2 963.743   2
 -10  13  -8 17947.8 786.953   4
  10   3  -8 18022.2 989.333   1
   3 -13  -5 2240.87 424.740   3
  10   3  -5 1750.40 379.181   1
 -10  13  -5 2327.31 260.696   3
 -10  13  -5 1662.35 304.428   4
 -10  13  -5 1418.88 391.237   2
  13  -3  -5 1231.49 338.330   1
 -13  10  -5 1871.10 313.398   3
 -13  10  -5 2194.99 466.241   2
 -13  10  -5 2044.78 267.510   1
  -3 -10  -5 2142.42 403.430   3
 -13  10  -5 1860.41 322.488   4
  10   3  -5 1452.49 126.035   2
   3 -13  -5 2213.71 274.922   1
   3 -13  -2 75430.0 1171.07   3
  13  -3  -2 71589.6 1272.52   1
  -3 -10  -2 74453.2 1267.02   3
  10   3  -2 70068.1 1228.11   3
 -13  10  -2 74213.3 1061.76   3
 -10  13  -2 73023.4 1320.57   4
 -10  13  -2 67789.3 605.563   3
 -13  10  -2 75361.4 1560.43   2
 -13  10  -2 72866.8 1349.98   4
 -13  10  -2 74073.5 1149.44   1
  10   3  -2 70242.5 933.541   2
 -10  13  -2 72502.8 1461.42   2
 -10  13  -2 74112.5 1214.70   1
   3 -13  -2 76409.6 1366.20   2
   3 -13  -2 75521.0 1358.53   4
  10   3  -2 71560.9 1301.91   1
  -3 -10   1 2036.56 292.911   2
  13  -3   1 1784.74 249.536   1
  -3 -10   1 1701.60 238.813   3
 -10  13   1 1857.99 293.373   4
  10   3   1 1597.09 247.669   1
  10   3   1 1725.04 321.084   3
  13  -3   1 1411.76 320.865   3
   3 -13   1 1718.66 126.820   3
 -10  13   1 2039.27 320.457   1
   3 -13   1 2339.56 322.309   4
 -13  10   1 2006.37 285.998   2
 -13  10   1 1868.78 286.626   4
   3 -13   1 2184.82 336.378   2
  -3 -10   1 1722.65 293.704   4
 -13  10   1 1995.30 358.362   1
 -10  13   1 1842.60 280.827   2
 -13  10   4 38460.1 667.709   2
 -10  13   4 37054.4 856.528   2
 -10  13   4 36965.9 925.122   4
 -13  10   4 35902.9 850.397   4
   3 -13   4 39234.8 910.908   4
  -3 -10   4 39324.0 994.250   2
  -3 -10   4 37055.3 834.817   4
  -3 -10   7 390.780 169.009   4
 -10  13   7 153.727 243.830   2
 -10  13   7 210.060 223.961   4
 -13  10   7 531.226 212.634   4
 -13  11  -9 3130.67 484.418   3
 -11  13  -9 2443.95 425.317   3
  -2 -11  -9 2714.66 601.108   3
 -13  11  -9 2217.75 367.232   1
  13  -2  -9 1801.21 501.375   1
   2 -13  -9 2751.16 612.414   3
 -13  11  -9 2476.48 444.012   4
 -11  13  -9 3140.12 458.868   4
 -13  11  -9 2368.45 618.508   2
  11   2  -9 2764.98 567.116   1
 -11  13  -9 2308.77 409.551   1
   2 -13  -9 2358.12 320.194   1
 -11  13  -9 2233.14 533.239   2
   2 -13  -6 3866.38 515.553   3
 -13  11  -6 4060.12 407.058   3
   2 -13  -6 4270.92 330.115   1
 -11  13  -6 4130.39 357.541   3
 -11  13  -6 4118.46 416.361   4
  11   2  -6 4158.66 512.828   1
 -13  11  -6 3668.81 541.566   2
 -13  11  -6 3949.73 406.939   4
 -13  11  -6 3978.84 351.703   1
  13  -2  -6 4432.31 520.788   1
 -11  13  -6 4190.32 552.424   2
  -2 -11  -6 3774.88 529.623   3
 -13  11  -3 9238.34 531.975   4
   2 -13  -3 10028.5 539.408   3
 -11  13  -3 11096.4 349.174   3
  -2 -11  -3 10460.7 574.042   3
 -13  11  -3 10474.4 445.659   3
  13  -2  -3 10552.9 595.560   1
 -11  13  -3 10319.1 538.582   4
 -13  11  -3 10341.2 691.437   2
 -13  11  -3 9684.06 472.271   1
 -11  13  -3 9443.37 628.758   2
 -11  13  -3 10306.7 497.615   1
  11   2  -3 10189.9 587.504   1
  -2 -11   0 1171.34 264.971   2
 -11  13   0 1573.91 313.282   2
   2 -13   0 1482.00 198.110   3
  11   2   0 1146.97 247.150   1
 -13  11   0 978.001 298.798   1
  11   2   0 1069.01 301.669   3
  -2 -11   0 1211.06 237.869   3
  13  -2   0 1680.62 274.930   1
 -13  11   0 1198.19 221.422   3
  13  -2   0 1563.40 320.230   3
   2 -13   0 1641.07 322.124   2
 -13  11   0 1179.27 271.147   4
   2 -13   0 1085.06 278.787   4
 -11  13   0 1058.05 271.946   4
 -13  11   0 1192.18 291.711   2
  -2 -11   0 1423.43 287.247   4
 -11  13   0 1122.10 292.707   1
  13  -2   3 5827.16 242.708   1
  11   2   3 4932.47 213.955   1
 -11  13   3 5859.91 419.668   4
  -2 -11   3 5707.14 390.473   4
 -13  11   3 5362.45 390.699   4
   2 -13   3 6395.99 419.675   4
  -2 -11   3 5133.00 423.388   2
 -13  11   3 5544.12 321.329   2
 -11  13   3 5817.61 364.424   2
 -11  13   6 3227.33 334.291   2
 -13  11   6 2424.75 233.013   2
  -2 -11   6 2765.14 269.977   4
 -13  11   6 2649.78 306.227   4
   2 -13   6 2507.81 292.012   4
 -11  13   6 2825.35 332.030   4
 -11  13   9 4396.21 364.455   4
 -13  11   9 4344.98 281.187   4
 -13  12 -10 2475.32 479.870   4
   1 -13 -10 2587.35 649.404   3
  -1 -12 -10 1445.43 623.771   3
 -13  12 -10 2265.46 481.768   3
 -13  12 -10 2881.87 674.466   2
  12   1 -10 1617.39 562.766   1
 -13  12 -10 1702.01 407.295   1
  13  -1 -10 2159.99 580.890   1
 -12  13 -10 2096.47 460.830   4
 -12  13 -10 1838.52 569.552   2
 -12  13 -10 1397.67 377.862   1
 -12  13 -10 1919.77 457.602   3
  13  -1  -7 8061.95 687.566   1
 -12  13  -7 7361.57 509.248   3
   1 -13  -7 6815.99 388.054   1
 -13  12  -7 7605.56 535.575   3
  12   1  -7 8343.52 709.352   1
 -12  13  -7 7209.89 714.247   2
 -13  12  -7 6831.88 711.162   2
  -1 -12  -7 7463.48 699.040   3
   1 -13  -7 8279.67 723.486   3
 -12  13  -7 7334.63 538.923   4
 -13  12  -7 7836.30 562.766   4
   1 -13  -4 847.633 305.009   3
  -1 -12  -4 1487.86 351.290   3
  12   1  -4 1008.18 345.472   1
 -13  12  -4 1036.15 250.051   3
  13  -1  -4 732.478 295.262   1
 -12  13  -4 964.052 269.084   4
 -13  12  -4 931.342 267.991   4
 -13  12  -4 838.165 240.600   1
 -13  12  -4 894.372 360.786   2
 -12  13  -4 1069.16 368.347   2
 -12  13  -4 714.433 203.595   3
  13  -1  -1 9901.04 515.439   1
 -13  12  -1 10218.5 555.289   4
 -12  13  -1 10164.4 520.461   1
   1 -13  -1 10373.1 445.974   3
 -13  12  -1 10316.0 513.192   1
  12   1  -1 11208.7 542.292   1
 -13  12  -1 10407.2 388.537   3
 -13  12  -1 10671.8 615.660   2
  -1 -12  -1 10585.5 463.222   3
 -12  13  -1 10059.6 583.808   2
 -12  13  -1 9658.71 536.356   4
  -1 -12   2 2653.55 223.855   3
  -1 -12   2 2526.88 324.903   4
  13  -1   2 2287.16 235.975   1
  12   1   2 2549.21 237.676   1
 -13  12   2 3029.41 354.256   4
   1 -13   2 2578.44 324.380   4
 -12  13   2 2726.23 332.010   4
 -13  12   2 2689.83 291.001   2
   1 -13   2 2773.84 362.788   2
 -12  13   2 2421.29 286.519   2
  -1 -12   2 2411.17 340.116   2
 -12  13   5 823.923 231.092   4
   1 -13   5 1029.64 235.325   4
 -12  13   5 1244.85 244.503   2
 -13  12   5 1017.77 222.181   2
  -1 -12   5 1357.18 250.966   4
 -13  12   5 1004.06 259.698   4
 -13  12   8 883.546 229.656   4
 -12  13   8 825.258 242.132   4
   0 -13  -8 21841.0 1150.88   3
  13   0  -8 21122.5 1068.37   1
 -13  13  -8 21013.9 899.277   4
 -13  13  -8 21613.0 873.590   3
 -13  13  -8 20023.4 1138.00   2
   0 -13  -8 18895.2 591.796   1
   0 -13  -5 436.352 332.448   3
 -13  13  -5 83.0127 351.690   2
 -13  13  -5 1.26296 231.916   3
  13   0  -5 281.874 344.767   1
 -13  13  -5-30.7725 247.640   4
 -13  13  -2 49185.3 1042.64   1
   0 -13  -2 52844.0 1065.45   3
 -13  13  -2 52115.3 774.005   3
 -13  13  -2 50085.2 1146.47   4
 -13  13  -2 53016.4 1350.09   2
  13   0  -2 51866.5 1162.05   1
  13   0   1 248.909 202.925   1
   0 -13   1-153.558 175.974   3
 -13  13   1 42.9819 230.169   4
 -13  13   1-121.810 242.551   2
   0 -13   1 33.4891 258.910   4
 -13  13   4 60801.6 1041.25   2
   0 -13   4 61861.9 1182.93   4
 -13  13   4 62075.7 1224.01   4
   0 -13   7 29.8198 205.992   4
 -13  13   7 190.382 217.935   4
 -14   0  -8 1763.21 499.186   3
  14 -14  -8 1099.52 395.131   1
   0  14  -8 2199.81 552.013   1
   0  14  -8 1874.52 288.302   4
   0  14  -8 1487.31 371.376   2
 -14   0  -5-269.383 332.561   3
   0  14  -5 273.321 225.936   4
   0  14  -5-120.406 190.175   3
  14 -14  -5 371.962 308.191   1
  14 -14  -5-267.316 240.631   2
   0  14  -5-101.799 257.348   2
  14 -14  -2 8808.69 517.841   1
   0  14  -2 8329.56 357.031   3
 -14   0  -2 8945.77 549.750   3
 -14   0  -2 7615.53 387.504   1
   0  14  -2 9013.33 515.311   2
  14 -14  -2 8849.27 442.917   3
  14 -14  -2 9147.55 517.932   2
   0  14  -2 9901.66 530.621   4
   0  14   1-269.601 239.018   3
   0  14   1 14.4705 242.442   4
  14 -14   1 181.873 217.251   1
   0  14   1 72.2684 213.158   2
 -14   0   1-151.580 173.842   2
 -14   0   1 377.017 262.843   3
   0  14   1 113.492 208.619   1
 -14   0   1-108.481 269.485   1
  14 -14   1 16.6671 199.057   3
  14 -14   4 1179.95 258.860   3
   0  14   4 1388.94 322.779   2
 -14   0   4 1253.69 250.404   4
   0  14   4 1695.32 263.409   1
   0  14   4 1244.86 310.072   4
 -14   0   7 20.4790 137.480   4
   0  14   7-345.909 281.199   1
 -14   0   7-129.316 143.487   4
 -13  -1  -9 5160.40 683.309   3
 -14   1  -9 4308.41 660.018   3
  -1  14  -9 4322.29 517.334   3
   1  13  -9 4443.24 463.291   2
  14 -13  -9 4280.38 530.581   1
  -1  14  -9 4506.60 648.960   1
   1  13  -9 5542.03 727.641   1
  -1  14  -9 4402.90 526.927   2
  13 -14  -9 4475.19 549.807   1
  13 -14  -6 662.191 349.437   1
 -13  -1  -6 742.765 379.989   3
 -14   1  -6 1089.20 422.663   3
  14 -13  -6 593.281 329.636   1
   1  13  -6 1163.56 456.543   1
   1  13  -6 944.660 244.758   3
  -1  14  -6 775.721 212.040   3
   1  13  -6 742.083 279.303   2
  14 -13  -6 820.322 243.788   2
  -1  14  -6 1047.40 261.966   4
  13 -14  -6 1073.64 271.673   2
  -1  14  -6 849.572 312.699   2
   1  13  -6 1278.95 273.968   4
  13 -14  -3 7575.09 484.673   1
  -1  14  -3 7428.65 315.515   3
 -13  -1  -3 6705.09 511.847   3
   1  13  -3 6909.16 348.486   3
 -14   1  -3 6970.33 521.520   3
  -1  14  -3 7519.99 495.321   2
 -14   1  -3 6990.60 324.432   1
  14 -13  -3 7369.29 451.025   2
  13 -14  -3 7061.41 459.758   2
  -1  14  -3 8177.56 484.658   4
   1  13  -3 7671.97 464.545   4
   1  13  -3 7196.28 465.386   2
  14 -13  -3 6752.42 475.752   1
  -1  14   0 1898.08 295.844   2
  14 -13   0 1864.18 344.792   2
   1  13   0 1545.33 257.903   3
  -1  14   0 1274.01 234.868   3
 -13  -1   0 1970.51 267.884   2
  14 -13   0 1762.91 248.980   3
  13 -14   0 2094.81 220.944   3
 -13  -1   0 1602.29 315.025   3
 -14   1   0 1700.12 314.997   3
 -14   1   0 1389.11 303.378   1
 -14   1   0 1785.78 264.935   2
  14 -13   0 1961.63 291.009   1
  13 -14   0 1347.35 310.706   2
   1  13   0 1877.47 279.563   2
   1  13   0 2250.38 308.572   4
  -1  14   0 1872.23 295.013   4
  13 -14   0 1943.59 294.755   1
 -13  -1   0 1615.16 308.511   1
  -1  14   3 3557.45 397.912   4
 -14   1   3 2490.11 166.623   2
  -1  14   3 3223.39 373.309   2
   1  13   3 3359.94 375.714   2
 -13  -1   3 2828.57 207.566   2
  13 -14   3 3028.81 262.827   3
   1  13   3 3404.78 293.626   1
 -13  -1   3 3460.64 388.760   3
  -1  14   3 3550.44 319.072   1
   1  13   3 3586.23 388.578   4
  14 -13   3 3026.84 300.076   3
 -13  -1   3 3048.71 316.835   4
  -1  14   3 2928.76 387.671   3
  14 -13   6 459.618 309.702   3
   1  13   6 1479.61 342.910   4
  -1  14   6 529.665 309.273   2
  -1  14   6 934.607 291.857   1
   1  13   6 924.794 325.997   2
   1  13   6 1030.19 255.407   1
 -14   1   6 797.810 203.180   4
 -13  -1   6 714.962 195.765   4
 -14   1   6 957.872 206.079   4
  -1  14   6 1288.92 345.964   4
  -1  14   9 2817.42 427.984   4
   2  12 -10 3768.80 472.869   2
   2  12 -10 3365.38 524.381   3
 -12  -2 -10 2923.02 628.829   3
  14 -12 -10 3614.38 563.090   1
  -2  14 -10 4002.96 558.796   3
  12 -14 -10 3988.51 550.240   1
 -14   2 -10 4822.20 729.106   3
  -2  14 -10 3801.52 588.051   1
  12 -14 -10 2526.17 658.314   3
  -2  14 -10 4265.62 546.984   2
   2  12 -10 2898.10 576.028   1
 -14   2  -7 11048.7 767.723   3
  -2  14  -7 11175.0 690.050   2
   2  12  -7 10417.6 588.045   2
  -2  14  -7 9437.74 474.536   3
  -2  14  -7 11040.6 776.378   1
   2  12  -7 13482.8 896.850   1
  14 -12  -7 10126.2 675.518   1
  14 -12  -7 7966.56 396.509   2
 -12  -2  -7 9258.90 722.365   3
  12 -14  -7 8532.52 511.523   2
  -2  14  -7 11291.9 529.144   4
   2  12  -7 11071.7 479.038   4
  12 -14  -7 10560.0 655.901   1
  14 -12  -4 6857.80 502.607   1
  12 -14  -4 6898.44 484.165   1
   2  12  -4 6987.11 448.337   2
 -14   2  -4 6369.28 510.674   3
 -14   2  -4 5142.09 226.707   1
  -2  14  -4 7616.97 523.610   2
  -2  14  -4 6639.39 290.673   3
   2  12  -4 5345.66 339.966   3
  12 -14  -4 6394.88 427.868   2
 -12  -2  -4 6797.57 547.593   3
  14 -12  -4 6454.71 389.981   2
  -2  14  -4 7049.46 436.138   4
   2  12  -4 6623.38 412.476   4
  -2  14  -1 17068.3 412.203   3
   2  12  -1 19166.4 669.995   2
   2  12  -1 18076.9 559.838   3
 -12  -2  -1 17784.8 699.872   3
  14 -12  -1 17785.8 563.047   3
  12 -14  -1 18587.9 645.757   1
  14 -12  -1 18645.1 663.432   1
  14 -12  -1 18285.7 686.125   2
  12 -14  -1 17803.0 724.990   2
 -12  -2  -1 17197.5 568.550   1
 -14   2  -1 16782.1 674.467   3
 -14   2  -1 17951.7 610.517   1
  -2  14  -1 18874.4 708.815   4
  12 -14  -1 18738.6 509.294   3
 -12  -2  -1 18382.0 666.938   2
   2  12  -1 19046.0 689.441   4
  -2  14  -1 18175.9 679.942   2
   2  12   2 10406.7 557.639   3
 -12  -2   2 10863.2 403.350   2
 -12  -2   2 11098.3 517.743   4
  12 -14   2 11132.2 344.072   3
  -2  14   2 11150.5 563.861   2
  -2  14   2 12117.2 602.776   4
 -14   2   2 11379.4 365.307   2
   2  12   2 11359.0 574.121   2
  14 -12   2 11827.0 488.905   3
   2  12   2 11551.7 598.009   4
  14 -12   2 12089.4 507.029   1
 -12  -2   2 11475.9 572.253   3
   2  12   2 11844.5 453.192   1
 -14   2   2 10637.5 558.478   3
  -2  14   2 11934.4 486.813   1
  -2  14   2 11675.7 541.870   3
  14 -12   5 26378.2 836.332   3
  -2  14   5 28313.6 937.891   4
  -2  14   5 27238.7 960.727   2
 -12  -2   5 26078.1 658.372   4
   2  12   5 26991.8 996.351   2
   2  12   5 30428.7 679.700   1
  -2  14   5 29146.3 792.221   1
   2  12   5 28764.4 967.589   4
 -14   2   5 26713.6 682.567   4
  -2  14   8 12746.1 690.035   4
   2  12   8 13094.9 732.511   4
  -3  14  -8 1620.44 370.323   3
  14 -11  -8 1728.83 449.315   1
 -14   3  -8 1157.36 451.797   3
   3  11  -8 1792.03 329.120   2
  -3  14  -8 2635.84 506.748   1
  -3  14  -8 1753.30 294.300   4
 -11  -3  -8 1549.67 509.714   3
  -3  14  -8 1260.40 362.747   2
   3  11  -8 320.608 437.030   1
   3  11  -8 1200.60 173.166   4
  11 -14  -8 1271.67 367.451   1
  11 -14  -5 3863.77 407.028   1
 -11  -3  -5 4356.81 496.765   3
  14 -11  -5 3445.40 275.242   2
 -14   3  -5 2698.02 150.090   1
 -14   3  -5 3351.97 431.774   3
  -3  14  -5 4601.23 377.479   4
   3  11  -5 3722.13 326.217   3
  -3  14  -5 4297.89 261.618   3
  -3  14  -5 4377.85 452.166   2
   3  11  -5 4405.35 369.501   2
  11 -14  -5 3679.29 363.325   2
   3  11  -5 3955.50 516.262   1
   3  11  -5 4293.73 330.663   4
  14 -11  -5 4390.82 458.573   1
   3  11  -2 7300.59 430.001   2
  11 -14  -2 7247.83 474.091   2
  14 -11  -2 7098.90 415.719   2
   3  11  -2 7499.70 382.269   3
 -11  -3  -2 7523.21 508.416   3
  14 -11  -2 7862.00 432.645   3
  11 -14  -2 8115.68 460.450   1
  -3  14  -2 7934.59 470.971   4
 -14   3  -2 7094.88 478.896   3
   3  11  -2 8406.64 466.514   4
  -3  14  -2 8045.07 492.056   2
 -14   3  -2 7605.51 393.485   1
  14 -11  -2 7701.72 478.107   1
  -3  14  -2 6047.77 194.715   3
  -3  14   1 4800.16 393.369   2
   3  11   1 4738.71 381.641   3
 -11  -3   1 4846.37 329.098   2
   3  11   1 5019.15 401.872   2
  11 -14   1 4975.02 242.781   3
 -11  -3   1 4649.99 376.374   4
 -11  -3   1 5487.55 428.008   3
 -14   3   1 5452.15 423.208   3
 -11  -3   1 4627.04 402.536   1
  11 -14   1 4972.04 379.436   1
  14 -11   1 4133.94 351.370   3
  14 -11   1 4935.45 353.420   1
   3  11   1 4847.77 408.071   4
  -3  14   1 5261.62 425.665   4
 -14   3   1 4789.20 432.852   1
  -3  14   1 5322.70 373.515   1
  14 -11   4 7190.08 450.517   3
   3  11   4 7897.77 551.514   2
  -3  14   4 7416.24 493.972   2
 -11  -3   4 6724.10 379.979   4
  -3  14   4 7390.23 435.332   1
  -3  14   4 8099.42 517.387   4
 -11  -3   4 6003.89 279.863   2
   3  11   4 7561.07 518.459   4
   3  11   4 8311.48 350.032   1
   3  11   7 2583.23 398.313   4
 -11  -3   7 1276.01 132.274   4
   3  11   7 2173.03 238.090   1
  -3  14   7 1770.26 401.839   2
  -3  14   7 2418.60 382.060   4
 -14   3   7 1792.18 177.207   4
 -14   3   7 1712.15 172.763   4
  10 -14  -9 2546.55 590.077   3
  14 -10  -9 3000.79 544.232   1
 -14   4  -9 2879.12 551.255   3
   4  10  -9 2562.07 551.918   1
 -10  -4  -9 2609.79 567.474   3
  -4  14  -9 2588.83 536.362   1
  -4  14  -9 2710.06 307.612   4
  -4  14  -9 3636.23 478.562   3
  10 -14  -9 2530.51 438.140   1
  -4  14  -9 3072.41 484.060   2
   4  10  -9 3141.12 381.151   2
  -4  14  -6 519.239 250.045   3
 -10  -4  -6 1409.63 429.147   3
 -14   4  -6-614.687 349.280   3
  -4  14  -6 531.463 304.583   2
 -14   4  -6 379.576 106.104   1
  14 -10  -6 197.038 130.241   2
  14 -10  -6 603.325 348.071   1
  -4  14  -6 649.766 243.780   4
   4  10  -6 385.532 418.424   1
   4  10  -6 358.159 215.035   2
   4  10  -6 467.551 214.848   4
  10 -14  -6 340.040 289.277   1
 -14   4  -3 6997.54 344.778   1
 -14   4  -3 6744.79 480.435   3
  -4  14  -3 5482.73 163.777   3
 -10  -4  -3 5993.64 486.691   3
   4  10  -3 6821.47 375.451   3
  10 -14  -3 7321.62 449.725   1
  14 -10  -3 6854.02 361.786   2
  14 -10  -3 6847.96 482.566   1
  -4  14  -3 7443.88 454.223   4
   4  10  -3 7189.73 400.931   2
  10 -14  -3 6698.06 440.216   2
  -4  14  -3 7235.03 490.511   2
   4  10  -3 7593.99 415.489   4
  -4  14   0 1885.65 287.672   2
  14 -10   0 2201.72 286.929   1
  14 -10   0 2256.02 274.061   3
 -14   4   0 2523.54 342.384   1
  10 -14   0 2481.96 181.952   3
  -4  14   0 1970.67 284.911   1
   4  10   0 2161.74 301.740   3
 -14   4   0 1714.88 285.174   3
 -10  -4   0 1792.34 309.331   3
  10 -14   0 1903.89 356.266   2
  10 -14   0 2219.67 293.121   1
  10 -14   0 2289.61 315.084   4
   4  10   0 2251.23 298.164   2
 -10  -4   0 2412.71 280.518   2
  -4  14   0 2157.32 307.742   4
 -10  -4   0 2142.97 301.935   4
   4  10   0 1773.10 281.752   4
  14 -10   3 4328.80 365.685   3
 -14   4   3 3675.27 145.627   2
   4  10   3 5462.25 282.301   1
   4  10   3 4494.43 408.894   2
   4  10   3 5510.21 445.276   4
 -10  -4   3 4837.04 396.884   3
 -14   4   3 3456.06 167.452   2
 -10  -4   3 5459.19 301.715   2
 -10  -4   3 4589.55 337.928   4
  -4  14   3 5222.21 422.809   4
  -4  14   3 4815.87 386.520   2
  -4  14   3 5557.02 379.611   1
  14 -10   3 5322.29 343.699   1
   4  10   6 1193.67 170.267   1
  -4  14   6 1847.11 375.112   2
 -10  -4   6 1033.98 184.386   4
 -14   4   6 1043.47 192.219   4
  -4  14   6 1767.61 335.588   4
   4  10   6 1797.26 354.172   4
  -4  14   9 4840.86 467.918   4
  14  -9 -10 1409.56 503.560   1
   9 -14 -10 1558.70 596.169   3
   5   9 -10 1485.73 500.460   1
  -5  14 -10 1552.30 420.453   3
  -9  -5 -10 636.215 511.432   3
 -14   5 -10 1308.74 501.803   3
   9 -14 -10 936.754 381.033   1
  -5  14 -10 1629.01 439.859   2
  -5  14 -10 1318.47 494.833   1
   5   9 -10 1203.32 321.630   2
   9 -14  -7 11131.6 815.561   3
   9 -14  -7 12329.8 658.588   1
  -9  -5  -7 10834.0 783.007   3
 -14   5  -7 10284.2 702.828   3
   5   9  -7 12062.9 832.155   1
  14  -9  -7 11192.7 720.691   1
 -14   5  -7 8815.39 293.935   1
   5   9  -7 10319.4 502.840   2
 -14   5  -7 8277.11 293.595   1
  -5  14  -7 11849.2 736.068   2
  -5  14  -7 11125.5 576.628   3
  -5  14  -7 12060.7 563.564   4
  -5  14  -4 2895.27 192.694   3
   9 -14  -4 3137.12 352.348   2
   5   9  -4 2475.90 293.833   3
 -14   5  -4 2934.21 371.157   3
  -9  -5  -4 2510.05 386.490   3
  -5  14  -4 3045.67 400.125   2
   9 -14  -4 2877.75 331.076   1
  -5  14  -4 3049.59 159.464   3
  14  -9  -4 3089.51 402.570   1
   5   9  -4 3187.04 459.919   1
  -5  14  -4 3339.31 325.069   4
 -14   5  -4 3015.34 254.207   1
   5   9  -4 3452.32 296.730   2
   5   9  -4 3236.82 297.981   4
 -14   5  -1 15960.8 581.016   1
   5   9  -1 16451.8 588.919   2
   5   9  -1 15218.0 559.502   3
   9 -14  -1 15992.9 593.784   1
  -9  -5  -1 15447.1 638.486   3
 -14   5  -1 15293.1 593.645   3
  -5  14  -1 17265.9 668.769   4
  -9  -5  -1 14874.7 636.035   4
  -9  -5  -1 15054.7 587.990   2
   9 -14  -1 15634.4 653.800   4
  14  -9  -1 15012.3 551.916   3
   9 -14  -1 15775.4 668.471   2
  -5  14  -1 16571.3 633.552   1
  14  -9  -1 15747.3 610.266   1
  -5  14  -1 16162.4 653.895   2
   5   9  -1 15699.8 604.494   4
  -5  14   2 14850.7 608.761   2
  -5  14   2 15998.7 572.903   1
  -9  -5   2 15009.3 598.617   3
   5   9   2 15046.7 642.500   2
  14  -9   2 15629.9 605.163   3
   9 -14   2 16748.6 660.995   4
 -14   5   2 14011.6 603.422   3
 -14   5   2 15646.5 471.579   2
  14  -9   2 15302.2 508.362   1
  -5  14   2 15821.3 656.818   4
  -9  -5   2 14520.6 559.368   4
   5   9   2 16117.2 667.559   4
  -9  -5   2 15224.1 498.349   2
   5   9   2 13721.0 624.674   3
  -5  14   5 18033.4 749.315   2
  -9  -5   5 16233.1 526.827   4
  -9  -5   5 18186.2 539.619   2
   5   9   5 19145.6 784.112   4
 -14   5   5 17430.3 559.783   4
  -5  14   5 19001.9 739.227   4
   5   9   5 16867.6 371.923   1
  -5  14   8 6285.55 476.610   4
   8 -14  -8 3194.90 416.735   1
 -14   6  -8 3536.35 514.745   3
  -8  -6  -8 2902.88 543.721   3
   8 -14  -8 2811.42 553.478   3
   6   8  -8 2639.18 305.661   2
  14  -8  -8 3143.75 522.004   1
 -14   6  -8 2223.32 242.330   1
  -6  14  -8 2962.49 482.369   2
  -6  14  -8 2696.65 362.443   4
   6   8  -8 2786.51 549.187   1
  -6  14  -8 3116.81 409.822   3
   6   8  -5 12912.2 764.348   1
  -6  14  -5 11660.5 418.981   3
  -8  -6  -5 10128.1 663.669   3
   8 -14  -5 11774.5 557.875   1
 -14   6  -5 11665.4 640.479   3
  14  -8  -5 11212.4 645.742   1
 -14   6  -5 11401.8 398.284   1
   6   8  -5 11450.5 455.290   4
  -6  14  -5 11448.8 684.353   2
  -6  14  -5 11893.5 562.762   4
   8 -14  -5 11770.2 707.901   3
   6   8  -5 11468.5 459.532   2
  -6  14  -2 526.640 241.425   4
   6   8  -2 352.448 285.654   1
   8 -14  -2 43.5210 247.746   4
  -8  -6  -2 784.266 267.565   3
  -6  14  -2 347.863 247.565   2
   6   8  -2 438.690 228.222   3
 -14   6  -2 109.255 243.518   3
   6   8  -2 331.400 195.259   2
  14  -8  -2 468.353 227.161   3
  14  -8  -2 56.1668 264.682   1
 -14   6  -2 342.065 233.802   1
   6   8  -2 423.040 208.607   4
   8 -14  -2 371.478 217.497   1
   8 -14  -2 346.231 250.253   2
 -14   6   1 48141.7 1101.23   1
  14  -8   1 45253.1 869.312   1
  14  -8   1 45357.6 987.593   3
   6   8   1 46730.9 1038.09   2
 -14   6   1 44745.2 977.765   3
  -8  -6   1 46717.2 983.315   3
   6   8   1 43663.8 998.564   3
 -14   6   1 48262.6 958.618   2
  -6  14   1 46859.2 969.010   1
   8 -14   1 47941.8 1076.11   4
  -6  14   1 46701.8 1074.80   4
  -8  -6   1 45203.5 989.305   4
   6   8   1 46871.0 1055.72   4
  -6  14   1 45585.3 1007.25   2
   8 -14   1 47558.6 1185.76   2
  -8  -6   1 49176.0 927.629   2
  14  -8   4 8106.61 529.950   3
   6   8   4 9307.73 553.234   4
   6   8   4 7991.64 551.375   2
 -14   6   4 8625.10 436.039   4
  -6  14   4 8396.61 500.576   1
  -8  -6   4 8837.64 416.876   2
  -6  14   4 9830.21 548.413   4
  -8  -6   4 7758.92 399.222   4
   6   8   4 8414.46 256.296   1
  -6  14   4 8760.03 505.672   2
 -14   6   7 2426.99 218.514   4
  -6  14   7 2896.79 446.806   2
  -6  14   7 2543.66 358.352   4
  -6  14  10 1101.50 310.255   4
   7 -14  -9 2489.36 584.205   3
   7   7  -9 2196.82 551.336   1
  -7  14  -9 2409.80 428.559   3
   7 -14  -9 1977.12 397.858   1
  -7  -7  -9 1958.16 515.134   3
 -14   7  -9 2793.13 541.695   3
 -14   7  -9 2114.31 277.284   1
  -7  14  -9 3250.20 504.324   1
 -14   7  -9 2056.82 373.018   4
  -7  14  -9 1949.21 334.986   4
  -7  14  -9 2826.51 527.678   2
  14  -7  -9 1337.97 435.750   1
   7   7  -9 1845.63 270.859   2
   7 -14  -6 1267.32 399.918   3
   7   7  -6 1245.03 208.928   2
  -7  14  -6 1064.61 254.902   3
  -7  -7  -6 2001.63 439.285   3
 -14   7  -6 1743.10 360.620   3
 -14   7  -6 1286.76 215.031   1
  -7  14  -6 1049.80 277.823   4
   7 -14  -6 1129.62 295.357   1
  14  -7  -6 1498.33 392.595   1
  -7  14  -6 1183.51 383.524   2
   7   7  -6 1707.01 467.194   1
  -7  -7  -3 15976.2 697.974   3
 -14   7  -3 16429.3 654.519   3
   7   7  -3 15019.1 574.335   3
  14  -7  -3 16091.1 687.606   1
   7   7  -3 16793.4 568.978   4
 -14   7  -3 16775.0 535.925   1
   7   7  -3 17522.9 766.034   1
  -7  14  -3 17222.0 666.308   4
   7 -14  -3 17238.8 600.578   1
  -7  14  -3 17382.4 762.954   2
   7 -14  -3 17336.9 684.072   2
   7   7  -3 16799.4 529.816   2
   7 -14  -3 17981.6 694.903   3
   7 -14   0 1010.70 306.900   2
   7 -14   0 933.202 152.361   3
  -7  14   0 1091.54 257.355   2
  14  -7   0 999.264 268.236   3
   7   7   0 537.799 254.003   3
  -7  14   0 1277.94 282.027   4
  -7  -7   0 867.462 263.889   3
  14  -7   0 832.663 239.068   1
  -7  14   0 869.826 259.194   1
   7   7   0 1018.50 252.887   2
 -14   7   0 944.396 237.696   3
  -7  -7   0 837.491 229.294   2
 -14   7   0 830.007 286.282   1
 -14   7   0 790.646 268.472   2
   7   7   0 1161.71 273.817   1
   7 -14   0 628.167 268.032   4
  -7  -7   0 878.401 256.056   4
   7   7   0 717.887 240.721   4
  -7  14   3 17277.1 640.237   1
  14  -7   3 16241.1 478.497   1
  -7  14   3 15828.4 616.424   2
  14  -7   3 15324.9 663.782   3
   7   7   3 16300.7 715.347   2
  -7  -7   3 15383.8 577.821   3
 -14   7   3 15875.5 598.121   4
   7 -14   3 17696.6 659.704   4
  -7  -7   3 15418.9 564.649   4
  -7  14   3 16418.2 670.916   4
  -7  -7   3 16517.2 567.142   2
   7   7   3 16447.0 686.375   4
 -14   7   3 15359.9 374.365   2
  -7  14   6 886.001 296.045   2
 -14   7   6 1065.53 204.650   4
  -7  -7   6 1009.74 193.832   4
  -7  14   6 1571.73 305.930   4
  -7  14   9 1526.06 314.538   4
  -8  14 -10 1683.89 420.169   3
 -14   8 -10 707.486 348.137   4
   8   6 -10 851.174 492.266   1
 -14   8 -10 875.592 483.012   3
  -8  14 -10 1315.46 426.409   1
   6 -14 -10 1271.25 562.875   3
  -8  14 -10 1428.15 499.690   2
   6 -14 -10 1591.73 395.793   1
  14  -6 -10 1604.79 513.764   1
  -6  -8 -10 959.016 551.969   3
  -8  14  -7 2522.58 336.285   3
   6 -14  -7 2830.84 532.786   3
 -14   8  -7 2549.60 268.244   1
 -14   8  -7 2754.39 452.793   3
  -6  -8  -7 2896.39 543.651   3
   6 -14  -7 2232.77 343.736   1
  -8  14  -7 2854.29 490.533   2
  14  -6  -7 3153.07 488.410   1
  -8  14  -7 2764.98 383.706   4
   8   6  -7 3241.56 533.592   1
   8   6  -7 2498.83 233.527   2
   6 -14  -4 9733.84 603.712   3
   8   6  -4 7967.39 349.193   2
  -6  -8  -4 7477.38 553.762   3
  -8  14  -4 8237.29 278.162   3
 -14   8  -4 8940.59 518.080   3
 -14   8  -4 7818.53 380.192   1
  14  -6  -4 7921.68 549.425   1
   8   6  -4 8581.58 604.426   1
  -8  14  -4 8832.29 605.550   2
   6 -14  -4 7794.11 421.689   1
  -8  14  -4 8487.63 496.736   4
   6 -14  -1 45896.5 784.527   3
   6 -14  -1 44898.5 948.681   1
  -6  -8  -1 46510.8 1024.44   2
  -6  -8  -1 44323.8 973.519   3
   6 -14  -1 48125.2 1100.37   4
   8   6  -1 43922.3 955.117   3
   8   6  -1 45677.9 903.831   2
  14  -6  -1 44407.8 972.355   3
 -14   8  -1 45703.5 912.802   3
 -14   8  -1 45292.4 946.319   1
  -8  14  -1 45199.4 977.226   1
  14  -6  -1 44585.2 980.759   1
  -8  14  -1 47065.6 1085.77   4
   8   6  -1 47151.4 1033.79   1
  -8  14  -1 43588.6 1069.10   2
 -14   8  -1 47942.8 1176.30   2
   6 -14  -1 47350.1 1086.32   2
  -6  -8  -1 45036.7 1056.20   4
   8   6  -1 44907.8 971.783   4
  -6  -8   2-369.430 214.046   2
   8   6   2-78.8702 185.759   1
   6 -14   2 285.353 242.575   4
  -8  14   2 240.997 258.838   1
  14  -6   2 428.590 278.933   3
  -8  14   2-181.514 202.874   2
 -14   8   2 364.532 179.089   2
   8   6   2 167.645 243.563   2
   8   6   2 242.303 276.458   3
  14  -6   2-116.662 180.002   1
   8   6   2 262.075 234.548   4
  -6  -8   2 48.2491 213.178   3
  -8  14   2 187.641 224.392   4
 -14   8   2-51.3873 214.342   4
  -6  -8   2 483.596 239.975   4
  -8  14   5 11953.1 573.726   2
  -8  14   5 12667.9 594.731   4
  -6  -8   5 12769.8 568.109   2
  -6  -8   5 11278.4 455.013   4
 -14   8   5 12076.0 495.397   4
   6 -14   5 12842.6 572.671   4
 -14   8   8 1922.95 188.017   4
  -8  14   8 2770.55 347.006   4
   5 -14  -8 6480.56 738.244   3
  -9  14  -8 6795.10 513.541   3
  -9  14  -8 6819.76 704.689   2
  -5  -9  -8 5382.14 662.970   3
 -14   9  -8 6834.88 615.110   3
  14  -5  -8 6662.48 643.950   1
   9   5  -8 7353.56 722.710   1
   5 -14  -8 6344.51 471.282   1
 -14   9  -8 5465.43 530.234   4
  -9  14  -8 7686.28 550.277   4
   9   5  -8 4989.53 261.845   2
   5 -14  -5 17620.4 845.561   3
 -14   9  -5 16061.7 533.949   1
 -14   9  -5 16991.6 733.164   4
  -5  -9  -5 16398.7 807.633   3
  -9  14  -5 18761.4 523.669   3
  14  -5  -5 16188.3 769.459   1
 -14   9  -5 16973.6 700.737   3
  -9  14  -5 17239.0 876.455   2
   9   5  -5 18010.1 848.394   1
   5 -14  -5 17359.4 604.260   1
  -9  14  -5 17310.5 703.284   4
   9   5  -5 16683.2 436.783   2
   5 -14  -2 13761.7 533.426   3
  -5  -9  -2 13813.5 613.968   3
   9   5  -2 14168.7 483.509   2
   9   5  -2 12110.8 560.678   3
 -14   9  -2 14283.0 542.393   3
  -9  14  -2 15214.4 644.675   4
 -14   9  -2 13358.9 618.687   4
  14  -5  -2 13714.6 620.720   1
 -14   9  -2 13537.1 717.323   2
 -14   9  -2 14781.8 549.523   1
   9   5  -2 13858.7 644.444   1
  -9  14  -2 13364.3 669.046   2
   5 -14  -2 13544.4 537.813   1
 -14   9   1 14831.3 575.613   2
  -9  14   1 14942.4 611.327   1
  14  -5   1 15230.3 514.925   1
   9   5   1 13332.8 610.841   3
  14  -5   1 13249.1 616.183   3
  -9  14   1 14047.5 586.023   2
   9   5   1 13297.8 587.084   2
   5 -14   1 14730.8 678.198   2
 -14   9   1 15018.8 561.307   3
  -5  -9   1 15154.5 580.438   2
 -14   9   1 14225.6 634.308   1
   5 -14   1 16111.2 657.157   4
  -5  -9   1 14036.4 524.388   3
   9   5   1 15154.2 531.749   1
 -14   9   1 14908.6 624.129   4
  -9  14   1 15517.8 656.384   4
  -5  -9   1 14398.8 597.447   4
   5 -14   4 3356.91 336.078   4
 -14   9   4 2889.39 192.945   2
  -9  14   4 3255.42 325.471   2
 -14   9   4 2903.28 301.145   4
  -5  -9   4 2966.48 299.820   4
  -9  14   4 3357.74 358.453   4
  -5  -9   4 2928.54 334.571   2
  -9  14   7 10540.6 618.979   2
  -9  14   7 11817.7 588.448   4
 -14   9   7 10886.3 444.438   4
   4 -14  -9 5755.77 758.499   3
  -4 -10  -9 4980.76 686.772   3
 -10  14  -9 5030.71 519.413   3
 -14  10  -9 5730.14 613.200   3
  14  -4  -9 4703.42 623.747   1
 -10  14  -9 5750.20 534.771   4
 -14  10  -9 5013.58 428.150   1
   4 -14  -9 4857.19 430.842   1
 -10  14  -9 5774.69 554.138   1
 -14  10  -9 4720.72 514.308   4
 -10  14  -9 4330.62 619.403   2
 -14  10  -9 4136.84 699.267   2
  10   4  -9 5068.97 711.032   1
   4 -14  -6 1437.05 417.368   3
  10   4  -6 1085.15 131.500   2
  -4 -10  -6 804.057 370.731   3
 -10  14  -6 1492.68 281.120   3
 -14  10  -6 1098.79 334.623   3
 -10  14  -6 1383.95 386.668   2
  10   4  -6 1841.93 452.772   1
 -10  14  -6 1560.38 314.871   4
   4 -14  -6 1257.57 252.686   1
 -14  10  -6 1515.18 344.632   4
  14  -4  -6 1321.24 399.171   1
 -14  10  -6 1566.65 437.870   2
 -14  10  -6 1069.56 244.320   1
   4 -14  -3 6013.88 447.392   3
  -4 -10  -3 4980.98 448.926   3
 -10  14  -3 6212.50 519.442   2
  14  -4  -3 5678.05 457.174   1
  10   4  -3 5559.62 285.471   2
 -14  10  -3 5741.84 389.675   3
 -10  14  -3 6099.50 445.802   4
 -14  10  -3 5772.40 452.669   4
 -10  14  -3 5296.51 184.905   3
  10   4  -3 5841.60 475.105   1
 -14  10  -3 5518.43 545.344   2
 -14  10  -3 5949.51 379.077   1
   4 -14  -3 5412.13 357.675   1
 -14  10   0 2029.68 336.737   1
   4 -14   0 2149.49 190.667   3
 -14  10   0 2314.18 327.076   4
  10   4   0 1852.11 318.992   3
 -10  14   0 1723.01 303.702   1
  10   4   0 2247.37 301.445   1
  14  -4   0 1808.27 306.884   3
  -4 -10   0 1932.08 262.491   3
  14  -4   0 2532.76 312.670   1
  10   4   0 2173.40 285.014   2
 -14  10   0 2062.46 269.257   3
 -14  10   0 1827.39 324.697   2
   4 -14   0 2125.12 327.829   4
  -4 -10   0 2329.67 308.884   2
 -10  14   0 2167.39 322.563   2
 -10  14   0 1908.14 324.788   4
   4 -14   0 1767.72 329.628   2
  -4 -10   0 2303.42 326.226   4
  10   4   3 6494.94 238.114   1
  -4 -10   3 7506.44 441.551   4
 -10  14   3 6632.10 405.483   2
  14  -4   3 6973.32 293.128   1
   4 -14   3 7197.97 450.132   4
 -10  14   3 7121.69 461.568   4
 -14  10   3 6929.06 424.698   4
 -14  10   3 7036.58 328.572   2
  -4 -10   3 6970.17 452.269   2
 -10  14   6 396.047 239.755   4
 -10  14   6 230.057 243.809   2
   4 -14   6 400.700 227.524   4
  -4 -10   6 145.142 279.439   2
  -4 -10   6 372.114 187.817   4
 -14  10   6 111.930 210.948   4
 -10  14   9 2268.72 328.186   4
   3 -14 -10 3057.35 380.321   1
 -11  14 -10 3553.65 508.093   3
   3 -14 -10 3397.85 664.776   3
 -14  11 -10 4722.60 613.855   3
  -3 -11 -10 3089.62 648.373   3
  11   3 -10 3136.31 627.069   1
 -14  11 -10 3577.88 725.433   2
 -11  14 -10 2843.50 613.797   2
 -14  11 -10 3346.27 489.210   4
 -11  14 -10 3899.41 520.397   1
  14  -3 -10 2672.49 571.116   1
 -14  11 -10 3190.72 426.556   1
 -11  14 -10 3921.81 508.258   4
   3 -14  -7 3369.83 580.049   3
 -11  14  -7 2817.27 364.857   3
  -3 -11  -7 2795.18 493.871   3
  11   3  -7 2221.47 489.198   1
  14  -3  -7 2385.17 485.062   1
 -11  14  -7 3219.13 409.339   4
 -14  11  -7 2717.32 564.579   2
   3 -14  -7 2736.99 315.361   1
 -14  11  -7 2324.34 398.948   3
 -14  11  -7 3105.53 433.627   4
 -11  14  -7 2239.06 479.116   2
   3 -14  -4 8372.52 562.673   3
  14  -3  -4 7841.77 559.091   1
  -3 -11  -4 7585.41 549.573   3
 -14  11  -4 7555.30 422.133   1
 -11  14  -4 8910.82 342.407   3
 -14  11  -4 8189.70 472.659   3
  11   3  -4 6485.67 255.822   2
 -11  14  -4 8296.09 638.583   2
 -11  14  -4 7794.80 503.307   4
 -14  11  -4 7976.24 662.825   2
   3 -14  -4 7888.29 411.457   1
  11   3  -4 8459.16 596.781   1
 -14  11  -4 7752.70 520.157   4
   3 -14  -1 5246.71 324.959   3
  14  -3  -1 4492.70 393.027   1
 -14  11  -1 4234.50 449.146   2
 -14  11  -1 4795.59 326.201   3
 -14  11  -1 4002.76 401.090   4
 -11  14  -1 4819.59 416.807   4
 -11  14  -1 4291.47 418.628   2
  -3 -11  -1 4217.99 344.829   3
  11   3  -1 4461.15 396.654   1
 -14  11  -1 5111.09 390.010   1
 -14  11   2 7530.16 465.739   4
  11   3   2 7852.15 338.245   1
  -3 -11   2 7494.73 367.766   3
  -3 -11   2 7052.34 467.214   2
 -11  14   2 7293.99 433.925   2
   3 -14   2 7454.80 464.596   4
  14  -3   2 7398.40 345.453   1
 -14  11   2 7282.66 401.147   2
 -11  14   2 7860.11 491.582   4
  -3 -11   2 7898.00 483.316   4
 -14  11   5 3500.66 331.111   4
 -11  14   5 3693.42 340.135   2
 -14  11   5 3614.82 261.008   2
 -11  14   5 4134.79 382.388   4
  -3 -11   5 3453.81 314.109   4
  -3 -11   5 4293.35 429.697   2
   3 -14   5 3412.83 344.471   4
 -11  14   8 1722.66 313.452   4
 -14  11   8 1750.23 240.371   4
   2 -14  -8 14128.8 967.039   3
 -14  12  -8 12937.2 976.029   2
  -2 -12  -8 14278.3 970.619   3
  14  -2  -8 13515.1 860.091   1
 -12  14  -8 14316.0 708.739   3
 -14  12  -8 13607.8 739.581   3
 -12  14  -8 13514.6 926.788   2
   2 -14  -8 12489.0 540.461   1
 -14  12  -8 13122.6 749.462   4
 -12  14  -8 15402.9 793.461   4
  12   2  -8 12466.0 889.856   1
   2 -14  -5 27077.9 707.374   1
  14  -2  -5 27721.0 1025.54   1
 -12  14  -5 28878.5 926.677   4
  -2 -12  -5 28231.3 1029.80   3
 -14  12  -5 28962.6 831.302   3
 -14  12  -5 28303.2 942.130   4
 -12  14  -5 27362.7 1151.14   2
   2 -14  -5 29759.3 1065.97   3
  12   2  -5 25711.8 1015.29   1
 -12  14  -5 30150.4 729.692   3
 -14  12  -5 27747.9 1192.58   2
  14  -2  -2 12302.4 596.886   1
   2 -14  -2 12580.9 550.888   3
 -14  12  -2 12178.0 443.453   3
  -2 -12  -2 11702.5 548.667   3
 -14  12  -2 12091.3 554.831   1
 -12  14  -2 12173.9 330.377   3
 -12  14  -2 11882.1 676.157   2
 -14  12  -2 11645.1 600.673   4
 -14  12  -2 12119.0 705.582   2
 -12  14  -2 11956.8 593.778   4
  12   2  -2 12860.9 632.999   1
   2 -14   1 19449.8 411.226   3
  -2 -12   1 19921.3 555.171   3
  14  -2   1 19290.8 578.773   1
 -14  12   1 20144.7 699.970   2
 -14  12   1 20159.5 740.135   4
  -2 -12   1 20153.5 731.310   2
 -12  14   1 20150.8 747.428   4
  -2 -12   1 21577.9 774.301   4
 -12  14   1 19349.0 694.170   2
  12   2   1 19885.8 581.816   1
 -12  14   4 6018.75 386.703   2
  14  -2   4 4181.60 186.295   1
 -12  14   4 5819.69 448.538   4
   2 -14   4 5883.65 418.000   4
 -14  12   4 5299.55 415.353   4
 -14  12   4 5429.52 330.721   2
  -2 -12   4 5775.32 411.958   4
  -2 -12   7 9750.86 435.562   4
 -12  14   7 9576.36 544.124   2
   2 -14   7 10511.3 509.118   4
 -12  14   7 11072.7 562.967   4
 -14  12   7 10533.3 514.331   4
   1 -14  -9 2199.25 609.270   3
 -14  13  -9 3117.18 489.752   3
  -1 -13  -9 2426.44 593.420   3
 -13  14  -9 2870.76 454.900   3
   1 -14  -9 2066.42 300.865   1
  13   1  -9 2145.86 534.450   1
  14  -1  -9 2348.33 538.914   1
 -13  14  -9 1964.90 561.313   2
 -14  13  -9 1940.51 570.734   2
 -13  14  -9 3443.80 485.199   4
 -14  13  -9 2705.72 455.125   4
   1 -14  -6 1477.72 436.817   3
 -14  13  -6 1312.35 343.398   4
  13   1  -6 1890.50 456.957   1
 -13  14  -6 586.745 408.896   2
  14  -1  -6 1231.80 407.450   1
 -13  14  -6 1097.51 320.206   4
 -13  14  -6 1120.36 272.741   3
  -1 -13  -6 652.076 411.123   3
 -14  13  -6 1461.15 321.601   3
 -14  13  -6 1569.82 452.294   2
   1 -14  -3 5110.20 452.248   3
  -1 -13  -3 4254.98 416.798   3
 -13  14  -3 3960.47 264.025   3
 -14  13  -3 4841.51 545.050   2
  13   1  -3 4356.26 458.764   1
 -14  13  -3 4273.75 408.323   4
 -13  14  -3 3833.03 481.502   2
 -13  14  -3 4055.30 394.198   4
 -14  13  -3 4161.54 314.621   3
  14  -1  -3 3954.74 446.633   1
 -14  13   0 1857.67 341.357   2
   1 -14   0 1835.07 231.597   3
  -1 -13   0 1875.93 250.360   3
  13   1   0 1311.33 275.386   1
  14  -1   0 1179.78 274.015   1
 -13  14   0 1559.65 308.767   4
 -14  13   0 1577.74 305.758   4
 -13  14   0 1891.98 317.801   2
 -13  14   3 8308.45 507.602   4
   1 -14   3 8889.99 517.146   4
  13   1   3 8306.81 287.917   1
 -14  13   3 8887.12 516.215   4
  -1 -13   3 8542.00 516.884   4
 -14  13   3 8268.97 427.749   2
  14  -1   3 8524.95 305.472   1
 -13  14   3 8130.90 434.699   2
 -14  13   6 443.042 246.356   4
 -13  14   6 811.786 247.971   2
 -14  13   6 700.378 216.845   2
   1 -14   6 794.140 248.960   4
  -1 -13   6 724.009 236.923   4
 -13  14   6 824.187 266.605   4
 -14  13   9 3699.97 324.463   4
 -13  14   9 3848.87 370.642   4
 -14  14 -10 4227.67 561.459   3
   0 -14 -10 3509.20 728.726   3
 -14  14 -10 3391.81 534.796   4
  14   0 -10 3568.58 644.252   1
 -14  14 -10 2699.12 452.567   1
 -14  14 -10 2759.81 681.613   2
 -14  14  -7 121.720 425.940   2
   0 -14  -7 363.483 419.003   3
 -14  14  -7 9.15554 293.166   3
  14   0  -7-822.076 441.075   1
 -14  14  -7 67.9559 282.603   4
   0 -14  -4 1499.28 353.472   3
  14   0  -4 1237.18 354.630   1
 -14  14  -4 783.957 223.792   3
 -14  14  -4 517.830 250.936   4
 -14  14  -4 896.939 364.339   2
   0 -14  -1 71.9314 207.695   3
 -14  14  -1-79.7231 262.424   2
  14   0  -1 167.062 275.892   1
 -14  14  -1 294.211 272.663   4
  14   0   2 10004.5 398.227   1
   0 -14   2 9070.86 330.533   3
 -14  14   2 9773.65 501.824   2
 -14  14   2 9505.03 547.820   4
 -14  14   5-232.644 205.360   2
 -14  14   5-117.467 229.496   4
   0 -14   5-194.716 220.271   4
 -14  14   8 1552.06 299.227   4
   0  15  -9 94.8719 356.477   3
 -15   0  -9-764.457 529.726   3
  15 -15  -9-356.408 400.360   1
   0  15  -9 225.725 344.704   2
   0  15  -9 551.193 506.365   1
 -15   0  -6 5795.86 611.051   3
  15 -15  -6 5985.03 550.408   1
  15 -15  -6 3927.59 382.478   2
   0  15  -6 5378.62 432.159   4
   0  15  -6 4568.89 365.070   3
   0  15  -6 5595.80 498.627   2
   0  15  -3 17.1358 231.508   2
 -15   0  -3 282.480 186.568   1
  15 -15  -3 123.918 255.747   1
   0  15  -3 184.382 198.745   3
 -15   0  -3 129.172 301.958   3
  15 -15  -3 339.477 263.297   2
   0  15  -3-22.8760 235.114   4
   0  15   0 19605.2 777.767   4
   0  15   0 17092.7 590.390   3
   0  15   0 17418.7 718.961   2
 -15   0   0 17641.6 639.383   2
  15 -15   0 18117.7 554.463   3
 -15   0   0 16901.5 722.997   3
 -15   0   0 16611.0 682.050   1
  15 -15   0 17768.7 668.254   1
 -15   0   3 214.011 139.698   2
  15 -15   3 222.702 209.142   3
   0  15   3 155.735 262.266   4
 -15   0   3 178.739 231.284   4
   0  15   3-39.9271 257.091   2
 -15   0   3-358.532 279.330   3
   0  15   3-90.9743 218.434   1
   0  15   6 12421.2 564.728   1
   0  15   6 11517.1 741.567   2
   0  15   6 12463.4 703.480   4
   0  15   9 38.5480 317.908   4
  14 -15 -10 2254.70 681.867   3
   1  14 -10 1640.85 457.971   3
 -14  -1 -10 872.943 533.712   3
  -1  15 -10 1262.03 455.425   3
 -15   1 -10 914.197 530.267   3
  15 -14 -10 1830.01 498.147   1
  -1  15 -10 1263.21 534.483   1
  -1  15 -10 2067.13 419.857   2
  14 -15 -10 1295.39 454.448   1
   1  14 -10 1901.28 580.267   1
   1  14 -10 1437.65 374.225   2
  -1  15  -7 9159.42 629.467   2
   1  14  -7 8369.40 475.238   4
  -1  15  -7 9027.82 511.091   4
   1  14  -7 9217.23 600.754   2
  -1  15  -7 9848.82 789.327   1
   1  14  -7 10382.6 811.996   1
 -14  -1  -7 8166.55 731.994   3
  15 -14  -7 8677.11 634.795   1
  14 -15  -7 9817.32 670.679   1
 -15   1  -7 8361.24 723.646   3
  14 -15  -4 14714.1 690.075   1
 -14  -1  -4 13571.2 749.416   3
  -1  15  -4 13917.2 441.692   3
   1  14  -4 14328.7 659.554   2
  15 -14  -4 11898.8 556.169   2
 -15   1  -4 13412.5 727.320   3
  -1  15  -4 15136.9 633.273   4
   1  14  -4 14569.1 628.170   4
  -1  15  -4 14358.6 673.901   2
   1  14  -4 14021.6 501.215   3
  15 -14  -4 14344.8 693.144   1
  14 -15  -4 12949.8 609.585   2
  -1  15  -1 17302.7 489.766   3
   1  14  -1 17973.4 566.207   3
 -14  -1  -1 16439.0 598.130   1
  14 -15  -1 17711.7 761.104   2
 -14  -1  -1 16178.1 696.328   3
 -14  -1  -1 17685.3 691.389   2
  15 -14  -1 17920.8 678.900   1
  15 -14  -1 17979.7 574.858   3
  14 -15  -1 18899.8 557.933   3
 -15   1  -1 17049.2 623.587   1
   1  14  -1 18813.6 715.256   2
  15 -14  -1 16982.9 729.502   2
  14 -15  -1 18011.6 679.932   1
 -15   1  -1 17965.7 738.788   3
  -1  15  -1 19781.2 743.246   4
   1  14  -1 19409.6 734.461   4
 -15   1  -1 17349.0 688.748   2
  -1  15  -1 18596.1 717.093   2
   1  14   2 10180.6 565.683   3
  14 -15   2 9983.71 508.800   1
  -1  15   2 10571.6 584.406   2
  14 -15   2 10577.0 401.820   3
 -15   1   2 10646.0 400.092   2
  15 -14   2 10270.8 456.250   3
   1  14   2 10997.0 592.399   2
   1  14   2 11678.6 493.111   1
 -14  -1   2 10618.6 588.848   3
 -15   1   2 9548.74 570.301   3
  15 -14   2 10770.0 523.202   1
  -1  15   2 11406.2 623.434   4
 -14  -1   2 10438.8 411.127   2
  -1  15   2 10614.9 485.097   1
   1  14   2 10910.9 605.048   4
  -1  15   2 10024.2 549.055   3
  15 -14   5 13323.9 618.088   3
  -1  15   5 15534.8 776.629   2
   1  14   5 15265.7 798.399   2
  -1  15   5 16530.3 624.317   1
   1  14   5 16193.8 575.677   1
  14 -15   5 13328.7 557.630   3
  -1  15   5 16854.6 776.525   4
 -14  -1   5 13167.0 536.520   4
   1  14   5 16236.7 769.024   4
 -15   1   5 13482.9 545.326   4
  -1  15   8 2055.08 426.121   4
   1  14   8 1900.05 418.363   4
  -2  15  -8 1483.54 502.222   1
   2  13  -8 1291.07 504.734   1
 -13  -2  -8 1797.67 509.107   3
 -15   2  -8 1761.72 484.825   3
  13 -15  -8 1653.81 427.124   1
  -2  15  -8 1667.66 374.678   3
  -2  15  -8 969.756 278.182   4
  -2  15  -8 1094.51 382.721   2
   2  13  -8 1359.55 254.415   4
  15 -13  -8 1511.62 430.456   1
   2  13  -8 1661.58 337.646   2
   2  13  -5 1679.45 270.309   3
  -2  15  -5 1691.20 211.290   3
 -13  -2  -5 1742.61 396.354   3
   2  13  -5 1944.38 291.359   4
 -15   2  -5 2047.02 414.972   3
  15 -13  -5 1711.02 365.070   1
  15 -13  -5 1562.05 264.323   2
  13 -15  -5 1732.77 360.284   1
  -2  15  -5 1580.80 275.544   4
  13 -15  -5 1480.30 294.493   2
   2  13  -5 2235.40 339.041   2
  -2  15  -5 2124.22 363.526   2
  15 -13  -2 2951.62 356.389   1
 -13  -2  -2 3377.60 416.322   3
 -15   2  -2 3321.28 397.553   3
  -2  15  -2 2888.23 195.206   3
  15 -13  -2 3058.08 320.882   3
  13 -15  -2 3177.03 352.616   1
  13 -15  -2 3678.31 312.283   3
   2  13  -2 3196.68 347.213   4
  15 -13  -2 2753.89 331.075   2
 -15   2  -2 3046.63 299.393   1
  -2  15  -2 3014.94 349.184   4
   2  13  -2 2886.55 286.438   3
  -2  15  -2 3405.82 369.484   2
  13 -15  -2 3167.65 377.210   2
   2  13  -2 3410.70 354.051   2
   2  13   1 10445.5 525.513   3
  -2  15   1 10473.9 557.198   2
 -13  -2   1 10063.0 446.807   2
   2  13   1 10474.0 561.207   2
  13 -15   1 11346.6 389.718   3
 -15   2   1 10741.4 450.335   2
 -13  -2   1 10631.6 569.858   3
 -15   2   1 10292.3 561.940   3
  -2  15   1 10813.4 585.600   4
  15 -13   1 10331.0 479.235   3
 -13  -2   1 10145.4 570.035   1
  13 -15   1 11450.7 545.779   1
   2  13   1 12006.2 616.609   4
  15 -13   1 10966.2 507.418   1
  -2  15   1 9867.11 467.141   3
  15 -13   4 2674.21 334.018   3
  -2  15   4 3238.65 402.805   2
   2  13   4 3771.42 443.731   2
 -13  -2   4 2119.68 176.961   2
   2  13   4 3617.95 302.493   1
  -2  15   4 2905.80 376.896   4
 -13  -2   4 2532.98 301.480   4
   2  13   4 3806.26 430.339   4
  -2  15   4 3753.36 354.963   1
  13 -15   4 3322.36 287.207   3
  -2  15   7 7222.26 620.519   2
 -15   2   7 4881.69 273.491   4
 -15   2   7 3914.46 259.093   4
   2  13   7 7748.93 404.796   1
  -2  15   7 8281.10 596.693   4
 -13  -2   7 3749.86 232.168   4
   2  13   7 7334.43 585.196   4
  12 -15  -9 1436.92 580.469   3
  -3  15  -9 591.394 363.475   3
  15 -12  -9 687.334 455.283   1
 -12  -3  -9 131.312 479.310   3
 -15   3  -9 310.889 438.762   3
   3  12  -9 312.328 268.211   2
   3  12  -9-205.404 494.091   1
  -3  15  -9 488.421 243.730   4
  -3  15  -9 763.982 441.947   1
  12 -15  -9 164.608 377.111   1
  -3  15  -9 571.494 374.422   2
  12 -15  -6 4238.21 451.786   1
 -12  -3  -6 3910.57 533.925   3
  -3  15  -6 4090.66 365.146   4
 -15   3  -6 3483.35 494.355   3
  15 -12  -6 2951.78 266.442   2
  -3  15  -6 3907.07 296.155   3
   3  12  -6 4029.87 575.989   1
  15 -12  -6 3996.92 499.132   1
  -3  15  -6 3805.84 470.932   2
   3  12  -6 4746.90 367.315   4
   3  12  -6 4382.02 387.388   2
  -3  15  -3 834.813 292.047   2
   3  12  -3 1141.42 260.761   2
 -15   3  -3 457.735 201.174   1
  -3  15  -3 825.671 116.830   3
 -12  -3  -3 1141.12 329.763   3
 -15   3  -3 981.000 314.789   3
   3  12  -3 793.538 224.719   3
  15 -12  -3 425.158 200.330   2
  12 -15  -3 1414.93 310.366   1
  -3  15  -3 1344.04 254.917   4
  12 -15  -3 435.529 240.693   2
  15 -12  -3 991.320 298.972   1
   3  12  -3 1072.39 263.022   4
   3  12   0 9693.07 517.497   2
 -12  -3   0 8908.62 461.681   2
  12 -15   0 9338.67 491.901   1
  -3  15   0 8553.10 354.941   3
  15 -12   0 9268.88 439.261   3
 -12  -3   0 8891.18 532.470   3
  12 -15   0 9992.57 344.857   3
 -15   3   0 9127.67 526.675   3
  15 -12   0 9513.82 483.659   1
  -3  15   0 9075.11 506.470   2
  -3  15   0 9323.37 533.735   4
   3  12   0 8553.33 471.815   3
 -15   3   0 8841.81 510.330   1
   3  12   0 10126.9 552.053   4
 -15   3   3 5104.23 197.547   2
  15 -12   3 6290.97 418.915   3
  -3  15   3 7021.33 434.565   1
  -3  15   3 7103.03 483.098   2
 -15   3   3 4606.04 227.095   2
   3  12   3 6404.31 492.657   2
   3  12   3 7074.14 353.920   1
 -12  -3   3 6878.09 491.933   3
  15 -12   3 7168.34 414.297   1
  -3  15   3 7144.28 510.974   4
 -12  -3   3 6770.78 330.155   2
 -12  -3   3 5881.70 401.159   4
   3  12   3 6848.73 494.872   4
  12 -15   3 5566.69 258.436   3
  -3  15   6 1862.71 396.947   2
   3  12   6 1727.14 394.822   2
   3  12   6 1379.62 229.840   1
 -15   3   6 1506.18 237.813   4
 -12  -3   6 1232.58 223.536   4
 -15   3   6 1385.01 238.187   4
  -3  15   6 1982.17 337.048   4
   3  12   6 1421.01 341.897   4
  -3  15   9-137.460 303.059   4
  11 -15 -10 4910.73 556.288   1
 -11  -4 -10 6297.12 782.923   3
  -4  15 -10 5710.68 596.411   3
 -15   4 -10 6041.87 743.375   3
  -4  15 -10 6551.77 677.192   2
   4  11 -10 6640.49 795.152   1
  15 -11 -10 4993.55 662.302   1
  -4  15 -10 4679.50 669.771   1
   4  11 -10 5432.51 471.508   2
  11 -15 -10 5990.53 765.833   3
  -4  15  -7 12162.2 574.221   3
  11 -15  -7 12563.1 684.998   1
 -11  -4  -7 13710.7 868.955   3
 -15   4  -7 12122.5 781.575   3
   4  11  -7 12028.4 469.921   4
  15 -11  -7 11484.4 738.241   1
  -4  15  -7 13335.9 788.279   2
  -4  15  -7 12186.5 577.847   4
   4  11  -7 11928.6 587.196   2
   4  11  -7 14415.2 920.377   1
  11 -15  -4 14362.7 638.176   1
 -11  -4  -4 13795.5 725.885   3
 -15   4  -4 13676.6 705.895   3
  -4  15  -4 14080.6 323.543   3
   4  11  -4 14049.9 548.911   3
  -4  15  -4 11864.2 333.934   3
  15 -11  -4 14778.5 708.573   1
   4  11  -4 17649.9 873.168   1
  11 -15  -4 13714.8 634.210   2
  -4  15  -4 14938.3 717.511   2
  -4  15  -4 16477.4 665.016   4
  15 -11  -4 12943.0 465.418   2
   4  11  -4 15187.8 596.542   4
   4  11  -4 15113.8 593.727   2
 -15   4  -4 15322.4 457.000   1
  11 -15  -1 7547.57 450.462   1
   4  11  -1 6772.09 420.083   2
   4  11  -1 6583.74 403.718   3
 -11  -4  -1 6311.31 469.360   3
 -15   4  -1 6896.62 456.297   3
  15 -11  -1 6382.37 395.742   3
  -4  15  -1 7175.50 480.531   4
  11 -15  -1 7488.76 330.595   3
  11 -15  -1 6967.63 500.058   2
 -11  -4  -1 7050.72 451.824   2
   4  11  -1 6443.90 449.547   4
  -4  15  -1 6329.85 454.483   2
 -15   4  -1 6294.20 423.145   1
  15 -11  -1 6862.97 449.603   1
   4  11   2 6825.08 506.215   3
  -4  15   2 8027.88 483.409   2
  15 -11   2 7415.30 460.030   3
 -15   4   2 7117.83 310.703   2
 -11  -4   2 6485.83 458.803   3
  -4  15   2 7716.59 436.028   1
 -15   4   2 7014.66 487.781   3
 -11  -4   2 7233.26 369.834   2
   4  11   2 7381.44 500.902   2
  -4  15   2 7446.66 500.736   4
 -11  -4   2 6969.27 439.913   4
   4  11   2 7758.16 508.581   4
  15 -11   2 6816.87 390.595   1
  -4  15   5 28209.1 967.556   2
   4  11   5 28354.2 1048.72   2
   4  11   5 29803.8 595.454   1
 -15   4   5 26494.3 729.506   4
 -11  -4   5 26744.6 703.297   4
  -4  15   5 28500.1 930.523   4
   4  11   5 29096.0 984.587   4
  -4  15   8 4299.53 456.761   4
   5  10  -8 1191.98 280.453   2
  15 -10  -8 953.160 413.420   1
  10 -15  -8 1007.64 492.593   3
  -5  15  -8 901.537 335.143   3
 -10  -5  -8 1243.94 495.449   3
 -15   5  -8 396.128 396.738   3
  -5  15  -8 1396.16 292.866   4
  -5  15  -8 1517.36 418.037   2
  10 -15  -8 1088.10 354.898   1
   5  10  -8 1179.75 480.941   1
  -5  15  -5 10961.9 394.236   3
   5  10  -5 12385.3 511.020   4
 -15   5  -5 11060.9 379.210   1
 -15   5  -5 12064.9 677.445   3
  -5  15  -5 12274.5 356.969   3
  15 -10  -5 11436.6 668.246   1
   5  10  -5 13632.1 811.943   1
  10 -15  -5 12336.4 610.381   1
  -5  15  -5 12886.9 705.077   2
 -10  -5  -5 11165.8 708.857   3
   5  10  -5 12025.8 524.527   2
  -5  15  -5 12474.9 588.938   4
 -15   5  -2 11574.3 494.063   1
   5  10  -2 10887.2 497.846   2
  15 -10  -2 10649.9 557.872   1
 -10  -5  -2 10675.3 577.592   3
   5  10  -2 9947.91 480.746   3
  10 -15  -2 10446.9 570.363   2
 -15   5  -2 11250.9 564.979   3
  10 -15  -2 10887.3 516.846   1
  -5  15  -2 11866.7 576.119   4
  -5  15  -2 11348.9 606.256   2
   5  10  -2 11430.5 537.172   4
 -10  -5   1 36836.0 824.929   2
  15 -10   1 33720.7 862.794   3
   5  10   1 33707.6 908.555   3
   5  10   1 35885.4 944.025   2
  15 -10   1 32737.9 786.447   1
 -10  -5   1 34143.2 903.667   3
 -15   5   1 34316.8 965.291   1
 -15   5   1 34728.9 913.242   3
  10 -15   1 33343.6 422.824   3
  -5  15   1 35647.8 979.456   4
 -10  -5   1 34347.5 898.912   4
   5  10   1 36120.0 975.787   4
  -5  15   1 34510.8 925.998   2
   5  10   4 13388.8 387.112   1
  15 -10   4 10207.1 570.682   3
 -10  -5   4 11025.4 489.910   4
   5  10   4 12430.8 649.241   4
   5  10   4 11114.6 653.536   2
 -10  -5   4 11793.4 453.048   2
 -15   5   4 11613.5 531.035   4
  -5  15   4 12571.2 624.634   4
  -5  15   4 11756.8 604.970   2
 -15   5   7 1655.74 205.052   4
  -5  15   7 2028.54 398.688   2
  -5  15   7 2160.62 354.794   4
  -5  15  10 1147.97 334.750   4
   6   9  -9 195.521 219.114   2
   6   9  -9-12.5936 462.184   1
   9 -15  -9-236.208 486.806   3
   9 -15  -9 149.780 337.750   1
  -9  -6  -9-137.679 494.570   3
 -15   6  -9 266.716 413.198   3
  -6  15  -9 305.110 336.854   3
  -6  15  -9 218.280 382.436   2
  -6  15  -9-82.2034 258.792   4
  -6  15  -9-110.859 413.557   1
  15  -9  -9 589.855 423.886   1
  -6  15  -6 5809.96 378.723   3
  -9  -6  -6 5571.02 583.894   3
 -15   6  -6 5675.59 534.907   3
   9 -15  -6 6011.22 467.413   1
 -15   6  -6 5572.25 305.405   1
  15  -9  -6 5980.50 566.241   1
   9 -15  -6 5949.38 595.550   3
   6   9  -6 6241.50 633.062   1
  -6  15  -6 5492.92 423.269   4
   6   9  -6 6031.99 385.641   2
  -6  15  -6 5712.60 553.119   2
   6   9  -3 2368.04 275.398   2
  -6  15  -3 2106.99 360.076   2
  15  -9  -3 2312.05 360.304   1
  -9  -6  -3 2449.79 380.895   3
 -15   6  -3 2356.63 342.378   3
   6   9  -3 2135.67 293.384   3
 -15   6  -3 2072.19 274.936   1
   6   9  -3 2552.02 406.494   1
   9 -15  -3 2014.50 303.766   1
   6   9  -3 2159.81 275.375   4
  -6  15  -3 1975.27 298.614   4
 -15   6   0 8173.39 497.465   1
  -9  -6   0 9361.66 482.532   2
   9 -15   0 8799.43 482.832   1
  15  -9   0 8716.03 455.435   1
   6   9   0 7541.93 450.498   3
   6   9   0 8451.01 468.206   2
  -9  -6   0 8610.61 488.711   3
  15  -9   0 8458.90 462.557   3
 -15   6   0 8501.17 464.292   3
   9 -15   0 9112.81 265.041   3
   6   9   0 8421.86 493.869   4
  -6  15   0 8783.57 513.376   4
  -6  15   0 8798.21 504.678   2
 -15   6   3 2754.30 178.975   2
  -6  15   3 2984.79 341.238   2
  15  -9   3 3654.51 391.422   3
   6   9   3 3545.46 227.359   1
  15  -9   3 3541.17 285.800   1
   6   9   3 3852.57 412.610   2
  -9  -6   3 3685.01 354.773   3
   6   9   3 3530.89 385.113   4
 -15   6   3 3067.87 325.464   4
  -6  15   3 3198.94 365.097   4
  -9  -6   3 3277.27 290.998   2
  -9  -6   3 3452.58 335.369   4
  -6  15   6 4464.35 463.342   2
 -15   6   6 4402.07 317.898   4
  -6  15   6 5220.49 443.007   4
  -9  -6   6 3884.47 290.155   4
  -6  15   9 415.514 273.576   4
   8 -15 -10 6614.82 835.979   3
  -7  15 -10 5678.16 666.470   1
  -7  15 -10 6620.72 612.080   3
  -8  -7 -10 6200.47 774.657   3
 -15   7 -10 5950.38 700.963   3
   8 -15 -10 4856.07 531.504   1
  15  -8 -10 5630.53 698.245   1
   7   8 -10 4858.60 684.923   1
 -15   7 -10 3700.17 483.322   4
  -7  15 -10 5361.86 680.485   2
   8 -15  -7 7186.77 701.926   3
  -7  15  -7 7406.57 468.459   3
  -8  -7  -7 7137.74 682.374   3
 -15   7  -7 6992.60 613.859   3
   8 -15  -7 7579.28 518.998   1
  15  -8  -7 6833.09 632.504   1
   7   8  -7 6619.53 378.330   2
 -15   7  -7 6238.74 325.292   1
   7   8  -7 7790.55 703.759   1
  -7  15  -7 7884.98 511.427   4
  -7  15  -7 7498.84 659.604   2
   7   8  -4 10914.7 449.600   2
  -7  15  -4 11899.9 693.392   2
  -7  15  -4 8959.61 232.670   3
  -8  -7  -4 10426.8 650.132   3
  -7  15  -4 8295.10 203.583   3
  15  -8  -4 11553.4 648.228   1
 -15   7  -4 11641.2 462.292   1
   7   8  -4 11201.9 496.515   4
 -15   7  -4 10493.2 588.731   3
   7   8  -4 12554.0 742.110   1
  -7  15  -4 11784.0 580.991   4
   8 -15  -4 11218.3 533.831   1
   8 -15  -4 12448.8 673.095   3
   7   8  -1 35172.3 838.901   2
  -8  -7  -1 34071.6 925.694   2
 -15   7  -1 35227.2 856.193   1
   7   8  -1 34479.6 864.340   3
  -8  -7  -1 34330.8 911.118   3
   7   8  -1 37215.7 959.620   1
  15  -8  -1 32530.2 844.173   3
 -15   7  -1 35131.4 866.195   3
   8 -15  -1 36127.5 887.917   1
  -7  15  -1 35626.2 963.193   4
  15  -8  -1 34296.7 883.953   1
  -7  15  -1 30775.8 923.628   2
   7   8  -1 35645.5 903.687   4
   8 -15  -1 36961.6 732.627   3
  -7  15   2 10376.8 525.074   2
 -15   7   2 10789.7 426.451   2
   7   8   2 10426.9 582.840   2
  -8  -7   2 10986.7 529.248   3
  15  -8   2 10330.6 432.264   1
  15  -8   2 9976.69 557.151   3
 -15   7   2 10697.1 550.028   4
  -7  15   2 11348.8 597.621   4
  -8  -7   2 10118.3 515.775   4
  -8  -7   2 10681.0 476.322   2
   7   8   2 11713.6 598.657   4
 -15   7   5 11656.7 501.983   4
  -7  15   5 12085.9 615.062   2
  -8  -7   5 11710.1 515.893   2
  -8  -7   5 10526.9 459.381   4
  -7  15   5 12162.6 620.461   4
 -15   7   8 1761.66 169.028   4
  -7  15   8 2455.45 358.017   4
  -8  15  -8 2578.44 391.158   3
   7 -15  -8 2454.35 562.430   3
   8   7  -8 3493.14 587.487   1
  -7  -8  -8 1638.82 479.614   3
 -15   8  -8 2485.36 456.217   3
   7 -15  -8 2709.17 413.675   1
  -8  15  -8 2988.39 531.044   2
 -15   8  -8 2592.97 421.366   4
  -8  15  -8 2712.95 385.335   4
  15  -7  -8 2376.78 489.203   1
   8   7  -8 1938.39 236.900   2
   7 -15  -5 11368.8 714.580   3
   8   7  -5 9874.30 410.569   2
  -8  15  -5 11744.5 382.037   3
 -15   8  -5 10659.3 613.057   3
  -8  15  -5 11647.5 595.381   4
  15  -7  -5 9841.30 641.647   1
   8   7  -5 11387.0 736.056   1
   7 -15  -5 11390.0 547.597   1
 -15   8  -5 10379.8 439.185   1
  -8  15  -5 10599.7 700.202   2
  -7  -8  -5 10430.9 681.609   3
   7 -15  -2 11089.1 504.792   3
   8   7  -2 10418.0 456.939   2
  -7  -8  -2 10255.3 559.465   3
   8   7  -2 9540.64 504.045   3
 -15   8  -2 10622.4 509.330   3
  -8  15  -2 11610.6 631.369   2
 -15   8  -2 10481.4 501.414   1
  15  -7  -2 11064.8 597.891   1
  -8  15  -2 11255.3 584.459   4
   8   7  -2 11962.2 635.934   1
   7 -15  -2 11183.1 520.065   1
   8   7  -2 10243.6 489.305   4
 -15   8   1 33443.2 941.781   1
   8   7   1 33738.7 943.095   3
  15  -7   1 34786.0 932.651   3
  15  -7   1 37013.7 797.550   1
  -7  -8   1 37140.4 884.962   3
   8   7   1 36387.1 956.361   2
 -15   8   1 35448.2 892.305   3
 -15   8   1 34996.9 947.572   4
   8   7   1 36853.2 812.216   1
  -7  -8   1 37504.3 883.433   2
  -8  15   1 36620.8 979.112   4
 -15   8   1 37542.5 880.983   2
  -7  -8   1 36619.7 938.261   4
  -8  15   1 35484.3 923.475   2
   8   7   1 37433.7 980.405   4
 -15   8   4 9544.75 258.222   2
   8   7   4 9417.06 230.300   1
  -8  15   4 11259.0 566.134   2
  -7  -8   4 12660.0 552.565   2
 -15   8   4 11655.4 520.035   4
   8   7   4 10614.5 275.533   1
  -7  -8   4 11475.4 510.894   4
  -8  15   4 11279.3 595.938   4
 -15   8   7 5876.04 348.525   4
  -8  15   7 6513.23 530.539   2
  -8  15   7 6902.39 498.806   4
  -8  15  10 5011.23 436.205   4
   6 -15  -9 2303.57 621.109   3
  -9  15  -9 1432.59 372.480   1
   9   6  -9 587.688 452.138   1
  -6  -9  -9 1779.52 555.263   3
 -15   9  -9 1467.76 469.383   3
  15  -6  -9 800.258 459.660   1
  -9  15  -9 1840.99 391.199   4
 -15   9  -9 1169.91 365.385   4
  -9  15  -9 1457.63 378.286   3
   6 -15  -9 1389.01 354.097   1
  -9  15  -9 1008.03 468.744   2
 -15   9  -9 1453.37 304.914   1
   6 -15  -6 4641.01 549.652   3
   9   6  -6 5065.42 285.335   2
  -9  15  -6 5241.34 361.160   3
  -6  -9  -6 5024.19 583.385   3
 -15   9  -6 4632.46 477.325   3
  15  -6  -6 4441.32 521.936   1
   6 -15  -6 5774.53 429.425   1
  -9  15  -6 5516.41 577.506   2
  -9  15  -6 5390.60 461.027   4
   9   6  -6 5938.71 621.085   1
 -15   9  -6 5218.18 354.989   1
   6 -15  -3 3766.78 392.093   3
 -15   9  -3 3630.13 325.903   1
   9   6  -3 3472.93 266.558   2
 -15   9  -3 3263.51 361.757   3
  15  -6  -3 3682.06 410.801   1
   6 -15  -3 3470.32 323.505   1
  -9  15  -3 3453.84 404.990   2
  -9  15  -3 4201.83 398.752   4
   9   6  -3 3466.39 432.707   1
  -6  -9  -3 3607.11 415.891   3
 -15   9   0 7978.04 502.122   4
   6 -15   0 8939.98 286.052   3
  15  -6   0 7253.25 462.634   3
   9   6   0 8535.08 465.527   1
  -6  -9   0 8532.44 456.603   3
   9   6   0 7894.47 454.369   2
 -15   9   0 7847.70 428.632   3
  15  -6   0 8176.65 442.472   1
   9   6   0 7033.81 477.994   3
  -9  15   0 8131.26 513.086   4
 -15   9   0 8992.73 533.846   2
 -15   9   0 8226.42 503.508   1
  -9  15   0 8430.96 520.344   2
   9   6   0 8850.31 498.239   4
  -6  -9   0 8084.99 473.524   2
  -9  15   3 2375.81 304.251   2
  15  -6   3 2321.25 216.326   1
  -6  -9   3 2050.95 292.617   4
  -6  -9   3 1724.87 272.503   3
 -15   9   3 2310.69 310.050   4
   9   6   3 2124.33 201.197   1
  -9  15   3 2108.08 324.321   4
  -6  -9   3 1948.54 289.047   2
 -15   9   3 2248.75 219.542   2
  -6  -9   6 4733.08 427.670   2
 -15   9   6 5578.90 378.066   4
  -6  -9   6 4764.37 324.084   4
  -9  15   6 4586.82 422.664   4
  -9  15   6 4938.97 436.390   2
  -9  15   9 128.195 265.106   4
   5 -15 -10 2026.80 624.367   3
   5 -15 -10 1608.99 371.130   1
 -10  15 -10 1837.08 414.078   3
  -5 -10 -10 2019.96 635.645   3
 -15  10 -10 1762.88 507.874   3
  10   5 -10 1103.41 544.449   1
 -10  15 -10 1207.57 406.626   1
 -10  15 -10 1436.47 543.225   2
 -15  10 -10 881.076 387.486   4
  15  -5 -10 1648.87 522.845   1
 -15  10 -10 1499.36 598.855   2
   5 -15  -7 2378.86 511.169   3
  10   5  -7 2091.98 506.563   1
  -5 -10  -7 1244.60 452.287   3
 -10  15  -7 1928.98 324.210   3
 -15  10  -7 1699.48 407.911   3
   5 -15  -7 1489.87 302.431   1
  10   5  -7 866.136 143.278   2
  15  -5  -7 2010.28 464.819   1
 -15  10  -7 2280.17 303.020   1
 -10  15  -7 1892.42 380.298   4
 -15  10  -7 1475.98 354.232   4
 -10  15  -7 1778.48 460.197   2
   5 -15  -4 13475.0 686.989   3
  15  -5  -4 11366.4 651.718   1
 -10  15  -4 12196.1 323.151   3
 -15  10  -4 12616.6 599.555   3
  -5 -10  -4 11371.7 663.222   3
   5 -15  -4 11774.6 520.704   1
 -15  10  -4 12055.0 512.480   1
 -15  10  -4 10828.6 769.529   2
 -10  15  -4 11620.6 733.006   2
 -10  15  -4 11580.4 612.217   4
  10   5  -4 13093.5 725.365   1
 -15  10  -4 11879.9 637.178   4
  10   5  -4 11602.6 396.846   2
   5 -15  -1 35768.5 722.309   3
  10   5  -1 33521.7 799.274   2
  15  -5  -1 33322.4 879.140   1
 -15  10  -1 34205.5 797.945   3
 -15  10  -1 35242.1 893.100   1
 -15  10  -1 32696.0 965.923   4
  10   5  -1 30187.3 874.594   3
 -10  15  -1 34459.6 977.744   4
  10   5  -1 34567.7 920.604   1
 -10  15  -1 33875.1 997.785   2
 -15  10  -1 36955.4 1094.62   2
  -5 -10  -1 33977.3 868.673   3
  -5 -10   2 11990.8 570.557   4
 -10  15   2 12613.5 614.778   4
  -5 -10   2 11824.2 495.552   3
  -5 -10   2 10915.4 538.674   2
  10   5   2 11676.9 428.243   1
 -15  10   2 11795.1 572.361   4
 -15  10   2 11841.8 483.302   2
 -10  15   2 11893.5 553.430   2
  15  -5   2 11495.0 434.056   1
 -15  10   5 9882.59 317.975   2
  -5 -10   5 10610.0 486.850   4
  -5 -10   5 11034.0 589.172   2
 -15  10   5 10611.3 503.890   4
 -10  15   5 11556.7 590.757   4
 -10  15   5 11341.7 577.180   2
 -10  15   8 1550.31 304.719   4
 -15  10   8 1062.59 209.910   4
  -4 -11  -8 4825.23 654.445   3
 -11  15  -8 4271.90 446.201   3
  15  -4  -8 4930.18 630.162   1
 -15  11  -8 4379.58 550.317   3
 -15  11  -8 4532.10 697.521   2
 -15  11  -8 4853.32 525.052   4
 -11  15  -8 4615.96 621.949   2
 -11  15  -8 4597.03 496.794   4
   4 -15  -8 4364.89 648.477   3
   4 -15  -8 3395.45 375.334   1
  11   4  -8 4471.83 645.355   1
   4 -15  -5 28942.9 1051.14   3
  -4 -11  -5 27350.9 1043.30   3
  15  -4  -5 27512.9 1017.93   1
 -15  11  -5 27256.0 751.604   1
 -11  15  -5 31348.6 669.102   3
 -15  11  -5 28209.6 879.698   3
   4 -15  -5 28556.7 766.572   1
 -15  11  -5 26586.0 939.066   4
 -11  15  -5 28450.2 927.200   4
 -11  15  -5 28600.3 1151.30   2
 -15  11  -5 27128.0 1209.66   2
  11   4  -5 27228.7 1050.78   1
  11   4  -5 23581.2 469.116   2
   4 -15  -2 9109.54 471.092   3
  -4 -11  -2 8461.80 505.525   3
  15  -4  -2 8511.04 528.143   1
 -15  11  -2 9105.48 439.784   3
  11   4  -2 8258.47 391.635   2
 -15  11  -2 8553.49 543.104   4
 -15  11  -2 8498.19 632.670   2
 -11  15  -2 9023.42 541.315   4
 -15  11  -2 8576.37 478.081   1
 -11  15  -2 8672.48 583.578   2
  11   4  -2 9061.29 564.291   1
   4 -15   1 6536.12 192.461   3
  -4 -11   1 6705.28 392.140   3
  15  -4   1 6526.89 388.207   1
 -15  11   1 6711.14 469.322   4
 -11  15   1 7368.41 463.703   2
 -11  15   1 7258.74 498.566   4
 -15  11   1 6949.45 456.124   2
  -4 -11   1 6993.29 459.905   2
  11   4   1 6247.18 371.851   1
 -15  11   4 17146.3 481.542   2
 -11  15   4 16304.7 632.048   2
  15  -4   4 15626.1 393.841   1
 -15  11   4 16152.9 645.034   4
  -4 -11   4 15552.9 610.796   4
 -11  15   4 15979.5 683.914   4
  -4 -11   4 16067.2 699.755   2
 -11  15   7 11345.9 608.818   2
 -11  15   7 11468.6 603.331   4
   4 -15   7 10600.0 528.807   4
 -15  11   7 10759.2 503.183   4
   3 -15  -9 422.731 273.358   1
   3 -15  -9-167.502 530.962   3
  -3 -12  -9 144.968 502.331   3
 -15  12  -9-262.409 384.562   3
  12   3  -9-407.310 483.992   1
 -15  12  -9 1261.87 504.022   2
  15  -3  -9 151.593 433.194   1
 -12  15  -9 7.53016 351.119   4
 -15  12  -9-113.883 340.996   4
 -12  15  -9-435.851 483.637   2
 -12  15  -9 156.874 314.461   3
 -12  15  -6 2057.67 362.012   4
 -15  12  -6 2256.43 375.087   3
   3 -15  -6 1448.73 443.876   3
  -3 -12  -6 2748.08 491.260   3
  12   3  -6 2611.84 508.357   1
  15  -3  -6 1116.59 382.559   1
   3 -15  -6 1889.16 282.953   1
 -15  12  -6 2100.48 385.307   4
 -15  12  -6 2114.97 507.457   2
 -12  15  -6 2317.78 499.410   2
 -12  15  -6 2180.46 293.020   3
  15  -3  -3 7358.55 530.207   1
   3 -15  -3 6993.02 485.412   3
  -3 -12  -3 6772.08 507.460   3
 -15  12  -3 7051.03 407.418   3
 -12  15  -3 6507.19 240.417   3
 -15  12  -3 6996.01 603.804   2
 -12  15  -3 6790.89 484.607   4
 -12  15  -3 6591.08 566.602   2
  12   3  -3 6739.17 526.630   1
 -15  12  -3 6490.67 503.865   4
 -15  12  -3 6167.42 430.478   1
   3 -15   0 9030.23 333.067   3
  -3 -12   0 8070.49 431.370   3
  15  -3   0 8529.81 457.143   1
 -15  12   0 8337.95 429.020   3
 -15  12   0 7894.52 515.085   4
  12   3   0 9245.44 488.170   1
 -15  12   0 7823.08 516.582   2
 -12  15   0 8076.00 521.963   4
 -12  15   0 8043.16 526.331   2
 -15  12   3 1181.55 216.359   2
  15  -3   3 1041.12 176.086   1
 -12  15   3 954.920 225.535   2
  12   3   3 728.846 155.967   1
 -15  12   3 751.101 265.864   4
 -12  15   3 865.811 270.460   4
  -3 -12   3 990.446 266.393   4
  -3 -12   3 1281.20 319.152   2
 -15  12   6 3462.02 253.705   2
 -12  15   6 3896.45 397.566   2
  -3 -12   6 2946.71 313.393   4
 -15  12   6 3336.79 354.864   4
 -12  15   6 3910.84 404.717   4
 -12  15   9 353.878 244.667   4
 -15  13 -10-288.401 413.055   4
   2 -15 -10 1627.52 598.798   3
  -2 -13 -10 88.5903 548.138   3
 -13  15 -10 331.594 371.863   3
 -15  13 -10 1405.12 492.145   3
  13   2 -10-1051.05 521.265   1
  15  -2 -10 29.2014 462.184   1
 -15  13 -10 75.3482 551.567   2
 -13  15 -10 90.7837 390.286   4
 -13  15 -10 16.9726 486.259   2
 -15  13 -10-17.3791 338.734   1
 -13  15 -10-468.932 378.390   1
   2 -15  -7 7818.25 711.236   3
  15  -2  -7 7444.17 677.496   1
 -13  15  -7 7046.99 480.425   3
 -15  13  -7 7347.16 560.385   3
 -15  13  -7 7814.58 605.291   4
   2 -15  -7 6840.30 422.816   1
 -15  13  -7 7210.50 780.976   2
 -13  15  -7 6384.81 701.764   2
  -2 -13  -7 7784.32 729.958   3
 -13  15  -7 7627.31 593.430   4
  13   2  -7 8478.21 728.816   1
  15  -2  -4 3765.09 465.290   1
   2 -15  -4 4200.99 457.227   3
  -2 -13  -4 3205.05 422.882   3
 -15  13  -4 3390.09 338.135   3
 -13  15  -4 3734.13 276.505   3
 -15  13  -4 3116.07 392.163   4
 -13  15  -4 3845.28 416.420   4
 -15  13  -4 3214.97 542.132   2
 -13  15  -4 3940.61 510.044   2
  13   2  -4 2869.28 438.139   1
  15  -2  -1 10834.6 549.879   1
   2 -15  -1 11126.8 462.482   3
  -2 -13  -1 10969.0 505.519   3
 -15  13  -1 11012.7 649.653   2
 -15  13  -1 10932.9 441.075   3
 -15  13  -1 10881.7 599.592   4
 -13  15  -1 10736.9 602.041   4
 -13  15  -1 10841.7 642.246   2
  13   2  -1 12407.1 597.931   1
  13   2   2 3549.79 282.010   1
  -2 -13   2 2936.97 256.861   3
  15  -2   2 2717.03 260.771   1
 -15  13   2 3541.30 378.631   4
 -13  15   2 3697.36 393.966   4
 -15  13   2 3339.90 330.203   2
 -13  15   2 3368.09 350.758   2
 -13  15   5 1714.08 311.680   4
 -15  13   5 1755.98 240.865   2
 -13  15   5 1536.93 284.914   2
  -2 -13   5 1724.80 285.756   4
 -15  13   5 1453.45 289.274   4
 -15  13   8 1651.87 300.037   4
 -13  15   8 1239.80 299.420   4
   1 -15  -8 4020.30 677.342   3
 -14  15  -8 3158.78 434.166   3
 -15  14  -8 3300.01 475.006   3
 -14  15  -8 2811.05 459.921   4
  15  -1  -8 2949.23 548.636   1
 -15  14  -8 3226.12 464.434   4
 -15  14  -8 3184.52 632.297   2
 -14  15  -8 3398.03 630.918   2
  -1 -14  -8 2852.03 607.452   3
  14   1  -8 4173.00 652.481   1
  15  -1  -5 19586.4 938.355   1
   1 -15  -5 18553.2 873.203   3
  -1 -14  -5 17343.7 861.652   3
 -14  15  -5 18301.9 1002.83   2
 -14  15  -5 18399.3 810.611   4
 -14  15  -5 19829.8 650.909   3
 -15  14  -5 20050.8 702.515   3
 -15  14  -5 18621.0 1031.20   2
 -15  14  -5 17503.8 791.007   4
  14   1  -5 17369.5 877.140   1
  15  -1  -2 10378.4 591.235   1
   1 -15  -2 10516.6 532.927   3
  -1 -14  -2 10138.0 528.814   3
 -15  14  -2 10356.9 415.095   3
 -14  15  -2 10529.4 360.576   3
 -15  14  -2 10581.7 699.045   2
 -15  14  -2 10305.7 594.446   4
 -14  15  -2 10315.0 595.400   4
  14   1  -2 10412.9 608.328   1
 -14  15  -2 9694.78 667.816   2
  14   1   1 19140.2 603.712   1
  15  -1   1 19155.4 609.788   1
   1 -15   1 19699.9 486.774   3
  -1 -14   1 19896.2 558.329   3
 -14  15   1 20982.3 761.879   2
 -15  14   1 19663.3 780.402   4
 -14  15   1 20639.2 801.798   4
 -15  14   1 19389.6 737.018   2
 -15  14   4 14482.0 556.419   2
 -14  15   4 13570.5 566.289   2
 -15  14   4 14733.6 665.188   4
 -14  15   4 14514.3 686.481   4
 -14  15   7 7645.18 485.067   2
 -14  15   7 8345.33 522.412   4
 -15  14   7 7012.49 413.831   2
  -1 -14   7 7085.16 433.783   4
 -15  14   7 9025.76 535.110   4
   0 -15  -9-237.347 557.361   3
 -15  15  -9-560.187 411.566   3
 -15  15  -9 200.308 467.829   2
  15   0  -9 370.567 463.372   1
 -15  15  -9-74.9933 373.094   4
   0 -15  -6 12030.2 802.987   3
 -15  15  -6 13145.6 613.514   3
 -15  15  -6 12118.8 704.144   4
 -15  15  -6 11611.0 884.424   2
  15   0  -6 12264.4 806.169   1
 -15  15  -3-128.501 352.041   2
   0 -15  -3 465.780 297.672   3
  15   0  -3 64.0627 321.382   1
 -15  15  -3 96.8076 251.777   4
 -15  15  -3-14.0003 176.358   3
  15   0   0 19183.4 669.655   1
 -15  15   0 19271.3 787.864   4
   0 -15   0 17886.3 560.030   3
 -15  15   0 19476.3 810.146   2
 -15  15   3 3.98601 212.552   2
  15   0   3-520.713 176.156   1
 -15  15   3-178.404 242.281   4
 -15  15   6 4929.83 402.708   2
 -15  15   6 4746.41 443.575   4
 -15  15   9 33.8362 242.570   4
 -16   0  -7 37.4859 419.512   3
   0  16  -7 190.395 264.697   4
   0  16  -7 238.361 486.469   1
  16 -16  -7-422.264 402.988   1
   0  16  -7-17.7272 298.828   2
  16 -16  -4 16932.9 776.189   1
   0  16  -4 14409.4 505.477   3
 -16   0  -4 16263.1 835.995   3
   0  16  -4 16520.1 739.842   2
   0  16  -4 16306.7 696.897   4
   0  16  -1-241.913 228.943   3
   0  16  -1-215.339 244.204   2
  16 -16  -1 279.290 256.577   1
 -16   0  -1-297.185 283.079   3
  16 -16  -1 3.18365 195.498   3
   0  16  -1 422.158 281.995   4
 -16   0  -1 680.377 282.922   1
  16 -16   2 30757.8 734.150   3
   0  16   2 32858.7 1028.35   2
 -16   0   2 31596.3 1026.74   3
   0  16   2 32517.3 1036.71   4
 -16   0   2 31657.2 704.555   2
  16 -16   2 33435.6 919.471   1
  16 -16   5 331.139 272.660   3
   0  16   5-26.1320 253.815   1
   0  16   5 106.089 313.371   2
   0  16   5 261.135 315.897   4
 -16   0   5 218.059 235.777   4
   0  16   8 14342.4 824.738   4
 -15  -1  -8 1204.77 495.743   3
 -16   1  -8 736.470 453.866   3
  -1  16  -8 1133.88 384.519   2
  16 -15  -8 1107.64 407.888   1
  15 -16  -8 1430.97 422.177   1
  -1  16  -8 1788.23 543.705   1
   1  15  -8 1152.45 536.911   1
  -1  16  -8 979.299 297.763   4
   1  15  -8 838.634 279.101   4
   1  15  -8 963.112 340.793   2
  -1  16  -5 1767.70 353.628   2
   1  15  -5 1575.39 323.630   2
  15 -16  -5 1408.08 317.608   2
 -15  -1  -5 2156.27 467.563   3
  -1  16  -5 1142.50 227.175   3
   1  15  -5 1333.48 266.454   3
 -16   1  -5 1079.02 416.316   3
  16 -15  -5 1173.79 288.076   2
  16 -15  -5 1647.23 380.097   1
   1  15  -5 1770.15 300.976   4
  -1  16  -5 2035.35 320.845   4
  15 -16  -5 1852.69 379.729   1
  -1  16  -2 1402.63 287.410   2
 -15  -1  -2 1505.09 257.769   1
   1  15  -2 1188.79 294.751   2
  -1  16  -2 829.259 192.593   3
   1  15  -2 482.094 209.073   3
  16 -15  -2 1511.96 311.951   1
  15 -16  -2 1299.27 304.590   1
 -15  -1  -2 1255.93 329.410   3
 -16   1  -2 156.049 277.143   3
  15 -16  -2 1374.48 248.869   3
  16 -15  -2 934.107 284.356   2
 -16   1  -2 1418.44 265.216   1
   1  15  -2 1080.33 280.547   4
  -1  16  -2 1411.38 310.319   4
  -1  16   1 8386.59 463.643   3
   1  15   1 8328.17 497.502   3
  -1  16   1 9403.14 554.921   2
 -15  -1   1 9048.47 454.714   2
  15 -16   1 9516.76 416.809   3
 -16   1   1 9538.76 449.723   2
  16 -15   1 10211.0 533.394   1
 -15  -1   1 9204.46 570.752   3
 -16   1   1 9585.31 575.395   3
  16 -15   1 9280.76 455.235   3
  15 -16   1 10525.3 545.274   1
  -1  16   1 10510.4 609.331   4
   1  15   1 10590.5 604.967   4
   1  15   1 10031.4 579.531   2
   1  15   4 391.720 228.549   1
  15 -16   4 306.708 220.691   3
  -1  16   4 360.603 277.518   2
   1  15   4 359.296 310.437   2
  -1  16   4 234.821 291.351   4
   1  15   4 391.851 298.590   4
  16 -15   4 424.458 247.964   3
 -15  -1   4 226.457 104.190   2
 -15  -1   4 348.167 240.110   4
 -16   1   4 210.050 232.261   4
  -1  16   7 982.834 405.338   2
   1  15   7 1440.56 441.156   2
 -16   1   7 778.038 205.622   4
  -1  16   7 1622.43 368.414   4
   1  15   7 1459.56 388.047   4
 -14  -2  -9 2951.88 621.470   3
 -16   2  -9 2986.09 597.859   3
  16 -14  -9 2382.87 492.308   1
  -2  16  -9 1520.76 564.799   1
  14 -16  -9 2842.18 489.490   1
   2  14  -9 3215.85 435.838   2
   2  14  -9 3393.84 650.118   1
  -2  16  -9 2924.90 467.911   2
  -2  16  -9 2654.49 454.104   3
 -14  -2  -6 2709.65 507.020   3
 -16   2  -6 2639.40 477.318   3
  -2  16  -6 2467.90 270.065   3
   2  14  -6 3803.70 589.185   1
  16 -14  -6 2306.39 292.108   2
  -2  16  -6 3209.82 371.113   4
  -2  16  -6 3172.74 440.408   2
  16 -14  -6 3169.69 460.047   1
   2  14  -6 3037.37 349.600   4
   2  14  -6 3040.29 394.479   2
  14 -16  -6 2993.40 421.721   1
  -2  16  -3 9076.37 316.560   3
   2  14  -3 10102.3 452.808   3
  14 -16  -3 9056.09 550.293   2
 -14  -2  -3 8827.25 606.869   3
 -16   2  -3 9678.15 620.808   3
  14 -16  -3 10853.8 587.226   1
   2  14  -3 11190.3 569.535   4
  16 -14  -3 9312.69 518.522   2
 -16   2  -3 8876.16 402.282   1
  -2  16  -3 10935.4 586.476   4
  -2  16  -3 10501.1 599.787   2
   2  14  -3 11142.2 571.635   2
  16 -14  -3 11063.5 614.860   1
  -2  16   0 2614.64 280.998   3
  -2  16   0 3306.64 373.670   2
   2  14   0 3005.51 342.514   3
   2  14   0 3022.59 357.295   2
 -14  -2   0 2795.91 312.557   2
  14 -16   0 3052.01 353.201   1
  16 -14   0 2907.89 292.708   3
  14 -16   0 3273.66 255.866   3
 -14  -2   0 2699.64 357.863   3
 -16   2   0 2794.26 369.653   3
 -16   2   0 2641.86 314.623   2
  16 -14   0 2419.90 318.922   1
 -14  -2   0 2726.60 348.241   1
 -16   2   0 3047.16 380.410   1
   2  14   0 3476.12 389.201   4
  -2  16   0 3824.09 403.203   4
 -16   2   3 14809.0 372.467   2
  16 -14   3 15446.2 593.002   3
  -2  16   3 16534.8 745.272   2
   2  14   3 16957.8 773.831   2
 -14  -2   3 16777.2 747.162   3
   2  14   3 17296.8 573.003   1
  14 -16   3 13672.4 424.644   3
  -2  16   3 17149.2 769.506   4
 -14  -2   3 16224.1 480.220   2
   2  14   3 16633.7 763.160   4
  -2  16   6 2692.25 403.542   4
  -2  16   6 2500.75 428.669   2
   2  14   6 2739.91 461.750   2
   2  14   6 2613.72 308.661   1
 -16   2   6 1969.33 270.902   4
 -14  -2   6 1561.03 260.030   4
 -16   2   6 2047.77 278.831   4
   2  14   6 2415.41 412.698   4
  -2  16   9 1978.88 426.208   4
  -3  16 -10 7702.00 659.095   3
  13 -16 -10 7492.61 665.162   1
 -13  -3 -10 9591.11 926.960   3
  -3  16 -10 8391.90 832.125   1
  16 -13 -10 8039.01 733.534   1
  -3  16 -10 8863.10 759.039   2
 -16   3 -10 8779.49 865.444   3
   3  13 -10 7952.21 576.598   2
   3  13 -10 8556.71 871.898   1
  13 -16 -10 8948.10 937.382   3
   3  13  -7 1597.57 322.722   2
  -3  16  -7 1644.42 325.030   3
 -13  -3  -7 1487.35 463.684   3
 -16   3  -7 1063.50 449.979   3
  16 -13  -7 1509.65 425.230   1
  -3  16  -7 1476.44 330.079   4
  -3  16  -7 1638.29 422.180   2
   3  13  -7 1066.18 250.080   4
  13 -16  -7 1341.59 385.635   1
   3  13  -7 2013.31 558.500   1
 -13  -3  -4 30365.7 1068.72   3
  -3  16  -4 30743.7 527.892   3
 -16   3  -4 30572.2 1047.23   3
  16 -13  -4 29079.6 774.074   2
  13 -16  -4 32889.2 972.843   1
   3  13  -4 31686.3 789.702   3
  -3  16  -4 33103.0 1055.76   2
  -3  16  -4 34683.1 965.434   4
  16 -13  -4 32359.7 1013.13   1
   3  13  -4 33068.9 903.310   4
 -16   3  -4 27309.9 563.149   1
   3  13  -4 32276.6 913.872   2
  -3  16  -1 296.422 149.334   3
 -16   3  -1 516.001 255.915   1
  -3  16  -1 678.999 263.569   2
  16 -13  -1 437.486 248.088   1
   3  13  -1 446.942 232.261   3
   3  13  -1 840.052 259.149   2
 -13  -3  -1-146.215 274.947   3
 -16   3  -1 334.350 261.355   3
  16 -13  -1 434.191 219.165   3
  13 -16  -1 537.595 193.202   3
  13 -16  -1 544.425 247.239   1
  -3  16  -1 337.364 272.008   4
   3  13  -1 707.275 264.421   4
 -13  -3   2 36137.3 777.088   2
   3  13   2 29868.4 935.310   3
  -3  16   2 35324.0 997.002   2
  13 -16   2 30212.4 517.476   3
  16 -13   2 35165.6 883.440   3
   3  13   2 35412.1 1028.27   2
  16 -13   2 34805.4 861.498   1
  -3  16   2 37388.4 1068.07   4
 -13  -3   2 35417.2 1015.73   3
 -16   3   2 34544.2 1009.08   3
   3  13   2 35997.9 1055.89   4
   3  13   2 35418.1 795.325   1
 -16   3   2 34926.6 675.193   2
  16 -13   5 870.152 326.034   3
   3  13   5 654.309 224.676   1
  -3  16   5 787.507 306.383   2
   3  13   5 890.257 329.100   4
   3  13   5 704.438 317.532   2
 -13  -3   5 217.206 104.385   2
 -13  -3   5 661.196 237.928   4
  -3  16   5 839.099 320.064   4
   3  13   8 16441.8 849.452   4
  -3  16   8 16710.3 803.128   4
  12 -16  -8 556.732 364.385   1
   4  12  -8 647.925 270.231   2
  -4  16  -8 775.445 328.120   3
  16 -12  -8 504.109 404.583   1
 -12  -4  -8 676.677 454.749   3
 -16   4  -8 808.256 425.255   3
  -4  16  -8 641.130 425.958   1
  12 -16  -8 322.110 449.255   3
  -4  16  -8 813.289 262.566   4
  -4  16  -8 358.439 346.277   2
   4  12  -8 1488.99 583.926   1
 -12  -4  -5 4177.69 524.241   3
 -16   4  -5 4832.90 514.633   3
  12 -16  -5 5291.72 463.343   1
  16 -12  -5 4205.61 303.348   2
  -4  16  -5 4295.80 231.493   3
   4  12  -5 4024.43 369.479   3
   4  12  -5 5481.19 396.867   4
  16 -12  -5 5310.95 514.254   1
   4  12  -5 6218.25 624.106   1
  -4  16  -5 4829.74 417.844   4
  -4  16  -5 4641.42 488.692   2
 -16   4  -5 3461.65 225.135   1
   4  12  -5 5315.16 407.101   2
  -4  16  -5 4627.02 288.296   3
   4  12  -2 4216.15 365.604   2
   4  12  -2 3662.28 345.970   3
 -12  -4  -2 3719.69 424.515   3
 -16   4  -2 3903.08 408.737   3
  12 -16  -2 4174.10 390.761   1
  -4  16  -2 3985.33 385.405   4
   4  12  -2 4380.83 375.205   4
  -4  16  -2 3906.42 403.527   2
 -16   4  -2 3130.44 329.218   1
  16 -12  -2 3672.69 375.331   1
  -4  16   1 12534.4 614.136   2
 -12  -4   1 13501.3 534.336   2
   4  12   1 11824.6 581.587   3
  12 -16   1 14268.3 618.042   1
   4  12   1 13490.7 630.062   2
  12 -16   1 13400.0 360.663   3
  16 -12   1 12235.4 545.447   3
 -12  -4   1 12396.3 615.885   3
 -16   4   1 12811.1 617.753   3
  16 -12   1 12463.5 549.026   1
  -4  16   1 13818.6 657.447   4
   4  12   1 13674.3 656.582   4
 -12  -4   4 2991.35 259.914   2
   4  12   4 3811.40 278.417   1
   4  12   4 3368.82 414.236   2
 -12  -4   4 2894.01 315.622   4
  -4  16   4 3463.70 410.399   2
  -4  16   4 4411.81 445.699   4
  16 -12   4 3092.54 362.452   3
   4  12   4 4239.76 450.118   4
   4  12   7 4283.74 263.090   1
  -4  16   7 7181.51 615.150   2
 -16   4   7 5149.42 311.159   4
 -12  -4   7 3680.16 250.768   4
 -16   4   7 4784.26 296.405   4
  -4  16   7 6747.49 547.445   4
   4  12   7 6677.69 579.898   4
  -4  16  10 953.001 362.851   4
   5  11  -9 1158.94 549.372   1
   5  11  -9 1063.82 272.070   2
  11 -16  -9 961.069 522.153   3
  11 -16  -9 568.738 357.468   1
  -5  16  -9 1309.54 297.742   4
  -5  16  -9 629.655 366.256   3
  16 -11  -9 657.747 465.998   1
 -11  -5  -9 1445.09 550.118   3
 -16   5  -9 1144.43 475.256   3
  -5  16  -9 983.987 500.653   1
  -5  16  -9 1906.93 477.668   2
  -5  16  -6 4632.43 344.123   3
 -11  -5  -6 3955.84 567.837   3
 -16   5  -6 3868.93 495.245   3
  11 -16  -6 4315.25 442.364   1
  -5  16  -6 4492.44 417.633   4
  -5  16  -6 4611.79 287.804   3
  16 -11  -6 4357.84 541.406   1
  16 -11  -6 2263.91 184.406   2
   5  11  -6 5444.58 647.111   1
  -5  16  -6 4539.42 500.895   2
   5  11  -6 3678.79 327.994   4
   5  11  -6 4200.54 370.353   2
 -16   5  -6 3180.27 205.886   1
   5  11  -3 853.956 236.658   2
 -11  -5  -3 265.882 285.895   3
  11 -16  -3 689.446 251.195   1
  16 -11  -3 957.344 315.069   1
 -16   5  -3 576.058 303.496   3
   5  11  -3 322.322 219.432   3
  -5  16  -3 609.256 297.414   2
 -16   5  -3 916.837 249.047   1
   5  11  -3 1025.56 250.559   4
   5  11  -3 1036.07 368.010   1
  -5  16  -3 866.558 276.428   4
  -5  16   0-78.1527 243.887   2
  16 -11   0-9.84734 221.706   1
  11 -16   0-195.689 252.816   1
   5  11   0 116.278 240.830   3
 -16   5   0 46.3050 274.713   1
 -11  -5   0-127.721 218.166   2
   5  11   0 3.45009 218.091   2
  16 -11   0-2.18365 218.202   3
 -11  -5   0 185.964 247.913   3
  11 -16   0 72.7014 121.872   3
 -16   5   0 68.7013 247.896   3
  -5  16   0 307.328 238.611   4
   5  11   0 400.875 235.310   4
   5  11   3 2351.82 233.636   1
  -5  16   3 2488.34 340.256   2
  16 -11   3 2189.24 319.383   3
 -16   5   3 1888.46 149.716   2
   5  11   3 2891.40 390.433   2
 -11  -5   3 2032.24 295.650   4
   5  11   3 3111.59 396.012   4
  -5  16   3 2431.07 352.610   4
 -11  -5   3 2162.83 348.611   3
  16 -11   3 2652.97 288.564   1
 -16   5   3 1731.98 164.694   2
 -11  -5   3 2791.22 274.698   2
   5  11   6-69.1412 135.756   1
  -5  16   6-103.948 305.873   2
 -11  -5   6-360.825 201.685   4
  -5  16   6-31.5596 286.366   4
 -16   5   6 80.1483 193.220   4
   5  11   6-436.947 310.646   4
  -5  16   9 2465.47 402.639   4
  -6  16 -10 5250.84 585.361   3
  10 -16 -10 4257.56 740.778   3
   6  10 -10 4585.03 676.870   1
 -10  -6 -10 5975.24 807.625   3
 -16   6 -10 5660.23 727.849   3
  10 -16 -10 5562.84 579.445   1
  16 -10 -10 4867.35 670.639   1
  -6  16 -10 4877.13 665.161   2
  -6  16 -10 5449.22 675.877   1
  16 -10  -7 53.9856 389.507   1
  10 -16  -7 666.828 440.489   3
   6  10  -7 254.448 214.123   2
  -6  16  -7 450.984 284.769   3
 -10  -6  -7 557.354 437.978   3
  10 -16  -7 234.998 319.250   1
 -16   6  -7-292.129 388.613   3
  -6  16  -7 295.969 261.216   4
  -6  16  -7 752.226 366.331   2
 -16   6  -7 263.346 150.815   1
   6  10  -7 51.1218 442.146   1
   6  10  -4 21327.2 668.720   2
   6  10  -4 21294.5 692.185   4
 -16   6  -4 20944.4 590.361   1
 -10  -6  -4 20293.1 882.067   3
 -16   6  -4 21292.3 836.186   3
  -6  16  -4 22537.2 799.617   4
  16 -10  -4 21603.5 855.494   1
  10 -16  -4 22110.0 762.281   1
   6  10  -4 24203.8 1005.40   1
  -6  16  -4 21546.1 895.810   2
 -16   6  -1 2478.02 340.802   1
   6  10  -1 2233.88 295.834   2
  -6  16  -1 2683.75 354.749   4
   6  10  -1 2685.89 342.350   3
 -10  -6  -1 2460.34 350.901   3
 -16   6  -1 2897.18 343.476   3
  10 -16  -1 2593.65 320.002   1
  16 -10  -1 2421.98 302.207   3
  16 -10  -1 2448.54 330.059   1
  -6  16  -1 3164.47 371.621   2
   6  10  -1 2800.05 333.348   4
  -6  16   2 18080.4 711.315   2
  16 -10   2 16682.6 688.794   3
   6  10   2 17655.4 728.778   2
 -10  -6   2 17268.1 680.003   3
  16 -10   2 17028.5 573.897   1
 -16   6   2 17297.8 704.883   3
 -16   6   2 17186.3 546.190   2
   6  10   2 19355.4 766.787   4
  -6  16   2 18328.2 740.049   4
 -10  -6   2 16434.9 646.377   4
 -10  -6   2 18551.6 604.397   2
  -6  16   5 2131.99 361.115   2
   6  10   5 1650.27 177.024   1
 -16   6   5 1980.97 278.823   4
 -10  -6   5 1602.60 255.642   2
 -10  -6   5 1596.13 267.267   4
  -6  16   5 2343.75 360.527   4
   6  10   5 2208.44 404.384   4
 -16   6   8 6720.63 270.978   4
  -6  16   8 11081.3 650.210   4
  -7  16  -8 2380.09 391.111   3
   9 -16  -8 2110.47 554.567   3
   7   9  -8 1458.73 247.052   2
  -9  -7  -8 2035.21 523.618   3
 -16   7  -8 1880.20 470.992   3
   9 -16  -8 1880.06 375.570   1
  -7  16  -8 2273.32 372.243   4
   7   9  -8 3424.05 639.190   1
 -16   7  -8 1166.49 202.854   1
  -7  16  -8 669.434 372.784   2
  16  -9  -8 1709.90 444.920   1
  -7  16  -5 11049.7 343.492   3
  -9  -7  -5 12612.1 766.235   3
 -16   7  -5 11626.7 673.750   3
  -7  16  -5 12516.9 622.299   4
 -16   7  -5 12548.8 473.533   1
  -7  16  -5 11262.4 311.527   3
  16  -9  -5 13069.8 736.633   1
   9 -16  -5 11893.9 596.616   1
   7   9  -5 14081.7 836.847   1
  -7  16  -5 12448.5 757.496   2
   7   9  -5 12150.6 523.937   4
   9 -16  -5 13814.8 773.588   3
   7   9  -5 11560.5 486.040   2
   7   9  -2 11505.4 509.763   2
 -16   7  -2 11576.0 519.870   1
  -9  -7  -2 11060.8 598.392   3
   7   9  -2 11178.2 544.342   3
 -16   7  -2 12050.7 575.176   3
   9 -16  -2 12765.3 572.191   1
   7   9  -2 13036.8 668.747   1
  16  -9  -2 11259.2 592.553   1
  -7  16  -2 12607.7 619.411   4
   7   9  -2 12306.6 562.210   4
  -7  16  -2 12458.0 654.476   2
   9 -16  -2 13228.7 563.819   3
   7   9   1 5143.51 445.129   3
  16  -9   1 5701.68 374.054   1
  16  -9   1 5965.95 445.593   3
   7   9   1 5972.46 453.097   2
  -9  -7   1 5424.00 415.900   3
 -16   7   1 6828.93 454.993   3
 -16   7   1 6831.27 445.870   2
  -7  16   1 6621.05 497.439   4
   7   9   1 6064.52 471.697   4
  -7  16   1 6562.47 456.292   2
  -9  -7   1 6818.77 426.630   2
  -7  16   4 8546.03 524.464   2
   7   9   4 8250.85 286.747   1
  -7  16   4 8998.39 553.236   4
   7   9   4 7603.13 578.496   2
 -16   7   4 8198.05 479.678   4
  -9  -7   4 7504.38 435.704   2
  -9  -7   4 8043.27 456.715   4
   7   9   4 8854.88 566.508   4
 -16   7   7 2378.54 263.832   4
  -7  16   7 3030.88 448.122   2
  -7  16   7 2653.25 394.471   4
  -7  16  10 1969.35 377.430   4
   8 -16  -9 648.581 567.197   3
   8   8  -9 125.917 184.405   2
  -8  16  -9-279.439 335.559   3
  -8  -8  -9 958.012 508.514   3
 -16   8  -9-37.7905 427.050   3
   8 -16  -9-94.3276 343.848   1
 -16   8  -9 19.8956 344.111   4
   8   8  -9 579.825 502.673   1
  -8  16  -9 1126.51 434.246   1
  -8  16  -9 334.717 316.678   4
  -8  16  -9 405.895 381.222   2
  16  -8  -9-532.364 454.372   1
   8 -16  -6 3367.95 527.129   3
  -8  16  -6 3256.18 290.715   3
   8   8  -6 2445.43 267.117   2
 -16   8  -6 3147.34 441.740   3
  -8  -8  -6 3324.95 493.409   3
  16  -8  -6 3151.83 499.348   1
  -8  16  -6 2344.67 429.025   2
   8 -16  -6 2542.60 359.678   1
 -16   8  -6 2709.03 287.937   1
   8   8  -6 3115.37 537.950   1
  -8  16  -6 3238.27 395.243   4
   8 -16  -3 346.758 273.571   3
   8 -16  -3 258.515 231.339   1
   8   8  -3 886.701 334.649   1
  -8  -8  -3 443.877 322.027   3
   8   8  -3 294.064 191.997   2
  -8  16  -3 225.529 243.269   4
 -16   8  -3 396.560 256.947   3
  -8  16  -3 454.368 277.480   2
 -16   8  -3 455.552 247.695   1
   8   8  -3 281.757 220.105   4
  16  -8  -3 597.958 317.512   1
   8 -16   0 5110.43 238.378   3
  -8  -8   0 5206.06 409.766   2
 -16   8   0 4365.95 414.825   1
   8   8   0 3666.94 385.628   3
  -8  16   0 4975.65 419.830   2
   8   8   0 4758.36 373.814   2
  -8  -8   0 4486.59 399.296   3
 -16   8   0 5041.64 387.438   3
   8   8   0 5206.26 413.372   1
 -16   8   0 5145.31 456.241   2
  -8  16   0 5424.92 440.207   4
  16  -8   0 4490.97 360.076   1
   8   8   0 5278.25 427.502   4
  -8  16   3 48.5294 247.240   4
  -8  16   3 300.905 219.138   2
 -16   8   3-61.2605 223.777   4
  16  -8   3 262.353 176.329   1
  -8  -8   3 210.013 211.882   2
   8   8   3 463.533 267.134   2
  -8  -8   3 266.357 241.251   3
   8   8   3 2.00797 179.817   1
  -8  -8   3 3.55242 225.986   4
   8   8   3 304.938 259.469   4
 -16   8   3 38.1089 136.260   2
  -8  16   6 2688.33 389.912   2
 -16   8   6 2364.88 294.616   4
  -8  -8   6 2385.18 328.884   2
  -8  16   6 2622.63 375.787   4
  -8  -8   6 2032.76 258.822   4
  -8  16   9 637.977 297.246   4
   7 -16 -10 4388.00 764.071   3
  -9  16 -10 3390.73 501.748   3
   9   7 -10 2578.96 610.185   1
  -7  -9 -10 2421.82 665.298   3
 -16   9 -10 2332.77 598.822   3
 -16   9 -10 1566.41 401.216   4
   7 -16 -10 1869.69 396.898   1
  -9  16 -10 2735.70 507.553   1
  -9  16 -10 2630.30 579.739   2
  16  -7 -10 2135.02 560.863   1
   9   7  -7 2246.60 529.664   1
   7 -16  -7 2062.79 500.407   3
  -9  16  -7 2910.51 352.041   3
  -7  -9  -7 1814.51 479.713   3
 -16   9  -7 2317.07 443.904   3
   7 -16  -7 2781.66 382.877   1
 -16   9  -7 2036.39 417.551   4
  -9  16  -7 2745.89 414.731   4
  16  -7  -7 2468.64 488.037   1
  -9  16  -7 2358.58 494.653   2
 -16   9  -7 2310.73 280.920   1
   9   7  -7 2062.92 234.191   2
   7 -16  -4 10085.4 620.787   3
   7 -16  -4 9233.73 496.806   1
   9   7  -4 8923.52 401.444   2
  -7  -9  -4 9723.60 634.753   3
 -16   9  -4 9078.87 554.652   3
  16  -7  -4 8536.72 585.241   1
  -9  16  -4 9368.19 662.674   2
   9   7  -4 9039.26 647.839   1
 -16   9  -4 8624.26 445.363   1
  -9  16  -4 9451.36 570.755   4
   9   7  -1 5176.22 431.204   3
  -7  -9  -1 6188.13 460.748   3
   9   7  -1 6389.66 406.434   2
 -16   9  -1 6450.51 453.803   1
 -16   9  -1 6661.76 420.545   3
  16  -7  -1 6417.79 450.118   1
 -16   9  -1 6695.61 538.130   2
   9   7  -1 6987.36 482.881   1
  -9  16  -1 6586.60 492.105   4
  -9  16  -1 6433.92 499.101   2
   7 -16  -1 7120.77 363.303   3
   9   7  -1 6272.99 443.553   4
  16  -7   2 13009.2 487.176   1
   9   7   2 13248.9 664.510   2
  -7  -9   2 13081.0 562.797   3
  -7  -9   2 12030.2 578.235   4
 -16   9   2 13553.1 640.121   4
   9   7   2 13736.6 494.026   1
 -16   9   2 14253.1 516.724   2
  -9  16   2 13148.3 654.471   4
  -7  -9   2 13959.4 584.358   2
  -9  16   2 12882.9 589.018   2
   9   7   2 12570.5 637.542   4
  -9  16   5 11957.5 622.769   2
  -7  -9   5 11716.2 580.792   2
 -16   9   5 12117.6 552.802   4
  -7  -9   5 10620.3 499.813   4
  -9  16   5 13091.0 657.949   4
  -9  16   8 2135.45 427.364   2
 -16   9   8 2044.64 234.998   4
  -9  16   8 2278.38 379.480   4
   6 -16  -8 12030.2 910.967   3
  10   6  -8 7663.24 318.453   2
 -10  16  -8 12188.6 617.149   3
  -6 -10  -8 10935.5 890.590   3
 -16  10  -8 11518.0 754.440   3
  16  -6  -8 10050.5 772.845   1
 -16  10  -8 9985.11 707.742   4
   6 -16  -8 10376.4 598.993   1
 -10  16  -8 14121.7 763.715   4
  10   6  -8 10505.8 847.758   1
 -10  16  -8 11755.0 870.654   2
  10   6  -5 2395.94 472.836   1
   6 -16  -5 2287.29 321.477   1
   6 -16  -5 2692.04 473.554   3
  10   6  -5 2218.58 219.924   2
 -16  10  -5 2369.88 384.300   3
 -10  16  -5 2199.47 224.950   3
  -6 -10  -5 1797.85 424.650   3
  16  -6  -5 2319.00 445.209   1
 -10  16  -5 2174.08 412.527   2
 -16  10  -5 2025.72 297.861   1
 -16  10  -5 2423.40 392.620   4
 -10  16  -5 2130.33 351.854   4
   6 -16  -2 19427.0 644.743   3
  -6 -10  -2 18877.0 740.842   3
  10   6  -2 18650.4 595.864   2
 -16  10  -2 19028.8 652.701   3
  16  -6  -2 17951.4 716.008   1
 -16  10  -2 18221.8 665.954   1
 -16  10  -2 18830.9 780.399   4
 -16  10  -2 18321.6 870.040   2
 -10  16  -2 19439.9 778.073   4
  10   6  -2 18784.5 768.491   1
 -10  16  -2 16442.8 764.971   2
  -6 -10   1 2092.01 299.293   3
 -16  10   1 2027.81 325.904   4
  10   6   1 2125.76 328.033   2
  10   6   1 2480.47 293.189   1
 -16  10   1 2319.04 314.829   3
 -10  16   1 2335.37 328.674   2
 -16  10   1 2510.72 327.219   2
 -10  16   1 2337.30 338.250   4
  16  -6   1 2080.90 277.243   1
  -6 -10   1 2723.28 348.040   2
 -10  16   4 22444.2 772.240   2
  -6 -10   4 22404.9 780.742   2
  16  -6   4 22270.6 531.583   1
 -16  10   4 22203.4 746.112   4
 -10  16   4 22207.0 829.684   4
  -6 -10   4 21121.5 723.737   4
 -16  10   4 22627.5 495.644   2
 -10  16   7-386.077 317.563   2
 -16  10   7-114.846 211.786   4
  -6 -10   7 326.961 185.887   4
 -10  16   7 414.426 266.779   4
   5 -16  -9 2568.72 613.063   3
  -5 -11  -9 2028.59 606.152   3
  11   5  -9 2828.05 627.963   1
 -16  11  -9 2206.27 497.967   3
 -11  16  -9 2253.01 464.149   4
   5 -16  -9 2077.62 359.065   1
 -11  16  -9 2135.89 400.225   3
 -11  16  -9 2179.37 584.984   2
 -16  11  -9 1816.85 576.312   2
  16  -5  -9 2360.22 549.380   1
 -16  11  -9 1467.55 321.981   1
 -16  11  -9 1902.88 442.524   4
 -16  11  -6 221.629 251.156   1
   5 -16  -6-89.9104 381.384   3
  11   5  -6 617.770 403.375   1
  -5 -11  -6 67.2398 393.078   3
 -11  16  -6 416.698 218.112   3
 -16  11  -6-143.728 310.261   3
  11   5  -6 134.743 125.151   2
 -16  11  -6-75.6054 298.175   4
 -16  11  -6 652.663 401.133   2
  16  -5  -6-233.446 388.658   1
 -11  16  -6 376.641 281.934   4
 -11  16  -6 223.749 368.947   2
   5 -16  -6-85.8159 258.192   1
   5 -16  -3 3121.21 377.632   3
  16  -5  -3 2330.02 371.150   1
  -5 -11  -3 2360.87 387.054   3
 -11  16  -3 2557.36 420.134   2
 -16  11  -3 2658.49 329.905   3
  11   5  -3 2459.18 247.907   2
 -16  11  -3 2430.18 368.492   4
 -16  11  -3 2643.41 474.542   2
 -11  16  -3 2619.64 354.954   4
  11   5  -3 2965.62 406.676   1
 -16  11  -3 2272.68 317.897   1
   5 -16  -3 2378.19 320.458   1
  11   5   0-59.4563 241.382   1
  16  -5   0-311.184 256.900   1
   5 -16   0 141.945 135.649   3
  -5 -11   0 752.710 242.284   3
 -16  11   0 301.217 258.055   4
 -16  11   0-255.491 229.970   3
  11   5   0-165.363 223.932   2
 -11  16   0 59.0166 249.196   4
 -16  11   0 332.814 260.345   2
 -11  16   0 128.549 233.561   2
  11   5   3 617.153 168.451   1
 -11  16   3 1144.87 243.885   2
  -5 -11   3 1070.79 297.709   4
 -16  11   3 707.121 252.823   4
  -5 -11   3 595.158 266.250   2
 -11  16   3 683.300 272.791   4
  16  -5   3 886.640 185.311   1
 -16  11   3 911.991 206.625   2
 -11  16   6 3370.06 401.660   2
  -5 -11   6 3251.03 316.050   4
 -11  16   6 3541.35 396.885   4
 -16  11   6 4065.14 367.072   4
 -11  16   9 918.244 295.189   4
   4 -16 -10 492.094 562.258   3
  -4 -12 -10 1149.84 642.263   3
 -12  16 -10 493.381 332.652   3
 -16  12 -10 143.276 440.264   3
  12   4 -10-595.089 523.833   1
 -16  12 -10 931.200 421.925   4
 -16  12 -10 1460.38 647.943   2
  16  -4 -10 453.003 498.839   1
 -12  16 -10-63.3638 382.857   1
 -12  16 -10 546.695 386.515   4
 -12  16 -10 757.024 508.397   2
   4 -16  -7 9227.96 791.208   3
  -4 -12  -7 7759.95 735.899   3
   4 -16  -7 7915.82 482.334   1
 -12  16  -7 7980.34 489.467   3
  16  -4  -7 8275.93 712.473   1
 -16  12  -7 7324.48 581.116   3
 -16  12  -7 8195.20 621.250   4
 -16  12  -7 6800.06 772.425   2
 -12  16  -7 8739.26 790.749   2
 -12  16  -7 8411.67 608.147   4
  12   4  -7 8505.68 756.340   1
   4 -16  -4 3334.37 418.877   3
   4 -16  -4 3039.14 334.957   1
  12   4  -4 3763.32 465.415   1
  -4 -12  -4 3338.36 451.112   3
  16  -4  -4 3458.44 451.462   1
 -16  12  -4 3898.10 389.647   3
 -12  16  -4 3711.46 213.221   3
  12   4  -4 2949.86 229.944   2
 -16  12  -4 3574.09 426.480   4
 -12  16  -4 4043.63 426.837   4
 -12  16  -4 3442.57 485.809   2
 -16  12  -4 4189.06 569.240   2
  12   4  -1 12676.8 614.209   1
  -4 -12  -1 12467.9 567.212   3
   4 -16  -1 13355.0 484.845   3
  16  -4  -1 12143.1 585.380   1
 -16  12  -1 12924.0 517.606   3
 -16  12  -1 12201.8 643.365   4
 -16  12  -1 12467.9 698.284   2
 -12  16  -1 13465.5 662.698   4
 -12  16  -1 13349.1 702.839   2
  -4 -12   2 4385.01 337.510   3
  16  -4   2 5234.66 326.384   1
 -16  12   2 5104.83 429.916   4
 -12  16   2 5210.21 459.410   4
 -16  12   2 4820.64 364.186   2
  12   4   2 4905.85 323.287   1
 -12  16   2 5070.10 401.509   2
 -16  12   5 5011.84 302.918   2
 -12  16   5 5563.41 448.309   2
 -12  16   5 5593.61 479.542   4
 -16  12   5 4474.98 409.667   4
  -4 -12   5 5278.94 411.582   4
 -16  12   8 300.129 217.242   4
 -12  16   8 530.433 289.752   4
   3 -16  -8 18704.4 1128.96   3
  -3 -13  -8 18182.2 1088.62   3
  16  -3  -8 18721.0 1018.37   1
 -13  16  -8 17126.6 741.262   3
 -16  13  -8 18530.9 869.188   3
   3 -16  -8 17193.6 662.537   1
 -16  13  -8 16335.0 1146.33   2
 -16  13  -8 16422.5 864.429   4
 -13  16  -8 20349.8 952.992   4
  13   3  -8 17219.6 1039.53   1
 -13  16  -8 18046.2 1109.75   2
 -16  13  -5 1122.75 330.938   4
   3 -16  -5 787.425 368.392   3
  -3 -13  -5 625.331 350.495   3
  13   3  -5 1224.93 414.627   1
 -13  16  -5 1019.24 229.078   3
 -16  13  -5 946.149 316.693   3
  16  -3  -5 973.361 405.402   1
 -13  16  -5 803.860 305.227   4
 -16  13  -5 368.977 418.326   2
 -13  16  -5 1322.92 427.482   2
   3 -16  -2 35865.9 889.975   3
  -3 -13  -2 33911.4 935.999   3
  16  -3  -2 34120.5 983.716   1
 -16  13  -2 35386.0 1191.94   2
 -16  13  -2 35311.3 801.965   3
 -13  16  -2 35046.9 1044.16   4
 -16  13  -2 34805.9 1058.80   4
 -13  16  -2 36860.9 1175.24   2
  13   3  -2 34332.0 1020.03   1
  16  -3   1 415.554 230.919   1
  13   3   1 240.627 229.041   1
 -13  16   1 753.253 293.576   4
   3 -16   1 227.420 129.058   3
  -3 -13   1 365.702 197.822   3
 -16  13   1 723.408 276.524   4
 -16  13   1 925.218 267.559   2
 -13  16   1 259.871 236.845   2
 -13  16   4 32762.6 900.298   2
 -16  13   4 34317.3 971.191   4
 -13  16   4 34382.1 1008.18   4
 -16  13   4 33731.4 757.274   2
 -13  16   7 744.529 292.437   2
  -3 -13   7 1096.66 256.568   4
 -16  13   7 1611.05 305.370   4
 -13  16   7 848.950 296.223   4
   2 -16  -9 1956.10 313.124   1
   2 -16  -9 2550.02 629.050   3
  -2 -14  -9 2538.77 637.039   3
 -14  16  -9 2587.66 429.915   3
 -16  14  -9 2325.37 479.743   3
  14   2  -9 1915.63 578.685   1
  16  -2  -9 1927.20 538.086   1
 -16  14  -9 2412.68 642.321   2
 -14  16  -9 2280.48 494.552   4
 -14  16  -9 2608.60 613.516   2
 -16  14  -9 2423.27 501.499   4
   2 -16  -6 3035.42 514.839   3
  -2 -14  -6 2572.99 495.707   3
 -14  16  -6 2625.70 335.303   3
 -16  14  -6 2550.77 381.886   3
  14   2  -6 2940.17 523.358   1
  16  -2  -6 2341.91 478.571   1
 -14  16  -6 2600.30 526.461   2
 -16  14  -6 2939.68 420.476   4
 -14  16  -6 2875.29 416.213   4
 -16  14  -6 3042.87 584.501   2
  16  -2  -3 17492.3 783.386   1
   2 -16  -3 16903.7 718.382   3
  -2 -14  -3 17808.6 757.651   3
 -16  14  -3 17365.0 590.783   3
 -14  16  -3 17170.4 433.566   3
 -14  16  -3 18269.9 784.911   4
 -16  14  -3 17438.2 779.309   4
 -16  14  -3 17433.2 927.737   2
 -14  16  -3 17952.3 904.125   2
  14   2  -3 17935.2 797.825   1
 -16  14   0 2778.16 367.264   4
   2 -16   0 2845.51 256.569   3
  16  -2   0 2486.21 331.219   1
  -2 -14   0 3063.82 308.628   3
 -14  16   0 3136.47 383.500   2
 -14  16   0 2385.66 350.412   4
 -16  14   0 2894.17 386.410   2
  14   2   0 2779.56 344.018   1
  14   2   3 11025.7 371.861   1
 -14  16   3 9860.97 514.074   2
 -16  14   3 10554.0 594.010   4
 -14  16   3 11399.8 632.940   4
 -16  14   3 10405.6 496.761   2
  16  -2   3 9879.50 373.933   1
 -14  16   6 2551.89 353.825   2
 -16  14   6 2962.88 299.744   2
 -14  16   6 2354.48 369.149   4
  -2 -14   6 2605.18 326.072   4
 -16  14   6 2871.37 366.734   4
 -16  14   9 2631.65 332.884   4
 -14  16   9 1917.21 322.845   4
   1 -16 -10 278.063 559.565   3
  -1 -15 -10-177.017 548.299   3
 -15  16 -10 679.896 394.426   3
 -16  15 -10 432.040 411.691   3
  15   1 -10 522.586 526.372   1
  16  -1 -10 624.499 536.867   1
 -16  15 -10 1023.14 488.198   4
 -15  16 -10-203.099 367.369   1
 -15  16 -10 862.268 428.756   4
 -16  15 -10 1318.81 422.696   1
 -16  15 -10-56.6055 526.721   2
 -15  16 -10 599.307 523.292   2
   1 -16  -7 2318.85 557.273   3
  -1 -15  -7 1687.83 498.031   3
 -15  16  -7 840.324 302.667   3
 -16  15  -7 1628.69 383.960   3
  15   1  -7 1290.50 476.189   1
  16  -1  -7 2256.99 538.478   1
 -16  15  -7 2079.07 551.016   2
 -16  15  -7 1287.38 357.808   4
 -15  16  -7 1026.77 371.863   4
 -15  16  -7 1670.70 534.559   2
   1 -16  -4 81.3791 299.827   3
  -1 -15  -4 324.805 310.986   3
  15   1  -4 94.7130 325.140   1
 -15  16  -4 391.328 283.244   4
 -16  15  -4 551.893 237.392   3
 -15  16  -4 415.277 210.529   3
  16  -1  -4 348.250 342.424   1
 -16  15  -4 1079.41 320.633   4
 -15  16  -4 1122.89 431.855   2
 -16  15  -4 476.456 377.109   2
 -16  15  -1 10751.1 681.944   2
  16  -1  -1 10101.9 579.519   1
   1 -16  -1 10650.9 484.133   3
  -1 -15  -1 9786.58 486.960   3
 -16  15  -1 9925.38 432.130   3
 -16  15  -1 9423.52 595.851   4
 -15  16  -1 11138.5 679.578   2
 -15  16  -1 9795.01 607.487   4
  15   1  -1 10859.1 587.821   1
  16  -1   2 927.899 219.877   1
 -15  16   2 1339.71 293.391   2
 -16  15   2 1164.45 301.714   4
 -15  16   2 1649.43 337.306   4
  -1 -15   2 1174.09 207.651   3
  15   1   2 1289.26 239.413   1
   1 -16   2 1095.60 164.416   3
 -16  15   2 1626.79 302.249   2
 -16  15   5 977.724 248.854   2
 -15  16   5 1052.29 272.067   2
 -16  15   5 1156.17 310.446   4
 -15  16   5 1110.71 293.158   4
 -16  15   8 873.005 299.088   4
 -15  16   8 1268.89 326.348   4
   0 -16  -8 16090.7 1033.77   3
 -16  16  -8 15615.5 883.336   4
  16   0  -8 14780.7 1002.43   1
 -16  16  -8 14805.0 1102.18   2
 -16  16  -8 16837.4 791.641   3
   0 -16  -5 144.957 360.681   3
 -16  16  -5-195.253 246.586   3
  16   0  -5 58.9892 384.452   1
 -16  16  -5-161.534 297.644   4
 -16  16  -5 228.954 404.081   2
  16   0  -2 34080.7 1054.30   1
 -16  16  -2 34409.8 1209.09   2
   0 -16  -2 33585.8 924.166   3
 -16  16  -2 31179.5 673.421   3
 -16  16  -2 32760.8 1067.22   4
 -16  16   1 6.57257 271.464   4
   0 -16   1-150.983 195.423   3
  16   0   1-25.8604 233.665   1
 -16  16   1 674.686 283.000   2
 -16  16   4 15411.9 618.546   2
 -16  16   4 15499.5 742.476   4
 -16  16   7 446.105 263.172   2
 -16  16   7 79.0575 279.416   4
   0  17  -8 1686.35 391.950   2
 -17   0  -8 1831.65 556.037   3
   0  17  -8 2222.90 358.136   4
   0  17  -8 2490.33 627.889   1
  17 -17  -8 2106.30 490.485   1
  17 -17  -5-517.842 344.584   1
   0  17  -5-97.6139 308.422   2
 -17   0  -5-268.716 358.753   3
   0  17  -5 167.107 221.578   3
   0  17  -5-304.267 283.353   4
   0  17  -2 6600.10 380.570   3
 -17   0  -2 7049.79 574.092   3
  17 -17  -2 6700.09 505.199   1
 -17   0  -2 6476.37 425.504   1
   0  17  -2 8100.65 551.948   4
   0  17  -2 7964.65 529.718   2
   0  17   1 142.586 274.727   3
   0  17   1 133.392 269.959   2
  17 -17   1-172.196 220.260   3
 -17   0   1 225.655 212.253   2
  17 -17   1 122.388 251.726   1
 -17   0   1-70.7644 289.771   3
   0  17   1-149.756 266.949   4
  17 -17   4 87.0964 250.438   3
   0  17   4 689.224 322.891   2
 -17   0   4 358.494 102.275   2
   0  17   7-67.4228 395.637   2
 -17   0   7 151.109 223.954   4
   0  17   7 574.043 354.608   4
  -1  17  -9 1876.36 423.882   3
 -16  -1  -9 1294.72 566.997   3
 -17   1  -9 1843.48 580.381   3
   1  16  -9 2600.62 662.263   1
   1  16  -9 2311.09 451.752   2
  -1  17  -9 2915.55 655.755   1
  16 -17  -9 1943.51 500.218   1
  17 -16  -9 1167.27 465.456   1
  -1  17  -9 1666.55 427.024   2
  -1  17  -6 1866.15 414.338   2
   1  16  -6 1155.11 327.693   2
  16 -17  -6 2571.69 471.068   1
 -16  -1  -6 2016.92 487.610   3
 -17   1  -6 1644.23 452.491   3
  -1  17  -6 1235.35 256.727   3
   1  16  -6 3088.45 601.479   1
  17 -16  -6 1350.80 313.070   2
  -1  17  -6 2283.73 344.641   4
   1  16  -6 1934.68 329.262   4
  17 -16  -6 1439.43 407.050   1
 -17   1  -3 10855.4 465.554   1
  17 -16  -3 14141.7 695.080   1
   1  16  -3 12129.9 495.743   3
 -16  -1  -3 12350.7 715.329   3
 -17   1  -3 13120.2 737.219   3
  -1  17  -3 12069.0 417.503   3
  16 -17  -3 12976.0 671.931   1
  17 -16  -3 11232.9 613.217   2
  -1  17  -3 13410.4 690.048   2
  -1  17  -3 14075.8 679.200   4
   1  16  -3 13594.0 652.698   4
   1  16  -3 14192.1 676.069   2
  -1  17   0 3296.50 322.591   3
  16 -17   0 3532.96 390.510   1
   1  16   0 3634.63 368.485   3
  -1  17   0 3118.60 389.541   2
   1  16   0 3272.16 383.250   2
 -16  -1   0 2873.97 341.958   2
  17 -16   0 3556.22 316.814   3
  16 -17   0 3100.87 291.279   3
 -17   1   0 3174.41 353.691   2
 -17   1   0 2947.22 388.511   3
  17 -16   0 4229.06 402.262   1
   1  16   0 3217.13 399.125   4
  -1  17   0 4144.72 423.945   4
 -16  -1   0 3267.64 422.599   3
 -17   1   3 5962.47 290.855   2
  16 -17   3 4999.59 324.868   3
  17 -16   3 5809.34 399.891   3
  -1  17   3 6444.11 547.607   2
   1  16   3 6596.11 548.094   2
 -16  -1   3 6223.11 554.494   3
 -17   1   3 5966.70 543.234   3
  -1  17   3 6878.22 548.827   4
   1  16   3 6627.66 540.002   4
 -16  -1   3 5181.75 298.633   2
  -1  17   6 3730.15 511.539   2
   1  16   6 3205.68 514.248   2
   1  16   6 4155.32 412.307   1
 -16  -1   6 2600.16 312.435   4
 -17   1   6 2365.15 302.263   4
  -1  17   6 4669.61 511.134   4
   1  16   6 5089.56 542.460   4
  -1  17   9 3616.26 523.108   4
   1  16   9 3883.06 530.306   4
  15 -17  -7 15507.4 826.152   1
 -15  -2  -7 14576.8 941.998   3
 -17   2  -7 14951.3 911.776   3
   2  15  -7 18341.6 1081.21   1
  -2  17  -7 15885.0 700.700   4
  -2  17  -7 15905.9 847.087   2
  17 -15  -7 15307.7 842.480   1
   2  15  -7 16537.1 688.935   4
   2  15  -7 15347.1 762.162   2
  -2  17  -4 2051.33 362.611   2
  -2  17  -4 1846.41 213.100   3
 -15  -2  -4 1551.46 412.572   3
 -17   2  -4 1567.70 394.728   3
   2  15  -4 1456.27 279.325   3
  15 -17  -4 1955.04 373.562   1
 -17   2  -4 1562.82 207.872   1
  17 -15  -4 1788.95 324.026   2
  -2  17  -4 2079.85 344.808   4
  17 -15  -4 1995.12 394.368   1
   2  15  -4 1803.26 330.430   4
   2  15  -4 2065.30 349.856   2
  -2  17  -1 7412.79 518.451   2
  -2  17  -1 6361.36 320.812   3
   2  15  -1 7371.43 499.049   2
   2  15  -1 7576.96 447.099   3
 -17   2  -1 7384.25 556.251   3
  17 -15  -1 7467.66 430.648   3
 -15  -2  -1 7443.51 545.003   3
  17 -15  -1 7579.66 492.062   1
  15 -17  -1 7977.00 388.265   3
   2  15  -1 8611.23 541.346   4
  15 -17  -1 7878.52 498.845   1
  -2  17  -1 8313.64 549.261   4
 -17   2  -1 7040.94 479.912   1
  -2  17   2 10759.3 616.632   2
  17 -15   2 9978.65 512.283   3
 -17   2   2 10643.3 420.909   2
   2  15   2 10498.2 616.220   2
  15 -17   2 10164.7 380.985   3
 -15  -2   2 10826.9 462.537   2
 -15  -2   2 10171.0 633.585   3
 -17   2   2 10023.6 628.108   3
  17 -15   2 11172.0 552.453   1
  -2  17   2 12174.9 683.610   4
   2  15   2 11431.3 658.745   4
  -2  17   2 10788.2 590.578   3
  17 -15   5 9646.59 570.793   3
  -2  17   5 11107.2 713.579   2
   2  15   5 11116.2 719.594   2
   2  15   5 12595.3 526.906   1
  -2  17   5 12454.4 720.780   4
 -15  -2   5 8700.08 490.508   4
   2  15   5 13239.4 745.408   4
 -17   2   5 9725.75 520.809   4
   2  15   8 3646.14 512.056   4
  -2  17   8 3264.04 464.442   4
   3  14  -8 2326.19 367.348   2
  -3  17  -8 2671.83 384.056   3
  14 -17  -8 3879.45 522.720   1
 -14  -3  -8 3189.65 579.693   3
 -17   3  -8 3594.73 598.804   3
  17 -14  -8 2368.20 489.022   1
  -3  17  -8 3325.78 400.691   4
  -3  17  -8 4704.92 660.118   1
  -3  17  -8 3156.47 504.867   2
   3  14  -8 3860.70 659.161   1
   3  14  -8 2706.79 327.942   4
   3  14  -5 82.7485 248.692   2
 -14  -3  -5 376.363 362.429   3
  14 -17  -5 25.3586 298.864   1
 -17   3  -5 284.727 339.603   3
  -3  17  -5 221.141 159.700   3
   3  14  -5 222.153 242.522   3
  17 -14  -5-38.3577 331.013   1
  17 -14  -5 508.902 245.211   2
   3  14  -5-79.8323 412.845   1
 -17   3  -5 122.543 105.496   1
  -3  17  -5 115.254 302.193   2
  -3  17  -5-109.115 241.959   4
   3  14  -5 490.857 269.324   4
  -3  17  -2 1008.22 128.921   3
  17 -14  -2 1274.44 319.619   1
 -17   3  -2 1649.39 294.837   1
   3  14  -2 1396.59 294.792   2
   3  14  -2 1056.21 263.922   3
  14 -17  -2 1478.12 329.992   1
 -14  -3  -2 1451.60 341.386   3
  -3  17  -2 1891.57 341.058   4
 -17   3  -2 1866.54 356.183   3
  14 -17  -2 1069.20 240.411   3
  17 -14  -2 1355.60 312.127   2
  -3  17  -2 2168.15 344.422   2
   3  14  -2 1632.36 300.045   4
  -3  17   1 5594.83 462.074   2
   3  14   1 5318.19 458.890   3
 -14  -3   1 5097.64 370.830   2
   3  14   1 5853.47 459.419   2
  14 -17   1 6272.77 307.951   3
  17 -14   1 5342.11 414.877   3
  -3  17   1 6375.65 504.319   4
 -17   3   1 5496.77 372.787   2
 -14  -3   1 6038.40 481.514   3
 -17   3   1 6045.21 484.347   3
  17 -14   1 5750.19 416.723   1
   3  14   1 6378.61 503.993   4
  14 -17   1 6181.01 450.350   1
  17 -14   4 3975.18 401.477   3
   3  14   4 5442.99 363.267   1
  -3  17   4 5214.25 481.706   2
 -14  -3   4 4163.43 272.591   2
   3  14   4 5140.99 485.141   2
 -14  -3   4 3695.51 374.423   4
  -3  17   4 5292.42 484.383   4
   3  14   4 5342.05 500.197   4
  -3  17   7 1184.79 418.755   2
 -17   3   7 1102.77 230.228   4
  -3  17   7 1906.69 401.300   4
   3  14   7 1653.07 414.352   4
   4  13  -9 1675.20 330.487   2
  13 -17  -9 1590.14 552.748   3
  13 -17  -9 2225.72 492.397   1
  -4  17  -9 1790.73 392.406   3
  -4  17  -9 2391.74 574.949   1
 -13  -4  -9 2179.74 612.515   3
 -17   4  -9 1784.69 548.523   3
  17 -13  -9 1530.87 478.524   1
  -4  17  -9 1942.83 337.214   4
  -4  17  -9 1651.55 423.581   2
   4  13  -9 1667.43 564.327   1
  -4  17  -6 1828.30 265.540   3
   4  13  -6 2073.26 323.002   2
  13 -17  -6 2504.72 420.278   1
 -17   4  -6 1313.68 413.089   3
  17 -13  -6 1717.26 436.533   1
  -4  17  -6 1866.36 219.207   3
  17 -13  -6 1588.78 230.212   2
  -4  17  -6 1997.34 329.458   4
   4  13  -6 2604.41 342.138   4
 -13  -4  -6 2309.44 467.915   3
   4  13  -6 2652.64 507.350   1
  -4  17  -6 1872.90 395.302   2
   4  13  -3 4107.44 378.471   2
 -13  -4  -3 2730.13 423.241   3
   4  13  -3 2908.23 330.561   3
 -17   4  -3 3246.64 418.829   3
  17 -13  -3 3019.47 325.028   2
  13 -17  -3 3345.31 389.674   1
  -4  17  -3 4457.95 421.688   4
 -17   4  -3 2972.55 313.958   1
   4  13  -3 4132.78 399.629   4
  -4  17  -3 3361.91 417.311   2
  17 -13  -3 2960.20 398.170   1
  13 -17   0 1187.63 291.092   1
  -4  17   0 1538.89 290.271   2
   4  13   0 693.435 267.045   3
   4  13   0 1075.88 260.659   2
 -13  -4   0 1570.37 280.771   2
  17 -13   0 1166.69 272.926   3
 -13  -4   0 1388.06 321.226   3
  13 -17   0 1337.58 181.236   3
 -17   4   0 1439.60 306.254   3
  17 -13   0 1280.75 277.607   1
  -4  17   0 1608.66 312.494   4
   4  13   0 1488.84 311.682   4
  17 -13   3 3688.07 398.223   3
  -4  17   3 3337.23 379.935   2
 -17   4   3 2915.54 180.567   2
   4  13   3 3784.80 431.213   2
 -13  -4   3 3783.16 301.848   2
   4  13   3 3992.45 448.228   4
 -13  -4   3 3432.25 415.497   3
 -17   4   3 2806.01 220.089   2
  17 -13   3 4265.10 353.682   1
   4  13   3 3526.75 292.730   1
  -4  17   3 4433.35 456.487   4
  13 -17   3 2663.81 161.899   3
   4  13   6 1149.48 237.005   1
  -4  17   6 1091.17 374.161   2
   4  13   6 1405.43 423.160   2
 -17   4   6 691.959 238.603   4
 -13  -4   6 421.184 210.395   4
  -4  17   6 683.267 322.882   4
   4  13   6 790.186 353.930   4
 -17   4   6 679.809 244.599   4
  -4  17   9 661.588 336.495   4
   5  12 -10 419.586 558.655   1
  12 -17 -10 103.266 560.627   3
  12 -17 -10 767.521 386.181   1
  17 -12 -10 200.857 485.179   1
 -12  -5 -10 527.157 581.203   3
 -17   5 -10 1356.53 575.192   3
  -5  17 -10 319.851 489.397   1
  -5  17 -10 209.962 414.975   2
  -5  17  -7 9177.30 483.933   3
 -12  -5  -7 8754.30 757.733   3
  12 -17  -7 8472.30 599.819   1
  17 -12  -7 7833.05 683.756   1
  -5  17  -7 9162.98 554.732   4
  -5  17  -7 9700.56 715.893   2
   5  12  -7 8800.09 460.803   4
   5  12  -7 9156.68 531.602   2
 -17   5  -7 9172.18 724.443   3
  12 -17  -7 8450.02 752.892   3
   5  12  -4 2004.68 276.401   2
   5  12  -4 1871.37 319.036   3
 -12  -5  -4 1523.83 412.144   3
  17 -12  -4 1722.93 361.021   1
 -17   5  -4 1060.57 359.101   3
  12 -17  -4 2284.41 371.775   1
   5  12  -4 2759.68 516.490   1
  -5  17  -4 2023.54 346.847   4
   5  12  -4 2212.45 323.788   4
 -17   5  -4 2001.16 275.526   1
  -5  17  -4 1970.23 382.771   2
  17 -12  -1 11375.3 571.330   1
   5  12  -1 11994.2 571.430   2
   5  12  -1 9484.65 514.569   3
  12 -17  -1 11890.9 582.450   1
 -12  -5  -1 10503.0 603.299   3
 -17   5  -1 11211.9 599.942   3
  12 -17  -1 12269.7 423.537   3
  -5  17  -1 12557.3 644.895   4
   5  12  -1 11807.7 593.053   4
  -5  17  -1 11910.9 628.808   2
 -17   5  -1 10422.0 560.964   1
  -5  17   2 4121.60 405.463   2
  17 -12   2 3396.28 385.241   3
   5  12   2 3813.25 407.167   2
 -17   5   2 3461.82 274.113   2
 -12  -5   2 3030.97 373.848   3
   5  12   2 4469.70 450.260   4
 -17   5   2 3899.57 420.027   3
  -5  17   2 4849.03 449.269   4
  17 -12   2 3595.86 341.060   1
 -12  -5   2 4129.68 333.424   2
  -5  17   5 15092.8 756.452   2
   5  12   5 15021.8 827.582   2
 -17   5   5 13794.5 609.689   4
 -12  -5   5 11121.2 433.196   2
   5  12   5 15094.4 449.853   1
 -12  -5   5 12457.4 552.551   4
  -5  17   5 15724.6 753.641   4
   5  12   5 15166.1 770.910   4
  -5  17   8 2236.22 467.135   2
  -5  17   8 3030.27 441.058   4
  11 -17  -8 1359.28 510.527   3
  17 -11  -8 2006.82 477.902   1
  -6  17  -8 2137.67 368.748   3
 -11  -6  -8 1358.89 526.579   3
 -17   6  -8 1581.59 508.979   3
  11 -17  -8 1271.86 373.262   1
  -6  17  -8 2099.52 381.292   4
  -6  17  -8 1804.12 439.763   2
   6  11  -8 1936.74 313.515   2
   6  11  -8 2223.80 573.889   1
  -6  17  -5 6397.51 248.502   3
 -17   6  -5 8024.65 385.726   1
 -11  -6  -5 8324.47 668.883   3
 -17   6  -5 7107.97 588.733   3
  -6  17  -5 7141.57 228.709   3
  11 -17  -5 8344.34 550.476   1
   6  11  -5 8281.98 475.354   2
   6  11  -5 9459.48 746.734   1
  17 -11  -5 8413.00 647.076   1
  -6  17  -5 8942.70 660.106   2
  -6  17  -5 9358.90 559.088   4
   6  11  -5 8622.90 485.002   4
 -17   6  -2 3161.88 349.138   1
  11 -17  -2 3255.64 360.148   1
   6  11  -2 2943.04 320.518   2
  -6  17  -2 3486.92 391.614   4
   6  11  -2 2357.80 332.197   3
 -11  -6  -2 3187.89 407.638   3
 -17   6  -2 3074.19 377.380   3
   6  11  -2 3875.94 475.348   1
  17 -11  -2 3134.46 366.747   1
  -6  17  -2 2632.15 364.019   2
   6  11  -2 3572.09 366.559   4
 -11  -6   1 15617.9 611.983   2
  17 -11   1 15294.4 654.222   3
  17 -11   1 15340.7 592.413   1
 -11  -6   1 17002.9 704.634   3
 -17   6   1 15925.4 687.176   3
   6  11   1 16638.3 714.704   2
  -6  17   1 16094.8 736.886   4
  -6  17   1 15832.9 694.788   2
   6  11   1 16044.8 719.101   4
  -6  17   4 8198.35 548.452   2
   6  11   4 7249.25 580.128   2
 -17   6   4 7437.78 481.922   4
   6  11   4 7464.85 329.006   1
 -11  -6   4 6294.36 391.243   2
  -6  17   4 6832.06 526.942   4
 -11  -6   4 5651.88 417.715   4
   6  11   4 8198.82 590.572   4
 -11  -6   7 693.298 189.352   4
  -6  17   7 1194.80 390.685   2
  -6  17   7 955.050 331.682   4
 -17   6   7 1077.04 232.444   4
  -6  17  10 914.004 356.094   4
  17 -10  -9 698.670 487.757   1
   7  10  -9 582.853 483.114   1
  10 -17  -9 776.347 551.420   3
   7  10  -9 116.422 212.419   2
  -7  17  -9-189.974 326.362   3
 -10  -7  -9 1001.77 534.740   3
 -17   7  -9 442.505 456.089   3
  -7  17  -9-309.628 442.531   1
  10 -17  -9-93.3870 342.786   1
  -7  17  -9 572.550 311.135   4
  -7  17  -9 602.165 414.599   2
  17 -10  -6 2254.94 477.495   1
  10 -17  -6 1946.68 467.185   3
  -7  17  -6 1818.36 224.740   3
 -10  -7  -6 2237.67 498.007   3
 -17   7  -6 1777.86 265.387   1
 -17   7  -6 1477.80 403.860   3
  -7  17  -6 1886.61 202.200   3
  -7  17  -6 2160.54 452.449   2
  -7  17  -6 2173.98 347.666   4
  10 -17  -6 1845.67 357.225   1
   7  10  -6 1468.89 473.281   1
   7  10  -6 1783.66 281.500   2
  10 -17  -3 1709.13 345.931   3
  17 -10  -3 1048.18 321.398   1
   7  10  -3 1237.73 248.449   2
 -10  -7  -3 1397.82 370.215   3
 -17   7  -3 1822.13 352.293   3
 -17   7  -3 1239.30 271.601   1
  -7  17  -3 1544.56 318.266   4
   7  10  -3 1493.43 405.690   1
  10 -17  -3 1326.44 300.314   1
  -7  17  -3 978.368 305.661   2
   7  10  -3 1577.76 272.394   4
 -10  -7   0 2278.43 308.748   2
   7  10   0 3683.15 384.057   2
   7  10   0 2338.42 335.167   3
 -10  -7   0 3190.24 380.154   3
 -17   7   0 2918.86 356.772   3
  10 -17   0 3279.99 184.417   3
  -7  17   0 3067.80 370.006   4
   7  10   0 3070.98 360.262   4
  -7  17   0 2966.57 358.651   2
  10 -17   0 3109.63 219.055   3
  17 -10   0 2787.93 330.969   1
  17 -10   3 1426.39 242.922   1
  -7  17   3 1537.15 318.497   2
  -7  17   3 2093.26 349.736   4
 -17   7   3 1254.65 172.932   2
   7  10   3 1875.44 354.521   2
 -10  -7   3 1043.31 298.369   3
 -17   7   3 1746.73 312.507   4
 -10  -7   3 1746.94 305.593   4
   7  10   3 1464.48 205.420   1
 -10  -7   3 1372.42 256.750   2
   7  10   3 1441.85 334.989   4
  -7  17   6 762.308 320.790   2
 -17   7   6 602.853 241.002   4
 -10  -7   6 342.682 207.204   4
  -7  17   6 621.241 289.247   4
  -7  17   9 1717.09 376.656   4
   9 -17 -10 2135.98 668.924   3
   8   9 -10 1650.27 597.521   1
  -9  -8 -10 994.263 582.905   3
 -17   8 -10 1819.49 555.681   3
 -17   8 -10 958.016 416.375   4
   9 -17 -10 1694.57 414.324   1
  -8  17 -10 1727.07 526.820   1
  -8  17 -10 1321.79 515.564   2
  17  -9 -10 1821.01 573.793   1
   9 -17  -7 4150.76 618.085   3
  -8  17  -7 4733.63 372.515   3
   8   9  -7 4523.05 643.207   1
  -9  -8  -7 3358.86 597.441   3
 -17   8  -7 3889.08 512.148   3
  -8  17  -7 4566.49 582.031   2
  17  -9  -7 3924.07 564.890   1
   9 -17  -7 3920.33 441.144   1
  -8  17  -7 4122.39 459.162   4
   8   9  -7 3654.01 313.570   2
   8   9  -4 4259.10 336.848   2
  -9  -8  -4 3897.86 494.668   3
 -17   8  -4 5004.86 475.267   3
 -17   8  -4 4365.48 361.058   1
  -8  17  -4 4808.36 515.264   2
  17  -9  -4 3872.11 480.578   1
   8   9  -4 5798.22 585.839   1
  -8  17  -4 3853.39 406.231   4
   9 -17  -4 4285.19 388.724   1
   8   9  -4 4319.34 372.646   4
   9 -17  -4 4857.72 495.407   3
   9 -17  -1 18199.9 539.194   3
   9 -17  -1 17560.3 679.576   1
   8   9  -1 14600.1 633.041   3
   8   9  -1 18233.1 672.869   2
  -9  -8  -1 16943.6 705.797   3
 -17   8  -1 15847.6 656.423   1
 -17   8  -1 17172.5 671.854   3
   8   9  -1 17374.3 728.283   1
  -8  17  -1 17527.3 746.209   2
  17  -9  -1 16630.2 674.918   1
  -8  17  -1 17887.2 757.245   4
   8   9  -1 17683.1 701.562   4
  -8  17   2 7803.36 502.988   2
   8   9   2 7475.60 529.259   2
  17  -9   2 6771.15 388.241   1
  -9  -8   2 6767.99 462.239   3
 -17   8   2 7596.59 518.769   4
   8   9   2 7681.51 406.192   1
 -17   8   2 7626.34 410.166   2
  -8  17   2 7980.89 540.638   4
  -9  -8   2 8248.59 466.851   2
   8   9   2 6159.04 487.107   4
  -8  17   5 18658.4 787.726   2
  -8  17   5 18525.4 797.927   4
 -17   8   5 18559.9 677.540   4
  -9  -8   5 17822.6 674.412   2
  -9  -8   5 15743.7 607.050   4
 -17   8   8 560.188 174.180   4
  -8  17   8 630.268 346.804   2
  -8  17   8 602.180 324.867   4
   8 -17  -8 665.169 483.336   3
   9   8  -8 926.420 490.769   1
  -9  17  -8 744.560 352.012   4
   8 -17  -8 1096.94 349.091   1
   9   8  -8 528.560 184.249   2
  -9  17  -8 1186.91 311.440   3
  -8  -9  -8 175.098 448.090   3
 -17   9  -8 364.575 408.531   3
 -17   9  -8 750.971 383.301   4
  -9  17  -8 297.965 397.895   2
  17  -8  -8 1428.86 463.246   1
   8 -17  -5 18477.0 895.536   3
   9   8  -5 16721.9 546.527   2
  -8  -9  -5 15908.7 856.877   3
  -9  17  -5 15914.6 364.862   3
 -17   9  -5 18127.7 795.841   3
  17  -8  -5 18582.5 873.642   1
 -17   9  -5 17590.5 603.287   1
  -9  17  -5 19730.3 815.054   4
  -9  17  -5 17966.1 925.713   2
   9   8  -5 20030.6 994.735   1
   8 -17  -5 18673.3 707.284   1
   8 -17  -2 8424.33 467.609   3
   9   8  -2 7977.45 447.417   2
  -8  -9  -2 6904.75 514.781   3
 -17   9  -2 7785.67 484.716   3
 -17   9  -2 7018.71 462.740   1
   9   8  -2 8169.68 489.457   4
  17  -8  -2 8207.30 544.408   1
   9   8  -2 7537.30 548.621   1
  -9  17  -2 8649.20 552.464   4
  -9  17  -2 7819.63 560.059   2
   8 -17  -2 9082.02 505.851   1
   9   8   1 18521.4 647.974   1
  -8  -9   1 18242.8 686.210   3
   9   8   1 18023.9 738.379   2
 -17   9   1 17601.5 689.706   3
 -17   9   1 18179.5 769.176   4
 -17   9   1 18518.3 689.506   2
  -9  17   1 17249.9 748.372   4
  17  -8   1 17973.6 619.077   1
  -9  17   1 18298.2 730.284   2
  -8  -9   1 17236.3 664.511   2
   9   8   1 18552.4 751.801   4
  -9  17   4 5020.65 450.740   2
 -17   9   4 3684.70 196.787   2
   9   8   4 4594.16 234.549   1
   9   8   4 4263.29 202.622   1
 -17   9   4 4384.91 399.718   4
  -9  17   4 4492.71 441.769   4
  -8  -9   4 3900.37 383.985   4
  17  -8   4 4767.68 315.436   1
  -8  -9   4 3789.59 387.571   2
  -9  17   7 4042.24 493.912   2
  -8  -9   7 2731.60 272.338   4
 -17   9   7 3524.40 323.229   4
  -9  17   7 3781.62 430.583   4
  -9  17  10 1389.41 338.338   4
   7 -17  -9 3496.29 662.975   3
 -17  10  -9 1591.59 443.713   4
  10   7  -9 1543.15 567.779   1
 -10  17  -9 2768.19 402.395   3
  -7 -10  -9 2885.59 630.995   3
 -17  10  -9 2361.32 524.170   3
   7 -17  -9 1959.16 392.943   1
 -10  17  -9 2968.89 459.732   4
 -10  17  -9 1921.84 510.316   2
 -17  10  -9 3299.29 671.973   2
  17  -7  -9 1735.62 494.386   1
  10   7  -6 800.728 427.863   1
   7 -17  -6 400.457 383.856   3
  -7 -10  -6 1568.02 447.263   3
 -10  17  -6 758.737 208.833   3
  10   7  -6 825.899 202.619   2
 -17  10  -6 819.984 357.975   3
 -17  10  -6 573.670 257.341   1
   7 -17  -6 504.220 266.567   1
 -10  17  -6 563.373 300.572   4
  17  -7  -6 0.95102 379.570   1
 -10  17  -6 680.644 383.470   2
 -17  10  -6 453.204 307.907   4
   7 -17  -3 1163.12 309.437   3
 -17  10  -3 1605.49 300.414   1
  -7 -10  -3 1576.91 337.099   3
   7 -17  -3 1537.55 279.133   1
 -17  10  -3 1480.25 302.708   3
  10   7  -3 1330.43 227.798   2
 -17  10  -3 1954.96 443.511   2
 -10  17  -3 1409.23 336.646   4
 -10  17  -3 1050.84 336.277   2
  17  -7  -3 1506.03 333.193   1
  10   7  -3 1132.68 382.911   1
   7 -17   0 3267.50 199.510   3
  -7 -10   0 3652.65 372.663   3
  10   7   0 2802.33 335.877   2
 -17  10   0 3301.83 350.220   3
 -17  10   0 3516.61 412.144   4
  10   7   0 3994.39 383.112   1
  17  -7   0 3671.30 361.170   1
 -10  17   0 3149.96 390.891   4
 -10  17   0 3737.19 407.147   2
 -17  10   0 3973.37 426.373   2
 -10  17   3 786.822 271.433   2
  17  -7   3 1064.79 210.194   1
  -7 -10   3 1303.70 288.751   3
 -17  10   3 970.190 291.453   4
  10   7   3 1285.98 215.863   1
 -10  17   3 1021.56 320.609   4
  -7 -10   3 1119.26 277.071   2
 -17  10   3 1062.45 206.476   2
 -10  17   6 2650.39 407.275   4
 -10  17   6 2674.82 397.703   2
  -7 -10   6 1452.79 256.787   4
 -17  10   6 2242.48 312.344   4
  -7 -10   6 1889.83 351.540   2
 -10  17   9 365.101 271.188   4
   6 -17 -10 2883.09 676.232   3
  -6 -11 -10 1873.61 638.044   3
 -11  17 -10 1785.83 419.417   3
  11   6 -10 1502.91 601.800   1
 -17  11 -10 1516.62 522.866   3
 -17  11 -10 1548.11 649.166   2
   6 -17 -10 1142.92 366.096   1
 -17  11 -10 1121.82 427.343   4
 -11  17 -10 1563.41 544.779   2
  17  -6 -10 2104.38 588.739   1
 -11  17 -10 1144.03 409.703   1
 -17  11  -7 839.511 369.860   4
   6 -17  -7 1997.27 506.015   3
  11   6  -7 840.187 454.404   1
  -6 -11  -7 1398.66 469.357   3
 -11  17  -7 809.689 272.406   3
 -17  11  -7 1002.80 388.490   3
 -11  17  -7 1399.94 387.404   4
  11   6  -7 964.931 159.799   2
 -17  11  -7 913.373 501.715   2
  17  -6  -7 1129.19 414.609   1
   6 -17  -7 1076.80 304.471   1
 -11  17  -7 1081.74 430.870   2
   6 -17  -4 7748.90 571.627   3
  -6 -11  -4 7263.36 587.629   3
  11   6  -4 7023.73 359.806   2
 -17  11  -4 6940.25 487.415   3
  17  -6  -4 7039.41 590.873   1
 -17  11  -4 7263.80 682.107   2
 -17  11  -4 6038.48 521.158   4
   6 -17  -4 7293.81 453.774   1
 -11  17  -4 6403.21 494.574   4
 -11  17  -4 7004.24 618.198   2
 -17  11  -4 6841.49 450.921   1
  11   6  -4 7556.41 618.733   1
   6 -17  -1 15350.3 505.158   3
  -6 -11  -1 14673.8 636.134   3
  11   6  -1 13400.5 577.296   2
 -17  11  -1 14313.0 583.188   3
  17  -6  -1 14825.1 661.581   1
 -17  11  -1 13738.2 701.092   4
 -17  11  -1 16111.0 803.482   2
 -11  17  -1 14424.8 708.029   4
  11   6  -1 15222.1 674.429   1
 -11  17  -1 14032.2 694.199   2
  17  -6   2 3577.77 309.738   1
  -6 -11   2 3621.59 340.636   3
 -17  11   2 3843.39 396.192   4
 -11  17   2 4079.12 424.569   4
 -17  11   2 4377.00 359.454   2
  11   6   2 3226.70 293.081   1
 -11  17   2 3514.29 370.811   2
 -11  17   5 8347.93 543.904   2
  -6 -11   5 7699.86 470.535   4
 -17  11   5 8368.37 506.679   4
 -17  11   5 6943.44 279.588   2
 -11  17   5 8304.17 565.656   4
  -6 -11   5 8163.59 564.734   2
 -11  17   8 901.707 352.096   2
 -17  11   8 947.575 237.962   4
 -11  17   8 1341.77 339.133   4
   5 -17  -8 3121.47 403.717   1
   5 -17  -8 3485.14 636.401   3
 -12  17  -8 3408.76 396.489   3
 -17  12  -8 3009.84 505.010   3
  -5 -12  -8 2336.40 568.387   3
  12   5  -8 2099.13 592.848   1
 -17  12  -8 2078.34 446.170   4
 -17  12  -8 2389.95 624.611   2
 -12  17  -8 3612.03 505.226   4
  17  -5  -8 2940.26 577.880   1
 -12  17  -8 2897.32 562.772   2
   5 -17  -5 16811.8 852.256   3
  -5 -12  -5 15860.8 859.816   3
  17  -5  -5 14233.7 796.372   1
 -12  17  -5 16076.4 440.920   3
  12   5  -5 16878.3 903.206   1
 -17  12  -5 16903.3 731.062   3
  12   5  -5 13262.0 401.835   2
 -17  12  -5 14311.5 767.857   4
   5 -17  -5 16133.8 647.898   1
 -12  17  -5 17361.4 788.656   4
 -12  17  -5 15044.2 881.193   2
 -17  12  -5 16083.5 1003.15   2
   5 -17  -2 3634.17 343.639   3
  -5 -12  -2 3224.53 398.808   3
  17  -5  -2 3262.26 402.054   1
 -17  12  -2 3604.86 336.953   3
  12   5  -2 3688.30 314.105   2
 -17  12  -2 3443.84 437.437   4
 -17  12  -2 3192.35 476.653   2
  12   5  -2 3832.97 440.831   1
 -12  17  -2 3652.66 407.709   4
 -12  17  -2 3758.58 470.295   2
  17  -5   1 11684.4 506.197   1
  -5 -12   1 12844.8 547.293   3
 -12  17   1 12946.3 678.804   4
 -17  12   1 12640.2 664.396   4
 -17  12   1 12832.3 616.512   2
  12   5   1 13071.8 540.513   1
 -12  17   1 13078.4 638.709   2
  17  -5   4 1918.98 211.552   1
 -12  17   4 2036.09 310.092   2
 -17  12   4 2194.49 230.879   2
 -17  12   4 1799.41 312.960   4
 -12  17   4 1945.21 343.767   4
 -12  17   7 7978.88 564.459   2
 -17  12   7 7944.48 479.728   4
 -12  17   7 8003.13 557.194   4
 -13  17  -9 360.854 500.655   2
   4 -17  -9 539.960 558.119   3
  -4 -13  -9 637.337 534.107   3
 -13  17  -9 975.707 368.766   3
 -17  13  -9 1738.90 485.960   3
   4 -17  -9 351.216 289.289   1
  13   4  -9 828.486 486.033   1
 -13  17  -9 1106.24 423.088   4
 -17  13  -9 347.382 386.192   4
  17  -4  -9 571.152 459.541   1
 -17  13  -9 1618.40 645.421   2
   4 -17  -6 132.144 378.123   3
  13   4  -6 191.663 403.180   1
  -4 -13  -6 689.654 405.709   3
   4 -17  -6 416.714 263.622   1
 -13  17  -6 406.189 229.894   3
 -17  13  -6 688.917 348.036   3
 -13  17  -6 970.284 340.238   4
 -17  13  -6 762.533 352.495   4
 -17  13  -6 736.070 473.444   2
  17  -4  -6 377.715 380.137   1
 -13  17  -6 133.180 405.562   2
   4 -17  -3 4305.91 431.401   3
  -4 -13  -3 3657.32 438.726   3
  17  -4  -3 4345.25 475.617   1
 -17  13  -3 3994.91 363.495   3
 -17  13  -3 4840.84 480.555   4
 -17  13  -3 4728.38 575.529   2
 -13  17  -3 4527.68 452.560   4
 -13  17  -3 4944.30 531.698   2
  13   4  -3 4487.44 490.258   1
  13   4   0 1387.57 295.345   1
   4 -17   0 1649.00 195.726   3
  -4 -13   0 885.517 247.779   3
 -17  13   0 1287.52 261.030   3
 -17  13   0 922.395 310.948   4
 -13  17   0 1768.92 345.818   4
 -17  13   0 1400.40 341.151   2
  17  -4   0 1159.00 292.129   1
 -13  17   0 1017.16 318.531   2
  13   4   3 3330.17 243.775   1
  17  -4   3 3473.00 267.017   1
 -17  13   3 3962.77 411.766   4
 -13  17   3 4366.36 454.467   4
 -17  13   3 3765.88 333.942   2
 -13  17   3 3221.06 354.910   2
 -17  13   6 1585.31 202.233   2
 -13  17   6 2091.44 343.838   2
  -4 -13   6 2436.03 320.807   4
 -17  13   6 1692.80 325.618   4
 -13  17   6 2187.59 358.194   4
 -13  17   9 1506.17 327.231   4
   3 -17  -7 1095.57 513.530   3
  -3 -14  -7 1408.82 499.040   3
 -17  14  -7 926.195 344.306   4
  14   3  -7 827.233 479.260   1
 -14  17  -7 1423.26 313.720   3
 -17  14  -7 1619.43 377.317   3
 -17  14  -7 911.704 507.377   2
 -14  17  -7 1554.23 395.757   4
 -14  17  -7 1174.50 496.376   2
   3 -17  -7 1759.68 328.089   1
  17  -3  -7 1882.79 492.599   1
   3 -17  -4 5812.26 527.074   3
  17  -3  -4 5117.38 551.518   1
  -3 -14  -4 4546.96 509.442   3
 -14  17  -4 5304.23 501.505   4
 -17  14  -4 5206.16 414.589   3
 -14  17  -4 5157.56 267.731   3
 -17  14  -4 5041.45 609.419   2
 -17  14  -4 4807.09 493.389   4
 -14  17  -4 6397.52 627.507   2
  14   3  -4 5861.85 566.956   1
   3 -17  -1 5589.34 360.408   3
  -3 -14  -1 5450.32 409.345   3
  17  -3  -1 5114.93 436.719   1
 -17  14  -1 6121.46 389.458   3
 -17  14  -1 5071.21 473.286   4
 -14  17  -1 5616.30 486.457   4
 -14  17  -1 5275.69 507.856   2
  14   3  -1 5435.39 455.559   1
 -17  14  -1 6239.75 553.500   2
 -14  17   2 1301.02 286.403   2
  17  -3   2 1222.82 242.565   1
 -17  14   2 1342.49 318.543   4
  14   3   2 1681.19 249.710   1
  -3 -14   2 1291.28 247.705   3
 -14  17   2 1513.68 324.659   4
 -17  14   2 1207.74 262.354   2
 -17  14   5 114.351 198.363   2
 -14  17   5 193.300 247.611   2
 -17  14   5 318.107 277.565   4
 -14  17   5-48.4129 262.827   4
 -14  17   8 2413.33 394.363   2
 -17  14   8 2998.03 358.180   4
 -14  17   8 2775.58 385.980   4
  17  -2  -8 3586.80 615.708   1
   2 -17  -8 3000.27 620.461   3
  -2 -15  -8 2806.93 609.375   3
 -15  17  -8 3311.74 399.069   3
 -17  15  -8 2979.29 484.236   3
  15   2  -8 3499.37 630.608   1
 -17  15  -8 3142.70 675.960   2
 -15  17  -8 3986.41 697.725   2
 -17  15  -8 2618.01 450.887   4
 -15  17  -8 2953.63 488.595   4
   2 -17  -5 14619.9 808.207   3
  -2 -15  -5 14734.3 831.088   3
 -17  15  -5 14965.2 644.590   3
 -15  17  -5 14323.6 530.281   3
  17  -2  -5 13628.4 822.861   1
 -17  15  -5 13443.6 750.966   4
 -17  15  -5 14002.5 951.591   2
 -15  17  -5 14023.2 754.789   4
 -15  17  -5 14239.1 919.951   2
  15   2  -5 13432.8 819.073   1
  17  -2  -2 11306.4 647.665   1
   2 -17  -2 10960.2 550.427   3
  -2 -15  -2 11316.8 587.826   3
 -15  17  -2 11623.1 722.093   2
 -17  15  -2 10959.2 477.879   3
 -17  15  -2 10385.5 723.402   2
 -17  15  -2 12008.8 679.780   4
 -15  17  -2 11926.4 687.589   4
  15   2  -2 11682.6 676.644   1
  15   2   1 8909.40 471.701   1
   2 -17   1 8640.89 329.470   3
  -2 -15   1 8691.84 436.503   3
  17  -2   1 8404.59 456.584   1
 -17  15   1 8903.32 582.663   4
 -15  17   1 9080.38 605.584   4
 -17  15   1 9282.26 567.024   2
 -15  17   1 8539.28 550.091   2
  17  -2   4 922.904 152.875   1
 -17  15   4 1218.52 239.481   2
 -15  17   4 971.158 282.557   2
 -15  17   4 1388.47 330.598   4
  15   2   4 735.444 104.189   1
 -15  17   7 12314.2 638.348   2
 -17  15   7 13775.4 674.439   4
 -15  17   7 13982.1 705.600   4
  -1 -16  -9 4791.64 771.921   3
  17  -1  -9 4245.09 694.772   1
   1 -17  -9 3380.78 690.497   3
 -16  17  -9 5063.67 533.808   3
 -17  16  -9 4207.28 540.842   3
  16   1  -9 3197.91 686.644   1
 -16  17  -9 3824.25 582.029   4
 -17  16  -9 4080.97 582.059   4
 -17  16  -9 3592.85 729.441   2
 -16  17  -9 3499.26 714.252   2
  17  -1  -6 4130.76 571.999   1
   1 -17  -6 5067.43 605.902   3
 -17  16  -6 4586.85 444.036   3
  -1 -16  -6 4816.86 588.983   3
 -16  17  -6 4995.80 521.773   4
 -17  16  -6 4277.96 503.211   4
 -16  17  -6 5110.90 702.398   2
 -16  17  -6 5364.87 432.579   3
 -17  16  -6 3898.85 620.032   2
  16   1  -6 4276.66 584.633   1
  17  -1  -3 7583.25 588.856   1
   1 -17  -3 7962.35 542.617   3
  -1 -16  -3 7037.97 537.355   3
 -17  16  -3 7265.03 396.957   3
 -16  17  -3 6817.30 334.187   3
 -17  16  -3 7517.74 584.735   4
 -16  17  -3 7192.46 570.456   4
 -16  17  -3 6913.77 658.997   2
 -17  16  -3 7911.94 706.936   2
  16   1  -3 7106.03 593.412   1
 -17  16   0 3909.06 463.131   2
  16   1   0 3849.31 386.790   1
  17  -1   0 3473.12 369.908   1
   1 -17   0 3502.03 297.450   3
  -1 -16   0 3458.30 316.487   3
 -17  16   0 4731.01 475.885   4
 -16  17   0 3700.94 442.327   4
 -16  17   0 3373.63 431.567   2
 -17  16   3 14351.5 722.326   4
 -16  17   3 14421.4 646.247   2
  16   1   3 12920.2 435.331   1
 -16  17   3 15016.4 748.246   4
  17  -1   3 12989.6 442.457   1
 -17  16   3 13947.1 617.262   2
 -16  17   6 943.949 292.295   2
 -17  16   6 1520.29 287.884   2
 -17  16   6 1523.14 331.574   4
 -16  17   6 1114.34 321.136   4
 -16  17   9 1457.50 354.687   4
 -17  16   9 1260.72 315.432   4
   0 -17  -7 645.405 434.473   3
 -17  17  -7 283.735 343.459   4
 -17  17  -7-71.9608 316.669   3
 -17  17  -7-559.214 455.711   2
  17   0  -7 824.115 473.006   1
   0 -17  -4 681.664 377.008   3
 -17  17  -4 679.070 323.414   4
  17   0  -4 583.217 374.914   1
 -17  17  -4 496.680 224.792   3
 -17  17  -4 991.719 443.891   2
   0 -17  -1 155.332 223.727   3
  17   0  -1 257.531 297.480   1
 -17  17  -1-553.007 296.300   4
 -17  17  -1 231.619 316.674   2
  17   0   2 8848.16 445.187   1
 -17  17   2 8728.51 544.248   2
   0 -17   2 8473.76 349.812   3
 -17  17   2 8828.46 600.854   4
 -17  17   5 29.4459 276.205   4
 -17  17   5-171.901 247.152   2
 -17  17   8 2290.26 376.084   4
   0  18  -9 51.2690 348.080   2
 -18   0  -9 861.341 538.833   3
   0  18  -9 759.001 562.265   1
  18 -18  -9-70.8274 415.433   1
  18 -18  -6 14576.4 816.988   1
 -18   0  -6 14270.6 930.043   3
   0  18  -6 14742.8 804.778   2
   0  18  -6 14665.2 723.710   4
   0  18  -3-23.0171 267.850   2
   0  18  -3-53.9970 225.976   3
 -18   0  -3 82.3275 358.903   3
  18 -18  -3 188.011 302.938   1
   0  18  -3 302.877 277.784   4
   0  18   0 5422.60 422.060   3
   0  18   0 7476.28 548.370   2
  18 -18   0 6642.97 423.032   3
 -18   0   0 6856.78 564.408   3
   0  18   0 7239.64 556.188   4
  18 -18   0 7776.78 538.979   1
 -18   0   3-75.6491 170.269   2
  18 -18   3-221.919 242.457   3
   0  18   3 249.278 298.591   2
 -18   0   3 14.3381 348.339   3
   0  18   3-583.624 311.786   4
   0  18   6 12677.1 833.279   2
   0  18   6 13238.4 811.417   4
   0  18   9 397.972 394.456   4
  17 -18  -7 9376.43 705.366   1
 -17  -1  -7 8197.31 769.584   3
 -18   1  -7 8552.65 784.254   3
  -1  18  -7 10698.4 889.638   1
   1  17  -7 10349.1 892.229   1
  -1  18  -7 9921.56 589.154   4
   1  17  -7 9056.33 566.315   4
  -1  18  -7 9158.05 673.912   2
   1  17  -7 10009.6 674.154   2
  18 -17  -7 10562.2 774.523   1
  -1  18  -4 2189.21 379.240   2
   1  17  -4 2368.83 375.590   2
  18 -17  -4 2833.55 453.836   1
  -1  18  -4 1862.06 248.591   3
   1  17  -4 1808.47 295.918   3
 -17  -1  -4 1844.65 455.048   3
 -18   1  -4 1866.94 458.203   3
  17 -18  -4 2605.08 412.987   1
  -1  18  -4 2468.50 393.311   4
   1  17  -4 2190.40 356.406   4
  -1  18  -1 12507.5 678.051   2
  -1  18  -1 9688.17 438.226   3
   1  17  -1 11834.3 651.336   2
   1  17  -1 9897.17 510.299   3
  17 -18  -1 11529.2 621.032   1
 -17  -1  -1 11325.1 687.910   3
 -18   1  -1 10484.5 656.754   3
  17 -18  -1 10504.0 481.597   3
  18 -17  -1 11653.2 634.596   1
 -18   1  -1 8846.51 550.140   1
  -1  18  -1 13198.5 701.778   4
   1  17  -1 12317.6 676.684   4
 -17  -1  -1 9607.92 547.139   1
  17 -18   2 2029.47 363.406   1
 -18   1   2 1870.19 256.065   2
  17 -18   2 1700.72 263.881   3
  18 -17   2 1602.17 294.896   3
 -17  -1   2 1684.11 254.580   2
  -1  18   2 1766.32 351.291   2
   1  17   2 2116.96 380.731   2
  18 -17   2 2080.63 340.554   1
 -17  -1   2 2162.37 404.446   3
 -18   1   2 1827.29 392.239   3
   1  17   2 2425.90 413.198   4
  -1  18   2 2448.75 414.737   4
  18 -17   5 6839.81 501.390   3
  -1  18   5 8927.62 674.080   2
   1  17   5 7734.08 650.072   2
  -1  18   5 9371.18 680.794   4
   1  17   5 8481.52 648.676   4
  17 -18   5 6343.35 413.407   3
   1  17   8 6075.50 630.207   4
  -1  18   8 5748.56 614.225   4
  16 -18  -8 630.077 402.503   1
   2  16  -8 700.560 317.122   2
  -2  18  -8 595.297 301.911   3
 -16  -2  -8 718.263 512.053   3
 -18   2  -8 627.099 464.753   3
  18 -16  -8 249.469 389.645   1
  -2  18  -8 911.438 513.067   1
   2  16  -8 1065.54 564.501   1
  -2  18  -8 368.704 288.191   4
   2  16  -8 219.926 264.759   4
  -2  18  -8 898.410 388.443   2
  -2  18  -5 1852.06 393.367   2
   2  16  -5 2251.08 365.827   2
  -2  18  -5 1696.92 238.988   3
  16 -18  -5 2614.14 437.547   1
 -16  -2  -5 1479.28 436.324   3
  18 -16  -5 1387.43 304.834   2
 -18   2  -5 1959.04 464.952   3
   2  16  -5 1813.41 303.299   3
  18 -16  -5 2437.56 441.286   1
   2  16  -5 2575.38 365.336   4
  -2  18  -5 2041.95 345.159   4
   2  16  -2 3894.86 410.464   2
  -2  18  -2 3013.13 229.834   3
   2  16  -2 3177.63 343.483   3
  18 -16  -2 3146.26 407.632   1
 -16  -2  -2 3446.76 455.396   3
 -18   2  -2 3674.24 458.038   3
  16 -18  -2 3847.72 350.990   3
 -18   2  -2 3339.08 380.921   1
  -2  18  -2 3789.19 429.296   4
   2  16  -2 4539.09 445.018   4
  16 -18  -2 3935.27 414.697   1
  -2  18  -2 4125.88 439.418   2
  -2  18   1 423.439 267.203   3
   2  16   1 558.761 297.745   3
  -2  18   1 607.673 270.593   2
  16 -18   1 200.494 204.631   3
  18 -16   1 774.082 275.241   3
 -16  -2   1 200.450 215.056   2
   2  16   1 278.144 245.165   2
  16 -18   1 204.348 269.789   1
 -18   2   1 798.059 230.896   2
 -16  -2   1 623.125 309.640   3
 -18   2   1 347.057 286.527   3
  -2  18   1 513.521 275.832   4
  18 -16   1 405.583 249.815   1
   2  16   1 538.555 294.013   4
  16 -18   4 1047.73 245.481   3
  18 -16   4 326.739 279.353   3
   2  16   4 704.449 270.253   1
  -2  18   4 451.232 290.888   2
   2  16   4 678.964 313.598   2
   2  16   4 1138.56 374.484   4
 -16  -2   4 926.587 176.377   2
  -2  18   4 909.086 326.641   4
 -18   2   7 630.413 255.343   4
   2  16   7 573.775 348.923   4
  -2  18   7 311.132 393.818   2
   2  16   7 289.619 370.813   2
  -2  18   7 995.170 395.625   4
  15 -18  -9 651.651 532.812   3
   3  15  -9 234.585 308.226   2
  15 -18  -9 397.965 414.823   1
 -15  -3  -9 1028.44 516.853   3
 -18   3  -9 1127.45 543.046   3
  18 -15  -9 137.602 451.186   1
  -3  18  -9-657.514 564.260   1
   3  15  -9 181.432 535.554   1
  -3  18  -9 548.443 410.626   2
 -15  -3  -6 5890.89 647.854   3
  15 -18  -6 4856.48 528.828   1
 -18   3  -6 6108.51 643.019   3
  -3  18  -6 6150.09 506.177   4
  -3  18  -6 5667.31 569.114   2
  18 -15  -6 5876.02 553.779   1
   3  15  -6 5578.46 451.829   4
   3  15  -6 6495.57 714.375   1
   3  15  -6 5309.65 481.706   2
   3  15  -3 2442.71 341.991   2
  18 -15  -3 2481.05 409.298   1
  15 -18  -3 2358.30 362.295   1
  -3  18  -3 1396.83 129.154   3
   3  15  -3 1757.38 308.873   3
 -15  -3  -3 2153.43 418.931   3
 -18   3  -3 1508.30 382.041   3
 -18   3  -3 2243.72 296.121   1
  18 -15  -3 2005.07 336.484   2
  -3  18  -3 2247.17 361.734   4
  -3  18  -3 2368.90 384.721   2
   3  15  -3 2076.78 346.392   4
  -3  18   0 10825.2 627.482   2
   3  15   0 8737.12 542.270   3
   3  15   0 9524.16 576.138   2
  18 -15   0 9589.10 504.257   3
  15 -18   0 10756.0 412.930   3
 -15  -3   0 8993.52 594.683   3
  15 -18   0 10436.8 566.777   1
 -18   3   0 9761.29 613.485   3
 -18   3   0 8884.00 518.209   2
  18 -15   0 10220.8 560.847   1
  -3  18   0 10190.2 619.434   4
   3  15   0 11155.0 642.599   4
  -3  18   0 8728.56 414.526   3
 -15  -3   3 559.760 216.873   2
  15 -18   3 571.532 163.001   3
  18 -15   3 508.150 273.060   3
 -18   3   3 650.447 147.795   2
  -3  18   3 788.423 315.886   2
   3  15   3 1449.72 334.446   2
   3  15   3 980.283 240.531   1
 -15  -3   3 683.043 352.462   3
  18 -15   3 956.637 291.898   1
  -3  18   3 1349.79 337.355   4
   3  15   3 560.086 301.009   4
  -3  18   6 7160.66 621.342   2
   3  15   6 7333.71 441.657   1
   3  15   6 7134.80 664.967   2
 -18   3   6 5941.26 438.092   4
  -3  18   6 7767.02 616.095   4
   3  15   6 7552.63 635.247   4
  -3  18   9 844.810 380.745   4
  -4  18  -7 3782.18 357.387   3
  14 -18  -7 3956.58 493.155   1
 -14  -4  -7 3666.83 584.920   3
 -18   4  -7 3489.84 557.975   3
   4  14  -7 4934.32 705.327   1
  18 -14  -7 4277.51 570.750   1
  -4  18  -7 4436.24 447.511   4
  -4  18  -7 4626.18 538.019   2
   4  14  -7 3507.03 383.400   4
   4  14  -7 3828.86 428.115   2
 -14  -4  -4 8500.17 671.193   3
 -18   4  -4 8493.63 645.740   3
   4  14  -4 7902.86 476.078   3
  18 -14  -4 9153.32 618.623   1
  -4  18  -4 9839.83 652.230   2
  14 -18  -4 9784.88 595.106   1
  18 -14  -4 7073.75 448.297   2
   4  14  -4 11754.2 796.524   1
 -18   4  -4 7728.25 390.044   1
  -4  18  -4 9845.54 592.779   4
   4  14  -4 10016.0 564.658   4
   4  14  -4 8877.39 543.541   2
   4  14  -1 3524.37 378.893   2
  14 -18  -1 3778.91 405.113   1
   4  14  -1 3014.23 363.670   3
 -18   4  -1 3003.84 388.763   1
  18 -14  -1 3507.03 387.941   1
 -14  -4  -1 4280.36 455.435   3
 -18   4  -1 2723.55 382.791   3
  14 -18  -1 3888.98 280.439   3
  -4  18  -1 4119.18 434.781   4
   4  14  -1 3672.57 402.058   4
  -4  18  -1 3698.52 399.934   2
  -4  18   2 9925.57 598.093   2
  18 -14   2 10239.9 528.535   1
  18 -14   2 8359.17 527.196   3
   4  14   2 8602.24 573.310   2
 -18   4   2 8509.62 395.668   2
 -14  -4   2 9194.08 605.420   3
 -18   4   2 9221.08 601.906   3
  -4  18   2 10321.3 635.318   4
   4  14   2 9529.83 473.373   1
   4  14   2 9359.78 623.522   4
 -14  -4   2 9427.32 458.910   2
   4  14   5 2559.14 458.820   2
 -18   4   5 2600.20 356.780   4
 -14  -4   5 2065.28 212.263   2
   4  14   5 3177.82 301.356   1
 -14  -4   5 2339.74 325.988   4
  -4  18   5 3047.98 431.681   4
   4  14   5 2756.60 431.193   4
  -4  18   8 1865.73 460.177   2
  -4  18   8 2232.73 446.451   4
  -5  18  -8 5296.27 447.776   3
 -13  -5  -8 5833.32 725.747   3
 -18   5  -8 5857.11 695.534   3
  13 -18  -8 5876.04 593.984   1
  18 -13  -8 5491.48 648.729   1
  -5  18  -8 5494.55 633.923   2
  -5  18  -8 6116.14 509.140   4
   5  13  -8 7301.23 792.471   1
   5  13  -8 5269.73 459.775   2
  13 -18  -8 5931.77 723.309   3
  -5  18  -5 1045.82 134.120   3
   5  13  -5 1824.39 302.372   2
  -5  18  -5 1303.55 133.862   3
  -5  18  -5 2048.78 353.233   4
 -13  -5  -5 1580.04 431.187   3
 -18   5  -5 1390.72 403.257   3
  18 -13  -5 1642.06 419.724   1
   5  13  -5 1637.34 492.545   1
  13 -18  -5 1738.90 383.691   1
 -18   5  -5 1655.97 235.491   1
   5  13  -5 2266.74 328.369   4
  -5  18  -5 1786.17 399.999   2
   5  13  -2 11467.7 576.291   2
   5  13  -2 10962.8 550.990   3
 -13  -5  -2 11306.4 667.393   3
 -18   5  -2 11187.1 630.266   3
 -18   5  -2 10340.9 544.667   1
  -5  18  -2 12905.6 668.112   4
   5  13  -2 12864.6 630.031   4
  -5  18  -2 12407.8 664.329   2
  18 -13  -2 12008.4 640.098   1
  13 -18  -2 12919.5 631.613   1
  -5  18   1 7316.69 520.073   2
 -13  -5   1 5985.54 417.506   2
  13 -18   1 6362.92 247.903   3
   5  13   1 6415.05 498.269   2
  18 -13   1 6401.20 467.708   3
  -5  18   1 7024.10 532.015   4
 -13  -5   1 6791.62 524.958   3
 -18   5   1 6144.70 495.715   3
  18 -13   1 6646.19 446.848   1
   5  13   1 6653.19 507.420   4
  -5  18   4 7370.48 565.873   2
   5  13   4 7308.84 379.679   1
   5  13   4 6968.46 584.036   2
 -13  -5   4 6544.30 375.167   2
  -5  18   4 8412.37 594.684   4
   5  13   4 7969.67 604.389   4
  -5  18   7 2953.99 489.409   2
 -18   5   7 2389.56 287.716   4
  -5  18   7 3946.92 478.698   4
   5  13   7 3194.90 468.821   4
   6  12  -9 1311.06 566.633   1
  12 -18  -9 783.683 495.780   3
   6  12  -9 834.458 249.674   2
  18 -12  -9 1199.12 501.157   1
 -12  -6  -9 298.103 492.571   3
 -18   6  -9 1749.72 539.476   3
  12 -18  -9 1167.22 391.983   1
  -6  18  -9 1139.74 511.203   1
  -6  18  -9 1041.11 328.048   4
  -6  18  -9 1072.66 443.874   2
  -6  18  -6 2332.45 226.931   3
  12 -18  -6 2848.92 510.034   3
  18 -12  -6 2594.19 484.143   1
 -12  -6  -6 2062.09 490.625   3
 -18   6  -6 2104.83 460.463   3
  -6  18  -6 2459.67 191.645   3
  -6  18  -6 3002.40 397.399   4
  -6  18  -6 3090.94 501.358   2
  12 -18  -6 2621.51 409.710   1
   6  12  -6 3289.42 590.475   1
   6  12  -6 2193.96 323.566   4
 -18   6  -6 2265.47 233.424   1
   6  12  -6 2636.35 333.175   2
   6  12  -3 5624.69 414.004   2
 -12  -6  -3 5393.67 524.413   3
  18 -12  -3 5801.16 506.304   1
   6  12  -3 4619.37 406.746   3
 -18   6  -3 5880.06 440.234   1
 -18   6  -3 5684.51 499.545   3
   6  12  -3 7055.86 625.574   1
  -6  18  -3 6967.57 517.799   4
  -6  18  -3 6128.91 522.665   2
  12 -18  -3 6259.19 472.462   1
   6  12  -3 6228.31 461.503   4
  12 -18   0 6550.74 475.385   1
   6  12   0 6205.09 479.001   2
   6  12   0 5139.06 449.928   3
  18 -12   0 5846.05 427.465   1
 -12  -6   0 5458.54 475.811   3
  12 -18   0 6368.89 263.920   3
 -18   6   0 5622.37 459.982   3
  -6  18   0 6794.84 530.802   4
   6  12   0 6283.93 494.875   4
  -6  18   0 6302.85 497.745   2
   6  12   3 2040.89 244.204   1
  -6  18   3 1999.75 342.923   2
 -18   6   3 1853.01 175.600   2
   6  12   3 2542.67 419.638   2
  18 -12   3 2127.98 302.072   1
 -12  -6   3 1756.87 363.064   3
 -18   6   3 1521.98 187.395   2
  -6  18   3 2666.11 400.406   4
 -12  -6   3 1869.01 275.222   2
   6  12   3 1859.60 350.689   4
  -6  18   6 980.626 373.064   2
   6  12   6 831.557 157.531   1
 -18   6   6 708.700 266.384   4
 -12  -6   6 1058.31 268.541   4
  -6  18   6 1258.69 345.832   4
   6  12   6 840.250 362.186   4
  -6  18   9 2190.45 427.845   4
  11 -18  -7 3861.31 593.877   3
  -7  18  -7 3165.71 322.457   3
  18 -11  -7 3383.82 546.039   1
   7  11  -7 2236.33 303.059   2
 -11  -7  -7 2454.63 552.726   3
 -18   7  -7 2695.99 500.495   3
   7  11  -7 4518.44 674.522   1
  -7  18  -7 3226.30 424.820   4
  -7  18  -7 3805.14 560.064   2
  11 -18  -7 2532.74 403.599   1
   7  11  -4 13100.3 573.698   2
 -18   7  -4 11933.1 525.142   1
   7  11  -4 16102.1 892.745   1
 -11  -7  -4 12780.8 746.804   3
 -18   7  -4 12619.8 713.622   3
  18 -11  -4 12438.9 708.746   1
  -7  18  -4 14030.0 692.829   4
  11 -18  -4 13227.4 639.073   1
  -7  18  -4 13943.8 777.023   2
   7  11  -4 13496.9 614.394   4
  11 -18  -4 15336.7 776.620   3
 -18   7  -1 10825.0 589.399   1
   7  11  -1 10995.3 564.625   2
   7  11  -1 9356.50 549.425   3
 -11  -7  -1 9782.17 576.634   3
 -18   7  -1 10797.1 588.078   3
   7  11  -1 11143.0 640.566   1
  -7  18  -1 11918.6 653.931   4
  11 -18  -1 11911.7 602.383   1
  -7  18  -1 10788.6 621.848   2
  18 -11  -1 10267.7 560.884   1
   7  11  -1 11486.8 597.147   4
  -7  18   2 11369.6 612.616   2
   7  11   2 10476.0 627.524   2
 -11  -7   2 10303.1 602.599   3
 -18   7   2 10612.3 617.726   3
  18 -11   2 10893.4 509.226   1
 -18   7   2 10780.7 496.915   2
  -7  18   2 11854.0 663.478   4
 -11  -7   2 10784.8 529.640   2
   7  11   2 9987.48 605.572   4
  -7  18   5 7194.90 553.301   2
 -18   7   5 5529.17 429.952   4
 -11  -7   5 5691.15 400.244   2
   7  11   5 6130.29 271.077   1
  -7  18   5 7564.72 556.262   4
 -11  -7   5 5211.35 405.608   4
   7  11   5 6965.57 590.693   4
  -7  18   8 2690.89 514.420   2
 -18   7   8 2110.73 239.011   4
  -7  18   8 2776.76 430.250   4
  10 -18  -8 8250.05 803.364   3
  -8  18  -8 8833.86 517.320   3
  -8  18  -8 8256.54 723.256   2
 -10  -8  -8 8118.90 806.089   3
 -18   8  -8 7092.62 685.288   3
  10 -18  -8 7770.65 611.859   1
  18 -10  -8 8116.93 728.249   1
  -8  18  -8 9315.02 628.594   4
   8  10  -8 8775.77 840.002   1
   8  10  -8 7857.31 445.075   2
   8  10  -5 6844.47 415.786   2
 -10  -8  -5 6962.59 645.671   3
 -18   8  -5 6723.13 570.330   3
 -18   8  -5 7142.28 430.386   1
  18 -10  -5 7097.44 621.791   1
   8  10  -5 8216.09 708.372   1
  10 -18  -5 7535.40 518.230   1
  -8  18  -5 8095.61 558.008   4
   8  10  -5 7265.03 466.167   4
  -8  18  -5 8970.95 686.946   2
  10 -18  -5 8528.08 664.838   3
   8  10  -2 17082.2 790.447   1
 -18   8  -2 13837.8 617.631   1
   8  10  -2 15092.0 618.424   2
 -10  -8  -2 14347.4 705.088   3
 -18   8  -2 14618.9 671.528   3
  10 -18  -2 14971.4 659.504   1
  18 -10  -2 14381.5 685.318   1
  -8  18  -2 15926.2 742.677   4
  -8  18  -2 16128.5 779.628   2
   8  10  -2 15423.1 671.852   4
  10 -18  -2 16611.9 626.724   3
  18 -10   1 16603.7 630.699   1
   8  10   1 16058.4 712.521   2
 -10  -8   1 16274.8 695.626   3
 -18   8   1 16457.3 700.609   3
   8  10   1 16782.8 754.294   4
 -18   8   1 17567.6 708.056   2
   8  10   1 16907.9 652.034   1
  -8  18   1 17331.1 785.922   4
  -8  18   1 16641.4 722.458   2
 -10  -8   1 17063.7 663.435   2
  -8  18   4 11260.9 630.490   2
   8  10   4 10520.7 358.823   1
   8  10   4 10210.1 674.364   2
   8  10   4 11152.1 401.089   1
 -18   8   4 11083.2 601.469   4
 -10  -8   4 9537.13 518.511   2
  -8  18   4 11657.1 664.837   4
   8  10   4 11196.5 683.739   4
  -8  18   7 7622.33 614.833   2
 -18   8   7 6338.77 415.108   4
  -8  18   7 8431.20 605.473   4
  -8  18  10 2397.60 428.813   4
   9 -18  -9 1900.33 635.422   3
   9   9  -9 840.390 543.716   1
  -9  18  -9 1387.87 366.888   3
   9 -18  -9 1088.08 388.241   1
  -9  -9  -9 1646.89 594.293   3
 -18   9  -9 565.352 452.321   3
 -18   9  -9 781.105 386.987   4
  -9  18  -9 1527.36 394.132   4
  -9  18  -9 993.712 472.188   2
  18  -9  -9 679.761 456.394   1
   9 -18  -6 2538.66 522.377   3
  -9  18  -6 1670.46 201.120   3
   9   9  -6 1279.21 241.856   2
  -9  -9  -6 1633.56 458.573   3
 -18   9  -6 1357.60 385.661   3
 -18   9  -6 2144.16 317.497   1
   9 -18  -6 1627.91 348.192   1
  -9  18  -6 1326.05 314.576   4
  -9  18  -6 1482.91 434.314   2
  18  -9  -6 1722.74 473.982   1
   9   9  -6 1694.01 507.723   1
   9 -18  -3 6920.84 492.811   3
   9   9  -3 6763.49 409.828   2
  -9  -9  -3 6376.65 549.439   3
 -18   9  -3 7202.88 524.554   3
 -18   9  -3 5941.33 434.463   1
   9 -18  -3 6571.10 456.246   1
  18  -9  -3 6366.27 523.263   1
   9   9  -3 6780.57 588.050   1
  -9  18  -3 6685.23 500.000   4
  -9  18  -3 7327.36 586.930   2
   9   9  -3 6099.76 450.835   4
   9 -18   0 1541.72 160.133   3
  -9  18   0 1390.46 302.085   2
  -9  -9   0 1097.36 299.790   3
   9   9   0 1571.13 306.462   2
 -18   9   0 1171.06 296.186   3
  18  -9   0 1540.75 302.155   1
 -18   9   0 1188.51 341.134   2
  -9  18   0 1183.24 312.027   4
   9   9   0 1441.83 309.154   1
   9   9   0 1401.09 296.292   4
  -9  18   3 6184.10 478.985   2
  -9  -9   3 6045.32 442.260   2
   9   9   3 5888.74 523.307   2
  -9  -9   3 6407.30 479.499   3
 -18   9   3 6710.99 506.705   4
 -18   9   3 6460.75 330.066   2
  18  -9   3 6332.57 380.972   1
   9   9   3 7295.33 374.717   1
  -9  18   3 6855.77 522.685   4
   9   9   3 6535.57 526.313   4
  -9  18   6 1077.73 318.066   2
  -9  -9   6 1303.59 312.846   2
 -18   9   6 1298.39 289.392   4
  -9  -9   6 910.745 237.621   4
  -9  18   6 1108.04 323.711   4
  -9  18   9 909.774 327.089   4
  10   8 -10 2281.18 660.820   1
  -8 -10 -10 3383.37 740.087   3
 -18  10 -10 2526.15 576.530   3
   8 -18 -10 2376.53 429.711   1
 -10  18 -10 2033.37 565.293   2
 -18  10 -10 1868.06 482.143   4
 -18  10 -10 1912.85 590.290   2
 -10  18 -10 1875.86 481.250   1
  18  -8 -10 1943.74 558.372   1
   8 -18  -7 7185.35 729.953   3
  10   8  -7 5958.37 351.425   2
 -10  18  -7 8144.92 416.277   3
  -8 -10  -7 6907.52 738.855   3
   8 -18  -7 6820.17 503.147   1
 -18  10  -7 7067.78 611.998   3
  18  -8  -7 7725.39 706.836   1
 -18  10  -7 6712.86 603.595   4
 -10  18  -7 6905.91 707.070   2
 -10  18  -7 7901.76 606.358   4
  10   8  -7 8456.49 792.944   1
   8 -18  -4 12897.7 712.123   3
  10   8  -4 11273.5 492.281   2
  -8 -10  -4 11295.8 712.360   3
 -18  10  -4 11134.9 616.736   3
   8 -18  -4 11653.9 591.737   1
  18  -8  -4 12095.9 704.466   1
 -18  10  -4 10885.1 543.274   1
  10   8  -4 12222.2 782.167   1
 -10  18  -4 13103.4 704.863   4
 -10  18  -4 12172.3 765.170   2
   8 -18  -1 17920.4 539.228   3
  -8 -10  -1 15468.8 680.518   3
  10   8  -1 16410.7 654.301   2
 -18  10  -1 16221.9 659.967   3
 -18  10  -1 15731.7 765.405   4
 -18  10  -1 17591.7 863.533   2
  18  -8  -1 16522.5 692.032   1
  10   8  -1 17959.9 754.258   1
 -10  18  -1 16880.5 774.351   4
 -10  18  -1 17320.2 786.945   2
  10   8  -1 16147.8 697.828   4
  18  -8   2 14983.4 555.631   1
  -8 -10   2 14347.6 644.375   2
  -8 -10   2 14471.0 628.495   3
  10   8   2 15813.3 753.058   2
 -18  10   2 16148.5 740.486   4
 -18  10   2 16298.4 598.128   2
 -10  18   2 16780.0 769.783   4
  10   8   2 17080.9 587.737   1
 -10  18   2 15658.4 699.705   2
  -8 -10   5 6204.89 487.295   2
 -10  18   5 7504.59 533.110   2
 -18  10   5 7027.08 478.556   4
  -8 -10   5 6749.15 460.472   4
 -10  18   5 8036.27 575.067   4
 -10  18   8 6743.79 646.258   2
 -18  10   8 5660.21 371.345   4
 -10  18   8 7715.53 568.218   4
   7 -18  -8 3370.68 662.390   3
 -11  18  -8 2892.53 366.933   3
 -18  11  -8 3116.91 534.562   3
  -7 -11  -8 3043.55 641.856   3
  11   7  -8 4263.92 675.536   1
 -18  11  -8 2278.39 462.368   4
 -18  11  -8 3460.84 671.647   2
 -11  18  -8 4129.84 530.949   4
  18  -7  -8 2279.74 544.400   1
 -11  18  -8 2975.24 565.214   2
   7 -18  -8 3153.48 418.647   1
   7 -18  -5 8109.71 651.465   3
  -7 -11  -5 6450.92 605.236   3
  11   7  -5 7172.65 368.787   2
 -18  11  -5 7496.49 565.379   3
 -11  18  -5 5446.05 193.229   3
  18  -7  -5 6962.47 607.420   1
   7 -18  -5 8177.07 510.876   1
  11   7  -5 7397.73 678.173   1
 -18  11  -5 6320.61 712.815   2
 -18  11  -5 7228.42 590.231   4
 -11  18  -5 7300.00 647.869   2
 -11  18  -5 8696.46 606.429   4
 -18  11  -5 6925.84 447.585   1
   7 -18  -2 11422.8 526.910   3
  -7 -11  -2 9426.56 575.445   3
  11   7  -2 10859.1 506.045   2
 -18  11  -2 10681.8 542.182   3
  18  -7  -2 12060.9 653.183   1
 -11  18  -2 11115.6 640.834   4
 -18  11  -2 10590.7 660.979   4
 -18  11  -2 11087.3 749.919   2
  11   7  -2 11200.5 668.861   1
 -11  18  -2 11139.8 684.819   2
  -7 -11   1 10878.3 548.189   3
  11   7   1 10531.5 598.971   2
 -18  11   1 10313.1 554.241   3
 -18  11   1 11118.8 655.638   4
  11   7   1 11088.7 529.840   1
 -11  18   1 11956.4 660.925   4
  18  -7   1 10954.0 516.463   1
 -11  18   1 11641.8 626.128   2
 -18  11   1 11795.5 597.451   2
 -11  18   4 12706.0 642.107   2
  18  -7   4 13664.6 475.276   1
 -18  11   4 13759.1 650.086   4
 -11  18   4 13936.9 718.931   4
  11   7   4 9519.16 260.182   1
  11   7   4 10379.3 296.863   1
 -18  11   4 13235.7 415.745   2
 -11  18   7 2946.26 434.104   2
 -18  11   7 3372.52 358.452   4
 -11  18   7 3609.81 439.001   4
   6 -18  -9 3630.46 725.714   3
 -12  18  -9 2919.98 415.686   3
  -6 -12  -9 3604.36 681.724   3
  12   6  -9 2932.29 653.159   1
 -18  12  -9 2305.44 506.013   3
  18  -6  -9 4082.22 646.438   1
 -12  18  -9 2896.38 511.399   4
 -18  12  -9 2072.83 457.482   4
 -18  12  -9 2043.78 644.871   2
 -12  18  -9 2226.12 572.593   2
   6 -18  -9 2515.59 406.680   1
   6 -18  -6 792.747 439.061   3
  12   6  -6 975.294 465.009   1
  -6 -12  -6 894.016 429.056   3
 -12  18  -6 428.796 188.618   3
 -18  12  -6 569.819 351.751   3
 -12  18  -6 757.253 336.743   4
  12   6  -6 381.978 152.320   2
 -18  12  -6 618.619 462.518   2
   6 -18  -6 531.514 285.487   1
  18  -6  -6 361.623 383.582   1
 -18  12  -6 441.195 332.690   4
 -12  18  -6 243.102 371.867   2
   6 -18  -3 2516.74 363.852   3
  12   6  -3 2741.76 419.854   1
  -6 -12  -3 2543.21 402.614   3
  12   6  -3 2033.58 266.678   2
 -18  12  -3 2402.45 340.041   3
 -18  12  -3 2628.08 420.317   4
 -12  18  -3 2434.79 380.940   4
 -18  12  -3 2275.20 483.217   2
 -12  18  -3 2752.36 444.015   2
  18  -6  -3 2099.76 391.228   1
   6 -18   0 6785.55 283.112   3
  -6 -12   0 6049.02 441.327   3
  12   6   0 6135.23 449.687   2
 -18  12   0 6412.38 435.178   3
 -18  12   0 6139.66 518.848   4
  18  -6   0 6150.12 447.662   1
 -18  12   0 6330.09 521.722   2
 -12  18   0 5356.80 498.948   4
  12   6   0 5727.62 436.577   1
 -12  18   0 6730.02 513.593   2
 -12  18   3 5649.40 445.285   2
  18  -6   3 5336.70 332.512   1
  -6 -12   3 5992.38 422.672   3
  12   6   3 6298.10 326.092   1
 -18  12   3 5602.91 466.521   4
 -12  18   3 6096.81 508.763   4
 -18  12   3 5678.09 367.726   2
 -18  12   6 3703.20 395.085   4
 -12  18   6 3872.34 448.170   2
  -6 -12   6 2408.19 313.049   4
 -12  18   6 3249.59 421.866   4
 -12  18   9 1034.34 315.583   4
   5 -18  -7 3914.81 619.293   3
 -13  18  -7 3492.64 345.535   3
  -5 -13  -7 2794.09 564.777   3
 -18  13  -7 3206.77 447.081   3
   5 -18  -7 2903.57 377.655   1
  18  -5  -7 3459.29 562.501   1
 -18  13  -7 3474.53 497.449   4
 -13  18  -7 4008.32 607.257   2
 -13  18  -7 4051.33 517.116   4
  13   5  -7 4455.46 627.432   1
 -18  13  -7 3512.14 688.835   2
   5 -18  -4 8528.66 597.845   3
  -5 -13  -4 8133.52 627.541   3
  18  -5  -4 7171.97 601.173   1
 -18  13  -4 7953.72 516.125   3
  13   5  -4 7032.98 349.418   2
 -13  18  -4 5347.62 171.519   3
 -18  13  -4 7970.22 592.796   4
 -18  13  -4 7233.40 722.971   2
 -13  18  -4 7885.23 567.319   4
 -13  18  -4 7744.04 674.769   2
  13   5  -4 7773.75 643.375   1
   5 -18  -1 7308.10 386.368   3
  -5 -13  -1 5873.45 453.359   3
  13   5  -1 6231.87 483.451   1
  18  -5  -1 5825.63 472.443   1
 -18  13  -1 6897.04 428.766   3
 -13  18  -1 7407.98 566.329   2
 -18  13  -1 5783.65 517.653   4
 -18  13  -1 6857.19 587.812   2
 -13  18  -1 7706.96 566.044   4
  -5 -13   2 12191.3 545.532   3
 -18  13   2 12324.6 659.142   4
 -13  18   2 12460.0 683.076   4
 -18  13   2 13259.6 596.286   2
  18  -5   2 11989.8 489.606   1
  13   5   2 13164.7 513.222   1
 -13  18   2 12829.9 645.952   2
 -18  13   5 1614.44 234.677   2
 -13  18   5 1248.17 325.702   2
 -18  13   5 1396.82 311.396   4
 -13  18   5 1613.61 376.766   4
 -13  18   8 4389.14 489.088   2
 -18  13   8 5049.07 421.275   4
 -13  18   8 5308.96 499.716   4
   4 -18  -8 2754.36 618.764   3
 -14  18  -8 2233.73 365.880   3
  -4 -14  -8 1858.30 553.867   3
   4 -18  -8 1870.63 360.177   1
  14   4  -8 1387.30 552.631   1
 -18  14  -8 2025.93 466.406   3
 -14  18  -8 1542.66 554.734   2
 -18  14  -8 1908.58 614.544   2
 -18  14  -8 1780.82 422.545   4
  18  -4  -8 1264.28 485.765   1
 -14  18  -8 1978.34 463.104   4
   4 -18  -5 3909.71 517.461   3
  18  -4  -5 2810.74 510.495   1
  14   4  -5 2818.34 522.091   1
  -4 -14  -5 2317.88 464.259   3
 -18  14  -5 2784.03 390.717   3
 -14  18  -5 2743.68 233.227   3
 -18  14  -5 2611.83 415.120   4
 -14  18  -5 3430.99 450.943   4
 -18  14  -5 2668.54 554.255   2
 -14  18  -5 2835.33 528.604   2
   4 -18  -2 10054.1 516.274   3
  -4 -14  -2 9237.87 565.385   3
  18  -4  -2 8781.81 585.203   1
 -18  14  -2 9645.28 489.027   3
 -18  14  -2 9654.64 731.695   2
 -18  14  -2 10000.9 653.459   4
 -14  18  -2 10403.4 635.392   4
 -14  18  -2 9078.84 660.237   2
  14   4  -2 9510.10 617.294   1
 -14  18   1 4790.87 448.912   2
   4 -18   1 4628.54 199.600   3
  -4 -14   1 4900.50 382.564   3
  14   4   1 4478.98 381.809   1
  18  -4   1 4821.70 380.441   1
 -18  14   1 4623.20 467.912   4
 -14  18   1 4948.76 482.552   4
 -18  14   1 4949.23 442.799   2
 -14  18   4 10993.8 594.928   2
 -18  14   4 10977.2 629.244   4
  18  -4   4 9398.27 358.350   1
 -14  18   4 10238.6 633.759   4
 -18  14   4 10702.2 472.670   2
 -14  18   7 3530.17 430.938   2
 -18  14   7 3108.36 376.241   4
 -14  18   7 3316.99 427.582   4
   3 -18  -9 1060.47 542.004   3
  -3 -15  -9 819.522 593.156   3
 -15  18  -9 934.526 351.509   3
 -18  15  -9 806.725 455.065   3
  15   3  -9 1467.07 560.656   1
  18  -3  -9 856.552 555.394   1
 -18  15  -9 730.079 401.452   4
 -18  15  -9 515.757 542.703   2
 -15  18  -9 1200.48 461.989   4
 -15  18  -9-21.6614 503.465   2
   3 -18  -6 8970.35 734.982   3
  -3 -15  -6 7019.46 676.894   3
  18  -3  -6 6911.94 657.806   1
 -18  15  -6 6910.68 596.937   4
 -15  18  -6 7748.35 443.764   3
 -18  15  -6 8099.44 567.927   3
 -18  15  -6 7551.61 815.639   2
 -15  18  -6 7847.69 625.566   4
 -15  18  -6 7500.81 764.247   2
  15   3  -6 6661.98 711.716   1
   3 -18  -3 522.078 301.920   3
  15   3  -3 633.807 359.972   1
  -3 -15  -3 849.811 339.842   3
 -18  15  -3 968.121 423.341   2
 -18  15  -3 655.825 239.415   3
 -15  18  -3 871.280 322.942   4
  18  -3  -3 844.416 358.621   1
 -18  15  -3 536.629 313.728   4
 -15  18  -3 493.176 344.696   2
   3 -18   0 11744.2 432.831   3
  -3 -15   0 11322.1 532.216   3
  18  -3   0 11673.0 585.392   1
 -18  15   0 11221.1 659.744   4
 -15  18   0 11824.0 687.200   4
 -18  15   0 11567.1 674.813   2
 -15  18   0 12069.1 695.861   2
  15   3   0 12103.9 604.070   1
  15   3   3 2464.66 261.909   1
 -18  15   3 1899.41 296.162   2
 -18  15   3 2617.56 405.905   4
 -15  18   3 2407.63 414.240   4
 -15  18   3 2389.61 362.523   2
  18  -3   3 2325.25 255.976   1
 -15  18   6 4333.19 452.257   2
 -18  15   6 4188.30 330.388   2
 -18  15   6 4498.56 460.487   4
 -15  18   6 5148.16 506.025   4
 -15  18   9 107.549 299.697   4
   2 -18  -7 406.453 450.819   3
  -2 -16  -7-364.297 471.078   3
 -16  18  -7 299.067 299.615   3
 -18  16  -7 317.975 325.494   3
  16   2  -7 753.058 456.957   1
  18  -2  -7 988.011 532.234   1
 -18  16  -7 796.993 365.198   4
 -16  18  -7 120.000 363.036   4
 -18  16  -7-208.457 498.456   2
 -16  18  -7 1092.06 516.100   2
 -16  18  -4 935.362 344.073   4
   2 -18  -4 236.215 311.902   3
  -2 -16  -4 501.721 361.050   3
  16   2  -4 994.275 411.577   1
 -18  16  -4 454.334 245.772   3
 -16  18  -4 600.226 194.327   3
  18  -2  -4 874.865 403.132   1
 -18  16  -4 469.993 292.846   4
 -18  16  -4 254.433 391.004   2
 -16  18  -4 363.651 382.813   2
   2 -18  -1 606.931 225.387   3
  -2 -16  -1 866.750 269.626   3
  16   2  -1 376.243 313.331   1
 -18  16  -1 679.191 216.284   3
  18  -2  -1 559.500 312.424   1
 -18  16  -1 918.851 335.525   4
 -16  18  -1 640.884 307.712   4
 -18  16  -1 727.519 319.007   2
 -16  18  -1 399.610 326.070   2
  16   2   2 4193.78 341.565   1
  -2 -16   2 4260.17 320.020   3
  18  -2   2 4353.25 368.257   1
 -18  16   2 4258.26 467.290   4
 -16  18   2 4589.91 480.939   4
 -18  16   2 4318.84 420.841   2
 -16  18   2 4876.17 457.830   2
 -18  16   5 2031.04 302.406   2
 -16  18   5 2191.07 348.781   2
 -18  16   5 2221.48 390.653   4
 -16  18   5 1975.20 374.542   4
 -16  18   8 378.749 286.959   2
 -18  16   8 360.996 270.393   4
 -16  18   8 519.002 301.188   4
  17   1  -8 6749.78 778.464   1
   1 -18  -8 7304.09 796.383   3
  18  -1  -8 7411.42 785.528   1
  -1 -17  -8 8645.01 859.631   3
 -17  18  -8 6959.60 555.045   3
 -18  17  -8 7159.65 607.681   3
 -18  17  -8 6723.51 685.036   4
 -17  18  -8 5791.91 642.323   4
 -17  18  -8 6324.40 835.680   2
 -18  17  -8 6628.65 833.242   2
  18  -1  -5 8861.09 730.898   1
   1 -18  -5 9618.69 689.732   3
  -1 -17  -5 10314.4 732.093   3
 -17  18  -5 9634.63 675.745   4
 -18  17  -5 9060.81 521.764   3
 -17  18  -5 9725.18 472.881   3
 -18  17  -5 9230.85 670.849   4
 -18  17  -5 9698.26 842.575   2
 -17  18  -5 9833.37 838.799   2
  17   1  -5 9191.74 744.159   1
  17   1  -2 2886.16 442.684   1
   1 -18  -2 2059.86 353.051   3
  -1 -17  -2 2438.95 368.147   3
 -18  17  -2 2103.11 277.282   3
  18  -1  -2 2524.76 389.266   1
 -18  17  -2 2647.59 421.898   4
 -17  18  -2 2825.16 430.207   4
 -18  17  -2 2168.37 449.103   2
 -17  18  -2 2374.61 462.108   2
  17   1   1 11618.6 552.695   1
  18  -1   1 11649.7 554.862   1
   1 -18   1 11706.7 427.653   3
  -1 -17   1 11059.0 473.751   3
 -18  17   1 11408.7 709.704   4
 -17  18   1 10758.0 690.500   4
 -18  17   1 11399.1 664.947   2
 -17  18   1 11842.9 681.764   2
 -17  18   4 2758.13 366.508   2
  17   1   4 1699.99 167.171   1
  18  -1   4 1810.30 192.335   1
 -18  17   4 2568.76 406.605   4
 -17  18   4 2784.74 417.515   4
 -18  17   4 2111.24 319.345   2
 -17  18   7 8191.71 543.503   2
 -18  17   7 7945.76 482.951   2
 -18  17   7 8744.62 606.738   4
 -17  18   7 8710.62 617.319   4
   0 -18  -9 85.7852 536.063   3
 -18  18  -9-5.84276 362.790   3
  18   0  -9 671.028 545.556   1
 -18  18  -9-158.610 556.059   2
 -18  18  -9 518.284 449.736   4
  18   0  -6 12716.3 882.485   1
   0 -18  -6 13090.9 855.471   3
 -18  18  -6 13471.4 625.324   3
 -18  18  -6 13713.5 817.943   4
 -18  18  -6 13087.0 1029.22   2
   0 -18  -3 550.291 320.333   3
 -18  18  -3 439.385 325.087   4
  18   0  -3 330.563 370.141   1
 -18  18  -3 93.1940 200.633   3
 -18  18  -3 62.8199 365.767   2
  18   0   0 7126.08 503.410   1
   0 -18   0 7119.21 412.970   3
 -18  18   0 6918.64 583.248   4
 -18  18   0 6705.68 568.947   2
 -18  18   3-42.8831 256.851   2
 -18  18   3-541.328 321.988   4
 -18  18   6 12452.8 634.804   2
 -18  18   6 13121.0 732.029   4
 -18  18   9 599.092 319.139   4
  19 -19  -7 1086.02 450.181   1
   0  19  -7 24.6435 328.697   2
 -19   0  -7 37.6041 465.017   3
   0  19  -7 32.0636 293.963   4
   0  19  -7-401.701 504.141   1
   0  19  -4 1386.77 338.164   2
   0  19  -4 1244.85 273.667   3
 -19   0  -4 816.285 397.217   3
  19 -19  -4 1625.18 389.506   1
   0  19  -4 1622.72 351.707   4
   0  19  -1-141.993 259.455   3
   0  19  -1 446.708 312.565   2
 -19   0  -1-201.685 321.083   3
  19 -19  -1 91.0017 294.514   1
   0  19  -1 116.803 303.774   4
 -19   0   2 9633.23 478.918   2
  19 -19   2 10320.1 504.759   3
   0  19   2 12699.7 733.497   2
 -19   0   2 12445.5 759.364   3
   0  19   2 13267.0 765.354   4
  19 -19   2 12936.5 661.558   1
   0  19   5-324.734 372.976   2
   0  19   5 222.421 340.228   4
   0  19   8 9180.54 752.577   4
  -1  19  -8 432.872 359.540   2
   1  18  -8 169.328 322.801   2
  18 -19  -8-129.622 418.281   1
   1  18  -8 439.911 541.469   1
 -18  -1  -8 1076.17 505.331   3
 -19   1  -8-532.415 525.078   3
  -1  19  -8 1689.04 582.709   1
  19 -18  -8-167.158 416.322   1
  -1  19  -8-96.5578 311.246   4
   1  18  -8 293.312 304.716   4
  19 -18  -5 150.858 335.194   1
  -1  19  -5 789.430 348.456   2
   1  18  -5 271.543 308.600   2
  18 -19  -5 530.839 353.331   1
 -18  -1  -5 800.277 444.975   3
 -19   1  -5 433.818 402.790   3
  -1  19  -5 285.672 290.226   4
   1  18  -5 199.502 302.101   4
  -1  19  -2 965.568 239.208   3
  -1  19  -2 1066.36 314.045   2
   1  18  -2 679.931 278.528   3
   1  18  -2 1414.60 326.674   2
  18 -19  -2 1191.55 346.952   1
  -1  19  -2 1575.67 348.386   4
 -18  -1  -2 1117.87 369.828   3
 -19   1  -2 989.649 316.257   3
  19 -18  -2 1016.34 346.844   1
 -19   1  -2 955.386 317.997   1
   1  18  -2 1057.01 317.524   4
  -1  19   1 2480.10 356.598   3
   1  18   1 2194.02 391.668   3
   1  18   1 2993.10 421.103   2
 -18  -1   1 2455.36 334.268   2
  18 -19   1 2644.02 306.656   3
  19 -18   1 3440.83 401.890   1
  -1  19   1 2618.61 387.464   2
  19 -18   1 2203.58 318.014   3
 -19   1   1 3313.48 461.639   3
 -19   1   1 1950.88 295.075   2
  -1  19   1 2545.33 399.782   4
 -18  -1   1 2336.43 415.700   3
  18 -19   1 3211.02 399.764   1
   1  18   1 2448.10 393.556   4
  18 -19   4 1399.54 280.930   3
  19 -18   4 1346.31 282.282   3
  -1  19   4 2051.37 410.942   2
   1  18   4 1832.65 409.748   2
  -1  19   4 2135.71 426.325   4
 -18  -1   4 763.329 165.659   2
 -19   1   4 561.029 111.983   2
   1  18   4 1450.61 369.104   4
 -19   1   7 658.874 283.565   4
  -1  19   7 501.103 360.667   4
  -1  19   7-410.984 417.156   2
   1  18   7-29.4394 405.233   2
   1  18   7 1110.72 435.397   4
   2  17  -9 1956.30 428.872   2
  17 -19  -9 1783.41 492.136   1
 -17  -2  -9 1167.34 561.665   3
 -19   2  -9 618.228 521.071   3
  19 -17  -9 856.657 462.321   1
  -2  19  -9 837.323 565.320   1
   2  17  -9 1825.07 632.738   1
  -2  19  -9 2640.81 508.788   2
   2  17  -6 2096.10 397.570   2
  17 -19  -6 2550.97 456.593   1
 -17  -2  -6 1394.10 493.079   3
 -19   2  -6 1183.43 476.744   3
  -2  19  -6 2940.88 467.552   2
  19 -17  -6 2584.78 480.414   1
   2  17  -6 2912.68 597.173   1
   2  17  -6 2736.68 391.228   4
  -2  19  -6 2554.95 396.089   4
   2  17  -3 4593.41 448.123   2
 -19   2  -3 3211.99 339.948   1
  -2  19  -3 2869.48 225.931   3
   2  17  -3 3688.23 387.443   3
  19 -17  -3 3892.90 460.707   1
 -17  -2  -3 3721.31 494.065   3
 -19   2  -3 3387.57 485.367   3
  17 -19  -3 4502.08 492.548   1
  -2  19  -3 5015.80 478.193   4
   2  17  -3 4169.72 433.597   4
  -2  19  -3 4599.22 493.401   2
  -2  19   0 1571.65 281.341   3
   2  17   0 739.991 304.810   3
  -2  19   0 1293.44 322.139   2
   2  17   0 1131.84 344.348   2
  17 -19   0 1589.83 338.848   1
  19 -17   0 1110.93 274.779   3
  17 -19   0 1034.06 239.121   3
  19 -17   0 1762.26 348.953   1
 -17  -2   0 1272.93 342.769   3
 -19   2   0 1593.14 391.181   3
  -2  19   0 1670.15 369.855   4
   2  17   0 1747.13 363.216   4
 -19   2   3 3446.35 255.655   2
  17 -19   3 3181.13 268.840   3
  19 -17   3 3250.98 369.181   3
  -2  19   3 4367.92 491.195   2
   2  17   3 4083.83 478.764   2
 -17  -2   3 4566.16 511.544   3
 -19   2   3 4545.24 519.111   3
  -2  19   3 5183.16 525.218   4
   2  17   3 4534.98 498.711   4
 -17  -2   3 3391.93 308.146   2
  -2  19   6 2032.52 444.216   2
   2  17   6 1504.32 421.955   2
   2  17   6 2820.71 483.714   4
  -2  19   6 2650.61 451.323   4
  -2  19   9 2340.49 468.067   4
   2  17   9 2310.06 477.229   4
  -3  19  -7 1484.08 301.214   3
   3  16  -7 1536.13 361.059   2
 -16  -3  -7 2188.76 578.927   3
  16 -19  -7 1229.41 410.571   1
 -19   3  -7 329.750 438.948   3
  19 -16  -7 994.295 437.776   1
   3  16  -7 1780.20 598.326   1
  -3  19  -7 1265.69 349.156   4
   3  16  -7 961.626 311.591   4
  -3  19  -7 1110.61 392.122   2
  -3  19  -4 4761.08 217.235   3
   3  16  -4 6438.67 451.174   3
 -16  -3  -4 7006.92 639.779   3
 -19   3  -4 7627.12 643.814   3
  16 -19  -4 8078.53 584.036   1
  19 -16  -4 6536.91 490.778   2
 -19   3  -4 6044.57 365.205   1
  -3  19  -4 8751.74 589.859   4
   3  16  -4 8847.69 571.354   4
  -3  19  -4 7223.66 577.403   2
   3  16  -4 7432.91 526.171   2
  19 -16  -4 7768.61 614.387   1
  -3  19  -1 1254.90 208.018   3
  -3  19  -1 1375.10 344.056   2
   3  16  -1 1759.01 344.096   3
   3  16  -1 1598.04 325.163   2
 -16  -3  -1 1119.56 350.442   3
 -19   3  -1 887.079 329.033   3
  16 -19  -1 1543.18 244.267   3
  19 -16  -1 1515.56 345.862   1
  -3  19  -1 2041.56 381.367   4
   3  16  -1 1666.45 348.742   4
  16 -19  -1 1866.45 344.166   1
 -16  -3   2 10449.0 498.550   2
  16 -19   2 9699.99 350.337   3
  -3  19   2 11459.2 664.799   2
  19 -16   2 9918.60 545.822   3
   3  16   2 10810.0 655.882   2
 -19   3   2 9525.31 431.553   2
  19 -16   2 11376.6 587.378   1
 -16  -3   2 11250.7 685.543   3
 -19   3   2 10180.7 672.219   3
  -3  19   2 12766.3 730.291   4
   3  16   2 12537.4 716.292   4
  -3  19   5 1076.68 368.631   2
   3  16   5 1687.06 412.212   2
   3  16   5 1025.70 284.502   1
 -16  -3   5 145.737 109.082   2
  -3  19   5 1191.39 372.609   4
   3  16   5 1088.81 372.147   4
  -3  19   8 8832.13 805.513   2
  -3  19   8 8383.66 675.373   4
   3  16   8 8203.71 703.934   4
  15 -19  -8-304.409 497.983   3
   4  15  -8 24.9044 280.608   2
 -15  -4  -8 726.116 516.285   3
  -4  19  -8 472.640 302.990   4
 -19   4  -8 28.7088 426.634   3
  15 -19  -8 471.565 426.179   1
  19 -15  -8 257.447 399.153   1
   4  15  -8-766.012 562.645   1
  -4  19  -8 261.752 362.373   2
   4  15  -8 55.2097 262.435   4
  -4  19  -5 3923.52 206.737   3
 -15  -4  -5 5949.84 637.460   3
 -19   4  -5 5467.54 588.691   3
  15 -19  -5 5603.50 518.002   1
 -19   4  -5 3493.60 250.773   1
  19 -15  -5 4924.36 387.237   2
   4  15  -5 7253.61 740.953   1
  -4  19  -5 6205.86 513.037   4
  -4  19  -5 5665.24 561.928   2
  19 -15  -5 5124.19 548.848   1
   4  15  -5 6419.04 495.432   4
   4  15  -5 6396.80 491.771   2
  -4  19  -5 3498.95 200.371   3
   4  15  -2 3799.05 414.016   2
  19 -15  -2 3811.68 438.392   1
   4  15  -2 3256.12 387.837   3
 -15  -4  -2 3779.33 473.820   3
 -19   4  -2 2990.76 432.459   3
  15 -19  -2 3969.69 349.722   3
  15 -19  -2 3894.82 418.102   1
 -19   4  -2 2840.82 378.414   1
   4  15  -2 4147.62 436.119   4
  -4  19  -2 3421.73 420.117   2
  -4  19  -2 3987.46 443.299   4
  -4  19   1 2115.67 386.701   2
 -15  -4   1 1970.15 306.039   2
  15 -19   1 1771.31 216.077   3
  15 -19   1 1909.30 329.104   1
  19 -15   1 1581.52 342.226   3
   4  15   1 1803.83 344.341   2
  19 -15   1 1786.82 315.886   1
 -15  -4   1 1670.44 364.511   3
 -19   4   1 1592.35 269.781   2
 -19   4   1 1567.43 362.426   3
  -4  19   1 2240.11 363.595   4
   4  15   1 1757.99 353.035   4
  -4  19   4 170.425 308.481   2
   4  15   4 592.344 246.507   1
   4  15   4 209.691 318.656   2
  -4  19   4 809.804 362.977   4
 -15  -4   4-70.6256 200.610   2
   4  15   4 119.001 308.431   4
  -4  19   7 1140.52 412.358   2
 -19   4   7 1562.65 280.480   4
  -4  19   7 2064.44 429.757   4
   4  15   7 1822.69 440.720   4
  14 -19  -9 280.417 502.136   3
   5  14  -9 722.724 310.641   2
 -14  -5  -9 1435.79 590.174   3
 -19   5  -9 927.956 516.294   3
  19 -14  -9-147.732 438.127   1
  14 -19  -9 1485.89 470.536   1
  -5  19  -9 948.046 569.185   1
  -5  19  -9 396.941 421.957   2
   5  14  -9 293.444 532.152   1
  -5  19  -6 190.736 166.948   3
   5  14  -6 122.076 251.391   2
 -14  -5  -6 678.332 430.724   3
 -19   5  -6 111.181 380.963   3
  19 -14  -6-139.389 386.942   1
  14 -19  -6 534.766 345.216   1
   5  14  -6 552.521 495.801   1
  -5  19  -6 426.923 300.773   4
  -5  19  -6-98.9618 331.857   2
   5  14  -6-374.448 288.364   4
   5  14  -3 9488.68 559.354   2
   5  14  -3 8502.05 522.866   3
 -14  -5  -3 9160.01 663.285   3
 -19   5  -3 9045.24 616.124   3
  -5  19  -3 10782.6 634.553   4
  14 -19  -3 9647.60 598.591   1
 -19   5  -3 8353.00 494.593   1
  -5  19  -3 10143.3 641.768   2
   5  14  -3 9291.42 565.657   4
  19 -14  -3 9811.46 633.239   1
  -5  19   0 1296.12 321.786   2
  14 -19   0 1786.98 200.118   3
   5  14   0 1680.48 340.919   2
 -14  -5   0 1850.50 351.269   3
 -19   5   0 1535.64 357.284   3
  19 -14   0 1571.89 321.784   1
  14 -19   0 1901.57 353.815   1
  -5  19   0 1996.90 372.145   4
   5  14   0 1885.79 360.731   4
   5  14   3 5874.52 380.730   1
  -5  19   3 5605.19 494.242   2
 -19   5   3 4368.91 245.984   2
   5  14   3 5645.49 535.618   2
  -5  19   3 6436.04 545.252   4
 -14  -5   3 5866.21 547.187   3
 -19   5   3 3326.32 256.654   2
  19 -14   3 6155.76 433.961   1
 -14  -5   3 4309.48 355.782   2
   5  14   3 6643.07 565.613   4
  -5  19   6 251.189 318.748   2
   5  14   6 518.022 386.851   2
   5  14   6 263.780 213.544   1
 -19   5   6 32.8790 247.674   4
  -5  19   6 745.882 346.451   4
   5  14   6 62.0423 332.752   4
  -5  19   9 1315.46 402.442   4
  -6  19  -7 3481.84 309.383   3
  13 -19  -7 3387.26 585.214   3
 -13  -6  -7 3304.81 591.765   3
 -19   6  -7 2399.45 503.379   3
  13 -19  -7 3860.89 479.560   1
  19 -13  -7 4653.91 590.922   1
   6  13  -7 5441.40 725.207   1
  -6  19  -7 4622.73 468.028   4
  -6  19  -7 3979.31 565.398   2
   6  13  -7 3460.95 364.492   4
   6  13  -7 3267.43 367.528   2
   6  13  -4 7692.19 517.841   4
   6  13  -4 7193.70 473.822   2
 -13  -6  -4 6597.21 608.683   3
 -19   6  -4 7379.76 608.728   3
   6  13  -4 8414.22 731.469   1
  13 -19  -4 7441.65 534.157   1
  -6  19  -4 7613.45 559.897   4
  19 -13  -4 6939.42 570.478   1
  -6  19  -4 8064.45 629.342   2
 -19   6  -4 6058.32 413.029   1
   6  13  -1 1889.07 320.818   2
 -13  -6  -1 1861.60 385.942   3
  13 -19  -1 2283.19 242.300   3
 -19   6  -1 1706.87 351.617   3
  -6  19  -1 2687.14 387.256   4
   6  13  -1 2150.21 348.323   4
  -6  19  -1 1981.51 369.810   2
  19 -13  -1 2227.18 352.215   1
  13 -19  -1 2154.47 343.850   1
  -6  19   2 17875.5 787.443   2
   6  13   2 16809.1 792.485   2
 -13  -6   2 16475.3 763.751   3
 -19   6   2 16444.3 779.148   3
 -19   6   2 17406.4 655.200   2
  -6  19   2 16977.2 808.450   4
  19 -13   2 16582.0 642.672   1
   6  13   2 15973.8 784.120   4
 -13  -6   2 15889.5 622.234   2
  -6  19   5 635.510 309.127   2
   6  13   5 404.148 205.537   1
   6  13   5 383.171 353.129   2
 -19   6   5 415.628 261.629   4
 -13  -6   5 6.27304 214.952   2
  -6  19   5 562.766 337.925   4
  -6  19   8 4885.59 615.046   2
  -6  19   8 5615.43 552.497   4
  12 -19  -8 681.662 513.977   3
   7  12  -8 1495.43 303.249   2
  19 -12  -8 764.790 454.699   1
 -12  -7  -8 1107.80 491.222   3
  -7  19  -8 1433.15 378.197   4
 -19   7  -8 1557.27 501.052   3
  12 -19  -8 1315.26 426.490   1
  -7  19  -8 1428.76 452.095   2
   7  12  -8 1691.31 605.392   1
 -19   7  -5 5631.06 384.911   1
   7  12  -5 5994.34 440.580   2
 -12  -7  -5 5497.24 607.615   3
 -19   7  -5 5290.98 564.357   3
  19 -12  -5 5439.60 584.009   1
   7  12  -5 7333.31 763.112   1
  12 -19  -5 6334.05 526.074   1
  -7  19  -5 5907.27 515.892   4
  -7  19  -5 6111.54 587.384   2
   7  12  -5 6147.94 470.571   4
  12 -19  -5 7033.84 644.551   3
   7  12  -2 3880.42 381.638   2
 -12  -7  -2 3338.55 451.051   3
 -19   7  -2 4164.32 430.047   3
  12 -19  -2 4590.69 434.481   1
   7  12  -2 4424.67 506.388   1
  -7  19  -2 4840.53 461.226   4
  19 -12  -2 3449.93 414.253   1
  -7  19  -2 3799.08 431.903   2
   7  12  -2 4038.60 414.591   4
 -19   7  -2 4012.06 422.752   1
   7  12   1 5306.58 465.697   2
  19 -12   1 4162.38 387.038   1
 -12  -7   1 4405.62 442.645   3
 -19   7   1 4186.53 433.416   3
 -19   7   1 4722.90 438.080   2
  -7  19   1 5212.90 500.068   4
   7  12   1 5059.25 479.586   4
  -7  19   1 5067.34 482.260   2
  -7  19   4 2059.35 366.441   2
   7  12   4 2176.15 246.851   1
  -7  19   4 2190.89 385.866   4
   7  12   4 2424.49 434.482   2
 -19   7   4 1874.35 344.801   4
 -12  -7   4 1473.22 289.501   2
   7  12   4 2622.01 418.184   4
  -7  19   7 1327.02 410.168   2
 -19   7   7 698.619 256.895   4
  -7  19   7 1715.27 384.110   4
  11 -19  -9 2880.70 479.297   1
   8  11  -9 3278.11 689.401   1
  11 -19  -9 3303.08 672.215   3
  19 -11  -9 2870.09 577.402   1
 -11  -8  -9 1536.73 582.626   3
 -19   8  -9 2922.28 590.248   3
  -8  19  -9 3072.36 452.930   4
  -8  19  -9 2441.61 535.760   2
  11 -19  -6 957.613 446.201   3
  19 -11  -6 1153.84 427.281   1
   8  11  -6 549.592 239.759   2
  -8  19  -6 681.403 125.321   3
 -11  -8  -6 903.245 462.929   3
 -19   8  -6 396.714 373.247   3
  11 -19  -6 1111.54 345.073   1
  -8  19  -6 578.385 99.8948   3
 -19   8  -6 848.245 267.724   1
  -8  19  -6 1016.99 384.351   2
   8  11  -6 860.434 457.978   1
  -8  19  -6 902.154 344.537   4
 -19   8  -3 2218.04 349.919   1
   8  11  -3 2843.96 330.285   2
  11 -19  -3 2501.11 346.684   1
 -19   8  -3 2535.86 397.386   3
  19 -11  -3 2186.53 393.011   1
 -11  -8  -3 1891.67 408.204   3
  -8  19  -3 3237.58 406.522   4
  -8  19  -3 2958.46 433.521   2
   8  11  -3 2436.14 440.452   1
   8  11  -3 2231.02 338.921   4
  11 -19  -3 2519.24 400.076   3
  11 -19   0 1396.32 181.297   3
  -8  19   0 1739.82 333.599   2
  11 -19   0 1322.80 144.969   3
 -11  -8   0 1340.93 311.918   3
   8  11   0 913.974 276.934   2
   8  11   0 1441.14 339.990   1
 -19   8   0 1238.89 307.877   3
  -8  19   0 1978.59 354.980   4
  19 -11   0 1561.04 309.711   1
   8  11   0 1615.52 332.421   4
  19 -11   3 4714.65 365.275   1
  -8  19   3 4047.74 423.260   2
   8  11   3 4731.47 311.998   1
   8  11   3 4265.31 478.602   2
 -11  -8   3 4685.53 459.908   3
 -19   8   3 4607.50 453.703   4
 -19   8   3 4567.53 291.851   2
  -8  19   3 5061.29 482.211   4
 -11  -8   3 3742.93 370.720   2
   8  11   3 5363.51 530.056   4
  -8  19   6 396.728 325.953   2
 -19   8   6 1217.43 284.226   4
 -11  -8   6 372.053 232.219   4
 -11  -8   6 564.716 269.729   2
  -8  19   9 2995.10 438.447   4
  10 -19  -7 5329.60 655.959   3
   9  10  -7 4002.35 336.866   2
  -9  19  -7 5215.05 330.155   3
 -10  -9  -7 4927.53 648.523   3
 -19   9  -7 4018.97 514.378   3
  19 -10  -7 5045.42 642.753   1
  -9  19  -7 5123.32 634.321   2
  10 -19  -7 5670.15 533.353   1
   9  10  -7 6202.20 750.395   1
  -9  19  -7 5211.10 508.771   4
  10 -19  -4 6467.15 553.964   3
   9  10  -4 5433.37 388.981   2
  10 -19  -4 6761.56 500.973   1
 -10  -9  -4 6225.60 583.677   3
 -19   9  -4 5575.52 441.272   1
 -19   9  -4 6147.04 527.700   3
  19 -10  -4 6028.02 568.193   1
   9  10  -4 6526.52 651.903   1
  -9  19  -4 6849.33 527.062   4
   9  10  -4 5898.06 442.820   4
  -9  19  -4 7171.59 621.140   2
  10 -19  -1 6616.92 368.800   3
   9  10  -1 6142.48 451.731   2
 -10  -9  -1 5496.42 483.297   3
 -19   9  -1 5927.99 476.533   3
 -19   9  -1 6760.09 596.783   2
  -9  19  -1 6735.72 531.974   4
  19 -10  -1 5617.19 457.163   1
   9  10  -1 5985.27 516.726   1
  -9  19  -1 5806.64 501.175   2
   9  10  -1 6688.58 495.770   4
  -9  19   2 12109.0 650.099   2
   9  10   2 12018.0 694.431   2
 -10  -9   2 11141.3 609.226   3
  19 -10   2 11495.0 517.661   1
 -19   9   2 11369.0 652.823   4
   9  10   2 12873.1 554.798   1
 -19   9   2 12080.4 540.786   2
  -9  19   2 12340.6 705.734   4
 -10  -9   2 11342.0 586.234   2
   9  10   2 13370.4 724.102   4
  -9  19   5 3299.79 440.059   2
 -19   9   5 2686.45 371.874   4
   9  10   5 2127.31 146.914   1
 -10  -9   5 2466.87 363.398   2
   9  10   5 2439.60 163.962   1
  -9  19   5 3706.59 462.435   4
  -9  19   8 1570.64 422.349   2
 -19   9   8 1393.91 258.514   4
  -9  19   8 1282.95 347.544   4
   9 -19  -8 1535.14 533.791   3
  10   9  -8 1359.40 525.532   1
 -10  19  -8 2796.88 339.392   3
  -9 -10  -8 1430.26 543.003   3
  10   9  -8 1555.54 246.474   2
 -19  10  -8 1326.88 471.772   3
   9 -19  -8 1984.21 407.510   1
 -19  10  -8 890.856 407.399   4
 -10  19  -8 2524.62 446.010   4
 -10  19  -8 2387.43 532.346   2
  19  -9  -8 1703.61 511.318   1
   9 -19  -5 2888.51 507.703   3
   9 -19  -5 3219.66 397.490   1
  10   9  -5 2494.32 281.857   2
  -9 -10  -5 3265.56 542.815   3
 -19  10  -5 3410.41 462.404   3
 -19  10  -5 2695.69 363.508   1
 -10  19  -5 3188.48 440.442   4
 -10  19  -5 3068.85 478.972   2
  19  -9  -5 2733.79 482.402   1
  10   9  -5 3406.35 558.077   1
   9 -19  -2 12382.0 565.390   3
   9 -19  -2 11046.3 596.834   1
  -9 -10  -2 10262.5 628.225   3
  10   9  -2 11951.7 565.850   2
 -19  10  -2 10170.1 564.723   3
 -10  19  -2 12231.3 676.900   4
 -19  10  -2 10868.4 764.205   2
  19  -9  -2 10610.0 628.466   1
  10   9  -2 12645.0 705.361   1
 -10  19  -2 10808.4 679.868   2
  10   9  -2 11438.4 604.859   4
  19  -9   1 5613.99 422.124   1
 -10  19   1 5744.37 507.045   4
  -9 -10   1 5065.18 449.332   3
  10   9   1 5745.13 482.055   2
 -19  10   1 5207.53 461.559   3
 -19  10   1 5727.28 512.969   4
 -19  10   1 6531.46 485.448   2
  10   9   1 5505.85 427.913   1
 -10  19   1 4686.35 440.775   2
  10   9   1 6336.60 509.864   4
 -10  19   4 6449.75 507.996   2
  10   9   4 6014.66 299.117   1
 -19  10   4 6302.37 487.459   4
  19  -9   4 7003.68 401.339   1
  10   9   4 5280.11 247.318   1
  -9 -10   4 5174.33 459.355   2
 -10  19   4 6684.99 554.055   4
 -19  10   4 4868.12 245.903   2
 -10  19   7 3402.46 494.882   2
 -19  10   7 3454.41 368.780   4
 -10  19   7 3897.28 469.741   4
   8 -19  -9 3404.25 677.306   3
  -8 -11  -9 4265.11 726.293   3
  11   8  -9 3249.78 683.747   1
 -19  11  -9 2626.47 586.795   3
 -11  19  -9 3725.33 536.062   4
 -19  11  -9 2128.58 472.807   4
 -19  11  -9 2573.97 712.032   2
   8 -19  -9 2605.69 419.571   1
 -11  19  -9 4121.57 670.397   2
  19  -8  -9 3036.32 638.063   1
  11   8  -6 295.555 434.158   1
   8 -19  -6 955.545 432.302   3
   8 -19  -6 316.612 281.107   1
  -8 -11  -6 163.102 399.487   3
 -11  19  -6 642.708 135.313   3
 -19  11  -6 435.764 348.185   3
  11   8  -6 566.302 198.633   2
 -19  11  -6 616.606 332.138   4
 -11  19  -6 931.373 344.388   4
 -11  19  -6 163.223 390.539   2
  19  -8  -6 1387.60 477.065   1
   8 -19  -3 5100.80 455.665   3
  -8 -11  -3 4265.50 472.477   3
  11   8  -3 4967.20 373.698   2
 -19  11  -3 4794.23 450.569   3
  19  -8  -3 5637.10 538.675   1
 -19  11  -3 3757.45 565.146   2
 -19  11  -3 4926.77 510.738   4
  11   8  -3 5742.14 561.392   1
 -11  19  -3 5985.51 537.330   4
 -11  19  -3 5254.02 548.911   2
   8 -19  -3 5624.08 450.205   1
 -11  19   0 1143.93 298.382   2
   8 -19   0 1007.74 145.513   3
 -19  11   0 1224.28 348.526   2
  19  -8   0 1106.46 282.755   1
  -8 -11   0 650.512 270.177   3
  11   8   0 1138.17 288.272   2
 -19  11   0 878.432 281.973   3
 -19  11   0 980.194 323.633   4
 -11  19   0 1032.25 334.761   4
  11   8   0 1204.08 314.840   1
 -11  19   3 2271.84 332.758   2
  -8 -11   3 2323.49 356.420   3
  19  -8   3 2194.04 269.617   1
 -19  11   3 2132.55 355.255   4
  11   8   3 2506.80 270.705   1
 -19  11   3 2762.26 276.966   2
 -11  19   3 2391.69 384.133   4
 -11  19   6 1320.79 353.285   2
 -19  11   6 839.719 283.116   4
 -11  19   6 1266.92 371.948   4
 -11  19   9 2969.75 439.778   4
   7 -19  -7 1486.14 517.270   3
  12   7  -7 2109.24 564.984   1
 -12  19  -7 1811.64 263.556   3
  12   7  -7 1434.19 188.791   2
  -7 -12  -7 1470.77 499.156   3
   7 -19  -7 1379.53 347.039   1
 -19  12  -7 1537.46 406.357   3
 -19  12  -7 1535.71 408.980   4
 -12  19  -7 1790.13 418.027   4
  19  -7  -7 1053.71 467.122   1
 -12  19  -7 1617.97 494.607   2
 -19  12  -7 876.092 527.639   2
  12   7  -4 2661.82 491.806   1
   7 -19  -4 2754.50 429.951   3
  12   7  -4 2033.68 268.680   2
  -7 -12  -4 1769.23 426.365   3
 -19  12  -4 3099.84 407.661   3
 -19  12  -4 2321.86 409.643   4
 -19  12  -4 2473.00 526.068   2
 -12  19  -4 2549.61 391.268   4
  19  -7  -4 2165.12 448.922   1
 -12  19  -4 2153.87 430.670   2
   7 -19  -4 2698.49 348.820   1
   7 -19  -1 5870.10 353.114   3
  -7 -12  -1 5076.39 458.349   3
  12   7  -1 5250.79 428.056   2
 -19  12  -1 5781.48 435.696   3
  19  -7  -1 5171.71 462.766   1
 -19  12  -1 5578.03 519.973   4
 -19  12  -1 4928.74 550.310   2
 -12  19  -1 6038.78 536.187   4
  12   7  -1 5732.81 493.775   1
 -12  19  -1 5727.44 508.080   2
  19  -7   2 3505.99 329.745   1
 -12  19   2 4369.43 425.481   2
  -7 -12   2 3424.26 384.119   3
 -19  12   2 4242.40 444.674   4
 -19  12   2 3982.25 380.292   2
 -12  19   2 4504.81 472.923   4
  12   7   2 3869.81 343.408   1
 -19  12   5 4650.08 245.463   2
 -12  19   5 6258.14 516.093   2
 -19  12   5 6157.45 484.374   4
 -12  19   5 6284.17 540.868   4
 -12  19   8 725.616 359.614   2
 -19  12   8 1166.79 280.957   4
 -12  19   8 1640.99 398.029   4
   6 -19  -8 5756.61 751.278   3
  -6 -13  -8 5071.96 742.356   3
 -13  19  -8 4893.53 406.833   3
  13   6  -8 4347.87 672.444   1
 -19  13  -8 4538.74 569.621   3
  19  -6  -8 5155.50 672.440   1
   6 -19  -8 4871.91 473.788   1
 -19  13  -8 4028.34 773.882   2
 -19  13  -8 4542.56 596.799   4
 -13  19  -8 5365.00 713.614   2
 -13  19  -8 6537.88 637.115   4
   6 -19  -5 977.021 303.222   1
  13   6  -5 959.083 450.858   1
   6 -19  -5 1550.20 440.410   3
  -6 -13  -5 1889.67 452.250   3
 -13  19  -5 714.769 93.9230   3
 -19  13  -5 1524.21 387.447   3
  13   6  -5 803.029 195.965   2
 -19  13  -5 816.119 378.678   4
 -19  13  -5 484.942 443.585   2
 -13  19  -5 1245.45 371.592   4
  19  -6  -5 317.289 381.488   1
 -13  19  -5 993.166 451.291   2
   6 -19  -2 18724.3 674.830   3
  -6 -13  -2 16990.1 761.426   3
  19  -6  -2 17296.6 787.971   1
 -19  13  -2 18538.9 701.652   3
  13   6  -2 16459.4 628.787   2
 -19  13  -2 17894.3 869.208   4
 -19  13  -2 18548.0 971.272   2
 -13  19  -2 19422.2 868.225   4
 -13  19  -2 17767.9 877.642   2
  13   6  -2 17282.6 796.807   1
  19  -6   1 1899.19 314.944   1
  13   6   1 1953.19 318.745   1
  -6 -13   1 1974.92 307.709   3
 -19  13   1 2393.20 384.391   4
 -13  19   1 2284.23 392.928   4
 -19  13   1 1828.03 332.618   2
 -13  19   1 2100.99 375.547   2
 -13  19   4 7392.87 533.362   2
 -19  13   4 6528.62 512.453   4
 -13  19   4 8500.77 610.789   4
 -19  13   4 7833.49 381.864   2
  19  -6   4 7602.70 374.982   1
 -13  19   7 3512.95 451.250   2
 -19  13   7 3802.96 415.462   4
 -13  19   7 3941.27 462.309   4
   5 -19  -9 1947.35 361.936   1
   5 -19  -9 2695.48 663.685   3
  -5 -14  -9 1825.11 649.277   3
  14   5  -9 966.595 535.642   1
 -19  14  -9 1286.24 484.276   3
 -19  14  -9 2229.55 496.057   4
 -19  14  -9 1515.35 639.531   2
  19  -5  -9 1822.47 561.101   1
 -14  19  -9 2560.61 517.348   4
 -14  19  -9 2328.63 610.030   2
   5 -19  -6 496.930 421.195   3
  14   5  -6 484.571 467.478   1
  -5 -14  -6 103.729 413.053   3
 -19  14  -6-28.1881 348.786   3
 -14  19  -6 551.701 193.748   3
 -19  14  -6 480.595 357.025   4
 -19  14  -6 787.917 473.659   2
  19  -5  -6-206.610 423.655   1
 -14  19  -6 117.987 424.865   2
   5 -19  -6 20.9676 271.600   1
 -14  19  -6 222.378 321.203   4
   5 -19  -3 6537.21 503.710   3
  -5 -14  -3 6197.56 556.628   3
  19  -5  -3 6521.28 586.304   1
 -19  14  -3 6638.18 471.068   3
 -19  14  -3 6623.86 580.947   4
 -19  14  -3 7133.19 701.984   2
 -14  19  -3 6400.98 552.958   4
  14   5  -3 6406.18 584.631   1
 -14  19  -3 7454.02 654.656   2
  19  -5   0 1568.36 319.356   1
  14   5   0 1811.51 348.060   1
   5 -19   0 1813.17 210.793   3
  -5 -14   0 1628.96 319.638   3
 -19  14   0 1923.35 312.742   3
 -19  14   0 2151.85 391.532   4
 -14  19   0 2178.29 389.520   4
 -19  14   0 1524.95 359.246   2
 -14  19   0 1501.15 349.076   2
  14   5   3 10495.9 407.924   1
  19  -5   3 9960.28 436.576   1
  -5 -14   3 9670.72 505.688   3
 -19  14   3 9762.68 619.536   4
 -14  19   3 11156.7 672.867   4
 -19  14   3 10230.3 511.929   2
 -14  19   3 10022.8 594.147   2
 -14  19   6 187.252 281.299   2
 -19  14   6 307.194 155.282   2
 -19  14   6 303.825 265.798   4
 -14  19   6 498.219 321.803   4
 -14  19   9 931.208 356.287   4
   4 -19  -7 2738.22 579.919   3
  -4 -15  -7 1793.47 542.945   3
 -15  19  -7 2075.84 331.064   3
  15   4  -7 1928.50 564.912   1
  19  -4  -7 2037.08 523.417   1
 -19  15  -7 1995.44 423.171   3
 -19  15  -7 1654.64 430.102   4
 -19  15  -7 1913.25 599.230   2
 -15  19  -7 2470.57 492.105   4
 -15  19  -7 1858.92 536.393   2
   4 -19  -4 404.493 337.667   3
  15   4  -4 677.787 402.749   1
  -4 -15  -4 119.427 352.188   3
 -19  15  -4 528.561 291.447   3
 -15  19  -4 195.826 100.936   3
  19  -4  -4 239.591 395.130   1
 -19  15  -4 506.070 428.583   2
 -15  19  -4-16.3069 287.794   4
 -15  19  -4 44.9697 359.412   2
 -19  15  -4 323.855 334.922   4
   4 -19  -1 1762.07 275.331   3
  15   4  -1 1293.34 344.659   1
  -4 -15  -1 1382.59 319.851   3
 -19  15  -1 1420.91 293.957   3
 -19  15  -1 1730.04 363.921   4
 -15  19  -1 1893.85 383.059   4
 -19  15  -1 2004.74 424.001   2
  19  -4  -1 1679.70 357.321   1
 -15  19  -1 2404.35 419.290   2
  15   4   2 3690.89 330.122   1
 -15  19   2 4188.65 432.612   2
  -4 -15   2 4036.44 343.320   3
 -19  15   2 3830.77 448.490   4
 -15  19   2 4099.42 478.751   4
  19  -4   2 3873.37 343.654   1
 -19  15   2 3296.78 374.245   2
 -19  15   5 5951.63 381.550   2
 -15  19   5 5646.63 496.363   2
 -19  15   5 5678.19 503.480   4
 -15  19   5 6185.07 538.861   4
 -15  19   8 442.811 347.127   2
 -19  15   8 388.248 272.041   4
 -15  19   8 690.454 338.709   4
   3 -19  -8 9686.15 890.350   3
  -3 -16  -8 9467.46 884.657   3
  19  -3  -8 8187.46 812.227   1
 -16  19  -8 10864.8 592.184   3
 -19  16  -8 9185.75 680.475   3
 -19  16  -8 8849.10 743.191   4
 -19  16  -8 9054.55 965.577   2
 -16  19  -8 9166.59 892.273   2
 -16  19  -8 10708.2 824.035   4
  16   3  -8 9403.06 886.081   1
   3 -19  -5 1135.66 415.479   3
  -3 -16  -5 340.675 381.687   3
  16   3  -5 2603.86 504.047   1
 -19  16  -5 1951.69 388.692   3
 -16  19  -5 1403.83 216.271   3
  19  -3  -5 1361.96 477.324   1
 -19  16  -5 1336.37 405.827   4
 -16  19  -5 1981.56 403.816   4
 -19  16  -5 1140.15 466.579   2
 -16  19  -5 1112.15 459.803   2
   3 -19  -2 11999.4 584.145   3
  -3 -16  -2 12155.8 636.118   3
  19  -3  -2 11182.6 675.914   1
 -19  16  -2 11080.0 515.074   3
 -19  16  -2 11592.1 714.857   4
 -19  16  -2 12446.8 839.619   2
 -16  19  -2 11420.5 721.502   4
 -16  19  -2 12212.3 788.417   2
  16   3  -2 11750.5 701.158   1
   3 -19   1 1484.59 185.147   3
  16   3   1 1454.83 305.268   1
  -3 -16   1 1349.98 277.711   3
  19  -3   1 2226.80 341.826   1
 -19  16   1 1657.44 377.922   4
 -19  16   1 1994.54 370.881   2
 -16  19   1 1714.80 388.962   4
 -16  19   1 1247.22 327.547   2
 -16  19   4 8260.42 543.045   2
  19  -3   4 7370.55 331.191   1
 -19  16   4 9111.22 617.763   4
 -16  19   4 8222.67 611.367   4
 -19  16   4 7199.72 452.020   2
 -16  19   7 1209.15 344.888   2
 -19  16   7 732.485 220.578   2
 -16  19   7 1434.17 366.235   4
 -19  16   7 1122.41 331.863   4
 -19  17  -9 3065.09 733.549   2
   2 -19  -9 3174.90 724.232   3
  -2 -17  -9 4674.45 764.297   3
 -19  17  -9 2615.85 509.683   3
  17   2  -9 2528.64 653.225   1
  19  -2  -9 2536.93 627.575   1
 -19  17  -9 3263.82 566.072   4
 -17  19  -9 3968.58 609.348   4
 -17  19  -9 3568.82 723.538   2
   2 -19  -6 2043.42 517.293   3
  -2 -17  -6 2531.58 537.806   3
 -17  19  -6 2244.30 326.003   3
 -19  17  -6 1522.85 364.585   3
  19  -2  -6 2396.85 547.055   1
 -17  19  -6 3480.85 515.031   4
 -19  17  -6 1963.59 447.057   4
 -19  17  -6 2321.50 596.663   2
 -17  19  -6 2882.26 625.769   2
  17   2  -6 3721.68 621.792   1
   2 -19  -3 4328.00 467.852   3
  19  -2  -3 3928.37 513.112   1
  -2 -17  -3 3664.35 452.927   3
 -19  17  -3 4024.45 348.952   3
 -17  19  -3 4068.93 501.174   4
 -17  19  -3 4266.36 589.733   2
 -19  17  -3 4113.36 500.436   4
 -19  17  -3 4768.99 617.216   2
  17   2  -3 4115.62 533.716   1
 -17  19   0 1567.01 384.867   4
   2 -19   0 1764.89 262.640   3
  -2 -17   0 1419.95 287.614   3
  17   2   0 2043.19 374.369   1
 -19  17   0 2120.32 418.256   4
  19  -2   0 1416.00 324.137   1
 -19  17   0 1954.25 381.548   2
 -17  19   0 1370.15 375.204   2
 -17  19   3 5119.05 527.606   4
  17   2   3 4186.50 317.029   1
 -19  17   3 4936.50 516.193   4
  19  -2   3 4506.34 329.053   1
 -19  17   3 4944.90 423.643   2
 -17  19   3 5156.55 460.461   2
 -17  19   6 1562.85 361.264   2
 -19  17   6 1620.10 293.085   2
 -19  17   6 1602.61 362.070   4
 -17  19   6 2381.00 428.336   4
 -17  19   9 1047.25 335.080   4
   1 -19  -7 806.597 493.090   3
  -1 -18  -7 233.848 442.897   3
 -19  18  -7 604.538 367.078   3
 -18  19  -7 386.248 299.577   3
  18   1  -7 484.665 450.058   1
  19  -1  -7-933.171 504.557   1
 -19  18  -7-293.550 374.342   4
 -18  19  -7 306.575 393.495   4
 -19  18  -7 208.101 477.818   2
 -18  19  -7 439.388 472.822   2
   1 -19  -4 1931.99 417.758   3
  -1 -18  -4 2177.47 436.254   3
  18   1  -4 1910.73 466.887   1
 -19  18  -4 1720.44 537.092   2
 -19  18  -4 1633.76 283.207   3
 -18  19  -4 1471.43 254.367   3
  19  -1  -4 1541.06 451.095   1
 -19  18  -4 1610.48 406.674   4
 -18  19  -4 1897.90 537.046   2
 -18  19  -4 1257.32 377.031   4
  19  -1  -1 2633.49 411.570   1
   1 -19  -1 2500.53 314.620   3
  -1 -18  -1 2413.00 339.426   3
  18   1  -1 2195.06 397.549   1
 -19  18  -1 2587.77 424.718   4
 -18  19  -1 2510.23 438.080   4
 -19  18  -1 2984.36 470.786   2
 -18  19  -1 2080.39 447.483   2
 -18  19   2 1091.68 310.697   2
  19  -1   2 1107.50 278.062   1
 -19  18   2 1195.40 373.497   4
  -1 -18   2 768.951 219.786   3
   1 -19   2 923.266 185.794   3
 -18  19   2 1537.50 377.812   4
  18   1   2 1522.00 305.546   1
 -19  18   2 1295.48 319.235   2
 -19  18   5 300.574 279.375   2
 -18  19   5 422.211 283.257   2
 -19  18   5 254.721 306.940   4
 -18  19   5-16.8432 300.182   4
 -18  19   8 411.171 295.440   2
 -19  18   8 646.134 333.419   4
 -18  19   8-171.742 318.715   4
 -19  19  -8 9929.82 972.394   2
  19   0  -8 9559.15 887.624   1
   0 -19  -8 9808.03 920.373   3
 -19  19  -8 8380.58 633.416   3
 -19  19  -8 9783.36 802.440   4
   0 -19  -5 167.486 372.131   3
 -19  19  -5 10.4261 246.396   3
  19   0  -5 512.781 457.411   1
 -19  19  -5-463.730 452.657   2
 -19  19  -5 77.4117 356.707   4
  19   0  -2 13138.6 747.004   1
   0 -19  -2 12242.2 642.926   3
 -19  19  -2 12824.2 794.850   4
 -19  19  -2 13644.3 899.362   2
   0 -19   1-138.995 208.464   3
 -19  19   1 149.519 314.617   4
  19   0   1 631.754 301.496   1
 -19  19   1 355.133 298.808   2
  19   0   4 572.971 158.439   1
 -19  19   4 331.184 262.754   2
 -19  19   4 665.424 335.527   4
 -19  19   7-537.141 297.814   2
 -19  19   7 332.326 315.592   4
   0  20  -8 663.704 365.779   2
  20 -20  -8 1138.45 492.706   1
 -20   0  -8 1913.43 573.564   3
   0  20  -8 1181.85 593.366   1
   0  20  -8 1402.69 358.642   4
   0  20  -5-660.718 343.273   2
 -20   0  -5 416.549 441.087   3
  20 -20  -5 367.604 358.550   1
   0  20  -5-96.5201 301.896   4
   0  20  -2 2475.84 323.361   3
   0  20  -2 2281.28 409.490   2
 -20   0  -2 1703.76 419.455   3
  20 -20  -2 3020.23 442.354   1
 -20   0  -2 1612.02 335.961   1
   0  20  -2 3386.70 455.858   4
  20 -20   1-113.096 268.602   3
   0  20   1 108.017 293.737   2
 -20   0   1-220.807 342.828   3
  20 -20   1 78.4918 313.849   1
   0  20   1-15.2921 299.137   4
  20 -20   4 276.889 259.566   3
   0  20   4 601.746 356.341   2
   0  20   4 756.073 368.099   4
 -20   0   4 461.385 154.140   2
   0  20   7 341.769 400.805   2
   0  20   7-393.809 393.752   4
  -1  20  -6 2358.67 436.579   2
  20 -19  -6 2986.56 534.594   1
  19 -20  -6 2722.51 510.406   1
 -19  -1  -6 3521.62 594.067   3
 -20   1  -6 2449.46 574.900   3
   1  19  -6 3773.57 667.597   1
  -1  20  -6 3452.97 466.972   4
   1  19  -6 2592.34 411.885   4
   1  19  -6 2840.20 463.725   2
   1  19  -3 4209.41 470.005   2
  -1  20  -3 2773.14 266.399   3
   1  19  -3 3012.65 354.400   3
 -19  -1  -3 3132.63 502.527   3
 -20   1  -3 3643.40 524.692   3
  20 -19  -3 3846.91 468.319   1
  19 -20  -3 3582.77 467.316   1
 -20   1  -3 3002.35 352.822   1
  -1  20  -3 4369.66 501.477   4
   1  19  -3 4508.00 471.479   4
  -1  20  -3 3698.56 446.903   2
  -1  20   0 3939.04 392.589   3
   1  19   0 3012.91 403.948   3
  -1  20   0 4792.09 495.697   2
   1  19   0 4904.17 509.978   2
  19 -20   0 5070.77 499.391   1
  19 -20   0 4354.32 376.393   3
 -19  -1   0 3967.01 496.967   3
 -20   1   0 3972.48 491.497   3
  20 -19   0 4706.48 461.582   1
   1  19   0 4918.52 510.158   4
  -1  20   0 5085.42 539.978   4
 -20   1   3 2583.07 262.889   2
  19 -20   3 2735.26 297.568   3
  20 -19   3 2097.48 318.711   3
  -1  20   3 3435.96 481.122   2
   1  19   3 3162.38 478.990   2
 -19  -1   3 3724.07 525.238   3
 -20   1   3 2875.01 491.278   3
  -1  20   3 3678.54 519.250   4
   1  19   3 3880.32 497.257   4
 -19  -1   3 2494.49 281.842   2
  -1  20   6 1095.74 426.726   2
   1  19   6 1552.66 456.302   2
  -1  20   6 2599.93 472.101   4
   1  19   6 1427.14 435.075   4
  -2  20  -7 2588.76 444.259   2
  18 -20  -7 3059.30 508.409   1
 -18  -2  -7 2346.10 590.787   3
 -20   2  -7 2938.27 580.705   3
   2  18  -7 3229.87 661.325   1
  -2  20  -7 3553.38 462.745   4
  20 -18  -7 3061.51 525.957   1
   2  18  -7 3176.42 432.466   4
   2  18  -7 3390.65 474.928   2
  -2  20  -4 408.252 325.518   2
   2  18  -4 125.265 272.118   2
  20 -18  -4 421.107 357.623   1
  -2  20  -4-14.8643 160.830   3
   2  18  -4 421.499 278.641   3
 -18  -2  -4-68.3269 376.233   3
 -20   2  -4 274.750 374.761   3
 -20   2  -4 25.4782 214.813   1
  18 -20  -4 40.7369 324.525   1
  -2  20  -4 575.649 330.009   4
   2  18  -4 384.020 304.307   4
  -2  20  -1 12868.7 722.886   2
   2  18  -1 9861.77 558.354   3
   2  18  -1 11958.8 693.472   2
 -18  -2  -1 10941.7 702.534   3
  18 -20  -1 10010.7 482.057   3
 -20   2  -1 11669.9 710.424   3
  20 -18  -1 12706.4 688.104   1
  -2  20  -1 13913.9 762.738   4
   2  18  -1 12558.9 712.698   4
  18 -20  -1 12187.4 667.255   1
  -2  20  -1 9251.99 425.464   3
 -18  -2   2 1793.04 293.599   2
  20 -18   2 1749.03 337.321   1
 -20   2   2 2078.87 281.309   2
  18 -20   2 1724.07 252.056   3
  20 -18   2 1361.20 346.184   3
  -2  20   2 1704.42 380.461   2
   2  18   2 2086.17 405.427   2
 -18  -2   2 1935.15 414.963   3
 -20   2   2 2011.59 418.288   3
   2  18   2 2558.62 454.431   4
  -2  20   2 1855.04 409.166   4
  -2  20   5 6107.84 618.423   2
   2  18   5 6951.11 650.781   2
  -2  20   5 8364.80 677.032   4
   2  18   5 6040.52 604.571   4
  -2  20   8 672.083 436.347   2
  -2  20   8 479.350 410.225   4
   2  18   8 297.595 386.570   4
   3  17  -8 968.679 326.010   2
 -17  -3  -8 1415.78 572.002   3
 -20   3  -8 806.632 484.676   3
  17 -20  -8 1695.17 460.609   1
  20 -17  -8 1417.07 486.866   1
  -3  20  -8 2008.33 627.318   1
   3  17  -8 1017.94 579.861   1
  -3  20  -8 1108.58 358.550   4
   3  17  -8 1059.69 326.313   4
  -3  20  -8 1874.83 461.442   2
  -3  20  -5 497.392 334.068   2
   3  17  -5 1179.85 345.445   2
 -17  -3  -5 603.221 399.532   3
 -20   3  -5 478.755 384.839   3
   3  17  -5 164.078 491.063   1
  17 -20  -5 626.757 343.807   1
  -3  20  -5 1228.34 335.771   4
   3  17  -5 417.823 279.946   4
  20 -17  -5 603.878 358.703   1
  -3  20  -2 1100.98 149.185   3
  -3  20  -2 2164.54 372.894   2
   3  17  -2 1523.43 330.081   3
   3  17  -2 1862.45 364.832   2
  20 -17  -2 2371.61 419.786   1
 -17  -3  -2 1313.88 402.713   3
 -20   3  -2 1241.59 371.484   3
  17 -20  -2 1859.58 366.655   1
   3  17  -2 2432.49 390.136   4
  -3  20  -2 2003.37 387.004   4
 -20   3  -2 1876.57 350.916   1
  -3  20   1 854.655 330.434   2
  17 -20   1 1006.03 242.566   3
   3  17   1 652.007 312.163   2
  17 -20   1 953.034 306.495   1
 -20   3   1 770.079 261.298   2
 -17  -3   1 255.841 311.951   3
 -20   3   1 1292.91 359.670   3
  20 -17   1 584.653 284.829   1
  -3  20   1 1317.45 384.429   4
   3  17   1 663.257 330.061   4
  -3  20   4 3090.56 441.800   2
   3  17   4 3241.19 471.339   2
 -17  -3   4 1938.59 251.111   2
  -3  20   4 3232.27 469.365   4
   3  17   4 3598.84 490.774   4
  17 -20   4 1920.38 218.355   3
  -3  20   7 1108.71 464.129   2
   3  17   7 780.663 431.261   2
 -20   3   7 509.480 276.533   4
  -3  20   7 920.112 375.539   4
   3  17   7 1512.23 432.939   4
  16 -20  -9 2219.90 642.098   3
   4  16  -9 2000.16 395.258   2
 -16  -4  -9 1626.60 608.825   3
 -20   4  -9 1686.56 604.613   3
  16 -20  -9 1663.11 472.852   1
  20 -16  -9 1888.41 536.152   1
  -4  20  -9 3287.34 681.022   1
   4  16  -9 2852.81 700.958   1
  -4  20  -9 1408.77 452.055   2
  -4  20  -6 3380.91 244.095   3
 -16  -4  -6 3816.84 596.058   3
 -20   4  -6 5232.10 631.702   3
  16 -20  -6 5652.50 556.101   1
   4  16  -6 7288.60 784.423   1
  -4  20  -6 4827.31 480.978   4
  -4  20  -6 5514.99 576.445   2
  20 -16  -6 5028.87 589.318   1
   4  16  -6 5269.02 481.066   4
   4  16  -6 4580.62 445.649   2
 -20   4  -3 947.913 302.249   1
  -4  20  -3 959.703 325.280   2
   4  16  -3 1138.27 333.984   2
   4  16  -3 1658.23 330.240   3
 -16  -4  -3 698.340 384.810   3
 -20   4  -3 1280.33 383.389   3
  16 -20  -3 881.344 330.580   1
  -4  20  -3 1005.61 334.896   4
   4  16  -3 1269.40 335.177   4
  20 -16  -3 1229.23 354.712   1
  -4  20   0 5549.76 505.329   2
   4  16   0 5493.57 489.685   2
  16 -20   0 5802.77 339.602   3
 -16  -4   0 5377.94 520.821   3
 -20   4   0 5490.53 520.948   3
  20 -16   0 5175.45 465.765   1
  16 -20   0 6328.70 509.779   1
  -4  20   0 5864.47 528.403   4
   4  16   0 5052.89 493.173   4
 -16  -4   3 1962.55 278.266   2
 -20   4   3 1895.59 207.209   2
   4  16   3 2407.44 443.630   2
  -4  20   3 2366.29 397.500   2
 -16  -4   3 2579.36 464.811   3
 -20   4   3 1749.12 274.132   2
  -4  20   3 3046.92 460.479   4
   4  16   3 3521.65 477.666   4
  20 -16   3 2702.16 354.733   1
  16 -20   3 1485.53 139.611   3
  -4  20   6 1686.55 421.558   2
   4  16   6 1375.83 458.248   2
 -20   4   6 1078.63 316.723   4
   4  16   6 1907.06 468.228   4
  -4  20   6 2157.11 457.738   4
  -4  20   9 939.102 408.670   4
 -15  -5  -7 4912.61 705.941   3
 -20   5  -7 6404.48 694.189   3
  15 -20  -7 6292.16 591.819   1
   5  15  -7 7993.72 851.185   1
  20 -15  -7 5765.15 630.676   1
  -5  20  -7 7346.09 574.381   4
  -5  20  -7 7209.69 667.755   2
   5  15  -7 6890.58 505.501   4
   5  15  -7 7045.57 537.588   2
  15 -20  -7 6911.54 727.424   3
  -5  20  -4 2314.91 414.108   2
   5  15  -4 2337.05 359.668   2
  15 -20  -4 2395.80 419.563   1
  -5  20  -4 2845.22 406.470   4
 -15  -5  -4 2510.74 484.688   3
  20 -15  -4 2105.22 433.573   1
 -20   5  -4 2238.17 429.592   3
   5  15  -4 2660.22 558.313   1
   5  15  -4 3062.37 400.440   4
 -20   5  -4 2582.61 334.601   1
   5  15  -1 13837.7 693.710   2
  20 -15  -1 12639.8 680.019   1
 -15  -5  -1 13103.7 729.547   3
 -20   5  -1 13331.9 727.817   3
  15 -20  -1 14368.7 698.196   1
  15 -20  -1 13141.3 472.729   3
  -5  20  -1 15194.5 772.195   4
   5  15  -1 13973.8 719.323   4
  -5  20  -1 13462.0 721.135   2
  15 -20   2 1081.72 105.663   3
  20 -15   2 2264.35 336.953   1
  -5  20   2 2187.69 388.108   2
   5  15   2 1992.26 395.283   2
 -20   5   2 1702.21 252.946   2
  -5  20   2 2754.20 429.398   4
 -15  -5   2 1717.84 383.400   3
 -20   5   2 1325.91 375.334   3
   5  15   2 2435.29 415.117   4
 -15  -5   2 1806.73 310.019   2
  -5  20   5 8326.83 667.983   2
   5  15   5 7682.87 674.622   2
 -20   5   5 8301.83 566.264   4
   5  15   5 8406.15 443.430   1
  -5  20   5 8958.94 648.520   4
   5  15   5 9400.63 695.056   4
  -5  20   8 1167.70 481.849   2
  -5  20   8 1200.86 397.502   4
  14 -20  -8 317.090 481.225   3
   6  14  -8 245.356 273.320   2
 -14  -6  -8 739.987 540.618   3
 -20   6  -8 608.662 455.783   3
  20 -14  -8 527.027 418.197   1
  14 -20  -8 513.464 392.404   1
  -6  20  -8 791.563 348.423   4
  -6  20  -8-111.799 400.558   2
   6  14  -8 966.883 595.231   1
   6  14  -5 2794.74 361.658   2
 -20   6  -5 3153.94 507.434   3
 -14  -6  -5 2778.41 508.598   3
  20 -14  -5 2969.44 471.966   1
   6  14  -5 4362.93 656.989   1
  14 -20  -5 3621.42 446.185   1
  -6  20  -5 4276.46 462.935   4
 -20   6  -5 3249.41 322.237   1
  -6  20  -5 3793.14 492.526   2
   6  14  -5 3247.54 389.113   4
   6  14  -2 10417.4 587.507   2
  14 -20  -2 11423.3 632.138   1
 -14  -6  -2 9235.49 636.559   3
 -20   6  -2 9355.18 627.155   3
  14 -20  -2 10333.0 481.911   3
  -6  20  -2 11345.8 677.801   4
 -20   6  -2 9591.43 592.629   1
   6  14  -2 11119.8 639.912   4
  -6  20  -2 10945.6 659.067   2
  20 -14  -2 9810.38 628.217   1
  -6  20   1 4183.93 454.736   2
  14 -20   1 3305.84 177.471   3
   6  14   1 4087.74 443.821   2
 -14  -6   1 3685.76 442.638   3
 -20   6   1 3542.16 441.301   3
  20 -14   1 4017.94 406.137   1
  -6  20   1 4618.95 499.757   4
   6  14   1 4327.55 485.691   4
  -6  20   4 1710.11 380.794   2
   6  14   4 2144.90 429.703   2
   6  14   4 1812.51 264.373   1
  -6  20   4 2139.13 399.095   4
 -14  -6   4 1288.52 281.491   2
   6  14   4 2247.02 436.834   4
  -6  20   7 2441.19 497.462   2
 -20   6   7 2270.48 317.738   4
  -6  20   7 3029.22 466.375   4
   6  14   7 3205.21 505.155   4
   7  13  -9 1961.48 649.207   1
  13 -20  -9 2396.62 627.133   3
 -13  -7  -9 1895.01 628.280   3
  20 -13  -9 1348.04 536.280   1
 -20   7  -9 2105.48 577.070   3
  -7  20  -9 1971.42 581.040   1
  -7  20  -9 1812.41 405.976   4
  13 -20  -9 1722.38 445.687   1
  -7  20  -9 2251.85 515.688   2
   7  13  -6 5079.88 418.870   2
  13 -20  -6 6046.27 547.581   1
 -13  -7  -6 4820.08 645.849   3
 -20   7  -6 5973.64 620.486   3
   7  13  -6 6487.42 736.576   1
  20 -13  -6 5618.43 609.044   1
  -7  20  -6 6666.21 554.766   4
  -7  20  -6 6125.82 641.973   2
   7  13  -6 5733.56 470.118   4
  13 -20  -6 5615.31 633.824   3
  -7  20  -3 941.624 331.046   2
  13 -20  -3 935.573 343.301   1
   7  13  -3 601.220 260.223   2
 -20   7  -3 376.263 312.882   1
 -13  -7  -3 74.8703 328.341   3
 -20   7  -3 1241.98 383.044   3
  20 -13  -3 9.96617 326.254   1
   7  13  -3 1240.80 440.455   1
  -7  20  -3 837.033 329.003   4
   7  13  -3 553.652 276.365   4
  20 -13   0 6562.64 484.712   1
   7  13   0 7271.87 526.518   2
  13 -20   0 7609.06 281.173   3
 -13  -7   0 6854.92 548.771   3
 -20   7   0 7173.93 540.188   3
  -7  20   0 7853.30 574.679   4
   7  13   0 8011.66 563.557   4
  -7  20   0 6870.94 530.927   2
  -7  20   3 2087.95 364.559   2
 -20   7   3 1917.97 211.434   2
  20 -13   3 1825.19 308.150   1
   7  13   3 1844.15 417.857   2
 -13  -7   3 1461.37 369.336   3
 -20   7   3 1760.85 240.288   2
  -7  20   3 2769.09 437.626   4
   7  13   3 1705.87 254.501   1
   7  13   3 2411.77 437.378   4
 -13  -7   3 1031.89 270.302   2
  -7  20   6 498.282 339.368   2
 -20   7   6 549.665 267.582   4
  -7  20   6 474.124 363.938   4
   7  13   6 93.5478 354.990   4
  -7  20   9 757.236 329.593   4
  12 -20  -7 6108.53 714.374   3
   8  12  -7 4138.79 388.719   2
  20 -12  -7 3404.56 575.091   1
 -12  -8  -7 4184.70 646.008   3
 -20   8  -7 4620.26 587.763   3
  12 -20  -7 5463.69 549.653   1
   8  12  -7 5474.02 755.439   1
  -8  20  -7 5600.17 539.625   4
  -8  20  -7 4238.70 581.099   2
  12 -20  -4 2449.31 456.333   3
   8  12  -4 2186.90 324.668   2
  20 -12  -4 1715.09 409.879   1
 -12  -8  -4 1941.63 437.355   3
 -20   8  -4 2143.31 413.316   3
 -20   8  -4 1725.86 334.659   1
  -8  20  -4 2626.30 398.840   4
   8  12  -4 2767.06 509.705   1
  12 -20  -4 1931.03 358.338   1
   8  12  -4 2083.14 359.200   4
  -8  20  -4 2368.92 447.060   2
  12 -20  -1 11972.6 645.929   1
   8  12  -1 10905.5 598.383   2
 -12  -8  -1 9384.08 610.820   3
 -20   8  -1 10837.6 638.053   3
   8  12  -1 11949.1 694.156   1
  -8  20  -1 11912.2 682.300   4
  -8  20  -1 11016.4 669.819   2
   8  12  -1 11346.9 640.413   4
  20 -12  -1 10586.9 593.269   1
  12 -20  -1 11563.2 476.660   3
  -8  20   2 3731.64 441.048   2
   8  12   2 3419.39 447.934   2
 -12  -8   2 3900.93 445.369   3
 -20   8   2 3821.55 445.667   3
 -20   8   2 4103.06 374.361   2
  20 -12   2 4244.52 388.420   1
  -8  20   2 3884.51 463.414   4
   8  12   2 4206.82 475.223   4
  -8  20   5 3001.43 424.824   2
 -12  -8   5 1953.60 330.656   2
   8  12   5 3281.45 253.701   1
 -20   8   5 2273.27 367.090   4
   8  12   5 2724.53 225.578   1
  -8  20   5 3750.50 489.598   4
   8  12   5 3901.57 514.116   4
  -8  20   8-101.858 384.877   2
  -8  20   8 1112.38 401.452   4
  11 -20  -8 5278.76 745.615   3
   9  11  -8 3348.96 351.509   2
  20 -11  -8 3914.13 594.764   1
 -11  -9  -8 5074.19 716.791   3
 -20   9  -8 4181.92 614.855   3
  -9  20  -8 4963.76 541.693   4
  11 -20  -8 3781.63 488.245   1
  -9  20  -8 4948.33 653.161   2
   9  11  -8 5433.71 757.033   1
  11 -20  -5 4040.49 554.696   3
   9  11  -5 3382.74 350.975   2
 -11  -9  -5 3989.97 575.099   3
 -20   9  -5 2971.58 369.802   1
 -20   9  -5 4316.38 522.010   3
  20 -11  -5 4130.25 554.373   1
   9  11  -5 5625.97 670.745   1
  -9  20  -5 4133.58 465.574   4
  -9  20  -5 4462.66 580.704   2
  11 -20  -5 4351.01 445.953   1
  11 -20  -2 4274.49 392.388   3
   9  11  -2 3894.10 390.991   2
 -11  -9  -2 3595.54 449.973   3
 -20   9  -2 3169.86 405.632   3
   9  11  -2 4804.10 545.226   1
  -9  20  -2 4116.19 456.551   4
  20 -11  -2 4424.37 472.852   1
  -9  20  -2 4334.03 481.406   2
   9  11  -2 4309.32 437.117   4
  11 -20  -2 3969.94 412.826   1
  20 -11   1 9721.60 528.914   1
   9  11   1 9903.80 614.833   2
 -11  -9   1 9696.61 599.478   3
 -20   9   1 9431.90 589.297   3
 -20   9   1 10272.9 613.377   2
   9  11   1 10719.8 577.365   1
  -9  20   1 11541.9 695.417   4
   9  11   1 9767.03 627.051   4
  -9  20   1 9970.68 611.335   2
  -9  20   4 2353.37 403.592   2
 -20   9   4 1667.08 141.791   2
   9  11   4 2616.26 454.721   2
 -20   9   4 2809.82 407.657   4
   9  11   4 3594.44 308.459   1
   9  11   4 2640.55 243.658   1
 -11  -9   4 2414.24 373.640   2
  -9  20   4 3180.63 440.137   4
  20 -11   4 2791.84 309.759   1
 -20   9   4 1813.12 148.870   2
   9  11   4 3704.69 487.394   4
  -9  20   7 1918.18 435.772   2
 -20   9   7 2568.49 348.960   4
  -9  20   7 2717.24 451.843   4
  20 -10  -9-271.993 498.744   1
  10 -20  -9 598.595 549.616   3
  10  10  -9-193.051 525.546   1
 -10 -10  -9-1660.76 608.590   3
 -20  10  -9 153.935 447.152   3
  10 -20  -9 635.595 405.349   1
 -20  10  -9 61.5921 382.738   4
 -10  20  -9-488.133 395.337   4
 -10  20  -9-237.417 455.991   2
  20 -10  -6 3522.25 545.169   1
  10 -20  -6 2772.98 525.022   3
  10  10  -6 2366.88 300.862   2
 -10 -10  -6 2878.57 542.882   3
 -20  10  -6 2872.16 483.161   3
 -10  20  -6 3484.16 451.790   4
 -10  20  -6 2842.37 527.160   2
  10 -20  -6 3073.90 412.609   1
  10  10  -6 3308.19 611.839   1
  10 -20  -3 544.977 319.238   3
  20 -10  -3 393.378 328.162   1
 -10 -10  -3 50.0006 347.500   3
  10 -20  -3-105.877 269.833   1
  10  10  -3 440.527 222.028   2
 -20  10  -3 364.461 296.820   3
 -10  20  -3 369.935 298.374   4
  10  10  -3 455.883 384.141   1
 -10  20  -3 314.393 313.758   2
  10  10  -3-54.6747 259.565   4
 -10  20   0 1760.58 360.676   2
  10 -20   0 1719.38 171.203   3
  10  10   0 1988.27 352.038   2
  10 -20   0 1641.71 145.153   3
 -10 -10   0 1902.28 363.424   3
 -20  10   0 1507.18 336.528   3
 -20  10   0 1004.34 325.902   4
 -20  10   0 1785.32 409.654   2
  20 -10   0 1400.65 319.480   1
 -10  20   0 1992.39 392.230   4
  10  10   0 1656.37 361.584   1
  10  10   0 1549.51 340.475   4
 -10  20   3 97.5202 266.576   2
 -10 -10   3 67.1505 295.902   3
  10  10   3 935.430 343.462   2
  20 -10   3-141.021 228.564   1
 -20  10   3-229.265 282.562   4
 -10  20   3 380.662 323.007   4
  10  10   3-193.074 235.870   1
 -20  10   3-36.0508 188.109   2
  10  10   3 566.755 338.068   4
 -10  20   6 3019.01 438.272   2
 -20  10   6 2261.27 357.325   4
 -10  20   6 2887.46 433.087   4
 -10  20   9-114.995 341.556   4
   9 -20  -7 2539.91 420.875   1
  11   9  -7 2339.08 585.965   1
   9 -20  -7 2029.44 525.968   3
  11   9  -7 2639.73 282.665   2
  -9 -11  -7 2074.84 568.646   3
 -20  11  -7 1857.55 445.440   3
 -20  11  -7 1534.18 413.336   4
 -11  20  -7 3501.38 498.463   4
 -11  20  -7 2852.27 556.478   2
  20  -9  -7 2455.89 547.329   1
   9 -20  -4 3082.26 451.164   3
  -9 -11  -4 2717.82 493.748   3
  11   9  -4 2460.10 310.828   2
 -20  11  -4 2532.71 424.276   3
  11   9  -4 3532.48 561.796   1
  20  -9  -4 3357.29 493.238   1
   9 -20  -4 3452.38 404.420   1
 -20  11  -4 2049.28 522.397   2
 -11  20  -4 2848.10 424.993   4
 -11  20  -4 3370.55 498.349   2
   9 -20  -1 9570.39 422.749   3
  -9 -11  -1 8446.50 559.012   3
  11   9  -1 9846.12 548.879   2
 -20  11  -1 8743.07 534.276   3
  11   9  -1 9664.94 625.851   1
 -20  11  -1 9137.28 657.711   4
 -20  11  -1 10089.5 723.045   2
  20  -9  -1 10206.6 595.146   1
 -11  20  -1 9914.47 637.395   4
 -11  20  -1 10084.4 667.082   2
  20  -9   2 2625.36 322.209   1
  11   9   2 3654.36 447.896   2
  -9 -11   2 2517.11 367.418   3
 -20  11   2 3762.76 463.249   4
  11   9   2 3337.47 359.309   1
 -11  20   2 3432.54 459.175   4
 -20  11   2 2800.38 343.175   2
 -11  20   2 2668.94 381.854   2
 -11  20   5 4075.54 461.382   2
 -20  11   5 3555.41 408.274   4
 -11  20   5 3854.59 465.253   4
 -11  20   8 2563.67 487.780   2
 -11  20   8 3542.65 476.045   4
 -20  11   8 2782.06 332.433   4
   8 -20  -8 214.286 507.121   3
   8 -20  -8 822.122 357.357   1
  12   8  -8 442.940 503.354   1
  -8 -12  -8 596.734 532.939   3
 -20  12  -8 320.315 400.246   3
 -20  12  -8 269.109 376.087   4
 -20  12  -8 901.736 588.214   2
 -12  20  -8 422.630 381.327   4
 -12  20  -8 172.368 424.432   2
  20  -8  -8 1328.16 495.863   1
   8 -20  -5 3967.22 544.108   3
   8 -20  -5 2439.97 357.661   1
  12   8  -5 3227.82 302.865   2
  -8 -12  -5 2514.39 511.270   3
 -20  12  -5 3309.23 452.512   3
  20  -8  -5 3502.52 543.968   1
 -20  12  -5 2495.03 482.424   4
 -20  12  -5 3001.13 624.692   2
 -12  20  -5 3556.76 478.720   4
 -12  20  -5 3477.43 533.002   2
  12   8  -5 3968.11 590.157   1
   8 -20  -2 4976.47 398.828   3
  -8 -12  -2 3888.26 447.332   3
  12   8  -2 4595.55 392.439   2
 -20  12  -2 3765.14 411.929   3
  20  -8  -2 5099.57 492.470   1
 -20  12  -2 4598.54 530.313   4
 -20  12  -2 4631.88 610.292   2
 -12  20  -2 4665.37 508.352   4
  12   8  -2 4749.07 502.555   1
 -12  20  -2 4452.64 529.055   2
  -8 -12   1 10275.7 582.101   3
  12   8   1 10076.2 631.589   2
 -20  12   1 10659.2 622.606   2
 -20  12   1 9766.01 580.677   3
 -20  12   1 9951.11 661.044   4
  12   8   1 11143.7 566.790   1
 -12  20   1 10960.3 678.971   4
  20  -8   1 10362.0 534.737   1
 -12  20   1 10081.1 622.899   2
  12   8   4 1660.04 166.092   1
  20  -8   4 2350.40 278.453   1
 -12  20   4 2278.08 374.026   2
 -20  12   4 2332.07 377.814   4
 -12  20   4 2852.72 435.094   4
  12   8   4 2169.90 204.202   1
 -20  12   4 2130.27 231.753   2
 -12  20   7 4411.83 531.035   2
 -20  12   7 4543.61 441.143   4
 -12  20   7 4919.86 524.268   4
   7 -20  -9 1021.85 599.684   3
  -7 -13  -9 1429.86 603.498   3
  13   7  -9 1053.71 594.183   1
 -20  13  -9 644.850 450.184   3
   7 -20  -9 884.962 355.088   1
 -20  13  -9 205.159 592.676   2
 -13  20  -9 1292.17 478.605   4
 -13  20  -9 1411.41 572.914   2
  20  -7  -9 445.481 515.768   1
 -20  13  -9 663.302 412.979   4
   7 -20  -6 743.224 460.019   3
  13   7  -6 284.099 454.647   1
   7 -20  -6 639.376 309.238   1
  -7 -13  -6-283.028 418.164   3
 -20  13  -6 677.238 370.487   3
 -13  20  -6 597.367 111.671   3
  13   7  -6 294.224 159.936   2
 -20  13  -6 681.554 378.982   4
 -20  13  -6 266.709 492.560   2
 -13  20  -6 205.935 331.380   4
  20  -7  -6 209.974 444.447   1
 -13  20  -6 833.998 450.794   2
  13   7  -3 2299.42 456.021   1
   7 -20  -3 2439.14 361.195   3
  -7 -13  -3 1717.65 419.201   3
 -20  13  -3 2089.40 360.830   3
  13   7  -3 1797.74 284.722   2
 -20  13  -3 1868.90 408.866   4
 -20  13  -3 1922.07 501.174   2
 -13  20  -3 2725.65 441.146   4
 -13  20  -3 2192.11 461.451   2
  20  -7  -3 1594.18 392.663   1
   7 -20   0 6551.18 267.559   3
  -7 -13   0 6620.66 485.499   3
  13   7   0 6617.41 508.204   2
 -20  13   0 7091.09 493.504   3
 -20  13   0 7153.89 581.547   4
 -20  13   0 6598.29 566.761   2
  20  -7   0 6956.54 505.901   1
 -13  20   0 6051.67 550.384   4
  13   7   0 6968.41 508.405   1
 -13  20   0 6319.26 540.994   2
 -20  13   3 581.677 312.892   4
 -13  20   3 886.871 316.556   2
  13   7   3 854.716 249.285   1
  -7 -13   3 768.935 289.780   3
  20  -7   3 401.070 208.316   1
 -13  20   3 913.671 328.117   4
 -20  13   3 624.589 236.251   2
 -13  20   6 5717.01 531.419   2
 -20  13   6 5165.34 492.806   4
 -13  20   6 6221.34 568.660   4
 -13  20   9 1540.23 371.979   4
   6 -20  -7 3578.95 642.237   3
  -6 -14  -7 2499.14 584.610   3
 -14  20  -7 2606.37 283.560   3
 -20  14  -7 2592.61 462.927   3
 -14  20  -7 4217.35 560.180   4
 -20  14  -7 2346.49 485.088   4
 -20  14  -7 2032.92 613.620   2
 -14  20  -7 3590.78 612.180   2
  20  -6  -7 2685.27 529.093   1
   6 -20  -7 2792.92 401.887   1
  14   6  -7 3762.98 665.360   1
  14   6  -4 1973.05 479.077   1
   6 -20  -4 2558.07 425.727   3
  -6 -14  -4 2438.23 466.585   3
 -20  14  -4 2253.62 383.688   3
  14   6  -4 1692.19 250.238   2
 -20  14  -4 1584.16 406.487   4
 -20  14  -4 2247.26 531.776   2
 -14  20  -4 2350.28 413.258   4
  20  -6  -4 2462.60 474.955   1
 -14  20  -4 2861.68 506.175   2
   6 -20  -1 3698.46 316.481   3
  -6 -14  -1 3532.58 396.202   3
 -20  14  -1 3674.73 395.259   3
  20  -6  -1 3611.52 432.326   1
 -20  14  -1 3429.98 456.653   4
 -20  14  -1 3835.20 528.699   2
 -14  20  -1 4254.17 487.067   4
 -14  20  -1 3766.33 481.028   2
  14   6  -1 4072.53 455.981   1
  -6 -14   2 10639.5 558.261   3
 -20  14   2 11402.2 685.036   4
 -14  20   2 11512.5 712.911   4
 -20  14   2 11560.0 602.677   2
  14   6   2 11432.3 523.346   1
 -14  20   2 11438.3 646.302   2
  20  -6   2 11104.9 520.057   1
 -20  14   5 3047.94 272.398   2
 -14  20   5 2541.06 395.761   2
 -20  14   5 3004.97 405.294   4
 -14  20   5 3379.59 466.774   4
 -14  20   8-51.7450 339.489   2
 -20  14   8 142.510 260.395   4
 -14  20   8 100.547 307.901   4
   5 -20  -8 2289.33 650.126   3
  -5 -15  -8 1302.54 555.771   3
  15   5  -8 1687.16 576.039   1
 -20  15  -8 1748.60 452.669   3
 -20  15  -8 2395.43 511.075   4
 -20  15  -8 1599.63 643.514   2
  20  -5  -8 801.446 499.908   1
 -15  20  -8 1689.08 493.181   4
 -15  20  -8 1340.75 504.682   2
   5 -20  -5 9491.80 698.100   3
  -5 -15  -5 10185.8 745.560   3
  20  -5  -5 9586.64 740.414   1
 -20  15  -5 10697.5 645.997   3
 -20  15  -5 9158.32 709.352   4
 -20  15  -5 11005.3 940.721   2
 -15  20  -5 10375.6 735.974   4
 -15  20  -5 9673.32 821.443   2
  15   5  -5 8925.76 749.881   1
   5 -20  -2 2315.09 335.861   3
  15   5  -2 2076.60 429.513   1
  -5 -15  -2 2148.40 369.629   3
  20  -5  -2 2594.14 438.092   1
 -20  15  -2 2461.57 331.993   3
 -15  20  -2 2262.58 426.205   4
 -20  15  -2 1475.71 426.344   2
 -20  15  -2 1998.48 419.712   4
 -15  20  -2 2204.36 441.302   2
  -5 -15   1 13186.7 600.382   3
   5 -20   1 11844.4 265.138   3
 -20  15   1 14167.5 774.512   4
  20  -5   1 14308.6 633.015   1
 -15  20   1 14558.2 793.271   4
 -20  15   1 13868.8 720.264   2
 -15  20   1 14260.0 730.591   2
  15   5   1 14250.9 632.719   1
 -15  20   4 2568.27 397.770   2
  15   5   4 1764.82 171.740   1
 -20  15   4 2873.31 437.610   4
  20  -5   4 2526.02 261.235   1
 -15  20   4 3040.36 434.572   4
 -20  15   4 2917.51 320.873   2
 -15  20   7 5796.04 551.059   2
 -20  15   7 5555.63 496.174   4
 -15  20   7 5796.96 561.153   4
   4 -20  -9 538.108 551.860   3
 -20  16  -9 1119.04 656.992   2
  -4 -16  -9 1555.50 604.936   3
 -20  16  -9 1273.44 479.382   3
  16   4  -9 475.267 566.265   1
 -16  20  -9 1300.44 524.547   4
 -20  16  -9 968.477 455.252   4
  20  -4  -9 707.702 540.508   1
 -16  20  -9 1904.13 662.203   2
   4 -20  -6 1952.27 499.469   3
  -4 -16  -6 1731.01 504.211   3
  16   4  -6 777.819 459.955   1
 -16  20  -6 1916.21 238.943   3
 -20  16  -6 1208.87 364.247   3
  20  -4  -6 1552.07 503.503   1
 -20  16  -6 1934.90 464.829   4
 -20  16  -6 2108.13 585.577   2
 -16  20  -6 1765.06 406.357   4
 -16  20  -6 1816.22 558.305   2
 -20  16  -3 3571.90 566.052   2
   4 -20  -3 3367.67 428.901   3
  -4 -16  -3 3710.41 476.732   3
  20  -4  -3 3287.39 510.857   1
 -20  16  -3 2643.81 349.192   3
 -16  20  -3 2987.00 464.541   4
 -20  16  -3 2564.66 440.599   4
 -16  20  -3 3410.69 549.879   2
  16   4  -3 2961.68 508.718   1
   4 -20   0 5983.93 332.170   3
  -4 -16   0 5170.15 435.688   3
  20  -4   0 6462.17 507.780   1
 -20  16   0 6002.45 563.890   4
 -16  20   0 5638.70 558.134   4
 -20  16   0 6416.35 565.737   2
 -16  20   0 6286.04 566.106   2
  16   4   0 5999.14 483.392   1
 -20  16   3 1226.88 283.424   2
 -16  20   3 1386.28 343.378   2
  16   4   3 1398.60 248.744   1
 -20  16   3 1325.87 372.212   4
 -16  20   3 1501.10 380.238   4
  20  -4   3 923.554 241.671   1
 -16  20   6 4225.86 490.336   2
 -20  16   6 4914.45 352.023   2
 -20  16   6 5318.11 505.649   4
 -16  20   6 4783.24 539.723   4
 -16  20   9 2035.79 408.996   4
   3 -20  -7 648.958 499.605   3
  -3 -17  -7 1134.51 506.546   3
  17   3  -7 1223.95 505.147   1
 -20  17  -7 58.3565 342.232   3
 -17  20  -7 913.173 296.984   3
  20  -3  -7 1977.32 552.864   1
 -20  17  -7 598.637 552.675   2
 -17  20  -7 414.233 370.137   4
 -20  17  -7 887.340 408.626   4
 -17  20  -7 398.259 479.939   2
   3 -20  -4 2889.02 460.092   3
  20  -3  -4 3509.13 520.988   1
  -3 -17  -4 2700.31 459.398   3
  17   3  -4 3043.03 518.880   1
 -20  17  -4 2552.46 354.075   3
 -17  20  -4 1981.04 188.839   3
 -20  17  -4 2828.15 474.556   4
 -17  20  -4 3649.62 488.359   4
 -20  17  -4 2605.09 555.649   2
 -17  20  -4 3228.17 570.938   2
   3 -20  -1 932.953 254.150   3
  17   3  -1 827.640 349.325   1
  -3 -17  -1 659.090 291.655   3
 -20  17  -1 772.359 333.730   4
 -17  20  -1 851.344 339.493   4
  20  -3  -1 901.855 362.302   1
 -20  17  -1 794.679 385.938   2
 -17  20  -1 833.307 364.406   2
  17   3   2 3118.91 341.590   1
  -3 -17   2 2695.13 322.068   3
 -20  17   2 2667.73 444.195   4
  20  -3   2 2424.35 332.288   1
 -20  17   2 2662.02 380.605   2
 -17  20   2 2679.05 398.796   2
 -17  20   2 2309.63 431.172   4
 -20  17   5 616.060 266.923   2
 -17  20   5 441.950 296.327   2
 -20  17   5 675.462 327.303   4
 -17  20   5 852.797 335.749   4
 -17  20   8 460.879 333.841   2
 -17  20   8 1464.67 386.034   4
 -20  17   8 1433.41 384.294   4
   2 -20  -8-67.6353 518.977   3
  -2 -18  -8 511.405 516.785   3
 -20  18  -8 335.992 391.496   3
 -20  18  -8 1210.43 587.830   2
  18   2  -8 1630.44 595.266   1
  20  -2  -8 409.621 505.622   1
 -20  18  -8 1416.40 481.639   4
 -18  20  -8 1063.84 473.312   4
 -18  20  -8 621.037 551.375   2
   2 -20  -5 7365.36 665.882   3
  20  -2  -5 5762.89 633.638   1
  -2 -18  -5 6817.80 651.252   3
 -20  18  -5 6468.33 492.231   3
 -18  20  -5 6246.23 349.710   3
 -20  18  -5 6336.26 622.178   4
 -20  18  -5 6375.60 782.923   2
 -18  20  -5 6891.75 645.836   4
 -18  20  -5 5619.91 726.430   2
  18   2  -5 6823.41 687.131   1
   2 -20  -2 1938.24 371.503   3
  -2 -18  -2 1637.94 358.795   3
  18   2  -2 2142.81 442.784   1
 -20  18  -2 2027.25 304.881   3
 -18  20  -2 2425.56 450.625   4
  20  -2  -2 1421.08 407.735   1
 -20  18  -2 1933.06 425.833   4
 -20  18  -2 2056.77 461.504   2
 -18  20  -2 2566.25 494.191   2
  18   2   1 13115.7 612.331   1
   2 -20   1 12220.6 423.946   3
  -2 -18   1 13675.2 561.023   3
  20  -2   1 12132.3 594.626   1
 -20  18   1 13871.0 796.803   4
 -18  20   1 13227.6 794.187   4
 -20  18   1 13321.7 745.061   2
 -18  20   1 12769.4 759.119   2
 -20  18   4 379.660 262.621   2
 -18  20   4-431.246 284.268   2
  20  -2   4 110.456 176.280   1
 -20  18   4 606.717 352.826   4
 -18  20   4 379.976 319.589   4
  18   2   4 269.700 140.511   1
 -18  20   7 2105.81 391.970   2
 -20  18   7 2037.88 301.039   2
 -20  18   7 2843.60 425.164   4
 -18  20   7 3044.80 451.282   4
   1 -20  -6 1083.80 465.584   3
  -1 -19  -6 1329.44 495.985   3
 -20  19  -6 1322.87 352.838   3
  19   1  -6 612.957 477.974   1
 -19  20  -6 1725.88 322.454   3
  20  -1  -6 1568.51 533.244   1
 -20  19  -6 920.403 401.166   4
 -19  20  -6 2668.21 498.082   4
 -20  19  -6 1624.96 561.689   2
 -19  20  -6 1614.49 566.149   2
  20  -1  -3 3612.58 515.911   1
  -1 -19  -3 2975.56 452.118   3
   1 -20  -3 2715.47 417.391   3
  19   1  -3 3320.28 502.498   1
 -20  19  -3 2731.71 314.959   3
 -20  19  -3 3351.48 505.496   4
 -19  20  -3 3408.84 503.014   4
 -20  19  -3 3710.19 608.420   2
 -19  20  -3 3822.29 606.250   2
  19   1   0 4636.65 469.440   1
  20  -1   0 4036.26 449.952   1
   1 -20   0 3542.95 344.569   3
  -1 -19   0 3779.41 361.218   3
 -20  19   0 3980.09 514.242   2
 -20  19   0 4231.61 533.219   4
 -19  20   0 4081.15 509.177   4
 -19  20   0 4841.41 544.759   2
  19   1   3 2623.85 301.154   1
 -20  19   3 2981.28 456.651   4
 -19  20   3 3130.12 473.784   4
  20  -1   3 2794.09 308.388   1
 -20  19   3 3256.49 415.881   2
 -19  20   3 3855.52 452.989   2
 -20  19   6 2972.94 375.818   2
 -19  20   6 2364.12 397.895   2
 -20  19   6 3254.60 467.889   4
 -19  20   6 2274.28 429.294   4
   0 -20  -7-41.7216 455.219   3
 -20  20  -7-141.492 334.454   3
  20   0  -7-229.764 508.219   1
 -20  20  -7-444.204 400.096   4
 -20  20  -7 269.250 543.451   2
   0 -20  -4 1402.39 411.812   3
  20   0  -4 1045.29 439.242   1
 -20  20  -4 1026.15 264.308   3
 -20  20  -4 1279.52 423.598   4
 -20  20  -4 302.693 432.032   2
   0 -20  -1-16.4423 255.846   3
  20   0  -1 586.747 340.573   1
 -20  20  -1 191.676 317.736   4
 -20  20  -1-298.998 366.018   2
 -20  20   2 2187.52 377.471   2
   0 -20   2 1975.40 243.152   3
 -20  20   2 2262.52 458.079   4
  20   0   2 1049.57 302.099   1
 -20  20   5-43.1706 278.660   2
 -20  20   5 323.035 349.003   4
 -20  20   8 1010.27 378.681   4
   0  21  -6 1259.20 427.328   2
 -21   0  -6 991.562 510.218   3
  21 -21  -6 1078.79 429.328   1
   0  21  -6 1667.71 410.912   4
  21 -21  -3 497.072 362.643   1
   0  21  -3 376.228 325.867   2
 -21   0  -3 101.798 385.881   3
   0  21  -3 70.3836 307.937   4
   0  21   0 13656.8 671.096   3
   0  21   0 15569.4 821.896   2
  21 -21   0 18786.8 837.654   1
 -21   0   0 16790.2 891.919   3
   0  21   0 17863.0 915.084   4
   0  21   3 178.210 353.967   4
   0  21   3 671.073 370.668   2
 -21   0   3 178.671 391.218   3
   0  21   6 5268.43 638.573   2
   0  21   6 6132.32 669.789   4
  -1  21  -7 944.362 399.437   2
   1  20  -7 1413.63 425.679   2
  21 -20  -7 1053.24 442.103   1
  20 -21  -7 1471.71 478.333   1
 -20  -1  -7 1421.41 539.536   3
 -21   1  -7 1265.35 515.847   3
  -1  21  -7 1174.47 550.352   1
   1  20  -7 920.129 568.190   1
  -1  21  -7 1942.72 411.827   4
   1  20  -7 1015.87 384.740   4
  -1  21  -4 1451.66 396.113   2
   1  20  -4 1094.77 373.687   2
 -20  -1  -4 553.188 398.693   3
 -21   1  -4 415.779 402.989   3
  21 -20  -4 1292.99 382.705   1
  -1  21  -4 1198.36 352.342   4
  20 -21  -4 760.206 370.817   1
   1  20  -4 826.965 328.337   4
  -1  21  -1 1406.20 309.570   3
   1  20  -1 1116.11 303.362   3
  -1  21  -1 1662.44 386.573   2
   1  20  -1 2065.35 405.650   2
  21 -20  -1 2258.99 407.888   1
 -20  -1  -1 1099.13 385.224   3
 -21   1  -1 1401.42 429.971   3
  20 -21  -1 2550.84 424.550   1
  -1  21  -1 1630.41 385.479   4
   1  20  -1 2187.34 415.338   4
  20 -21   2 1539.08 287.259   3
 -20  -1   2 1809.40 301.209   2
  21 -20   2 1434.10 317.091   3
 -21   1   2 1240.93 266.633   2
  -1  21   2 2174.17 440.045   2
   1  20   2 2154.29 417.055   2
 -20  -1   2 1868.16 448.129   3
 -21   1   2 1921.94 453.074   3
  20 -21   2 2625.79 403.042   1
  -1  21   2 2312.49 441.365   4
   1  20   2 2189.71 439.990   4
  21 -20   2 2234.67 395.390   1
  -1  21   5 1528.01 424.529   2
   1  20   5 1767.61 459.792   2
  -1  21   5 2703.08 514.028   4
   1  20   5 2962.79 511.118   4
  -1  21   8 2224.58 551.334   2
  -1  21   8 1424.98 455.605   4
   1  20   8 1654.37 464.081   4
  -2  21  -8 1247.02 470.962   2
   2  19  -8 2102.90 460.563   2
 -19  -2  -8 927.194 570.739   3
 -21   2  -8 2056.69 579.570   3
  19 -21  -8 1383.52 489.478   1
  -2  21  -8 754.884 553.149   1
   2  19  -8 977.214 590.947   1
  21 -19  -8 1778.83 523.636   1
  -2  21  -8 1299.45 386.610   4
  -2  21  -5 1515.89 399.989   2
  21 -19  -5 862.606 398.821   1
   2  19  -5 1270.64 355.443   2
 -19  -2  -5 1287.15 469.873   3
 -21   2  -5 1487.80 486.910   3
  19 -21  -5 1272.49 417.195   1
  -2  21  -5 1144.09 347.811   4
   2  19  -5 1598.06 364.281   4
  -2  21  -2 1445.80 226.434   3
  -2  21  -2 2052.97 405.363   2
   2  19  -2 1976.05 362.641   3
   2  19  -2 1814.33 362.829   2
 -19  -2  -2 1791.04 420.380   3
 -21   2  -2 2142.45 444.084   3
  21 -19  -2 2491.22 427.093   1
  19 -21  -2 2618.32 416.221   1
   2  19  -2 3123.60 435.727   4
  -2  21  -2 2384.36 421.051   4
  -2  21   1 1972.60 358.084   3
  21 -19   1 2482.97 394.385   1
  -2  21   1 1903.22 388.499   2
  19 -21   1 1730.77 280.121   3
   2  19   1 1865.91 392.426   2
 -19  -2   1 1677.63 403.302   3
 -21   2   1 2232.06 426.739   3
  -2  21   1 2584.08 437.611   4
   2  19   1 1984.15 388.122   4
  19 -21   1 2580.43 414.320   1
  -2  21   4-650.410 369.017   2
   2  19   4 69.6279 337.288   2
  -2  21   4 396.101 349.220   4
   2  19   4-142.269 344.013   4
 -21   2   4-92.3664 97.5689   2
  -2  21   7 858.698 468.752   2
   2  19   7 1219.02 487.778   2
 -21   2   7 584.547 308.249   4
  -2  21   7 1126.51 455.546   4
   2  19   7 1434.40 448.337   4
 -18  -3  -6 6715.42 719.833   3
 -21   3  -6 6471.71 727.135   3
  18 -21  -6 8973.64 701.998   1
   3  18  -6 9413.63 908.252   1
  -3  21  -6 7674.96 596.996   4
   3  18  -6 8471.03 602.848   4
  -3  21  -6 7985.28 684.617   2
   3  18  -6 7914.67 601.275   2
  21 -18  -6 7683.55 682.135   1
  -3  21  -3 132.956 82.3263   3
  -3  21  -3 221.111 311.016   2
   3  18  -3 338.002 307.390   2
  21 -18  -3 702.492 366.430   1
   3  18  -3 762.381 304.417   3
 -18  -3  -3 499.129 366.902   3
  18 -21  -3-304.359 330.491   1
 -21   3  -3 420.766 360.501   3
 -21   3  -3 409.722 290.336   1
  -3  21  -3 709.048 345.868   4
   3  18  -3 495.641 317.125   4
  -3  21   0 11228.9 691.644   2
   3  18   0 11992.6 709.334   2
  18 -21   0 11497.3 486.577   3
 -18  -3   0 11679.1 715.393   3
 -21   3   0 10841.2 696.741   3
  18 -21   0 13300.4 715.628   1
  21 -18   0 12589.1 675.353   1
  -3  21   0 13468.1 765.704   4
   3  18   0 12988.9 762.267   4
 -18  -3   3 251.155 223.325   2
  18 -21   3 79.5495 159.208   3
 -21   3   3 180.095 175.511   2
  -3  21   3 163.897 306.715   2
   3  18   3 237.879 324.485   2
 -18  -3   3 179.782 370.339   3
 -21   3   3 5.97472 374.231   3
  21 -18   3 295.087 282.861   1
  -3  21   3 614.364 383.411   4
   3  18   3 79.2574 312.425   4
  -3  21   6 6560.28 669.901   2
   3  18   6 6171.16 666.213   2
 -21   3   6 5999.19 514.162   4
  -3  21   6 7193.98 649.715   4
   3  18   6 6191.77 627.096   4
  -4  21  -7 1668.39 484.241   2
   4  17  -7 1350.11 372.675   2
 -17  -4  -7 1038.73 508.800   3
 -21   4  -7 554.884 450.286   3
  21 -17  -7 1439.70 468.170   1
  17 -21  -7 1913.12 463.873   1
  -4  21  -7 2494.36 453.361   4
   4  17  -7 2490.05 639.191   1
   4  17  -7 2062.20 383.793   4
  -4  21  -4 1385.02 383.398   2
   4  17  -4 1928.47 353.760   2
  17 -21  -4 1912.49 394.389   1
 -17  -4  -4 1656.75 462.146   3
 -21   4  -4 1744.06 467.463   3
  -4  21  -4 1869.47 386.219   4
 -21   4  -4 1050.20 273.567   1
  21 -17  -4 2223.35 451.933   1
   4  17  -4 1453.18 351.532   4
   4  17  -1 3705.82 444.514   2
  17 -21  -1 4062.15 465.662   1
 -17  -4  -1 2869.47 464.311   3
 -21   4  -1 3249.10 464.206   3
  17 -21  -1 3328.48 300.976   3
  21 -17  -1 3742.07 439.711   1
  -4  21  -1 4210.77 488.962   4
   4  17  -1 3042.31 437.887   4
  -4  21  -1 3603.69 462.885   2
 -17  -4   2 1096.09 290.100   2
  17 -21   2 1085.55 162.845   3
  -4  21   2 1748.51 395.037   2
 -21   4   2 1499.84 257.397   2
   4  17   2 1967.74 403.096   2
  21 -17   2 1624.86 325.775   1
 -17  -4   2 1380.20 408.881   3
 -21   4   2 1596.59 407.384   3
  -4  21   2 1489.98 383.248   4
   4  17   2 1588.74 392.864   4
  -4  21   5 3558.67 507.836   2
   4  17   5 2655.51 507.756   2
  -4  21   5 4101.05 536.918   4
   4  17   5 3776.87 516.364   4
  -4  21   8 77.6979 441.392   2
  -4  21   8 428.718 417.648   4
   4  17   8 513.117 387.912   4
  16 -21  -8 3154.39 655.267   3
   5  16  -8 1657.94 367.246   2
 -16  -5  -8 1647.62 586.815   3
 -21   5  -8 1976.51 557.042   3
  21 -16  -8 2191.31 527.393   1
  16 -21  -8 1685.65 478.815   1
  -5  21  -8 2099.99 426.167   4
   5  16  -8 2335.21 649.677   1
  -5  21  -8 2303.19 503.674   2
  -5  21  -5-467.145 382.107   2
   5  16  -5-115.804 272.347   2
  16 -21  -5 126.592 324.061   1
 -16  -5  -5 1192.72 458.441   3
 -21   5  -5 395.093 382.909   3
  21 -16  -5 765.348 393.895   1
   5  16  -5-630.499 489.235   1
  -5  21  -5 125.799 294.607   4
   5  16  -5-3.65924 291.045   4
   5  16  -2 4461.58 451.582   2
  16 -21  -2 5538.31 519.415   1
  21 -16  -2 4256.20 474.664   1
 -16  -5  -2 4967.48 542.986   3
 -21   5  -2 4518.67 513.484   3
  16 -21  -2 3977.25 354.222   3
  -5  21  -2 4756.31 482.589   4
   5  16  -2 4692.17 474.411   4
  -5  21  -2 4912.61 488.460   2
  -5  21   1 364.235 310.341   2
  16 -21   1-40.1611 148.539   3
   5  16   1 256.626 295.254   2
  21 -16   1-136.911 261.101   1
 -16  -5   1 313.597 323.346   3
 -21   5   1-513.228 265.394   2
 -21   5   1-111.749 334.130   3
  -5  21   1-25.0120 294.116   4
   5  16   1-53.2003 290.099   4
   5  16   4 2544.97 324.071   1
  -5  21   4 2992.08 436.830   2
   5  16   4 2239.35 456.843   2
  -5  21   4 2966.39 468.855   4
   5  16   4 2662.86 475.423   4
 -16  -5   4 1779.09 291.728   2
  -5  21   7 257.560 383.065   2
 -21   5   7 40.4435 249.756   4
  -5  21   7-220.946 376.617   4
   5  16   7 361.129 387.042   4
   6  15  -6 12246.4 656.757   2
 -15  -6  -6 13229.5 934.506   3
 -21   6  -6 13489.0 873.870   3
  15 -21  -6 14228.9 798.351   1
   6  15  -6 15321.7 1060.54   1
  -6  21  -6 14328.3 776.243   4
  21 -15  -6 12662.9 814.139   1
  -6  21  -6 14020.0 897.308   2
   6  15  -6 14127.1 719.384   4
  15 -21  -6 14426.7 930.948   3
   6  15  -3 3450.72 406.898   2
 -21   6  -3 2257.75 374.955   1
 -15  -6  -3 2785.43 489.815   3
 -21   6  -3 2705.57 464.588   3
   6  15  -3 4071.46 593.152   1
  -6  21  -3 3138.51 445.414   4
  -6  21  -3 2764.40 438.176   2
   6  15  -3 3495.85 436.531   4
  21 -15  -3 3006.10 464.101   1
  15 -21  -3 3343.32 426.694   1
  15 -21   0 2906.68 402.940   1
   6  15   0 2820.32 407.336   2
  15 -21   0 3122.09 245.593   3
  21 -15   0 2737.92 399.358   1
 -21   6   0 2943.89 408.886   3
 -15  -6   0 1994.90 394.087   3
  -6  21   0 3641.95 469.071   4
   6  15   0 3127.97 421.119   4
  -6  21   0 2922.21 425.632   2
  21 -15   3 1889.74 334.863   1
 -15  -6   3 1748.08 311.106   2
  -6  21   3 2280.89 422.381   2
 -21   6   3 2236.31 224.272   2
   6  15   3 3051.63 470.285   2
 -15  -6   3 2556.52 430.790   3
 -21   6   3 1626.58 244.604   2
  -6  21   3 2396.86 431.603   4
   6  15   3 2625.06 441.763   4
  -6  21   6 720.746 392.354   2
 -21   6   6 941.660 318.940   4
  -6  21   6 506.050 353.796   4
   6  15   6 584.510 373.319   4
  14 -21  -7 2295.26 557.057   3
   7  14  -7 2224.58 351.572   2
  14 -21  -7 2516.74 460.159   1
 -14  -7  -7 1857.60 536.982   3
 -21   7  -7 1510.93 485.475   3
  21 -14  -7 2053.48 486.167   1
  -7  21  -7 2554.50 448.486   4
   7  14  -7 3064.46 669.367   1
  -7  21  -7 2135.20 490.086   2
  -7  21  -4 1302.16 397.505   2
 -21   7  -4 1052.56 313.939   1
   7  14  -4 768.145 287.818   2
 -14  -7  -4 535.677 396.342   3
 -21   7  -4 1818.46 431.023   3
  21 -14  -4 793.149 389.996   1
  14 -21  -4 904.996 326.952   1
   7  14  -4 1836.47 545.765   1
  -7  21  -4 1696.64 387.269   4
   7  14  -4 1250.56 333.037   4
  21 -14  -1 2895.90 399.639   1
   7  14  -1 3338.77 406.742   2
  -7  21  -1 2647.29 424.138   2
 -21   7  -1 2828.96 418.189   3
  14 -21  -1 3354.65 271.916   3
 -14  -7  -1 2444.76 397.847   3
  -7  21  -1 3034.74 449.838   4
   7  14  -1 2642.37 408.975   4
  14 -21  -1 3096.44 406.012   1
  -7  21   2 4636.00 470.560   2
   7  14   2 4321.77 476.751   2
 -14  -7   2 3507.71 477.937   3
 -21   7   2 3859.68 458.882   3
 -21   7   2 3767.26 397.817   2
  -7  21   2 5298.90 531.791   4
  21 -14   2 4084.43 398.754   1
   7  14   2 4451.20 491.167   4
  -7  21   5 3181.72 466.296   2
   7  14   5 3032.10 520.952   2
 -21   7   5 2884.80 429.460   4
 -14  -7   5 1667.70 301.421   2
  -7  21   5 3314.49 489.740   4
   7  14   5 3633.71 321.159   1
   7  14   5 2699.31 500.605   4
  -7  21   8 4019.21 624.977   2
  -7  21   8 3887.26 526.917   4
   8  13  -8 2751.92 365.913   2
  13 -21  -8 4237.17 684.897   3
  21 -13  -8 3227.62 614.886   1
 -13  -8  -8 2771.01 616.221   3
  13 -21  -8 2719.00 477.182   1
 -21   8  -8 2608.13 579.348   3
  -8  21  -8 3447.56 489.918   4
  -8  21  -8 3875.21 619.653   2
   8  13  -8 3635.54 712.205   1
  13 -21  -5 1128.99 425.249   3
   8  13  -5 388.423 257.123   2
 -13  -8  -5-9.90262 393.581   3
  21 -13  -5 1136.06 430.613   1
 -21   8  -5 490.154 370.880   3
 -21   8  -5-24.9983 282.076   1
  13 -21  -5 851.275 342.556   1
  -8  21  -5 492.798 322.924   4
   8  13  -5 718.909 512.622   1
  -8  21  -5 720.347 375.946   2
   8  13  -5 699.519 317.785   4
   8  13  -2 14248.1 680.969   2
 -13  -8  -2 13408.3 758.155   3
 -21   8  -2 13552.0 723.030   3
   8  13  -2 14927.9 827.399   1
  13 -21  -2 15331.0 743.651   1
  -8  21  -2 17609.0 844.940   4
  -8  21  -2 15235.6 816.495   2
  21 -13  -2 14368.0 737.309   1
   8  13  -2 15161.9 742.031   4
  13 -21  -2 16147.3 671.291   3
   8  13   1 3605.08 437.832   2
  21 -13   1 4285.89 427.640   1
 -13  -8   1 4357.33 482.158   3
 -21   8   1 4993.37 489.478   3
 -21   8   1 4403.71 492.628   2
  -8  21   1 5005.73 511.664   4
   8  13   1 4057.36 474.540   4
  -8  21   1 4752.40 475.880   2
  -8  21   4 4561.82 492.218   2
   8  13   4 4433.16 545.047   2
 -21   8   4 3845.43 459.755   4
   8  13   4 4042.90 312.854   1
 -13  -8   4 3193.14 380.601   2
  -8  21   4 4599.02 528.605   4
   8  13   4 4418.94 545.203   4
  21 -13   4 3739.75 378.417   1
 -21   8   7 204.798 263.138   4
  -8  21   7 413.330 369.723   2
  -8  21   7 761.101 372.492   4
   9  12  -9 1558.52 636.225   1
  12 -21  -9 2363.33 679.323   3
  21 -12  -9 1621.70 570.187   1
 -12  -9  -9 1077.31 557.878   3
  -9  21  -9 2081.36 458.564   4
 -21   9  -9 1642.11 528.104   3
  12 -21  -9 1520.85 439.225   1
 -21   9  -9 1148.75 482.003   4
  -9  21  -9 764.426 507.513   2
  12 -21  -6 3070.83 585.299   3
   9  12  -6 2426.32 328.851   2
 -12  -9  -6 2084.32 515.639   3
 -21   9  -6 2345.37 491.548   3
  21 -12  -6 3087.07 552.708   1
  -9  21  -6 2788.83 460.647   4
  -9  21  -6 3541.34 545.238   2
  12 -21  -6 3243.82 437.563   1
   9  12  -6 2999.79 648.031   1
   9  12  -3 3972.10 386.931   2
 -12  -9  -3 4397.05 535.693   3
 -21   9  -3 3970.10 480.318   3
  12 -21  -3 4352.63 468.412   1
   9  12  -3 4455.03 581.665   1
  21 -12  -3 3198.21 457.155   1
  -9  21  -3 4480.01 496.429   4
  -9  21  -3 4155.02 517.979   2
   9  12  -3 4389.13 446.284   4
  12 -21  -3 4501.42 465.338   3
  12 -21   0 3259.84 211.979   3
  21 -12   0 3683.92 432.887   1
   9  12   0 3556.93 418.147   2
 -12  -9   0 3247.14 428.489   3
  12 -21   0 4055.99 199.277   3
 -21   9   0 3708.92 436.206   3
 -21   9   0 3633.00 495.041   2
   9  12   0 4347.88 471.212   1
  -9  21   0 3766.97 464.710   4
  -9  21   0 4116.20 476.345   2
   9  12   0 3596.39 441.932   4
  21 -12   3 4296.05 386.817   1
  -9  21   3 4708.95 485.575   2
   9  12   3 4786.47 529.497   2
 -12  -9   3 5274.26 503.539   3
 -21   9   3 4484.97 502.924   4
   9  12   3 5182.35 409.040   1
 -21   9   3 3949.96 314.402   2
  -9  21   3 4763.26 503.625   4
   9  12   3 4282.52 495.324   4
  -9  21   6 1656.50 422.603   2
 -21   9   6 1803.83 341.965   4
  -9  21   6 1678.46 388.753   4
  -9  21   9 1887.57 543.156   2
  -9  21   9 1801.97 418.934   4
  10  11  -7 3202.01 668.219   1
  11 -21  -7 3224.63 599.014   3
  21 -11  -7 3430.15 585.560   1
  10  11  -7 2925.85 321.362   2
 -11 -10  -7 2971.53 582.392   3
 -21  10  -7 2662.22 509.064   3
 -10  21  -7 3764.38 479.140   4
  11 -21  -7 2661.54 439.525   1
 -10  21  -7 3162.95 559.566   2
  11 -21  -4 6085.79 566.282   3
  10  11  -4 6080.39 437.780   2
 -11 -10  -4 6035.66 613.807   3
 -21  10  -4 6079.15 579.396   3
  11 -21  -4 6481.64 514.265   1
  21 -11  -4 5306.69 588.715   1
  10  11  -4 6089.96 653.490   1
 -10  21  -4 6364.55 549.545   4
 -10  21  -4 6303.58 614.418   2
  11 -21  -1 4374.77 328.070   3
  10  11  -1 3279.73 391.989   2
 -11 -10  -1 3544.33 455.246   3
 -21  10  -1 2598.87 387.886   3
 -21  10  -1 3473.17 523.841   2
  10  11  -1 4080.09 489.772   1
 -10  21  -1 4791.72 512.892   4
  21 -11  -1 3595.24 432.295   1
 -10  21  -1 3693.91 455.548   2
  10  11  -1 3742.65 439.428   4
 -10  21   2 11066.8 665.348   2
  10  11   2 11784.9 727.353   2
 -11 -10   2 11708.5 668.546   3
  21 -11   2 11137.1 561.718   1
 -21  10   2 11347.9 725.209   4
  10  11   2 12592.2 587.210   1
 -21  10   2 11547.5 575.843   2
 -10  21   2 12116.1 734.782   4
  10  11   2 11720.5 725.757   4
 -10  21   5 1154.23 363.328   2
 -21  10   5 1484.45 342.736   4
  10  11   5 1315.33 158.355   1
  10  11   5 1187.67 146.720   1
 -10  21   5 1920.28 412.933   4
 -10  21   8 5300.70 603.313   2
 -10  21   8 6912.75 620.225   4
 -21  10   8 5617.85 440.087   4
  10 -21  -8 7330.75 818.237   3
 -10 -11  -8 6511.32 786.213   3
 -21  11  -8 5909.40 675.031   3
  21 -10  -8 6073.66 724.152   1
 -21  11  -8 4314.43 594.715   4
 -11  21  -8 5996.90 649.857   4
 -11  21  -8 6619.83 735.986   2
  11  10  -8 7354.75 849.028   1
  10 -21  -8 6415.79 571.187   1
  21 -10  -5 1160.49 433.106   1
  10 -21  -5 2206.07 488.080   3
 -10 -11  -5 1555.00 472.132   3
  11  10  -5 1209.32 253.666   2
 -21  11  -5 784.733 376.818   3
  10 -21  -5 806.409 326.953   1
 -11  21  -5 1185.48 367.522   4
 -11  21  -5 1261.93 475.407   2
  11  10  -5 1636.60 500.771   1
  10 -21  -2 12420.8 571.805   3
 -10 -11  -2 9369.75 644.383   3
  11  10  -2 11291.4 603.665   2
 -21  11  -2 10832.7 635.879   3
 -21  11  -2 12233.0 857.363   2
  21 -10  -2 11821.0 692.639   1
 -11  21  -2 12138.1 722.295   4
  11  10  -2 12129.8 745.896   1
 -11  21  -2 11477.9 728.010   2
  21 -10   1 3960.28 396.520   1
 -10 -11   1 2893.46 406.143   3
  11  10   1 4191.57 474.427   2
 -21  11   1 3735.73 439.933   3
 -21  11   1 3772.25 482.759   4
 -21  11   1 3846.34 426.505   2
  11  10   1 4370.01 429.651   1
 -11  21   1 4339.57 494.047   4
 -11  21   1 3913.80 446.759   2
  11  10   1 4016.17 470.777   4
 -11  21   4 5200.08 511.562   2
  11  10   4 5295.56 326.660   1
  21 -10   4 5200.16 386.768   1
 -21  11   4 5126.40 498.212   4
 -11  21   4 6373.81 581.216   4
  11  10   4 4714.76 268.065   1
 -21  11   4 4952.96 276.062   2
 -11  21   7 2884.53 483.504   2
 -21  11   7 2936.39 381.753   4
 -11  21   7 3887.59 499.463   4
   9 -21  -9 2590.21 466.200   1
   9 -21  -9 3839.43 757.199   3
  12   9  -9 3067.38 730.795   1
  -9 -12  -9 3225.75 711.521   3
 -21  12  -9 2705.02 586.317   3
 -21  12  -9 1843.50 474.332   4
 -21  12  -9 2218.22 733.429   2
 -12  21  -9 3706.76 560.022   4
 -12  21  -9 3402.05 645.903   2
  21  -9  -9 2446.44 632.902   1
  12   9  -6 2738.51 594.798   1
   9 -21  -6 2433.88 546.480   3
  -9 -12  -6 1025.37 475.618   3
 -21  12  -6 1587.99 431.381   3
  12   9  -6 1561.08 248.264   2
 -21  12  -6 1423.17 416.702   4
 -21  12  -6 1695.93 596.785   2
   9 -21  -6 1322.38 358.824   1
 -12  21  -6 1803.81 394.625   4
 -12  21  -6 2385.14 543.337   2
  21  -9  -6 2123.65 516.331   1
   9 -21  -3 5291.46 468.513   3
  -9 -12  -3 3950.02 497.020   3
  12   9  -3 4853.49 409.680   2
 -21  12  -3 5451.52 486.997   3
  21  -9  -3 5436.89 543.805   1
 -21  12  -3 3951.90 530.190   4
 -21  12  -3 4650.33 646.606   2
  12   9  -3 5506.68 579.683   1
 -12  21  -3 5493.39 535.405   4
 -12  21  -3 5044.53 551.959   2
   9 -21   0 3760.28 203.475   3
  -9 -12   0 4200.03 452.897   3
  12   9   0 4147.89 441.444   2
 -21  12   0 4185.87 443.162   3
 -21  12   0 4057.49 526.352   4
 -21  12   0 4240.34 497.705   2
  12   9   0 4974.55 484.618   1
 -12  21   0 4795.73 507.664   4
  21  -9   0 4353.67 446.264   1
 -12  21   0 4730.14 504.326   2
 -12  21   3 3774.06 451.210   2
  -9 -12   3 4058.18 450.757   3
 -21  12   3 3941.84 468.770   4
  21  -9   3 4615.48 370.290   1
  12   9   3 4971.46 367.459   1
 -12  21   3 4499.90 509.867   4
 -21  12   3 4026.73 341.593   2
 -12  21   6 2619.27 449.590   2
 -21  12   6 2778.41 402.100   4
 -12  21   6 2957.17 458.031   4
 -12  21   9 776.174 406.702   2
 -12  21   9 1668.02 397.045   4
   8 -21  -7 1723.65 535.140   3
  13   8  -7 1307.89 497.027   1
  -8 -13  -7-718.137 527.096   3
 -21  13  -7 674.893 415.407   3
 -21  13  -7 943.118 439.391   4
 -21  13  -7 453.846 498.383   2
 -13  21  -7 649.699 388.178   4
   8 -21  -7-74.2803 323.217   1
 -13  21  -7-216.101 434.302   2
  21  -8  -7 647.383 484.997   1
   8 -21  -4 4616.34 504.821   3
  -8 -13  -4 4628.09 556.848   3
  13   8  -4 3580.03 341.594   2
 -21  13  -4 4209.33 476.040   3
  21  -8  -4 5319.37 576.039   1
 -21  13  -4 4686.58 580.308   4
 -21  13  -4 4509.96 673.165   2
 -13  21  -4 5009.98 537.100   4
 -13  21  -4 4688.57 566.119   2
  13   8  -4 4835.39 592.404   1
   8 -21  -1 4912.88 333.954   3
  -8 -13  -1 4453.41 440.410   3
  13   8  -1 4078.90 413.821   2
 -21  13  -1 5537.61 463.890   3
 -21  13  -1 3204.45 476.434   4
 -21  13  -1 4379.45 550.237   2
  21  -8  -1 3827.76 453.346   1
 -13  21  -1 4571.07 500.351   4
  13   8  -1 4323.07 485.908   1
 -13  21  -1 4983.27 545.076   2
  21  -8   2 13311.6 584.530   1
  -8 -13   2 12524.3 636.706   3
 -21  13   2 13019.1 751.545   4
 -21  13   2 13165.0 641.784   2
 -13  21   2 14743.3 802.567   4
  13   8   2 14117.2 584.713   1
 -13  21   2 13529.5 717.439   2
 -21  13   5 321.004 136.148   2
 -13  21   5 676.665 331.713   2
 -21  13   5 1190.82 344.521   4
 -13  21   5 819.209 337.508   4
 -13  21   8 3065.75 490.336   2
 -21  13   8 3388.68 392.654   4
 -13  21   8 2865.36 458.999   4
   7 -21  -8 4323.48 749.652   3
  -7 -14  -8 4669.07 721.924   3
  14   7  -8 3991.38 688.559   1
 -21  14  -8 3862.57 563.560   3
 -21  14  -8 3448.69 551.893   4
   7 -21  -8 3919.75 469.555   1
 -21  14  -8 4177.61 813.059   2
 -14  21  -8 5263.06 660.468   4
 -14  21  -8 4178.08 653.209   2
  21  -7  -8 3906.39 632.031   1
   7 -21  -5 3717.03 518.049   3
  14   7  -5 3241.95 555.630   1
  -7 -14  -5 3616.63 555.730   3
  14   7  -5 2435.66 284.477   2
  21  -7  -5 3453.41 551.813   1
 -21  14  -5 2694.19 429.487   3
 -21  14  -5 2483.95 477.696   4
 -21  14  -5 2207.41 598.392   2
 -14  21  -5 3143.03 471.098   4
 -14  21  -5 3544.85 584.146   2
   7 -21  -2 5264.92 419.761   3
  -7 -14  -2 4131.12 483.278   3
 -21  14  -2 4343.11 428.653   3
  14   7  -2 3523.02 372.354   2
  21  -7  -2 4224.42 501.151   1
 -21  14  -2 4249.70 519.568   4
 -21  14  -2 3825.63 583.326   2
 -14  21  -2 4361.41 519.296   4
  14   7  -2 4282.12 505.377   1
 -14  21  -2 4194.69 519.134   2
  -7 -14   1 2924.83 381.225   3
 -21  14   1 2651.29 447.792   4
 -14  21   1 2863.75 437.231   4
  14   7   1 3093.06 391.775   1
 -21  14   1 2759.17 383.445   2
  21  -7   1 3303.35 380.687   1
 -14  21   1 2761.63 422.016   2
 -21  14   4 222.666 202.627   2
 -14  21   4 469.872 314.931   2
  14   7   4 600.929 162.778   1
  21  -7   4 329.798 208.056   1
 -21  14   4 518.907 327.305   4
 -14  21   4 1101.77 357.327   4
 -14  21   7 1596.34 384.822   2
 -21  14   7 1882.22 360.843   4
 -14  21   7 2382.95 413.774   4
   6 -21  -6 1138.00 456.736   3
  15   6  -6 1173.55 518.567   1
  -6 -15  -6 1567.48 502.288   3
 -21  15  -6 1228.79 419.278   3
 -21  15  -6 955.556 387.875   4
 -21  15  -6 581.083 507.082   2
 -15  21  -6 1014.93 396.265   4
  21  -6  -6 1553.92 471.647   1
 -15  21  -6 1035.59 449.174   2
   6 -21  -3 3045.28 398.737   3
  15   6  -3 2113.67 459.934   1
  -6 -15  -3 2090.35 418.989   3
  21  -6  -3 3236.56 495.716   1
 -21  15  -3 2997.87 386.098   3
 -21  15  -3 2450.78 461.650   4
 -15  21  -3 3492.29 489.336   4
 -21  15  -3 2694.26 542.877   2
 -15  21  -3 2364.82 479.118   2
  15   6   0 2525.64 389.950   1
   6 -21   0 2945.05 228.104   3
  -6 -15   0 2286.60 351.276   3
 -21  15   0 2939.69 406.788   3
  21  -6   0 3890.00 429.323   1
 -21  15   0 3327.55 488.226   4
 -21  15   0 3025.48 476.751   2
 -15  21   0 2981.75 447.884   4
 -15  21   0 2385.16 408.018   2
  15   6   3 3348.29 314.619   1
  21  -6   3 3184.47 325.370   1
  -6 -15   3 2780.32 374.487   3
 -21  15   3 3221.28 467.214   4
 -15  21   3 3221.20 451.491   4
 -21  15   3 2601.63 334.856   2
 -15  21   3 3333.15 418.380   2
 -15  21   6 12790.4 726.865   2
 -21  15   6 12718.6 709.743   4
   5 -21  -7 484.197 460.866   3
  -5 -16  -7-20.9754 462.411   3
  16   5  -7 172.157 520.305   1
 -21  16  -7 307.844 385.859   3
 -21  16  -7 138.981 369.366   4
 -21  16  -7 432.151 523.496   2
  21  -5  -7 427.258 497.284   1
 -16  21  -7-78.3157 382.790   4
 -16  21  -7 944.985 512.380   2
   5 -21  -4 3255.56 457.455   3
  -5 -16  -4 2131.26 452.506   3
  21  -5  -4 2842.69 525.612   1
 -21  16  -4 2431.68 374.354   3
 -21  16  -4 3157.63 492.316   4
 -16  21  -4 3006.73 489.192   4
 -21  16  -4 2468.34 568.150   2
 -16  21  -4 2778.87 504.783   2
  16   5  -4 3227.41 542.482   1
  16   5  -1 51.8497 325.901   1
   5 -21  -1 185.071 213.967   3
  -5 -16  -1 228.916 291.961   3
 -21  16  -1 89.4157 261.752   3
 -21  16  -1-203.761 316.472   4
 -16  21  -1 496.681 333.664   4
 -21  16  -1 259.828 356.203   2
  21  -5  -1 71.9958 328.552   1
 -16  21  -1 526.060 366.934   2
  -5 -16   2 4390.76 397.357   3
 -21  16   2 6556.02 571.407   4
 -16  21   2 5418.71 559.953   4
 -21  16   2 4445.07 451.097   2
  21  -5   2 5228.79 397.179   1
 -16  21   2 4910.43 486.613   2
  16   5   2 5702.52 422.187   1
 -21  16   5 45.8034 213.181   2
 -16  21   5 27.8646 294.343   2
 -21  16   5-208.920 341.276   4
 -16  21   5 128.116 320.597   4
 -16  21   8 2073.79 444.785   2
 -21  16   8 2198.10 400.748   4
 -16  21   8 1743.48 418.204   4
   4 -21  -8 1600.09 600.879   3
  -4 -17  -8 839.439 561.097   3
  17   4  -8 1257.60 574.058   1
 -21  17  -8 1100.85 437.191   3
  21  -4  -8 558.277 526.102   1
 -21  17  -8 1188.38 579.059   2
 -17  21  -8 943.276 445.081   4
 -21  17  -8 608.695 424.163   4
 -17  21  -8 662.371 540.222   2
   4 -21  -5 4636.69 563.326   3
  -4 -17  -5 3608.92 546.074   3
 -21  17  -5 3434.30 444.159   3
 -17  21  -5 2793.69 187.597   3
 -21  17  -5 3807.91 672.656   2
 -21  17  -5 3706.66 514.121   4
 -17  21  -5 4826.97 574.154   4
  21  -4  -5 3170.09 564.346   1
 -17  21  -5 3883.68 623.947   2
  17   4  -5 4542.78 620.266   1
   4 -21  -2 1760.68 327.548   3
  17   4  -2 2461.06 451.775   1
  -4 -17  -2 1887.67 386.335   3
 -21  17  -2 1660.72 308.384   3
 -21  17  -2 1696.55 405.009   4
 -17  21  -2 1632.73 430.659   4
 -21  17  -2 2412.67 524.490   2
  21  -4  -2 1390.17 412.054   1
 -17  21  -2 1492.42 456.370   2
  -4 -17   1 3224.88 363.626   3
   4 -21   1 3385.55 203.987   3
  21  -4   1 3828.73 422.583   1
 -21  17   1 4022.15 513.110   4
 -17  21   1 4705.39 553.434   4
 -21  17   1 4149.37 493.169   2
 -17  21   1 4227.62 479.675   2
  17   4   1 4040.13 428.638   1
 -21  17   4 1131.02 280.654   2
  21  -4   4 970.477 224.280   1
 -17  21   4 1106.41 326.723   2
  17   4   4 575.791 154.091   1
 -21  17   4 1602.15 408.740   4
 -17  21   4 1125.97 357.212   4
 -17  21   7 1358.96 374.147   2
 -21  17   7 1103.45 356.829   4
 -17  21   7 1270.06 388.852   4
   3 -21  -6 6073.40 680.267   3
  -3 -18  -6 6963.66 712.602   3
  21  -3  -6 7417.57 742.528   1
 -21  18  -6 6938.62 558.066   3
 -18  21  -6 6546.24 359.188   3
 -21  18  -6 6783.52 670.148   4
 -21  18  -6 6570.99 823.052   2
 -18  21  -6 7644.65 683.233   4
 -18  21  -6 6217.33 766.475   2
  18   3  -6 6961.00 761.110   1
   3 -21  -3-488.044 328.366   3
  -3 -18  -3-5.35194 332.722   3
  18   3  -3 618.351 416.106   1
 -21  18  -3 102.742 252.574   3
 -21  18  -3 54.6947 335.061   4
 -18  21  -3 240.157 325.499   4
 -21  18  -3 573.848 448.280   2
 -18  21  -3 381.267 391.363   2
  21  -3  -3 587.448 403.300   1
  18   3   0 13171.6 695.582   1
   3 -21   0 10983.9 456.228   3
  -3 -18   0 10598.8 557.084   3
  21  -3   0 12562.7 664.336   1
 -21  18   0 12365.2 783.638   4
 -18  21   0 11922.2 782.339   4
 -21  18   0 11358.0 749.704   2
 -18  21   0 12363.5 776.609   2
 -21  18   3 151.831 260.738   2
 -18  21   3 154.595 294.264   2
 -21  18   3 238.892 317.356   4
 -18  21   3 881.787 402.112   4
  21  -3   3 324.473 238.780   1
  18   3   3-56.5731 227.538   1
 -21  18   6 7760.15 487.098   2
 -18  21   6 7372.69 594.916   2
 -21  18   6 8959.89 673.809   4
 -18  21   6 8527.54 667.508   4
 -21  19  -7 745.378 442.581   4
   2 -21  -7 12.9493 459.222   3
  -2 -19  -7 1516.05 550.375   3
 -21  19  -7 1240.54 393.215   3
  19   2  -7 989.817 519.354   1
  21  -2  -7 684.866 522.160   1
 -19  21  -7 1255.19 443.922   4
 -21  19  -7 604.986 544.115   2
 -19  21  -7 1744.48 619.524   2
   2 -21  -4-41.9232 361.661   3
  -2 -19  -4 470.096 357.182   3
  19   2  -4-174.104 406.618   1
 -21  19  -4 123.468 253.443   3
 -19  21  -4 304.516 186.835   3
  21  -2  -4 74.7091 396.427   1
 -21  19  -4 327.958 347.827   4
 -19  21  -4-199.975 324.330   4
 -21  19  -4 125.776 445.059   2
 -19  21  -4 377.111 439.085   2
  21  -2  -1 1765.01 397.526   1
   2 -21  -1 2191.61 325.279   3
  -2 -19  -1 1742.54 332.453   3
  19   2  -1 2508.67 430.261   1
 -21  19  -1 1696.02 427.460   4
 -19  21  -1 1931.54 437.805   4
 -21  19  -1 1341.19 431.951   2
 -19  21  -1 1135.60 416.804   2
  21  -2   2 2170.20 337.743   1
  -2 -19   2 2306.94 300.771   3
 -19  21   2 3100.34 491.483   4
 -21  19   2 2037.77 426.416   4
  19   2   2 2114.88 332.072   1
 -21  19   2 2549.13 400.424   2
 -19  21   2 2915.11 436.268   2
 -21  19   5 727.304 289.637   2
 -19  21   5 508.362 288.906   2
 -21  19   5 775.957 382.699   4
 -19  21   5 740.271 378.953   4
 -19  21   8 755.935 344.146   2
 -21  19   8 1687.63 413.765   4
 -19  21   8 2018.26 433.638   4
   1 -21  -8 1539.51 586.513   3
  -1 -20  -8 1284.72 593.694   3
  20   1  -8 567.852 522.149   1
  21  -1  -8 1333.54 572.678   1
 -21  20  -8 1959.10 527.456   4
 -20  21  -8 800.759 478.878   4
 -21  20  -8 1450.15 699.858   2
 -20  21  -8 1540.97 630.951   2
   1 -21  -5 2504.92 485.281   3
  -1 -20  -5 1823.43 466.578   3
 -21  20  -5 2871.51 351.062   3
 -20  21  -5 2148.60 291.461   3
  20   1  -5 1856.70 513.891   1
  21  -1  -5 1888.78 518.564   1
 -21  20  -5 1992.47 459.327   4
 -20  21  -5 2556.73 499.613   4
 -21  20  -5 2492.88 653.282   2
 -20  21  -5 3055.23 637.182   2
  20   1  -2 3782.57 521.125   1
   1 -21  -2 2533.46 377.826   3
  -1 -20  -2 2050.06 389.671   3
  21  -1  -2 2199.65 446.382   1
 -21  20  -2 2183.08 448.293   4
 -20  21  -2 2118.38 443.623   4
 -21  20  -2 2464.80 536.527   2
 -20  21  -2 2960.54 517.613   2
   1 -21   1 1544.99 242.296   3
  -1 -20   1 1692.55 284.945   3
 -20  21   1 2187.99 448.943   4
  20   1   1 1984.02 376.435   1
 -21  20   1 1337.34 404.322   4
  21  -1   1 1741.43 347.847   1
 -21  20   1 2030.10 410.263   2
 -20  21   1 1983.17 413.973   2
 -21  20   4 493.641 298.079   2
 -20  21   4 1131.07 347.870   2
  21  -1   4 79.9594 180.181   1
 -21  20   4 697.323 376.580   4
 -20  21   4 1117.07 408.676   4
  20   1   4 502.772 177.364   1
 -20  21   7 1522.36 363.174   2
 -21  20   7 1281.58 321.131   2
 -21  20   7 1582.75 405.978   4
 -20  21   7 1359.71 425.184   4
  21   0  -6 5652.20 752.113   1
   0 -21  -6 6104.98 702.666   3
 -21  21  -6 5210.06 432.641   3
 -21  21  -6 5633.06 657.106   4
 -21  21  -6 7672.10 914.750   2
   0 -21  -3-216.381 337.307   3
  21   0  -3 39.0544 399.338   1
 -21  21  -3 221.021 339.790   4
 -21  21  -3-491.642 464.009   2
  21   0   0 16912.5 793.644   1
   0 -21   0 16633.4 628.481   3
 -21  21   0 17733.6 969.785   4
 -21  21   0 18913.0 973.980   2
 -21  21   3-215.513 303.233   2
  21   0   3 309.266 243.575   1
 -21  21   3 16.9106 341.756   4
 -21  21   6 621.792 340.290   2
 -21  21   6 830.828 400.552   4
   0  22  -7-387.173 366.427   2
 -22   0  -7 1269.59 571.942   3
  22 -22  -7 16.3071 409.463   1
   0  22  -7 222.030 558.619   1
   0  22  -7-189.440 345.765   4
   0  22  -4 725.285 366.829   2
 -22   0  -4 1285.47 480.146   3
   0  22  -4 861.601 363.464   4
  22 -22  -4 726.272 417.594   1
   0  22  -1 256.231 339.189   2
 -22   0  -1 615.326 381.531   3
  22 -22  -1 544.752 362.265   1
   0  22  -1-135.916 328.028   4
  22 -22   2 4047.18 482.726   1
   0  22   2 3782.86 529.697   2
 -22   0   2 3306.42 527.723   3
   0  22   2 2808.00 483.698   4
   0  22   5 37.3870 375.402   2
   0  22   5 786.816 443.539   4
  -1  22  -5 1675.26 413.313   2
   1  21  -5 1656.86 408.539   2
 -21  -1  -5 1350.86 502.569   3
 -22   1  -5 1477.49 480.864   3
  22 -21  -5 1833.35 460.308   1
  21 -22  -5 2398.33 466.015   1
  -1  22  -5 1879.46 413.690   4
   1  21  -5 1922.63 412.360   4
  -1  22  -2-131.173 326.291   2
   1  21  -2 238.459 334.156   2
  22 -21  -2 194.748 341.292   1
 -21  -1  -2 630.042 393.038   3
 -22   1  -2-472.459 380.472   3
  21 -22  -2 353.343 357.570   1
  -1  22  -2 454.652 334.323   4
   1  21  -2 1033.68 373.474   4
  -1  22   1 3775.35 506.352   2
   1  21   1 3682.21 500.951   2
  21 -22   1 2705.77 345.811   3
 -21  -1   1 3520.41 524.035   3
 -22   1   1 2968.18 509.079   3
  22 -21   1 4069.48 477.826   1
  21 -22   1 3804.30 473.377   1
  -1  22   1 4180.73 527.090   4
   1  21   1 4796.91 574.012   4
  -1  22   4 532.190 391.579   2
   1  21   4 931.288 390.891   2
  -1  22   4 328.700 359.812   4
   1  21   4 1065.17 430.973   4
  -1  22   7 1879.42 516.617   2
   1  21   7 1497.07 506.855   2
 -22   1   7 1600.92 367.827   4
  -1  22   7 1877.05 513.012   4
   1  21   7 2578.63 536.512   4
  -2  22  -6 500.135 379.954   2
  22 -20  -6 707.946 442.702   1
   2  20  -6 1175.31 379.012   2
 -20  -2  -6 1043.36 527.126   3
 -22   2  -6 1121.73 473.881   3
  20 -22  -6 619.734 410.698   1
   2  20  -6 1019.43 566.662   1
  -2  22  -6 1179.12 384.935   4
   2  20  -6 494.972 332.260   4
   2  20  -3 5231.70 541.594   2
 -20  -2  -3 4428.26 582.191   3
 -22   2  -3 3588.76 543.765   3
  22 -20  -3 3927.28 523.537   1
  20 -22  -3 4562.07 541.249   1
  -2  22  -3 5997.05 582.050   4
   2  20  -3 4669.93 509.568   4
  -2  22  -3 5092.75 539.746   2
  -2  22   0 1667.28 317.483   3
  -2  22   0 2171.17 405.140   2
   2  20   0 1752.45 413.816   2
  20 -22   0 965.225 256.185   3
  20 -22   0 3406.52 467.933   1
 -20  -2   0 1875.30 423.777   3
 -22   2   0 2061.21 426.947   3
  22 -20   0 1632.59 370.768   1
  -2  22   0 2693.30 453.522   4
   2  20   0 2357.10 452.941   4
  -2  22   3 6051.09 606.806   2
   2  20   3 5547.85 607.120   2
 -20  -2   3 6138.44 653.399   3
 -22   2   3 5214.51 636.416   3
  -2  22   3 5464.79 581.840   4
   2  20   3 5915.26 598.548   4
  -2  22   6 3459.18 572.997   2
   2  20   6 3339.73 585.911   2
  -2  22   6 3600.40 562.973   4
   2  20   6 2909.29 527.654   4
  19 -22  -7 705.302 442.774   1
  -3  22  -7 475.552 373.889   2
   3  19  -7 857.323 363.285   2
 -19  -3  -7 704.904 495.707   3
 -22   3  -7 742.989 477.773   3
   3  19  -7 1203.32 631.761   1
  -3  22  -7 717.134 330.420   4
  22 -19  -7 575.006 433.676   1
   3  19  -7 556.766 347.746   4
  -3  22  -4 2384.87 449.475   2
   3  19  -4 2261.75 413.706   2
  22 -19  -4 2017.04 450.400   1
 -19  -3  -4 617.231 395.215   3
 -22   3  -4 2468.88 509.059   3
   3  19  -4 2687.67 433.991   4
  -3  22  -4 2231.96 434.282   4
  19 -22  -4 2827.64 473.627   1
   3  19  -1 2345.05 422.879   2
  -3  22  -1 1953.40 422.364   2
  22 -19  -1 1840.75 395.563   1
  19 -22  -1 1564.33 382.070   1
  19 -22  -1 1155.31 258.604   3
 -19  -3  -1 1551.91 424.948   3
 -22   3  -1 1380.61 388.854   3
  -3  22  -1 1556.14 402.879   4
   3  19  -1 1790.19 378.326   4
  22 -19   2 2121.96 359.248   1
  19 -22   2 1701.49 233.666   3
  -3  22   2 2156.56 424.233   2
 -22   3   2 1776.10 289.987   2
   3  19   2 2287.63 415.496   2
 -19  -3   2 2134.63 476.536   3
 -22   3   2 1003.37 409.508   3
  -3  22   2 2379.48 447.656   4
   3  19   2 1991.38 435.644   4
  -3  22   5 510.402 395.174   2
   3  19   5 353.887 389.682   2
  -3  22   5 782.504 407.466   4
   3  19   5 834.146 408.172   4
  -3  22   8 1317.09 513.156   2
  -3  22   8 2286.01 518.252   4
   3  19   8 1197.98 476.188   4
  -4  22  -8 1026.62 446.089   2
  18 -22  -8 1012.94 595.241   3
   4  18  -8 745.114 371.284   2
 -18  -4  -8 344.210 494.820   3
 -22   4  -8 526.724 539.039   3
  18 -22  -8 330.256 414.150   1
  22 -18  -8 264.529 439.372   1
   4  18  -8 2197.73 705.920   1
  -4  22  -8 1617.90 435.620   4
   4  18  -5 3527.76 439.980   2
  18 -22  -5 2875.99 483.994   1
 -18  -4  -5 2132.67 527.524   3
 -22   4  -5 1844.15 492.536   3
   4  18  -5 4815.02 731.775   1
  -4  22  -5 3819.81 493.801   4
   4  18  -5 3631.28 474.343   4
  -4  22  -5 3779.16 525.228   2
  22 -18  -5 2881.72 490.639   1
  18 -22  -2 543.426 328.378   1
  -4  22  -2 801.492 343.829   2
   4  18  -2 276.381 310.901   2
 -18  -4  -2 914.810 418.611   3
 -22   4  -2 325.083 363.503   3
  22 -18  -2 477.241 345.461   1
  -4  22  -2 1360.50 386.020   4
   4  18  -2 712.010 312.327   4
  18 -22   1 1676.89 249.773   3
  -4  22   1 1488.41 365.464   2
  18 -22   1 1991.65 373.025   1
   4  18   1 1662.87 388.093   2
 -18  -4   1 1424.37 395.268   3
 -22   4   1 1417.10 413.224   3
  22 -18   1 1838.98 371.008   1
  -4  22   1 2553.03 440.697   4
   4  18   1 1778.71 425.282   4
 -22   4   4 59.0969 57.4910   2
  -4  22   4-613.625 398.429   2
   4  18   4-296.172 380.104   2
  -4  22   4 59.1493 332.240   4
   4  18   4-263.722 375.521   4
  -4  22   7 199.054 398.519   2
 -22   4   7 397.440 289.993   4
  -4  22   7 1011.79 416.072   4
   4  18   7 556.955 430.238   4
  -5  22  -6 1524.54 459.937   2
   5  17  -6 1232.21 336.743   2
  17 -22  -6 1330.57 417.894   1
 -17  -5  -6 697.723 450.124   3
 -22   5  -6 1305.98 476.313   3
  22 -17  -6 1264.98 467.982   1
   5  17  -6 1780.32 619.764   1
  -5  22  -6 1541.62 398.575   4
   5  17  -6 1025.07 366.516   4
   5  17  -3 4418.81 469.123   2
  22 -17  -3 3795.34 490.744   1
 -22   5  -3 4735.14 548.099   3
 -17  -5  -3 3084.40 514.653   3
 -22   5  -3 3649.16 427.888   1
  -5  22  -3 4502.66 512.491   4
   5  17  -3 4631.33 501.903   4
  -5  22  -3 3810.18 493.113   2
  17 -22  -3 4606.61 495.243   1
  17 -22   0 1063.37 344.510   1
  22 -17   0 1148.66 351.158   1
  -5  22   0 624.591 348.284   2
   5  17   0 484.024 319.527   2
  17 -22   0 936.884 229.422   3
 -17  -5   0 1073.64 396.268   3
 -22   5   0 662.140 359.221   3
  -5  22   0 1205.02 379.823   4
   5  17   0 491.322 343.600   4
  -5  22   3 3869.12 493.582   2
 -22   5   3 2841.73 247.222   2
   5  17   3 3897.48 499.174   2
 -17  -5   3 3546.39 532.464   3
 -22   5   3 2184.00 291.631   2
  -5  22   3 5019.36 572.597   4
  22 -17   3 4074.57 442.033   1
 -17  -5   3 2769.62 347.254   2
   5  17   3 4416.65 538.039   4
  -5  22   6 707.870 409.415   2
   5  17   6 680.975 416.633   2
 -22   5   6 769.823 337.819   4
  -5  22   6 800.862 408.026   4
   5  17   6 1614.05 456.032   4
  16 -22  -7 1354.58 575.714   3
   6  16  -7 1221.71 348.952   2
  16 -22  -7 822.309 386.892   1
 -16  -6  -7-77.6933 475.698   3
 -22   6  -7 273.280 456.337   3
  22 -16  -7 767.290 460.259   1
  -6  22  -7 837.930 362.068   4
   6  16  -7 1885.39 636.392   1
   6  16  -7 1049.69 359.481   4
  -6  22  -7 925.263 418.510   2
  -6  22  -4 2475.30 453.176   2
   6  16  -4 2556.78 390.898   2
 -22   6  -4 1963.86 351.327   1
 -16  -6  -4 1781.29 488.112   3
 -22   6  -4 2119.68 441.559   3
  16 -22  -4 2297.27 422.002   1
  22 -16  -4 2268.77 447.657   1
  -6  22  -4 3440.98 474.470   4
   6  16  -4 2865.56 415.843   4
   6  16  -1 6391.32 540.600   2
  22 -16  -1 6027.74 517.528   1
 -16  -6  -1 4526.94 530.713   3
 -22   6  -1 5328.54 553.904   3
  16 -22  -1 5944.61 358.575   3
  16 -22  -1 6143.60 540.947   1
  -6  22  -1 7211.38 603.112   4
   6  16  -1 6463.83 553.775   4
  -6  22  -1 5833.59 546.213   2
  22 -16   2 4384.52 441.623   1
  -6  22   2 4362.98 489.863   2
   6  16   2 3858.22 474.180   2
 -22   6   2 3414.34 330.613   2
 -16  -6   2 4085.18 528.488   3
 -22   6   2 4241.41 529.381   3
 -22   6   2 3607.98 415.022   2
  -6  22   2 4059.66 512.583   4
   6  16   2 4531.91 533.819   4
  -6  22   5 1232.95 419.645   2
   6  16   5 966.736 460.134   2
 -22   6   5 985.500 347.841   4
  -6  22   5 659.834 366.059   4
   6  16   5 1660.53 464.589   4
  -6  22   8 12.4839 423.898   2
  -6  22   8 227.665 384.723   4
  15 -22  -8 1204.63 582.848   3
   7  15  -8 163.058 278.958   2
  15 -22  -8 589.347 416.923   1
 -15  -7  -8-77.2450 501.246   3
 -22   7  -8 379.153 456.899   3
  22 -15  -8 703.411 452.542   1
  -7  22  -8 777.526 373.659   4
   7  15  -8 269.261 560.669   1
  -7  22  -8 1075.96 469.440   2
  15 -22  -5 2276.34 481.325   3
   7  15  -5 2075.94 361.246   2
 -15  -7  -5 2428.62 557.011   3
 -22   7  -5 2750.18 500.420   3
  22 -15  -5 2058.79 456.928   1
  15 -22  -5 2050.80 417.823   1
   7  15  -5 3521.24 639.424   1
  -7  22  -5 2024.74 390.434   4
   7  15  -5 2403.46 387.447   4
  -7  22  -5 2459.51 470.142   2
  22 -15  -2 4267.79 494.669   1
   7  15  -2 4328.97 453.807   2
 -15  -7  -2 3409.71 498.004   3
 -22   7  -2 3053.12 460.710   3
  15 -22  -2 4012.05 347.317   3
  15 -22  -2 3879.28 448.144   1
   7  15  -2 4293.74 576.355   1
  -7  22  -2 4269.59 490.021   4
   7  15  -2 3063.03 433.287   4
  -7  22  -2 4065.61 487.072   2
  -7  22   1 2999.56 430.630   2
   7  15   1 3741.25 480.656   2
 -22   7   1 3854.40 473.647   3
 -15  -7   1 2808.62 442.853   3
  22 -15   1 2503.56 373.202   1
  -7  22   1 3520.10 481.077   4
   7  15   1 3639.01 481.526   4
   7  15   4 970.343 268.858   1
  -7  22   4 1012.93 365.637   2
   7  15   4 535.035 380.934   2
 -22   7   4 1022.28 358.072   4
  -7  22   4 1019.49 387.697   4
 -15  -7   4 803.644 284.669   2
   7  15   4 866.882 411.107   4
  -7  22   7 1493.85 482.346   2
 -22   7   7 1189.12 316.119   4
  14 -22  -6 638.970 477.990   3
   8  14  -6 706.194 288.083   2
 -14  -8  -6 977.085 522.905   3
  22 -14  -6 623.830 425.452   1
 -22   8  -6-114.308 423.202   3
  14 -22  -6 159.520 337.951   1
  -8  22  -6 529.127 356.076   4
   8  14  -6 1045.25 576.261   1
  -8  22  -6 239.599 404.908   2
   8  14  -6 647.564 305.970   4
   8  14  -3 6382.81 499.636   2
 -14  -8  -3 5521.28 606.312   3
 -22   8  -3 5416.00 564.090   3
  14 -22  -3 6490.90 551.084   1
   8  14  -3 7506.69 688.378   1
  -8  22  -3 7145.19 601.375   4
  -8  22  -3 6972.24 617.599   2
  22 -14  -3 6126.94 563.830   1
   8  14  -3 6468.04 540.059   4
  14 -22  -3 6618.44 547.584   3
  14 -22   0 710.904 176.129   3
  -8  22   0 919.080 341.481   2
  22 -14   0 1019.48 336.048   1
  14 -22   0 618.441 142.607   3
   8  14   0 1176.48 341.114   2
 -14  -8   0 480.151 310.496   3
 -22   8   0 976.104 356.273   3
   8  14   0 449.965 345.493   1
  -8  22   0 615.070 297.154   4
   8  14   0 1021.95 357.386   4
  -8  22   3 6128.92 561.515   2
  22 -14   3 5917.46 457.028   1
 -22   8   3 4716.51 309.928   2
   8  14   3 5880.50 587.547   2
 -14  -8   3 6066.39 583.721   3
   8  14   3 4998.23 376.831   1
 -22   8   3 5953.96 561.885   4
 -22   8   3 4967.88 353.693   2
  -8  22   3 6073.29 576.925   4
   8  14   3 5944.65 593.485   4
 -22   8   6 728.458 323.658   4
   8  14   6 381.880 153.444   1
  -8  22   6 812.143 351.824   4
  13 -22  -7 1473.19 529.618   3
  22 -13  -7 637.819 461.956   1
   9  13  -7 686.703 282.190   2
 -13  -9  -7 1314.34 523.045   3
 -22   9  -7-254.170 435.901   3
  13 -22  -7 991.844 391.791   1
  -9  22  -7 1308.74 413.832   4
  -9  22  -7 1239.67 474.579   2
   9  13  -7 1406.46 576.997   1
  13 -22  -4 2790.60 470.284   3
   9  13  -4 2691.12 358.753   2
  13 -22  -4 3264.64 442.749   1
 -13  -9  -4 2317.31 486.829   3
 -22   9  -4 2873.14 477.637   3
  22 -13  -4 3242.08 502.073   1
  -9  22  -4 3255.17 457.026   4
   9  13  -4 3409.33 579.289   1
   9  13  -4 2629.44 396.065   4
  -9  22  -4 2934.74 487.329   2
  13 -22  -1 1608.77 272.211   3
  -9  22  -1 1039.75 338.621   2
 -13  -9  -1 1379.97 354.918   3
   9  13  -1 1470.81 345.471   2
 -22   9  -1 1343.96 350.869   3
  13 -22  -1 1263.91 212.532   3
   9  13  -1 1920.16 444.085   1
  -9  22  -1 2263.58 427.868   4
  22 -13  -1 1728.73 392.105   1
   9  13  -1 1358.44 363.885   4
  -9  22   2 454.842 328.485   2
  22 -13   2 481.507 275.974   1
 -22   9   2-482.152 334.238   4
   9  13   2 797.281 377.527   2
 -13  -9   2 345.754 335.587   3
 -22   9   2 744.776 348.207   3
 -22   9   2 495.988 281.192   2
   9  13   2 473.042 299.465   1
  -9  22   2 561.297 339.736   4
   9  13   2 889.451 351.054   4
  -9  22   5 887.786 362.572   2
 -22   9   5 1291.17 364.894   4
   9  13   5 1097.04 221.199   1
  -9  22   5 1135.69 371.263   4
   9  13   5 1095.45 427.401   4
  -9  22   8 2833.60 537.658   2
  -9  22   8 2301.31 506.103   4
  10  12  -8 1951.46 645.347   1
  12 -22  -8 1372.82 546.191   3
  22 -12  -8 1142.80 506.249   1
 -12 -10  -8 1224.89 585.564   3
 -22  10  -8 208.283 493.221   3
 -22  10  -8 1017.11 472.332   4
  12 -22  -8 844.493 401.591   1
 -10  22  -8 834.272 436.097   4
 -10  22  -8 557.400 468.982   2
  12 -22  -5 2044.62 486.075   3
  10  12  -5 2246.77 346.590   2
  22 -12  -5 2223.90 482.944   1
  12 -22  -5 2703.24 433.201   1
 -22  10  -5 3150.56 493.598   3
 -12 -10  -5 1844.71 489.722   3
 -10  22  -5 2827.44 456.221   4
  10  12  -5 2314.03 585.055   1
 -10  22  -5 2499.45 517.800   2
  12 -22  -2 5118.30 425.577   3
  12 -22  -2 5174.94 503.782   1
  10  12  -2 4990.76 447.146   2
 -12 -10  -2 4251.70 499.405   3
 -22  10  -2 4150.42 469.166   3
  22 -12  -2 5035.85 499.070   1
  10  12  -2 4917.20 577.789   1
 -10  22  -2 5188.33 540.650   4
 -10  22  -2 5900.15 575.058   2
  10  12  -2 4038.39 467.222   4
  22 -12   1 2709.34 372.927   1
  10  12   1 3265.20 457.136   2
 -12 -10   1 3058.86 434.894   3
 -22  10   1 3060.52 452.573   3
 -22  10   1 2249.47 435.246   4
  10  12   1 3040.27 409.677   1
 -22  10   1 2620.53 419.300   2
 -10  22   1 3315.82 466.924   4
  10  12   1 3627.53 484.115   4
 -10  22   1 2604.54 415.252   2
 -10  22   4 2578.18 434.781   2
 -22  10   4 1586.78 164.277   2
  10  12   4 3003.25 319.726   1
 -22  10   4 2353.56 427.280   4
  22 -12   4 2833.20 349.265   1
  10  12   4 2439.64 260.769   1
 -10  22   4 2730.26 447.673   4
 -22  10   4 2243.97 189.951   2
 -10  22   7 3034.93 522.339   2
 -22  10   7 2547.13 375.324   4
 -10  22   7 2673.95 460.649   4
  11  11  -6 837.574 516.373   1
  11 -22  -6 1666.58 494.715   3
  22 -11  -6 215.432 425.457   1
 -11 -11  -6 507.560 451.596   3
  11 -22  -6 378.997 321.479   1
  11  11  -6 164.263 236.688   2
 -22  11  -6-767.539 408.891   3
 -11  22  -6 52.1384 335.934   4
 -11  22  -6-274.990 398.604   2
  11 -22  -3 7408.51 554.354   3
  11  11  -3 6277.45 476.569   2
 -11 -11  -3 6230.49 592.138   3
 -22  11  -3 6373.52 556.326   3
 -22  11  -3 6508.75 729.977   2
  22 -11  -3 6602.91 595.939   1
  11  11  -3 8104.36 711.871   1
 -11  22  -3 7252.61 603.635   4
 -11  22  -3 6599.46 635.552   2
  11 -22  -3 7165.17 541.477   1
 -11  22   0 1515.90 358.597   2
  11 -22   0 1468.50 146.734   3
  11 -22   0 1418.78 128.142   3
 -11 -11   0 816.488 336.378   3
  11  11   0 1322.82 328.692   2
 -22  11   0 1583.21 367.947   3
 -22  11   0 1900.42 428.304   4
 -22  11   0 1807.56 410.372   2
  22 -11   0 1340.30 344.853   1
 -11  22   0 1689.96 407.867   4
  11  11   0 1741.63 390.048   1
  11  11   0 1650.11 377.502   4
 -11  22   3 6572.11 549.808   2
 -11 -11   3 6177.84 548.622   3
  11  11   3 6630.01 626.030   2
 -22  11   3 6475.67 592.614   4
  11  11   3 7738.67 466.306   1
 -22  11   3 6162.26 399.930   2
 -11  22   3 6454.32 611.336   4
  22 -11   3 6312.25 437.430   1
 -11  22   6 222.486 327.613   2
 -22  11   6 4.34936 293.948   4
 -11  22   6 118.382 327.281   4
  12  10  -7 3567.90 686.495   1
  10 -22  -7 3740.43 634.406   3
  12  10  -7 2202.53 287.887   2
 -10 -12  -7 3068.78 620.077   3
 -22  12  -7 3203.74 545.279   3
  10 -22  -7 2791.55 451.142   1
  22 -10  -7 3526.45 626.130   1
 -22  12  -7 2317.28 524.225   4
 -22  12  -7 2636.12 654.164   2
 -12  22  -7 3878.61 547.211   4
 -12  22  -7 3387.12 601.136   2
  22 -10  -4 3414.56 503.334   1
  10 -22  -4 2007.52 411.928   3
  12  10  -4 2611.64 340.308   2
 -10 -12  -4 2751.86 487.500   3
 -22  12  -4 3185.10 466.391   3
 -22  12  -4 3462.96 520.406   4
 -22  12  -4 2286.13 572.705   2
 -12  22  -4 2616.17 430.061   4
 -12  22  -4 2470.04 485.621   2
  10 -22  -4 2754.36 419.707   1
  12  10  -4 3020.46 555.954   1
  10 -22  -1 4320.07 325.155   3
 -10 -12  -1 3585.04 450.729   3
  12  10  -1 3363.25 400.388   2
 -22  12  -1 3223.26 420.450   3
 -22  12  -1 4230.39 517.973   4
 -22  12  -1 3662.28 550.166   2
  12  10  -1 3461.87 490.655   1
 -12  22  -1 3942.30 481.718   4
  22 -10  -1 3410.67 435.404   1
 -12  22  -1 3345.66 461.118   2
  22 -10   2 3370.55 366.541   1
 -10 -12   2 4041.31 458.170   3
  12  10   2 3780.92 505.847   2
 -22  12   2 4353.14 528.885   4
 -22  12   2 3858.66 393.192   2
  12  10   2 3582.32 404.102   1
 -12  22   2 4387.39 540.187   4
 -12  22   2 3640.91 440.943   2
 -12  22   5 2658.95 439.088   2
 -22  12   5 2106.34 389.685   4
 -12  22   5 3038.75 460.769   4
 -12  22   8 683.156 437.036   2
 -22  12   8 676.601 291.977   4
 -12  22   8 622.004 348.846   4
   9 -22  -8 4761.24 748.757   3
  13   9  -8 2986.10 663.302   1
  -9 -13  -8 3254.15 669.143   3
 -22  13  -8 2076.89 498.715   3
 -13  22  -8 3827.55 578.589   4
   9 -22  -8 3311.98 482.018   1
 -22  13  -8 2210.87 530.953   4
 -22  13  -8 2190.72 692.256   2
 -13  22  -8 2550.24 604.371   2
  22  -9  -8 2162.92 559.630   1
  13   9  -5-324.503 453.354   1
   9 -22  -5 1306.11 347.055   1
   9 -22  -5 1384.01 433.309   3
 -22  13  -5 886.353 422.802   4
  -9 -13  -5 1786.52 504.502   3
 -22  13  -5 1207.89 411.514   3
  13   9  -5 863.708 246.838   2
 -22  13  -5 1256.64 527.063   2
 -13  22  -5 1984.59 438.696   4
 -13  22  -5 1588.42 475.046   2
  22  -9  -5 1327.29 487.491   1
  13   9  -2 820.321 383.117   1
   9 -22  -2 952.338 294.927   3
  22  -9  -2 975.374 373.486   1
  -9 -13  -2 1358.89 375.808   3
 -22  13  -2 750.393 311.966   3
  13   9  -2 550.731 266.856   2
 -22  13  -2 1221.15 411.844   4
 -22  13  -2 965.719 485.107   2
 -13  22  -2 1381.62 397.970   4
 -13  22  -2 1318.61 403.281   2
  13   9   1 2110.18 370.090   1
 -13  22   1 712.890 325.135   2
  -9 -13   1 1655.66 362.568   3
  13   9   1 1144.16 345.376   2
 -22  13   1 1215.27 386.421   4
 -22  13   1 884.961 343.837   2
 -13  22   1 2014.68 425.615   4
  22  -9   1 1233.35 315.092   1
 -13  22   4 3433.80 458.309   2
  22  -9   4 2924.52 324.097   1
  13   9   4 2200.45 214.332   1
 -22  13   4 3208.28 436.955   4
 -13  22   4 3833.02 507.539   4
 -22  13   4 3569.34 292.029   2
  13   9   4 3242.20 259.529   1
 -13  22   7 574.603 390.071   2
 -22  13   7 1472.29 369.121   4
 -13  22   7 958.867 406.773   4
   8 -22  -6-208.662 461.742   3
  14   8  -6 535.624 495.622   1
  -8 -14  -6 481.915 468.461   3
   8 -22  -6-29.3124 316.273   1
 -22  14  -6 646.507 391.357   3
  14   8  -6 56.9629 200.180   2
 -22  14  -6 196.837 378.890   4
 -22  14  -6 488.878 536.735   2
 -14  22  -6 152.884 353.595   4
 -14  22  -6 492.027 461.743   2
  22  -8  -6 1009.74 488.408   1
   8 -22  -3 7258.67 518.778   3
  -8 -14  -3 6744.11 619.439   3
 -22  14  -3 6594.00 538.622   3
  14   8  -3 6187.83 451.692   2
  22  -8  -3 6575.29 616.751   1
 -22  14  -3 7263.97 674.597   4
 -22  14  -3 7039.00 766.728   2
 -14  22  -3 7096.59 622.683   4
  14   8  -3 6678.85 643.105   1
 -14  22  -3 6856.00 673.597   2
 -14  22   0 962.767 371.056   2
  14   8   0 748.772 322.065   1
   8 -22   0 376.961 130.334   3
  22  -8   0 494.814 308.896   1
  -8 -14   0 441.977 311.798   3
 -22  14   0 963.221 325.114   3
  14   8   0 447.210 312.405   2
 -22  14   0 505.697 363.898   4
 -22  14   0 450.222 382.470   2
 -14  22   0 890.050 352.982   4
 -14  22   3 7491.35 577.932   2
  22  -8   3 6568.27 431.284   1
  -8 -14   3 7646.88 552.347   3
 -22  14   3 7599.31 615.553   4
 -14  22   3 7686.71 644.960   4
 -22  14   3 7497.57 470.459   2
  14   8   3 7378.68 423.976   1
 -14  22   6 611.163 370.732   2
 -22  14   6 202.108 309.376   4
 -14  22   6-46.6697 327.678   4
 -22  15  -7 1632.19 643.619   2
   7 -22  -7 2473.75 591.268   3
  15   7  -7 2560.36 617.613   1
  -7 -15  -7 1940.56 589.702   3
 -22  15  -7 2056.66 474.363   3
 -22  15  -7 1993.15 498.533   4
 -15  22  -7 2756.10 524.644   4
  22  -7  -7 1932.28 560.398   1
 -15  22  -7 2580.04 590.225   2
  15   7  -4 379.617 439.960   1
   7 -22  -4 515.714 363.078   3
  -7 -15  -4 493.180 365.837   3
 -22  15  -4 658.940 355.282   3
  15   7  -4 282.605 243.283   2
 -22  15  -4 606.620 374.937   4
 -22  15  -4 40.9919 445.874   2
 -15  22  -4 393.568 313.585   4
  22  -7  -4 1169.99 419.500   1
 -15  22  -4 1090.70 480.305   2
   7 -22  -1 4105.87 321.098   3
  -7 -15  -1 3235.34 426.614   3
 -22  15  -1 3505.23 398.645   3
  22  -7  -1 3666.21 462.825   1
 -22  15  -1 3746.80 503.575   4
 -22  15  -1 4395.61 586.975   2
 -15  22  -1 4529.33 526.853   4
  15   7  -1 3926.80 474.087   1
 -15  22  -1 3550.47 501.533   2
  22  -7   2 3481.14 374.866   1
  -7 -15   2 3655.54 421.656   3
 -22  15   2 4101.80 516.935   4
 -15  22   2 4147.75 524.554   4
  15   7   2 3799.01 397.899   1
 -22  15   2 3764.90 424.362   2
 -15  22   2 3781.42 467.085   2
 -22  15   5 2033.39 262.432   2
 -15  22   5 1817.49 397.301   2
 -22  15   5 1908.89 396.388   4
 -15  22   5 1990.01 428.886   4
 -15  22   8 383.667 388.140   2
 -22  15   8 410.902 306.191   4
 -15  22   8 645.144 383.025   4
   6 -22  -8 703.938 560.947   3
  -6 -16  -8 703.992 530.168   3
  16   6  -8 710.507 550.233   1
 -22  16  -8 98.4108 410.868   3
 -22  16  -8 98.9462 421.176   4
 -22  16  -8 1073.05 625.216   2
 -16  22  -8 644.571 457.115   4
  22  -6  -8 361.653 515.742   1
 -16  22  -8 584.811 507.788   2
   6 -22  -5 635.732 399.164   3
  16   6  -5 1708.98 514.000   1
  -6 -16  -5 1207.77 463.610   3
 -22  16  -5 1029.27 372.602   3
 -22  16  -5 850.546 505.080   2
 -16  22  -5 871.098 395.921   4
 -22  16  -5 875.200 399.154   4
  22  -6  -5 1058.96 460.349   1
 -16  22  -5 1198.21 497.629   2
   6 -22  -2 4417.75 409.796   3
  -6 -16  -2 3739.47 471.595   3
  22  -6  -2 3590.18 492.772   1
 -22  16  -2 3831.26 415.966   3
 -22  16  -2 3519.73 524.991   4
 -22  16  -2 3491.76 574.663   2
 -16  22  -2 4357.23 516.790   4
 -16  22  -2 3826.67 537.630   2
  16   6  -2 4055.34 530.052   1
  -6 -16   1 6675.54 495.382   3
 -22  16   1 6610.01 615.789   4
 -16  22   1 7990.88 671.863   4
 -22  16   1 6164.37 556.733   2
  22  -6   1 6947.12 498.641   1
 -16  22   1 6215.74 575.643   2
  16   6   1 7299.62 526.073   1
 -16  22   4 2411.72 390.652   2
  16   6   4 1925.21 199.869   1
 -22  16   4 3704.71 484.662   4
  22  -6   4 3169.24 308.973   1
 -16  22   4 3188.95 476.528   4
 -22  16   4 3570.41 352.126   2
 -16  22   7 472.962 340.171   2
 -22  16   7 972.542 365.401   4
 -16  22   7 707.634 371.879   4
   5 -22  -6 1616.49 507.304   3
  -5 -17  -6 366.369 461.381   3
  17   5  -6 1240.89 536.846   1
 -22  17  -6 1070.90 374.927   3
 -22  17  -6 786.024 418.775   4
 -17  22  -6 1321.42 442.886   4
  22  -5  -6 592.603 476.550   1
 -17  22  -6 2083.61 587.230   2
 -22  17  -6 1408.41 571.765   2
   5 -22  -3 3568.88 425.416   3
  -5 -17  -3 3579.64 485.696   3
  22  -5  -3 3574.39 531.516   1
 -22  17  -3 3651.85 431.208   3
 -22  17  -3 3437.32 507.983   4
 -17  22  -3 3513.00 486.058   4
 -22  17  -3 3115.79 579.306   2
 -17  22  -3 3741.10 589.126   2
  17   5  -3 3675.17 521.892   1
  22  -5   0 58.3511 316.459   1
  17   5   0 627.078 353.014   1
   5 -22   0 734.420 191.571   3
  -5 -17   0 288.626 283.187   3
 -22  17   0 914.628 391.618   4
 -17  22   0 1018.59 349.815   4
 -22  17   0 835.711 362.912   2
 -17  22   0 694.889 359.070   2
  22  -5   3 3357.64 335.880   1
  17   5   3 3057.17 315.790   1
 -22  17   3 3788.68 511.252   4
 -17  22   3 3682.68 492.627   4
 -22  17   3 4156.23 433.376   2
 -17  22   3 4132.99 469.137   2
 -17  22   6 1207.60 391.615   2
 -22  17   6 1040.21 229.341   2
 -22  17   6 1898.20 404.007   4
 -17  22   6 1025.10 418.436   4
   4 -22  -7 1501.95 552.148   3
  -4 -18  -7 338.482 472.033   3
  18   4  -7-125.100 489.876   1
 -22  18  -7 1024.90 425.049   3
 -22  18  -7 1129.99 450.282   4
  22  -4  -7 1460.92 578.422   1
 -18  22  -7 1136.98 463.801   4
 -22  18  -7 52.0716 539.457   2
 -18  22  -7 182.604 506.795   2
   4 -22  -4-521.963 388.710   3
  -4 -18  -4 556.341 405.210   3
  18   4  -4-702.332 449.644   1
 -22  18  -4 338.000 282.591   3
 -22  18  -4 197.927 363.948   4
 -18  22  -4-208.099 323.985   4
  22  -4  -4 566.836 404.549   1
 -22  18  -4 648.866 503.980   2
 -18  22  -4-94.3747 421.793   2
   4 -22  -1 1231.89 273.798   3
  18   4  -1 735.880 374.799   1
  -4 -18  -1 1355.69 358.180   3
 -22  18  -1 1173.72 404.147   4
 -18  22  -1 1573.51 434.144   4
 -22  18  -1 1371.37 442.259   2
  22  -4  -1 1543.12 399.470   1
 -18  22  -1 745.690 352.482   2
 -18  22   2 649.091 336.225   2
  22  -4   2 621.790 286.319   1
  -4 -18   2 791.097 294.415   3
  18   4   2 118.145 274.437   1
 -22  18   2 687.219 341.245   4
 -18  22   2 858.203 378.704   4
 -22  18   2 896.812 305.586   2
 -22  18   5 2365.88 342.585   2
 -18  22   5 3298.97 450.542   2
 -22  18   5 3421.82 485.927   4
 -18  22   5 2638.59 476.975   4
 -18  22   8 414.993 358.829   2
 -22  18   8 1011.95 372.050   4
 -18  22   8 447.634 377.253   4
   3 -22  -8 2252.83 614.865   3
  -3 -19  -8 1878.43 628.147   3
 -22  19  -8 932.671 423.004   3
  19   3  -8 1977.66 632.067   1
  22  -3  -8 1625.11 590.241   1
 -22  19  -8 1439.03 506.773   4
 -22  19  -8 2066.13 715.961   2
 -19  22  -8 2694.00 709.259   2
 -19  22  -8 2214.49 551.728   4
   3 -22  -5 950.372 413.181   3
  -3 -19  -5-174.819 405.218   3
  19   3  -5 1436.45 508.196   1
 -22  19  -5 396.223 307.823   3
 -19  22  -5 307.102 153.497   3
  22  -3  -5 312.527 439.591   1
 -22  19  -5 620.482 409.906   4
 -19  22  -5 482.536 398.424   4
 -22  19  -5 1285.48 567.508   2
 -19  22  -5 1512.16 562.201   2
   3 -22  -2 2488.28 382.818   3
  -3 -19  -2 2661.80 403.477   3
 -22  19  -2 2385.82 361.093   3
 -22  19  -2 2462.09 480.558   4
 -19  22  -2 2421.76 467.776   4
  22  -3  -2 2037.11 451.226   1
 -22  19  -2 2825.26 551.561   2
 -19  22  -2 2175.18 442.555   2
  19   3  -2 3232.55 501.003   1
 -19  22   1 2051.51 422.996   2
  22  -3   1 2092.46 380.365   1
   3 -22   1 1806.10 202.830   3
  -3 -19   1 1255.94 300.240   3
  19   3   1 1677.74 362.292   1
 -22  19   1 2368.46 455.371   4
 -19  22   1 1972.57 454.110   4
 -22  19   1 1813.99 410.160   2
 -22  19   4 1718.27 339.006   2
 -19  22   4 1869.23 398.468   2
 -22  19   4 1823.40 425.310   4
  19   3   4 855.633 176.318   1
  22  -3   4 1103.70 233.975   1
 -19  22   4 1881.50 453.525   4
 -19  22   7-280.777 343.677   2
 -22  19   7 122.147 322.778   4
  -2 -20  -6 3627.42 619.792   3
  22  -2  -6 3776.43 641.541   1
   2 -22  -6 3114.56 585.588   3
 -22  20  -6 2980.29 422.137   3
  20   2  -6 3545.99 646.065   1
 -22  20  -6 3670.80 581.666   4
 -20  22  -6 2884.35 541.257   4
 -22  20  -6 1933.96 648.265   2
 -20  22  -6 3932.66 708.230   2
  20   2  -3 4867.26 585.031   1
   2 -22  -3 4650.88 490.440   3
  22  -2  -3 3523.90 551.685   1
  -2 -20  -3 4659.22 533.840   3
 -22  20  -3 4796.50 398.468   3
 -22  20  -3 5094.84 603.484   4
 -20  22  -3 4949.19 587.806   4
 -22  20  -3 5274.04 697.690   2
 -20  22  -3 5340.08 692.603   2
   2 -22   0 1996.40 283.694   3
  -2 -20   0 1590.69 302.803   3
  20   2   0 2057.00 427.149   1
 -22  20   0 2878.59 494.735   4
 -20  22   0 2261.40 491.321   4
  22  -2   0 1995.74 422.443   1
 -22  20   0 1672.35 439.852   2
 -20  22   0 2146.31 464.016   2
  20   2   3 3676.11 358.605   1
 -22  20   3 4012.11 557.043   4
 -20  22   3 4722.38 590.378   4
  22  -2   3 3350.81 341.673   1
 -22  20   3 4960.02 489.111   2
 -20  22   3 5230.33 511.044   2
 -22  20   6 136.426 272.398   2
 -20  22   6 590.072 352.050   2
 -22  20   6 1132.13 409.511   4
 -20  22   6 990.985 395.138   4
   1 -22  -7 2837.36 626.622   3
  -1 -21  -7 2308.07 582.381   3
  21   1  -7 1657.38 578.348   1
  22  -1  -7 2264.94 629.145   1
 -22  21  -7 2567.68 540.960   4
 -21  22  -7 2415.80 554.831   4
 -22  21  -7 2735.95 661.563   2
 -21  22  -7 2302.26 671.409   2
   1 -22  -4 603.145 392.750   3
  -1 -21  -4 542.677 377.356   3
  21   1  -4 978.824 474.801   1
 -22  21  -4 449.213 266.847   3
  22  -1  -4 580.459 463.069   1
 -22  21  -4 1019.70 399.674   4
 -21  22  -4 342.538 370.174   4
 -22  21  -4 582.233 513.469   2
 -21  22  -4 448.248 457.411   2
  22  -1  -1 3612.03 496.880   1
   1 -22  -1 3475.95 386.793   3
  -1 -21  -1 3312.00 409.989   3
  21   1  -1 2710.67 468.336   1
 -22  21  -1 2898.81 515.142   4
 -21  22  -1 3238.52 511.720   4
 -22  21  -1 3466.64 549.786   2
 -21  22  -1 4220.05 575.646   2
 -22  21   2 978.256 364.593   2
 -21  22   2 635.875 344.547   2
  22  -1   2 769.370 304.163   1
  -1 -21   2 472.869 249.309   3
 -22  21   2 755.979 377.079   4
 -21  22   2 713.849 391.665   4
  21   1   2 930.446 335.108   1
 -22  21   5 1807.29 370.327   2
 -21  22   5 2451.10 395.066   2
 -22  21   5 1866.52 428.756   4
 -21  22   5 1487.77 433.250   4
   0 -22  -5-74.1598 426.557   3
 -22  22  -5-136.120 247.213   3
  22   0  -5 195.973 444.791   1
 -22  22  -5-281.776 400.432   4
 -22  22  -5-85.0189 498.414   2
   0 -22  -2 3357.85 447.920   3
  22   0  -2 3228.11 512.939   1
 -22  22  -2 4282.76 585.927   4
 -22  22  -2 4168.46 633.112   2
   0 -22   1 135.718 227.491   3
 -22  22   1 0.94734 371.303   4
  22   0   1-398.904 346.593   1
 -22  22   1 853.776 375.279   2
  22   0   4 375.541 208.603   1
 -22  22   4 323.366 301.655   2
 -22  22   4 761.673 421.920   4
 -22  22   7-495.915 401.670   4
   0  23  -5 79.5238 353.331   2
 -23   0  -5 53.4912 457.195   3
  23 -23  -5 205.917 393.620   1
   0  23  -5-495.717 389.640   4
   0  23  -2 1850.36 415.298   2
 -23   0  -2 1849.71 506.212   3
  23 -23  -2 2327.69 457.712   1
   0  23  -2 2295.31 444.851   4
   0  23   1-254.072 359.812   2
  23 -23   1 101.563 341.900   1
 -23   0   1 45.3776 410.951   3
   0  23   1 383.074 383.740   4
   0  23   4 1815.73 528.032   2
   0  23   4 2667.92 534.703   4
  -1  23  -6 1513.88 437.497   2
   1  22  -6 1155.84 400.420   2
 -22  -1  -6 4.70035 471.880   3
 -23   1  -6 971.374 500.227   3
  23 -22  -6 1027.64 447.377   1
   1  22  -6 1253.75 557.273   1
  22 -23  -6 721.255 431.799   1
  -1  23  -6 1278.59 403.794   4
   1  22  -6 1187.01 409.154   4
  -1  23  -3 3776.58 498.905   2
   1  22  -3 3649.61 500.121   2
 -22  -1  -3 2490.58 503.711   3
 -23   1  -3 3300.54 549.576   3
  23 -22  -3 3993.49 504.628   1
  22 -23  -3 4138.05 539.089   1
  -1  23  -3 4128.11 530.851   4
   1  22  -3 3776.44 521.149   4
  -1  23   0 2986.85 502.395   2
  23 -22   0 2796.16 470.358   1
   1  22   0 2963.62 471.558   2
  22 -23   0 3964.81 517.015   1
 -22  -1   0 2768.46 478.719   3
 -23   1   0 1431.78 425.619   3
  -1  23   0 3232.91 512.669   4
   1  22   0 2823.78 481.554   4
  -1  23   3 3713.59 543.242   2
   1  22   3 4146.18 556.433   2
 -22  -1   3 4356.29 628.656   3
 -23   1   3 3845.49 590.656   3
  -1  23   3 4504.97 590.013   4
   1  22   3 5056.33 619.358   4
  -1  23   6 584.917 403.569   2
   1  22   6 405.140 434.666   2
  -1  23   6 1029.08 472.212   4
   1  22   6 17.2225 413.871   4
  -2  23  -7 1104.62 417.237   2
   2  21  -7 675.066 377.176   2
  23 -21  -7 677.903 439.688   1
 -21  -2  -7 1198.94 564.568   3
 -23   2  -7-395.560 512.707   3
  21 -23  -7 1003.55 442.667   1
   2  21  -7 1852.51 647.260   1
  -2  23  -7 848.343 411.702   4
   2  21  -7 998.892 386.416   4
  -2  23  -4 262.725 334.972   2
   2  21  -4 258.433 316.101   2
  21 -23  -4 1062.12 431.128   1
 -21  -2  -4 458.056 411.937   3
 -23   2  -4 195.959 414.351   3
  23 -21  -4 5.36761 365.123   1
  -2  23  -4 271.301 343.735   4
   2  21  -4 297.483 344.788   4
  -2  23  -1 1943.85 408.527   2
  21 -23  -1 2322.80 425.620   1
   2  21  -1 1706.25 409.645   2
 -21  -2  -1 764.188 399.305   3
 -23   2  -1 1812.92 447.351   3
  23 -21  -1 1662.69 410.810   1
  -2  23  -1 1481.62 405.578   4
   2  21  -1 2246.75 446.323   4
  -2  23   2 552.399 345.964   2
   2  21   2 8.47650 339.535   2
 -21  -2   2 1097.64 436.691   3
 -23   2   2-33.5610 381.671   3
  23 -21   2 1159.28 339.607   1
  -2  23   2 472.439 376.163   4
   2  21   2 1463.73 428.775   4
  -2  23   5 1908.88 479.222   2
   2  21   5 2906.71 560.747   2
  -2  23   5 2269.25 471.361   4
   2  21   5 3063.91 532.556   4
  -3  23  -5 600.316 367.229   2
  23 -20  -5 943.162 447.367   1
   3  20  -5 563.027 330.334   2
  20 -23  -5 617.674 397.998   1
 -20  -3  -5 1064.80 511.792   3
 -23   3  -5-22.3552 418.946   3
   3  20  -5 677.275 531.821   1
  -3  23  -5 605.357 350.621   4
   3  20  -5 695.626 357.033   4
  -3  23  -2 4670.89 535.700   2
  20 -23  -2 5271.48 556.823   1
   3  20  -2 5292.90 552.415   2
 -20  -3  -2 4186.65 550.627   3
 -23   3  -2 4133.07 553.213   3
  23 -20  -2 5525.64 562.197   1
  -3  23  -2 5944.46 592.327   4
   3  20  -2 5799.32 568.970   4
  23 -20   1 1661.41 394.447   1
  20 -23   1 1166.66 267.993   3
  -3  23   1 1473.93 403.196   2
   3  20   1 1571.24 411.491   2
 -20  -3   1 1826.23 460.263   3
 -23   3   1 1807.36 436.557   3
  20 -23   1 1585.60 405.598   1
  -3  23   1 1595.21 438.394   4
   3  20   1 2106.27 455.042   4
  -3  23   4 146.999 358.015   2
   3  20   4 1226.78 427.252   2
  -3  23   4 977.575 404.676   4
   3  20   4 838.924 408.563   4
  -3  23   7 754.057 463.806   2
   3  20   7 69.3122 494.752   2
 -23   3   7 134.102 318.358   4
  -3  23   7 445.174 414.818   4
   3  20   7 994.470 471.079   4
   4  19  -6 3607.22 470.357   2
 -19  -4  -6 3219.09 622.144   3
 -23   4  -6 2900.50 586.518   3
  19 -23  -6 4596.70 595.238   1
   4  19  -6 3796.41 732.860   1
  -4  23  -6 4246.93 530.330   4
   4  19  -6 3785.29 491.673   4
  -4  23  -6 4483.36 610.546   2
  23 -19  -6 2566.96 512.923   1
   4  19  -3 4885.23 524.054   2
  23 -19  -3 4866.48 550.110   1
 -19  -4  -3 4503.86 593.164   3
 -23   4  -3 4202.53 557.021   3
  -4  23  -3 5591.51 554.574   4
   4  19  -3 4593.53 503.908   4
  19 -23  -3 5083.08 533.776   1
  -4  23  -3 5226.00 568.708   2
  -4  23   0 7682.90 627.210   2
   4  19   0 6967.10 591.912   2
  19 -23   0 6660.07 412.172   3
 -19  -4   0 6834.73 625.641   3
 -23   4   0 6375.27 616.000   3
  23 -19   0 7104.09 575.454   1
  -4  23   0 8342.31 674.950   4
  19 -23   0 7492.46 595.151   1
   4  19   0 7505.81 622.934   4
  23 -19   3 5156.88 499.757   1
  -4  23   3 4881.98 555.617   2
   4  19   3 5106.58 571.545   2
 -19  -4   3 4985.94 599.232   3
 -23   4   3 2700.46 346.046   2
  -4  23   3 5456.02 602.484   4
   4  19   3 4947.87 600.206   4
  -4  23   6 863.985 377.989   2
   4  19   6 1458.74 492.413   2
 -23   4   6 1289.06 371.338   4
  -4  23   6 1752.62 472.521   4
   4  19   6 2208.75 512.341   4
  -5  23  -7 1535.32 495.613   2
  18 -23  -7 1491.14 556.074   3
   5  18  -7 1132.31 372.058   2
  18 -23  -7 1933.40 483.126   1
 -18  -5  -7 1218.26 517.939   3
 -23   5  -7 1537.27 527.094   3
  23 -18  -7 1064.90 477.532   1
   5  18  -7 1377.27 629.441   1
  -5  23  -7 1684.47 428.687   4
   5  18  -7 1618.30 396.630   4
  23 -18  -4 1544.11 433.865   1
  -5  23  -4 2096.61 460.905   2
   5  18  -4 1950.50 384.714   2
 -18  -5  -4 1484.06 487.078   3
 -23   5  -4 1136.86 457.387   3
   5  18  -4 2513.51 582.302   1
  18 -23  -4 2464.88 465.269   1
  -5  23  -4 2074.74 432.370   4
   5  18  -4 2439.69 441.189   4
   5  18  -1 4347.23 483.383   2
 -18  -5  -1 4170.99 513.999   3
  18 -23  -1 3507.65 326.139   3
 -23   5  -1 3953.30 513.121   3
  23 -18  -1 4068.89 488.740   1
  18 -23  -1 5051.67 535.430   1
  -5  23  -1 5080.20 550.690   4
   5  18  -1 4602.80 514.971   4
  -5  23  -1 4866.90 532.561   2
  18 -23   2 506.307 101.410   3
  -5  23   2 746.375 353.817   2
  23 -18   2 580.303 308.265   1
 -23   5   2 653.884 250.186   2
   5  18   2 929.208 391.094   2
 -18  -5   2 1530.88 457.228   3
 -23   5   2 1135.37 398.504   3
  -5  23   2 819.720 375.689   4
   5  18   2 583.886 347.494   4
  -5  23   5 3996.40 540.133   2
   5  18   5 4468.88 595.498   2
 -23   5   5 3590.86 492.337   4
  -5  23   5 4876.25 578.027   4
   5  18   5 3689.08 551.212   4
  17 -23  -8 669.266 542.003   3
   6  17  -8 608.867 344.458   2
  17 -23  -8-50.3127 406.676   1
 -17  -6  -8 1064.28 522.835   3
 -23   6  -8 839.094 530.345   3
  23 -17  -8 180.472 436.765   1
  -6  23  -8 980.692 392.584   4
   6  17  -8 149.965 603.551   1
  -6  23  -8 1165.36 518.299   2
  -6  23  -5 2231.54 491.710   2
   6  17  -5 1406.23 360.502   2
 -17  -6  -5 1324.10 477.987   3
 -23   6  -5 1011.66 433.604   3
  17 -23  -5 1995.28 450.308   1
  23 -17  -5 2174.67 477.811   1
   6  17  -5 2447.60 632.748   1
  -6  23  -5 1224.14 393.710   4
   6  17  -5 1495.17 382.266   4
   6  17  -2 4826.76 501.695   2
  23 -17  -2 3606.89 479.869   1
 -23   6  -2 3136.23 489.136   3
  17 -23  -2 4371.34 476.748   1
 -17  -6  -2 2890.53 504.793   3
  -6  23  -2 4347.39 534.583   4
   6  17  -2 3864.67 489.846   4
  -6  23  -2 4005.48 505.882   2
  -6  23   1 1687.38 400.766   2
  17 -23   1 956.288 147.052   3
   6  17   1 1560.91 382.194   2
  23 -17   1 1640.71 363.999   1
 -17  -6   1 1015.96 397.970   3
 -23   6   1 1520.02 422.547   3
  -6  23   1 1589.14 423.558   4
   6  17   1 1514.51 417.278   4
  -6  23   4 2013.82 428.287   2
   6  17   4 1329.00 442.368   2
  -6  23   4 1486.88 445.221   4
   6  17   4 1855.88 466.332   4
  -6  23   7 2666.46 545.295   2
 -23   6   7 1046.39 317.085   4
  -6  23   7 3070.28 524.929   4
   6  17   7 2544.13 508.449   4
   7  16  -6 7569.55 558.312   2
 -16  -7  -6 9079.60 857.959   3
 -23   7  -6 7604.66 728.086   3
   7  16  -6 9032.40 940.340   1
  16 -23  -6 8580.75 669.351   1
  -7  23  -6 8103.06 655.996   4
  -7  23  -6 9035.71 760.527   2
  23 -16  -6 7344.81 713.613   1
   7  16  -6 8247.02 609.649   4
  16 -23  -6 8394.03 778.548   3
   7  16  -3 3179.78 418.842   2
  16 -23  -3 3509.54 476.949   1
 -16  -7  -3 2649.68 512.640   3
 -23   7  -3 2831.57 481.941   3
   7  16  -3 4037.16 639.135   1
  -7  23  -3 3994.03 487.705   4
  -7  23  -3 3438.65 505.515   2
   7  16  -3 3219.99 453.940   4
  23 -16  -3 2928.44 492.643   1
  -7  23   0 1858.13 395.319   2
  16 -23   0 2039.97 223.697   3
   7  16   0 1996.40 385.137   2
 -16  -7   0 1250.93 408.970   3
 -23   7   0 1693.00 405.719   3
  23 -16   0 1664.20 376.596   1
  -7  23   0 2316.10 450.885   4
   7  16   0 2257.56 427.139   4
  -7  23   3 796.303 360.067   2
 -23   7   3 544.812 195.441   2
   7  16   3 132.828 328.949   2
 -16  -7   3 394.207 385.772   3
 -23   7   3 221.901 224.187   2
  23 -16   3 967.424 319.241   1
  -7  23   3 469.767 347.488   4
   7  16   3 732.939 397.230   4
  -7  23   6 2931.08 515.250   2
 -23   7   6 2242.81 394.688   4
  -7  23   6 3451.97 523.199   4
   7  16   6 2527.72 512.249   4
  15 -23  -7 4505.56 678.388   3
   8  15  -7 3802.85 423.353   2
 -23   8  -7 4514.45 646.239   3
 -15  -8  -7 3571.43 649.543   3
  23 -15  -7 3229.41 594.368   1
  -8  23  -7 4690.85 547.108   4
  15 -23  -7 4038.01 531.066   1
  -8  23  -7 4632.86 654.780   2
   8  15  -7 4687.72 777.218   1
  -8  23  -4 1962.68 463.600   2
  15 -23  -4 1471.11 424.730   3
  15 -23  -4 1682.41 400.415   1
   8  15  -4 1679.54 348.569   2
 -15  -8  -4 1467.41 490.303   3
 -23   8  -4 536.099 408.469   3
  23 -15  -4 1909.03 442.829   1
   8  15  -4 1577.83 542.868   1
  -8  23  -4 2098.72 421.979   4
   8  15  -4 1418.95 368.152   4
  15 -23  -1 4967.11 516.144   1
  23 -15  -1 3720.52 458.610   1
   8  15  -1 3739.64 449.190   2
 -15  -8  -1 3549.66 488.114   3
  15 -23  -1 4130.55 288.483   3
 -23   8  -1 2948.87 440.705   3
   8  15  -1 4161.21 530.661   1
  -8  23  -1 4567.70 527.844   4
   8  15  -1 3972.79 475.655   4
  -8  23  -1 4346.68 504.707   2
  15 -23  -1 4229.85 361.543   3
  -8  23   2 404.218 325.680   2
   8  15   2 259.502 324.577   2
 -15  -8   2 186.614 344.202   3
 -23   8   2 354.340 250.011   2
 -23   8   2 304.446 346.679   3
  23 -15   2-236.242 283.950   1
 -23   8   2 171.726 284.574   2
  -8  23   2 564.099 373.155   4
   8  15   2 1211.26 394.111   4
  -8  23   5 4773.17 539.451   2
   8  15   5 4320.47 598.527   2
 -23   8   5 4712.39 518.833   4
  -8  23   5 5647.19 596.086   4
   8  15   5 4728.45 587.233   4
  -8  23   8 1078.43 470.172   2
  -8  23   8 1282.47 414.945   4
   9  14  -8 546.935 605.706   1
  14 -23  -8 1969.60 623.855   3
 -14  -9  -8 1067.13 554.350   3
  23 -14  -8 1678.26 527.232   1
 -23   9  -8 1261.38 521.933   3
  14 -23  -8 878.701 412.207   1
  -9  23  -8 991.463 401.824   4
  -9  23  -8 816.284 475.170   2
  14 -23  -5 3735.43 587.746   3
   9  14  -5 3130.06 397.285   2
  14 -23  -5 2937.54 460.539   1
 -14  -9  -5 2836.52 556.725   3
  23 -14  -5 2337.44 487.354   1
 -23   9  -5 2451.31 485.187   3
  -9  23  -5 3620.36 533.381   4
  -9  23  -5 3247.26 561.639   2
   9  14  -5 3478.86 648.501   1
   9  14  -5 3328.01 457.627   4
  -9  23  -2-85.7712 362.247   2
  14 -23  -2 289.364 277.373   3
  14 -23  -2 224.508 316.978   1
 -14  -9  -2 190.010 345.839   3
   9  14  -2 683.840 307.108   2
 -23   9  -2 221.499 334.340   3
  23 -14  -2 90.1364 340.328   1
   9  14  -2 803.143 436.609   1
  -9  23  -2 841.806 363.978   4
   9  14  -2 898.385 330.261   4
  -9  23   1 3753.04 482.953   2
   9  14   1 3179.73 462.991   2
  23 -14   1 3585.30 428.475   1
 -23   9   1 3204.82 476.461   3
 -14  -9   1 2157.33 409.968   3
   9  14   1 3615.18 465.008   1
 -23   9   1 3168.27 465.242   2
  -9  23   1 4095.41 516.723   4
   9  14   1 3624.07 494.872   4
  23 -14   4 693.736 285.444   1
  -9  23   4 429.953 332.397   2
 -23   9   4 335.625 99.6304   2
   9  14   4 721.066 274.366   1
   9  14   4 428.345 378.003   2
 -23   9   4 1711.64 419.909   4
  -9  23   4 661.936 370.228   4
   9  14   4 714.496 378.636   4
 -23   9   4 664.190 118.685   2
  -9  23   7 1639.73 473.204   2
 -23   9   7 1235.30 321.148   4
  -9  23   7 1919.51 469.310   4
  13 -23  -6 5382.95 643.780   3
  10  13  -6 4055.13 420.481   2
  13 -23  -6 4806.83 523.373   1
 -13 -10  -6 4131.62 643.488   3
 -23  10  -6 4710.76 588.999   3
  23 -13  -6 4333.23 603.608   1
  10  13  -6 5929.05 781.880   1
 -10  23  -6 5903.38 609.234   4
 -10  23  -6 4111.25 589.824   2
 -10  23  -3 415.547 384.586   2
  13 -23  -3 608.726 359.914   3
 -13 -10  -3-502.565 391.331   3
  10  13  -3-28.5845 262.929   2
 -23  10  -3 186.255 340.087   3
  23 -13  -3-67.0369 351.276   1
  13 -23  -3 532.372 334.852   1
 -10  23  -3-135.931 318.748   4
  10  13  -3 821.256 464.823   1
  10  13  -3 395.228 332.569   4
  13 -23   0 6319.23 253.025   3
  23 -13   0 6686.76 534.982   1
  10  13   0 6868.14 566.926   2
  13 -23   0 6973.91 239.078   3
 -13 -10   0 5709.03 551.642   3
 -23  10   0 6895.19 582.783   3
 -23  10   0 6720.72 642.385   2
  10  13   0 6805.63 570.616   1
 -10  23   0 8035.05 662.904   4
  10  13   0 7390.00 603.193   4
 -10  23   0 7459.27 617.635   2
 -10  23   3 331.976 314.373   2
  10  13   3 1319.87 440.920   2
 -13 -10   3 532.021 386.904   3
 -23  10   3 961.421 388.717   4
  10  13   3 1300.99 322.414   1
 -23  10   3 1375.62 264.120   2
 -10  23   3 1067.87 385.684   4
  23 -13   3 1573.59 324.652   1
  10  13   3 1610.25 429.279   4
 -10  23   6 3334.12 513.902   2
 -23  10   6 3376.50 440.078   4
 -10  23   6 4337.97 548.046   4
  11  12  -7 4282.84 725.203   1
  12 -23  -7 4124.07 685.776   3
  11  12  -7 2920.02 352.322   2
  12 -23  -7 3419.63 499.097   1
 -23  11  -7 3350.74 588.925   3
 -12 -11  -7 3222.26 641.575   3
  23 -12  -7 3609.85 645.650   1
 -23  11  -7 2889.22 544.603   4
 -11  23  -7 4355.99 567.474   4
 -11  23  -7 4292.16 659.006   2
  12 -23  -4 334.057 359.854   3
  23 -12  -4 787.999 411.644   1
 -12 -11  -4-678.947 428.221   3
  12 -23  -4 960.154 361.292   1
  11  12  -4 811.273 292.332   2
 -23  11  -4 1113.53 408.312   3
 -11  23  -4 980.269 368.925   4
  11  12  -4 698.456 433.660   1
 -11  23  -4 466.873 396.285   2
  12 -23  -1 9797.97 433.589   3
  11  12  -1 9631.80 627.660   2
 -12 -11  -1 9397.10 663.627   3
 -23  11  -1 7884.24 587.486   3
 -23  11  -1 8899.04 750.046   2
  11  12  -1 9950.91 689.806   1
 -11  23  -1 10229.4 734.209   4
 -11  23  -1 11017.7 738.791   2
  23 -12  -1 8648.53 612.699   1
  11  12  -1 8542.05 630.647   4
 -11  23   2 3259.77 453.442   2
  11  12   2 3094.92 474.790   2
 -12 -11   2 4009.33 481.385   3
  23 -12   2 3200.34 387.711   1
 -23  11   2 3321.05 508.155   4
  11  12   2 4903.88 454.287   1
 -23  11   2 2996.71 379.974   2
 -11  23   2 4545.93 525.680   4
  11  12   2 3429.78 475.585   4
 -11  23   5 6441.50 603.447   2
 -23  11   5 6852.25 582.094   4
 -11  23   5 8316.61 685.205   4
 -11  23   8 1552.59 463.011   2
 -11  23   8 1340.03 422.466   4
  23 -11  -8 1591.66 558.270   1
  11 -23  -8 1162.27 582.529   3
  12  11  -8 1646.92 601.090   1
 -11 -12  -8 1679.03 613.220   3
  11 -23  -8 1238.25 382.694   1
 -23  12  -8 1649.84 505.801   3
 -23  12  -8 1615.53 514.805   4
 -23  12  -8 1088.09 662.369   2
 -12  23  -8 2471.52 559.757   4
 -12  23  -8 1030.63 512.568   2
  11 -23  -5 7331.40 690.481   3
 -11 -12  -5 5843.44 663.245   3
  12  11  -5 5995.90 440.142   2
 -23  12  -5 7215.18 651.193   3
  23 -11  -5 5573.76 649.673   1
 -23  12  -5 4652.46 716.118   2
 -23  12  -5 5495.76 629.039   4
  12  11  -5 7263.74 742.130   1
 -12  23  -5 5980.34 589.672   4
 -12  23  -5 6787.06 725.180   2
  11 -23  -5 6808.18 571.974   1
  11 -23  -2 4227.05 396.200   3
 -11 -12  -2 3351.29 483.067   3
  12  11  -2 2934.32 385.960   2
 -23  12  -2 3995.24 464.865   3
 -23  12  -2 4254.28 547.705   4
 -23  12  -2 4546.46 633.072   2
  12  11  -2 4695.36 582.204   1
  23 -11  -2 2977.44 453.621   1
 -12  23  -2 3556.68 474.426   4
 -12  23  -2 3703.59 514.015   2
  23 -11   1 8985.51 577.058   1
 -11 -12   1 8714.81 611.837   3
  12  11   1 7893.04 616.240   2
 -23  12   1 8521.93 620.476   3
 -23  12   1 9345.79 726.386   4
 -23  12   1 9826.64 670.815   2
  12  11   1 10103.9 621.765   1
 -12  23   1 10047.2 712.200   4
 -12  23   1 8560.70 627.529   2
 -23  12   4 247.796 157.552   2
  12  11   4 34.3507 219.238   1
 -12  23   4 477.088 345.803   2
  23 -11   4 210.051 249.660   1
 -23  12   4-125.466 317.999   4
 -12  23   4 399.978 331.172   4
  12  11   4 605.267 193.967   1
 -12  23   7 3726.88 550.134   2
 -23  12   7 3066.46 421.562   4
 -12  23   7 3738.66 527.648   4
  10 -23  -6 4355.32 618.724   3
  23 -10  -6 1865.66 504.829   1
  13  10  -6 3559.81 664.132   1
  13  10  -6 2608.75 301.792   2
 -10 -13  -6 2916.51 587.320   3
 -23  13  -6 3419.47 545.908   3
 -23  13  -6 3318.21 581.910   4
 -23  13  -6 2561.39 644.627   2
 -13  23  -6 4411.30 555.345   4
  10 -23  -6 3401.37 465.359   1
 -13  23  -6 3609.38 617.746   2
  13  10  -3 1242.70 459.054   1
  10 -23  -3 2351.23 389.106   3
  23 -10  -3 1750.92 431.901   1
 -10 -13  -3 1024.96 388.041   3
 -23  13  -3 1543.93 380.922   3
  13  10  -3 1389.33 317.404   2
 -23  13  -3 1450.14 453.295   4
 -23  13  -3 772.651 473.848   2
 -13  23  -3 1878.67 441.589   4
 -13  23  -3 1573.01 433.212   2
  10 -23   0 6912.74 235.699   3
 -10 -13   0 6822.04 551.089   3
  13  10   0 7089.71 581.064   2
 -23  13   0 7470.16 585.222   3
 -23  13   0 7316.53 671.167   4
 -23  13   0 8275.87 683.737   2
  13  10   0 8489.14 604.926   1
 -13  23   0 8175.96 662.102   4
  23 -10   0 8196.23 574.590   1
 -13  23   0 8016.88 635.969   2
  13  10   3-166.683 260.544   1
 -13  23   3 13.5844 304.097   2
  23 -10   3-78.6243 258.050   1
 -10 -13   3 171.567 327.830   3
 -23  13   3 238.450 328.139   4
 -13  23   3 713.046 373.750   4
 -23  13   3 143.428 230.525   2
 -13  23   6 2659.15 480.214   2
 -23  13   6 3854.36 467.604   4
 -13  23   6 4509.58 559.455   4
   9 -23  -7 3131.74 642.336   3
  14   9  -7 1233.16 604.401   1
  -9 -14  -7 2252.24 596.727   3
 -23  14  -7 1556.90 486.960   3
 -23  14  -7 1565.39 471.043   4
 -23  14  -7 2137.26 691.002   2
 -14  23  -7 2396.38 507.111   4
   9 -23  -7 3261.56 464.686   1
 -14  23  -7 2721.14 625.238   2
  23  -9  -7 3007.00 587.608   1
  23  -9  -4 975.631 451.711   1
  14   9  -4 1443.73 475.253   1
   9 -23  -4 527.948 352.170   3
  -9 -14  -4 570.550 412.107   3
 -23  14  -4 494.493 351.549   3
  14   9  -4 321.805 252.828   2
 -23  14  -4 514.052 409.309   4
 -14  23  -4 489.865 370.249   4
 -23  14  -4 838.497 510.743   2
 -14  23  -4 568.594 414.131   2
   9 -23  -1 4194.87 326.079   3
  -9 -14  -1 3135.94 431.059   3
  14   9  -1 2779.42 411.577   2
 -23  14  -1 3463.41 439.679   3
 -23  14  -1 4579.50 571.107   4
  23  -9  -1 3453.81 456.496   1
 -14  23  -1 4317.45 526.281   4
 -23  14  -1 2443.63 528.520   2
  14   9  -1 3557.03 493.009   1
 -14  23  -1 3131.89 470.136   2
  14   9   2 312.266 280.194   1
 -14  23   2 289.829 303.612   2
  23  -9   2 1026.37 309.148   1
  -9 -14   2 1130.80 356.179   3
 -23  14   2 435.994 364.647   4
 -14  23   2 119.774 332.727   4
 -23  14   2 656.342 295.824   2
 -23  14   5 2859.35 233.207   2
 -14  23   5 3456.09 500.635   2
 -23  14   5 3719.38 492.475   4
 -14  23   5 3905.10 517.738   4
 -14  23   8-37.8320 380.919   2
 -14  23   8 668.091 375.863   4
   8 -23  -8 2491.92 662.112   3
  15   8  -8 1631.45 638.097   1
  -8 -15  -8 1240.43 587.581   3
 -23  15  -8 1376.37 477.816   3
   8 -23  -8 2156.12 436.929   1
 -23  15  -8 882.755 418.315   4
 -23  15  -8 303.440 571.397   2
 -15  23  -8 2253.90 542.147   4
 -15  23  -8 1970.09 589.238   2
  23  -8  -8 2024.99 613.333   1
   8 -23  -5 6360.09 642.538   3
  -8 -15  -5 5339.89 652.848   3
 -23  15  -5 5918.54 578.012   3
  15   8  -5 4481.73 362.824   2
  23  -8  -5 4695.57 623.920   1
 -23  15  -5 5466.06 655.846   4
 -23  15  -5 6941.47 863.255   2
 -15  23  -5 6620.47 652.514   4
 -15  23  -5 5370.83 697.002   2
  15   8  -5 6460.90 733.136   1
  15   8  -2-96.3128 361.676   1
  23  -8  -2 332.234 360.655   1
   8 -23  -2 188.963 254.703   3
  -8 -15  -2 221.272 334.422   3
 -23  15  -2 314.529 305.037   3
  15   8  -2 314.878 263.275   2
 -23  15  -2 933.376 409.644   4
 -23  15  -2-320.883 427.960   2
 -15  23  -2 162.644 351.766   4
 -15  23  -2 240.865 348.901   2
  -8 -15   1 3841.39 443.224   3
 -23  15   1 2903.84 497.819   4
 -23  15   1 3968.87 488.251   2
 -15  23   1 3881.50 535.518   4
  15   8   1 4446.48 468.074   1
  23  -8   1 3581.91 422.241   1
 -15  23   1 3886.71 482.696   2
 -23  15   4 1521.56 266.966   2
 -15  23   4 1343.31 371.123   2
  15   8   4 1036.67 190.468   1
 -23  15   4 1693.60 416.053   4
  23  -8   4 1315.43 267.232   1
 -15  23   4 2048.06 458.048   4
 -15  23   7 4644.08 552.685   2
 -23  15   7 4390.84 500.054   4
 -15  23   7 5577.49 609.313   4
   7 -23  -6 2995.01 589.916   3
  16   7  -6 1401.00 539.605   1
  -7 -16  -6 1619.18 507.484   3
  23  -7  -6 3700.21 633.590   1
 -23  16  -6 2155.13 482.680   3
 -23  16  -6 3400.79 569.029   4
 -16  23  -6 3199.21 548.405   4
 -23  16  -6 1886.58 685.273   2
 -16  23  -6 2620.54 584.989   2
  16   7  -3 163.255 398.134   1
   7 -23  -3 966.736 350.484   3
  -7 -16  -3-237.774 383.463   3
 -23  16  -3 663.759 343.855   3
 -23  16  -3 595.209 406.983   4
 -23  16  -3 377.597 448.617   2
 -16  23  -3 1216.31 413.012   4
 -16  23  -3 845.854 429.577   2
  23  -7  -3 1338.55 458.450   1
 -16  23   0 1705.40 395.514   2
  16   7   0 2338.81 424.748   1
   7 -23   0 1744.39 182.866   3
  23  -7   0 2493.56 406.851   1
  -7 -16   0 1872.01 361.519   3
 -23  16   0 1963.19 457.595   4
 -16  23   0 2282.10 501.670   4
 -23  16   0 2128.20 461.407   2
 -16  23   3 2498.74 415.136   2
  23  -7   3 2346.30 322.178   1
  -7 -16   3 2321.90 383.565   3
 -23  16   3 2257.37 448.897   4
 -16  23   3 3836.18 520.725   4
 -23  16   3 2984.05 367.343   2
  16   7   3 2812.08 331.222   1
 -16  23   6 7394.76 657.027   2
 -23  16   6 7233.34 610.206   4
 -16  23   6 8386.97 688.909   4
   6 -23  -7 3452.46 674.423   3
  -6 -17  -7 1659.54 555.273   3
  17   6  -7 3137.05 667.082   1
 -23  17  -7 2739.70 509.232   3
 -23  17  -7 2316.82 532.996   4
 -23  17  -7 1633.89 645.179   2
 -17  23  -7 2250.33 542.097   4
  23  -6  -7 1980.53 592.664   1
 -17  23  -7 3380.11 662.823   2
   6 -23  -4 2031.20 421.182   3
  17   6  -4 2069.51 512.624   1
  -6 -17  -4 1578.45 476.065   3
 -23  17  -4 1767.94 412.368   3
 -23  17  -4 1406.13 458.030   4
 -23  17  -4 2174.72 582.067   2
 -17  23  -4 1543.65 430.695   4
  23  -6  -4 2085.13 489.439   1
 -17  23  -4 1718.09 488.997   2
  23  -6  -1 1267.25 415.846   1
  17   6  -1 1307.76 410.593   1
   6 -23  -1 1335.92 263.820   3
  -6 -17  -1 1378.73 343.650   3
 -23  17  -1 1303.78 339.471   3
 -23  17  -1 1221.23 413.473   4
 -17  23  -1 1333.06 401.512   4
 -23  17  -1 2063.46 488.338   2
 -17  23  -1 1796.30 437.939   2
  -6 -17   2 2930.72 396.460   3
 -23  17   2 3499.83 506.989   4
 -17  23   2 3168.76 494.251   4
 -23  17   2 3747.61 448.035   2
 -17  23   2 4026.11 486.262   2
  23  -6   2 2630.45 365.687   1
  17   6   2 4104.85 410.647   1
 -23  17   5 1967.09 307.648   2
 -17  23   5 1569.01 395.103   2
 -23  17   5 1564.15 408.429   4
 -17  23   5 1613.51 436.026   4
 -17  23   8 716.708 406.564   2
 -23  17   8 714.307 356.315   4
 -17  23   8 798.345 358.176   4
  -5 -18  -5 4015.30 588.040   3
   5 -23  -5 3764.44 527.602   3
  18   5  -5 2612.50 565.821   1
 -23  18  -5 4218.41 475.584   3
 -23  18  -5 4035.53 579.006   4
 -23  18  -5 5049.77 756.486   2
 -18  23  -5 4636.37 592.627   4
 -18  23  -5 4234.98 669.725   2
  23  -5  -5 3674.58 582.641   1
   5 -23  -2 1000.57 304.096   3
  18   5  -2 40.1925 379.095   1
  -5 -18  -2 565.389 356.092   3
 -23  18  -2 772.583 324.414   3
 -23  18  -2 650.931 383.939   4
 -18  23  -2 1282.99 432.769   4
 -23  18  -2 572.713 429.741   2
  23  -5  -2 417.038 375.818   1
 -18  23  -2 503.332 421.791   2
  -5 -18   1 3994.68 424.686   3
   5 -23   1 3633.30 165.733   3
 -23  18   1 4545.40 557.051   4
  23  -5   1 4101.86 433.076   1
 -23  18   1 5423.50 555.084   2
 -18  23   1 4536.80 528.000   2
  18   5   1 4505.54 464.013   1
  18   5   4 1071.34 194.345   1
 -23  18   4 1871.62 327.860   2
  23  -5   4 1618.87 263.997   1
 -18  23   4 1578.34 382.228   2
 -23  18   4 1815.79 433.853   4
 -18  23   4 1981.17 431.079   4
 -18  23   7 1838.16 446.853   2
 -23  18   7 1406.43 406.014   4
 -18  23   7 1775.69 444.097   4
   4 -23  -6 2246.32 542.766   3
  -4 -19  -6 1832.01 538.376   3
  19   4  -6 2315.46 594.543   1
 -23  19  -6 1659.09 415.337   3
 -23  19  -6 1500.77 498.564   4
  23  -4  -6 2145.04 552.781   1
 -19  23  -6 2250.71 509.016   4
 -23  19  -6 1401.35 627.212   2
 -19  23  -6 1952.13 551.320   2
   4 -23  -3 4834.08 503.749   3
  -4 -19  -3 4544.54 536.657   3
 -23  19  -3 4289.65 436.174   3
 -23  19  -3 4040.33 587.353   4
 -23  19  -3 6072.02 762.681   2
 -19  23  -3 4539.38 576.966   4
 -19  23  -3 4507.78 635.972   2
  23  -4  -3 2929.71 515.152   1
  19   4  -3 5781.81 637.986   1
  19   4   0 7044.95 577.667   1
   4 -23   0 6875.68 370.380   3
  -4 -19   0 6802.50 506.524   3
  23  -4   0 7211.45 573.479   1
 -23  19   0 7151.06 666.711   4
 -19  23   0 7730.75 676.185   4
 -23  19   0 6834.91 658.193   2
 -19  23   0 8477.82 697.243   2
  23  -4   3 3974.30 371.467   1
  19   4   3 3595.55 359.378   1
 -23  19   3 5290.63 606.285   4
 -23  19   3 4913.93 472.700   2
 -19  23   3 4950.77 546.707   2
 -23  19   6 3299.92 362.939   2
 -19  23   6 3612.07 515.060   2
 -23  19   6 4313.61 556.511   4
 -19  23   6 4016.85 546.119   4
   3 -23  -7 352.147 512.664   3
  -3 -20  -7-284.226 483.657   3
  20   3  -7 1619.91 614.856   1
 -23  20  -7-56.8941 369.175   3
  23  -3  -7 822.635 580.034   1
 -23  20  -7 1013.26 460.541   4
 -20  23  -7 1486.01 495.875   4
 -23  20  -7 1094.08 636.458   2
 -20  23  -7 478.517 512.855   2
   3 -23  -4 1237.88 434.016   3
  -3 -20  -4 886.102 398.740   3
  20   3  -4 750.658 464.308   1
 -23  20  -4 1071.20 337.090   3
 -23  20  -4 1049.63 453.397   4
  23  -3  -4 1208.03 480.610   1
 -20  23  -4 927.386 404.498   4
 -23  20  -4 203.760 493.947   2
 -20  23  -4 1223.34 504.257   2
   3 -23  -1 1587.57 311.414   3
  -3 -20  -1 1523.17 360.287   3
  20   3  -1 1654.60 438.931   1
 -20  23  -1 2843.35 507.635   4
 -23  20  -1 1776.59 432.410   4
  23  -3  -1 1104.81 420.107   1
 -23  20  -1 2182.56 522.358   2
 -20  23  -1 2162.48 488.681   2
  20   3   2 4445.90 431.168   1
  -3 -20   2 4809.85 415.961   3
 -23  20   2 5090.17 609.037   4
 -20  23   2 6002.42 638.308   4
  23  -3   2 3993.61 411.436   1
 -23  20   2 5290.96 548.331   2
 -20  23   2 6736.91 609.147   2
 -23  20   5 343.585 279.935   2
 -20  23   5 158.198 324.406   2
 -23  20   5 617.617 382.750   4
 -20  23   5 817.535 400.690   4
  21   2  -5 3583.67 654.844   1
   2 -23  -5 2728.14 532.372   3
  -2 -21  -5 3275.53 546.106   3
 -23  21  -5 2844.03 384.323   3
  23  -2  -5 1464.41 516.878   1
 -23  21  -5 2641.15 536.412   4
 -21  23  -5 2683.23 535.770   4
 -23  21  -5 3641.88 715.690   2
 -21  23  -5 3511.12 676.270   2
   2 -23  -2 883.039 329.168   3
  -2 -21  -2 827.581 377.211   3
  21   2  -2 219.115 398.957   1
 -23  21  -2 103.547 377.907   4
 -21  23  -2 930.687 414.267   4
  23  -2  -2 1245.06 430.071   1
 -23  21  -2 166.054 441.729   2
 -21  23  -2 934.287 437.720   2
  23  -2   1 2056.87 391.838   1
   2 -23   1 1716.04 235.946   3
  -2 -21   1 1241.43 284.940   3
  21   2   1 1971.13 388.055   1
 -21  23   1 1948.92 472.619   4
 -23  21   1 1801.40 464.760   4
 -23  21   1 1627.63 419.647   2
 -21  23   1 2108.92 430.764   2
 -23  21   4 611.477 318.604   2
 -21  23   4 601.502 328.726   2
  23  -2   4 264.148 217.593   1
  21   2   4 148.800 177.591   1
 -23  21   4 967.379 414.618   4
 -21  23   4 169.014 368.950   4
 -21  23   7 817.299 368.423   2
 -23  21   7 466.247 351.318   4
 -21  23   7 953.123 423.844   4
   1 -23  -6 382.072 476.722   3
  -1 -22  -6 689.350 478.437   3
  22   1  -6 447.295 500.522   1
  23  -1  -6 41.0635 516.791   1
 -23  22  -6 838.767 441.777   4
 -22  23  -6 809.908 447.235   4
 -23  22  -6 276.874 565.107   2
 -22  23  -6 868.958 583.634   2
  22   1  -3 3623.89 579.647   1
  23  -1  -3 4023.03 602.449   1
   1 -23  -3 3722.94 503.199   3
  -1 -22  -3 3895.97 487.069   3
 -23  22  -3 3445.24 564.992   4
 -22  23  -3 4535.85 626.448   4
 -23  22  -3 5179.03 715.834   2
 -22  23  -3 4520.43 690.437   2
   1 -23   0 2636.59 328.515   3
  -1 -22   0 2611.67 359.033   3
 -23  22   0 2917.94 554.474   4
  22   1   0 2620.26 451.025   1
 -22  23   0 2774.31 530.921   4
 -22  23   0 2499.93 533.203   2
  23  -1   0 2260.18 450.141   1
 -23  22   0 2455.28 498.969   2
  22   1   3 3000.09 350.642   1
 -23  22   3 3991.70 591.723   4
 -22  23   3 3903.93 586.713   4
  23  -1   3 2433.99 336.769   1
 -23  22   3 2969.97 454.609   2
 -22  23   3 4755.67 511.785   2
 -23  22   6 1238.15 359.333   2
 -22  23   6 1444.29 394.894   2
 -23  22   6 1511.04 464.589   4
 -22  23   6 743.265 402.209   4
   0 -23  -4 1948.23 462.505   3
  23   0  -4 1405.03 510.035   1
 -23  23  -4 2274.35 523.214   4
 -23  23  -4 2153.41 600.263   2
   0 -23  -1 294.026 268.217   3
  23   0  -1-324.844 373.208   1
 -23  23  -1-39.8530 393.172   4
 -23  23  -1 68.6488 405.085   2
 -23  23   2 1450.96 416.677   2
  23   0   2 1218.53 337.873   1
 -23  23   2 1775.30 451.069   4
 -23  23   5 24.0520 300.151   2
 -23  23   5-315.139 382.857   4
   0  24  -6 1833.42 475.290   2
 -24   0  -6 1565.43 564.752   3
  24 -24  -6 1297.60 491.978   1
   0  24  -6 1407.93 414.435   4
   0  24  -3 352.280 345.714   2
  24 -24  -3-51.4179 368.390   1
 -24   0  -3-434.174 441.130   3
   0  24  -3-152.289 386.634   4
   0  24   0 7064.09 665.161   2
  24 -24   0 8147.62 662.433   1
 -24   0   0 7254.06 705.135   3
   0  24   0 8149.23 721.511   4
   0  24   3-275.472 416.503   2
 -24   0   3-591.370 486.788   3
   0  24   3 161.475 395.845   4
   0  24   6 3922.51 661.747   2
   0  24   6 4257.99 647.681   4
  24 -23  -4 209.513 377.608   1
  -1  24  -4 251.457 361.056   2
   1  23  -4 277.024 339.088   2
  23 -24  -4-274.099 371.822   1
 -23  -1  -4-92.6120 445.528   3
 -24   1  -4 487.338 467.792   3
  -1  24  -4 261.951 357.622   4
   1  23  -4-519.964 374.974   4
  23 -24  -1 827.209 365.834   1
  -1  24  -1 743.049 405.945   2
   1  23  -1 243.013 347.955   2
 -23  -1  -1 573.974 427.931   3
 -24   1  -1 884.614 435.388   3
  24 -23  -1 1392.71 435.883   1
  -1  24  -1 1123.54 410.206   4
   1  23  -1 483.751 351.392   4
  -1  24   2 829.326 418.507   2
  24 -23   2 169.199 363.220   1
   1  23   2 56.9844 377.668   2
 -23  -1   2 650.618 455.732   3
 -24   1   2 354.426 430.787   3
  -1  24   2 672.386 406.112   4
   1  23   2 1028.42 422.394   4
  -1  24   5 1125.56 479.653   2
   1  23   5 1520.67 482.817   2
  -1  24   5 946.460 468.087   4
   1  23   5 997.150 448.993   4
  -2  24  -5 795.529 404.749   2
   2  22  -5-50.6800 337.372   2
  22 -24  -5 888.269 426.350   1
 -22  -2  -5 1017.24 518.482   3
 -24   2  -5 762.344 499.347   3
  24 -22  -5 469.632 424.086   1
  -2  24  -5 1178.80 430.562   4
   2  22  -5 614.764 373.337   4
  -2  24  -2 1174.09 388.410   2
   2  22  -2 800.825 345.095   2
  24 -22  -2 1164.74 422.616   1
 -22  -2  -2 373.094 396.344   3
 -24   2  -2 501.377 402.981   3
  -2  24  -2 1878.16 440.595   4
   2  22  -2 1456.43 425.534   4
  22 -24  -2 954.445 392.317   1
  -2  24   1 1634.13 455.888   2
   2  22   1 2042.16 449.444   2
 -22  -2   1 1666.41 449.677   3
 -24   2   1 1616.29 449.939   3
  24 -22   1 2181.71 445.177   1
  22 -24   1 1631.55 407.231   1
  -2  24   1 2285.18 477.725   4
   2  22   1 2096.09 469.095   4
  -2  24   4 198.545 380.534   2
   2  22   4 344.250 401.930   2
  -2  24   4 783.662 440.571   4
   2  22   4 420.768 441.822   4
   3  21  -6 5984.25 606.441   2
  24 -21  -6 6642.55 698.850   1
 -21  -3  -6 5331.27 754.467   3
 -24   3  -6 5293.49 714.545   3
  21 -24  -6 6499.31 673.798   1
   3  21  -6 7122.58 896.910   1
  -3  24  -6 6454.52 625.184   4
   3  21  -6 6102.37 609.373   4
  -3  24  -6 7159.05 697.950   2
  -3  24  -3 443.257 384.776   2
   3  21  -3 296.677 331.365   2
 -21  -3  -3 1074.81 472.728   3
 -24   3  -3 1090.72 445.698   3
  21 -24  -3 298.383 392.218   1
  24 -21  -3 592.259 375.869   1
  -3  24  -3 185.179 356.377   4
   3  21  -3 871.672 387.899   4
  -3  24   0 7456.72 669.402   2
   3  21   0 6220.08 593.625   2
 -21  -3   0 6306.96 647.814   3
 -24   3   0 6668.68 631.204   3
  21 -24   0 7280.05 621.491   1
  -3  24   0 8095.73 683.222   4
   3  21   0 7585.21 667.175   4
  24 -21   0 6547.35 581.043   1
  -3  24   3 444.795 365.185   2
   3  21   3 595.676 409.568   2
 -21  -3   3 359.604 448.457   3
 -24   3   3 970.062 448.439   3
  -3  24   3 1191.23 446.758   4
   3  21   3 216.333 380.040   4
  -3  24   6 2829.72 549.084   2
   3  21   6 2768.36 547.106   2
 -24   3   6 2472.48 446.614   4
  -3  24   6 3697.36 584.316   4
   3  21   6 3294.68 582.552   4
  -4  24  -7 1406.06 450.811   2
   4  20  -7 1075.11 375.469   2
  20 -24  -7 885.612 418.437   1
 -20  -4  -7 641.398 551.512   3
 -24   4  -7 624.767 522.199   3
   4  20  -7 1357.34 665.132   1
  -4  24  -7 810.758 381.411   4
   4  20  -7 885.202 369.986   4
  24 -20  -7 753.963 448.690   1
  -4  24  -4 650.372 380.625   2
   4  20  -4 1178.77 390.184   2
  24 -20  -4 1037.14 410.282   1
 -20  -4  -4 891.758 459.677   3
 -24   4  -4 542.407 445.514   3
  20 -24  -4 967.863 399.232   1
  -4  24  -4 1512.90 434.882   4
   4  20  -4 1037.20 367.497   4
  -4  24  -1 2672.61 470.537   2
  24 -20  -1 2454.35 429.886   1
   4  20  -1 1210.98 361.357   2
 -20  -4  -1 1749.64 434.175   3
 -24   4  -1 2572.72 495.231   3
  20 -24  -1 2614.39 444.042   1
   4  20  -1 3521.42 498.831   4
  -4  24  -1 2347.93 449.661   4
  -4  24   2 1140.13 402.436   2
   4  20   2 1044.33 424.294   2
 -20  -4   2 52.5242 380.349   3
 -24   4   2 269.451 416.430   3
  -4  24   2 372.843 359.335   4
  24 -20   2 443.991 339.366   1
   4  20   2 827.340 389.340   4
  -4  24   5 1453.77 485.153   2
   4  20   5 754.836 424.020   2
  -4  24   5 1749.07 474.334   4
   4  20   5 966.106 435.763   4
  -5  24  -5 1011.16 428.032   2
   5  19  -5 655.883 336.988   2
 -19  -5  -5 1245.18 516.087   3
 -24   5  -5 1247.54 476.738   3
  19 -24  -5 1595.74 448.115   1
   5  19  -5 1817.39 640.909   1
  -5  24  -5 1358.26 405.726   4
   5  19  -5 417.525 348.003   4
  24 -19  -5 349.934 412.492   1
  -5  24  -2 1337.17 422.655   2
   5  19  -2 1277.95 357.183   2
 -19  -5  -2 2291.78 491.746   3
 -24   5  -2 1352.73 427.925   3
  19 -24  -2 2079.07 426.980   1
  24 -19  -2 1764.15 416.069   1
  -5  24  -2 1798.36 408.567   4
   5  19  -2 2075.82 432.848   4
  -5  24   1 1994.42 420.814   2
   5  19   1 1274.62 385.832   2
 -19  -5   1 1689.37 460.116   3
 -24   5   1 2212.14 448.888   3
  24 -19   1 1636.07 384.055   1
  -5  24   1 2125.17 450.409   4
   5  19   1 2376.43 446.734   4
  -5  24   4 947.486 395.126   2
   5  19   4 696.987 440.715   2
  -5  24   4 2250.72 500.412   4
   5  19   4 2338.22 499.148   4
  -5  24   7 1435.12 495.239   2
 -24   5   7 1290.27 364.336   4
  -5  24   7 1863.20 510.793   4
   5  19   7 1606.41 474.494   4
   6  18  -6 4297.67 492.868   2
 -18  -6  -6 3562.07 655.300   3
 -24   6  -6 3331.81 581.542   3
  18 -24  -6 3974.15 542.169   1
  24 -18  -6 3631.15 567.144   1
  -6  24  -6 5368.02 565.162   4
   6  18  -6 4442.73 773.453   1
  -6  24  -6 4932.03 633.969   2
   6  18  -6 3578.81 499.521   4
  18 -24  -6 4417.76 653.258   3
  -6  24  -3 1470.45 416.729   2
  24 -18  -3 801.740 387.096   1
  18 -24  -3 1162.85 385.453   1
   6  18  -3 845.099 361.191   2
 -18  -6  -3 1133.15 453.812   3
 -24   6  -3 1469.87 441.173   3
   6  18  -3 1458.30 504.860   1
  -6  24  -3 1353.32 388.036   4
   6  18  -3 1325.25 395.945   4
  -6  24   0 5685.39 604.234   2
  18 -24   0 5902.09 564.549   1
   6  18   0 5863.68 567.339   2
  18 -24   0 4998.32 325.784   3
 -18  -6   0 4581.37 552.661   3
 -24   6   0 4498.80 551.552   3
  24 -18   0 4966.24 526.133   1
  -6  24   0 6788.83 636.487   4
   6  18   0 6681.99 620.692   4
  -6  24   3 1207.11 393.469   2
   6  18   3 1231.65 425.658   2
  24 -18   3 1386.14 350.436   1
 -18  -6   3 1562.92 458.118   3
 -24   6   3 718.053 254.757   2
  -6  24   3 1334.48 452.650   4
   6  18   3 1321.13 433.777   4
  -6  24   6 3272.87 546.665   2
   6  18   6 3391.62 598.774   2
 -24   6   6 2934.46 479.097   4
  -6  24   6 4868.46 612.066   4
   6  18   6 3837.78 597.329   4
  -7  24  -7 914.814 484.234   2
  17 -24  -7-6.86797 555.091   3
   7  17  -7 851.033 333.816   2
 -17  -7  -7 293.381 491.724   3
 -24   7  -7 412.776 491.862   3
  17 -24  -7 871.867 432.944   1
  24 -17  -7 1261.57 497.003   1
  -7  24  -7 531.121 414.100   4
   7  17  -7 1222.93 652.386   1
   7  17  -7 554.461 371.200   4
  -7  24  -4 1970.50 452.448   2
  17 -24  -4 1411.29 421.669   1
   7  17  -4 1513.13 354.594   2
 -17  -7  -4 1638.60 523.708   3
 -24   7  -4 947.345 430.092   3
   7  17  -4 1568.98 552.703   1
  24 -17  -4 1462.88 461.562   1
  -7  24  -4 1498.14 415.178   4
   7  17  -4 1640.00 397.169   4
  -7  24  -1 264.447 343.184   2
  17 -24  -1 453.143 349.043   1
   7  17  -1 343.446 331.087   2
 -17  -7  -1-459.138 349.209   3
  17 -24  -1 153.545 199.128   3
 -24   7  -1 252.697 368.815   3
  24 -17  -1 240.640 319.865   1
  -7  24  -1 154.228 328.870   4
   7  17  -1-174.198 314.557   4
  24 -17   2 525.133 307.233   1
  -7  24   2 558.554 358.970   2
   7  17   2 188.601 338.168   2
 -17  -7   2 799.962 384.474   3
 -24   7   2 179.191 369.773   3
 -24   7   2 708.823 330.386   2
  -7  24   2 352.075 349.966   4
   7  17   2 364.234 346.614   4
  -7  24   5 1411.45 438.177   2
   7  17   5 902.814 438.573   2
 -24   7   5 1190.31 396.598   4
  -7  24   5 2092.76 478.670   4
   7  17   5 2325.12 526.787   4
  16 -24  -5 635.999 353.181   1
  -8  24  -5 1676.86 471.034   2
  16 -24  -5 803.212 435.581   3
   8  16  -5 1353.19 347.018   2
 -16  -8  -5 1502.43 490.293   3
 -24   8  -5 942.719 417.748   3
  24 -16  -5 1745.36 511.591   1
  -8  24  -5 1890.69 435.376   4
   8  16  -5 1420.45 606.109   1
   8  16  -5 1245.40 402.340   4
  24 -16  -2 3585.33 492.421   1
   8  16  -2 3740.22 453.481   2
 -16  -8  -2 2269.48 520.268   3
 -24   8  -2 2799.26 460.392   3
   8  16  -2 4407.57 598.007   1
  -8  24  -2 3588.84 524.188   4
  16 -24  -2 4793.98 525.409   1
   8  16  -2 4277.66 489.528   4
  -8  24  -2 3760.68 506.809   2
  16 -24  -2 4407.66 460.006   3
  -8  24   1 1376.39 391.418   2
  24 -16   1 1441.72 373.112   1
   8  16   1 1197.69 369.361   2
 -16  -8   1 1285.66 413.671   3
 -24   8   1 2190.89 440.633   3
 -24   8   1 1501.81 420.652   2
  -8  24   1 2073.58 430.047   4
   8  16   1 1790.16 412.005   4
  -8  24   4 4077.26 535.946   2
   8  16   4 3655.59 567.676   2
 -24   8   4 3281.67 504.087   4
  -8  24   4 4365.65 573.911   4
   8  16   4 4083.13 576.674   4
  -8  24   7 536.108 414.348   2
 -24   8   7 444.256 316.421   4
  -8  24   7 969.057 419.661   4
  15 -24  -6 4655.35 658.338   3
  15 -24  -6 4711.58 549.115   1
   9  15  -6 3059.40 406.043   2
 -15  -9  -6 3390.58 623.729   3
 -24   9  -6 3414.05 572.065   3
  24 -15  -6 3488.36 560.472   1
   9  15  -6 5687.13 781.636   1
  -9  24  -6 5252.60 601.596   4
  -9  24  -6 3898.04 590.601   2
   9  15  -3 4329.63 465.835   2
 -15  -9  -3 3557.65 558.775   3
 -24   9  -3 4389.58 549.955   3
   9  15  -3 5756.46 680.981   1
  15 -24  -3 4793.33 519.980   1
  -9  24  -3 5253.71 581.060   4
  -9  24  -3 5599.61 611.370   2
  24 -15  -3 4090.97 507.647   1
   9  15  -3 4688.53 513.385   4
  15 -24  -3 4377.82 496.410   3
  15 -24   0 3675.01 227.795   3
   9  15   0 3528.92 481.279   2
  15 -24   0 3130.83 202.865   3
  24 -15   0 3657.38 447.613   1
 -15  -9   0 3344.21 495.570   3
 -24   9   0 3567.07 486.148   3
   9  15   0 4639.21 524.946   1
 -24   9   0 2301.90 477.730   2
  -9  24   0 4430.83 537.669   4
   9  15   0 4364.31 530.254   4
  -9  24   0 4355.78 525.508   2
  -9  24   3 1222.90 388.727   2
  24 -15   3 543.586 277.687   1
 -24   9   3 1054.57 408.738   4
   9  15   3 879.350 387.572   2
 -15  -9   3 686.793 392.519   3
   9  15   3 1118.15 333.889   1
 -24   9   3 204.154 218.245   2
  -9  24   3 646.583 349.741   4
   9  15   3 473.302 372.262   4
  -9  24   6 1153.12 424.692   2
 -24   9   6 516.272 321.691   4
  -9  24   6 1253.39 425.615   4
  14 -24  -7 791.632 409.977   1
  14 -24  -7 1471.48 583.216   3
 -14 -10  -7 1037.09 530.146   3
  24 -14  -7 324.456 441.107   1
  10  14  -7 1001.26 313.912   2
 -24  10  -7 753.235 470.714   3
 -10  24  -7 197.971 400.335   4
 -10  24  -7 586.206 447.339   2
  10  14  -7 1027.97 617.648   1
 -10  24  -4 1417.44 475.655   2
  14 -24  -4 2073.03 457.697   3
 -14 -10  -4 944.614 454.519   3
  10  14  -4 1208.58 308.463   2
 -24  10  -4 1075.70 414.628   3
  24 -14  -4 1678.13 457.990   1
 -10  24  -4 1281.64 417.533   4
  10  14  -4 1809.11 534.479   1
  10  14  -4 1055.09 350.967   4
  14 -24  -4 674.782 364.879   1
  14 -24  -1 1838.82 281.883   3
 -10  24  -1 2216.04 447.194   2
 -14 -10  -1 934.805 377.420   3
  10  14  -1 908.217 315.268   2
 -24  10  -1 1541.55 387.694   3
  14 -24  -1 1527.58 221.035   3
 -24  10  -1 1507.22 491.434   2
 -10  24  -1 2292.39 466.008   4
  10  14  -1 2202.98 475.798   1
  24 -14  -1 1693.86 391.090   1
  10  14  -1 1973.36 394.420   4
 -10  24   2 3664.76 481.951   2
 -14 -10   2 3127.43 495.431   3
  10  14   2 1950.15 448.306   2
  10  14   2 3004.04 415.223   1
 -24  10   2 2403.46 479.914   4
 -24  10   2 2645.27 385.660   2
  24 -14   2 2342.87 379.306   1
 -10  24   2 3033.14 487.473   4
  10  14   2 3008.30 486.752   4
 -10  24   5 816.490 414.109   2
 -24  10   5 773.518 371.941   4
 -10  24   5 1256.13 406.774   4
  10  14   5 956.058 229.759   1
 -10  24   8 324.647 468.794   2
 -10  24   8 1131.00 449.170   4
  11  13  -8 3814.21 766.556   1
  13 -24  -8 4653.38 750.857   3
  13 -24  -8 3183.19 551.331   1
  24 -13  -8 2474.20 642.071   1
 -13 -11  -8 2731.30 656.079   3
 -24  11  -8 2151.83 551.967   3
 -24  11  -8 2221.34 584.948   4
 -11  24  -8 4378.52 615.392   4
 -11  24  -8 3673.15 654.113   2
  13 -24  -5 1980.07 516.317   3
  24 -13  -5 630.657 473.458   1
 -13 -11  -5 596.918 498.796   3
  11  13  -5 1247.34 296.874   2
 -24  11  -5 1071.59 418.473   3
 -11  24  -5 2372.40 470.367   4
  13 -24  -5 1914.77 406.946   1
  11  13  -5 2454.70 633.839   1
 -11  24  -5 1867.34 497.689   2
  13 -24  -2 5688.60 441.894   3
  11  13  -2 4821.41 477.269   2
 -13 -11  -2 4130.64 537.431   3
 -24  11  -2 5014.22 541.524   3
 -24  11  -2 3744.41 635.633   2
  11  13  -2 4785.16 603.732   1
 -11  24  -2 5801.87 601.118   4
  24 -13  -2 5612.52 552.121   1
 -11  24  -2 5326.75 580.834   2
  11  13  -2 4995.66 521.688   4
 -11  24   1 1482.13 384.894   2
 -13 -11   1 2321.49 441.304   3
  24 -13   1 1402.00 347.496   1
  11  13   1 1666.41 412.053   2
 -24  11   1 1648.09 425.277   3
 -24  11   1 1690.19 483.182   4
 -24  11   1 643.473 346.298   2
 -11  24   1 2327.47 467.051   4
  11  13   1 1710.21 394.992   1
  11  13   1 1894.36 414.422   4
 -11  24   4 3140.37 492.868   2
  24 -13   4 1982.32 354.366   1
 -24  11   4 2573.81 465.204   4
  11  13   4 2501.70 332.706   1
 -11  24   4 3282.96 515.117   4
 -24  11   4 1461.37 193.128   2
 -11  24   7-195.663 408.724   2
 -24  11   7 144.218 300.413   4
 -11  24   7 475.387 373.273   4
  12  12  -6 3435.86 690.342   1
  12 -24  -6 2491.73 599.811   3
  24 -12  -6 1399.72 491.992   1
 -12 -12  -6 1819.89 543.654   3
 -24  12  -6 2247.77 513.324   3
  12  12  -6 1224.32 300.534   2
 -24  12  -6 2119.47 514.501   4
 -12  24  -6 1984.49 443.531   4
  12 -24  -6 1833.11 440.842   1
 -12  24  -6 2066.16 521.353   2
 -24  12  -6 1395.90 625.984   2
  12 -24  -3 2788.00 417.392   3
  24 -12  -3 2024.26 467.325   1
 -12 -12  -3 2492.33 483.781   3
  12  12  -3 2175.11 361.587   2
 -24  12  -3 1715.75 414.668   3
 -24  12  -3 928.364 410.761   4
 -24  12  -3 2941.32 612.039   2
 -12  24  -3 3177.43 486.885   4
  12  12  -3 2984.76 549.616   1
 -12  24  -3 2709.73 505.324   2
 -12  24   0 1436.24 405.091   2
  12 -24   0 620.675 86.9731   3
 -12 -12   0 1097.50 382.986   3
  12  12   0 1143.60 384.636   2
 -24  12   0 440.394 353.456   3
 -24  12   0 1277.77 429.977   4
 -24  12   0 91.8313 368.966   2
 -12  24   0 1451.54 407.729   4
  24 -12   0 1103.68 347.848   1
  12  12   0 1291.47 388.567   1
 -12  24   3 1587.34 424.270   2
 -12 -12   3 2099.17 449.023   3
  12  12   3 1959.37 461.157   2
  24 -12   3 2199.83 340.054   1
 -24  12   3 2101.81 465.099   4
  12  12   3 2848.10 380.470   1
 -24  12   3 2249.22 304.840   2
 -12  24   3 2289.63 466.115   4
 -12  24   6 1596.59 461.982   2
 -24  12   6 1133.76 360.755   4
 -12  24   6 1644.59 454.174   4
  11 -24  -7-296.494 355.382   1
  13  11  -7 818.727 585.286   1
  24 -11  -7-304.367 471.209   1
  11 -24  -7-560.467 524.005   3
 -11 -13  -7-641.758 512.761   3
 -24  13  -7 59.4179 404.480   3
 -24  13  -7-498.902 457.305   4
 -24  13  -7 446.224 565.299   2
 -13  24  -7-128.915 419.869   4
 -13  24  -7 125.764 462.516   2
  13  11  -4 2152.21 552.159   1
  11 -24  -4 2247.67 445.639   3
  24 -11  -4 2147.91 518.123   1
 -11 -13  -4 2589.64 523.119   3
 -24  13  -4 2080.24 433.324   3
  13  11  -4 1553.69 314.090   2
  11 -24  -4 2348.18 438.760   1
 -24  13  -4 1573.91 440.430   4
 -24  13  -4 896.331 560.442   2
 -13  24  -4 1987.69 446.048   4
 -13  24  -4 2342.88 544.842   2
 -13  24  -1 1609.53 393.177   2
  11 -24  -1 2174.16 263.897   3
 -11 -13  -1 1195.64 381.403   3
  13  11  -1 1543.08 383.006   2
 -24  13  -1 1100.08 358.578   3
  24 -11  -1 1255.33 379.167   1
 -24  13  -1 1780.57 467.367   4
 -24  13  -1 1412.66 475.560   2
 -13  24  -1 2112.44 436.395   4
  13  11  -1 1900.03 442.191   1
  24 -11   2 3731.25 400.352   1
 -11 -13   2 4040.50 478.035   3
  13  11   2 3043.46 475.093   2
 -24  13   2 3037.74 518.500   4
 -24  13   2 4327.81 458.049   2
  13  11   2 4504.29 459.857   1
 -13  24   2 4248.26 558.788   4
 -13  24   2 4074.00 512.964   2
 -13  24   5 616.644 386.879   2
 -24  13   5 1129.64 394.169   4
 -13  24   5 1529.45 432.428   4
 -13  24   8 1824.95 505.225   2
 -13  24   8 3164.86 528.818   4
  24 -10  -8-45.2194 517.198   1
 -10 -14  -8 1379.42 624.262   3
 -24  14  -8 1558.40 474.680   3
  10 -24  -8 817.623 418.855   1
 -24  14  -8 471.063 439.256   4
 -24  14  -8 414.241 655.062   2
 -14  24  -8 1492.21 499.749   4
 -14  24  -8 1196.93 548.549   2
  14  10  -5 1430.02 517.156   1
  24 -10  -5 1717.68 528.835   1
  10 -24  -5 1439.85 450.419   3
 -10 -14  -5 1509.41 520.010   3
 -24  14  -5 1542.45 424.192   3
  14  10  -5 474.303 254.080   2
 -24  14  -5 867.243 446.139   4
 -24  14  -5 604.881 515.282   2
 -14  24  -5 926.134 406.673   4
 -14  24  -5 1431.64 472.641   2
  14  10  -2 2712.03 506.643   1
  10 -24  -2 3220.63 362.074   3
  14  10  -2 2544.63 388.067   2
 -10 -14  -2 2569.17 461.741   3
 -24  14  -2 2298.13 418.601   3
 -24  14  -2 3499.84 634.876   2
 -24  14  -2 2645.68 524.817   4
  24 -10  -2 2890.16 480.560   1
 -14  24  -2 3001.46 479.519   4
 -14  24  -2 2718.89 492.976   2
  14  10   1 2245.21 390.874   1
 -14  24   1 2249.21 444.201   2
 -10 -14   1 1389.98 360.288   3
  14  10   1 1283.02 392.637   2
 -24  14   1 948.538 378.116   4
 -14  24   1 2373.33 479.107   4
 -24  14   1 1501.31 371.206   2
  24 -10   1 878.138 332.623   1
 -24  14   4 1355.57 252.533   2
  24 -10   4 970.190 299.776   1
  14  10   4 1388.27 243.148   1
 -14  24   4 1177.66 390.182   2
 -24  14   4 1138.71 379.361   4
 -14  24   4 1730.61 419.853   4
 -14  24   7 512.176 425.145   2
 -24  14   7 1334.40 377.770   4
 -14  24   7 948.122 422.130   4
   9 -24  -6 1582.30 525.488   3
  15   9  -6 1644.95 609.613   1
  -9 -15  -6 1821.29 556.247   3
 -24  15  -6 1344.16 452.191   3
 -24  15  -6 718.137 421.749   4
 -24  15  -6 1229.64 649.921   2
 -15  24  -6 1458.21 455.882   4
 -15  24  -6 680.693 476.901   2
  24  -9  -6 925.874 523.064   1
  15   9  -3 1119.50 448.392   1
  24  -9  -3 1027.18 417.449   1
   9 -24  -3 1137.80 353.880   3
 -24  15  -3 1249.00 542.468   2
  -9 -15  -3 652.643 397.063   3
 -24  15  -3 489.341 326.564   3
  15   9  -3 230.576 261.668   2
 -24  15  -3 885.155 417.468   4
 -15  24  -3 343.483 357.397   4
 -15  24  -3 901.932 438.566   2
   9 -24   0 4245.16 200.741   3
  -9 -15   0 2552.21 441.205   3
 -24  15   0 3786.00 483.451   3
 -24  15   0 3836.10 556.843   4
 -24  15   0 4827.46 596.922   2
 -15  24   0 4678.15 565.180   4
  15   9   0 4075.32 486.927   1
  24  -9   0 4226.75 472.375   1
 -15  24   0 4221.83 530.825   2
 -15  24   3 4991.88 541.086   2
  -9 -15   3 4811.56 515.410   3
  24  -9   3 4332.56 407.518   1
 -24  15   3 4232.36 542.461   4
 -15  24   3 5236.04 581.558   4
 -24  15   3 5308.68 451.298   2
  15   9   3 4844.17 396.629   1
 -15  24   6 3251.22 512.013   2
 -24  15   6 4775.33 536.419   4
 -15  24   6 4249.00 572.731   4
   8 -24  -7 820.277 532.582   3
  16   8  -7 835.163 583.944   1
  -8 -16  -7 1064.73 549.343   3
 -24  16  -7 832.869 427.869   3
 -24  16  -7 155.871 429.325   4
 -24  16  -7-47.5052 611.772   2
 -16  24  -7 1291.96 510.478   4
 -16  24  -7 1016.99 539.725   2
  24  -8  -7 541.890 502.971   1
   8 -24  -4 4700.66 528.614   3
  -8 -16  -4 3680.76 577.913   3
 -24  16  -4 3852.31 476.277   3
  24  -8  -4 3403.50 582.044   1
 -24  16  -4 4069.16 592.638   4
 -16  24  -4 3954.42 558.042   4
 -24  16  -4 2972.43 653.791   2
 -16  24  -4 4968.29 662.456   2
  16   8  -4 4018.78 612.255   1
  16   8  -1 1759.53 441.127   1
   8 -24  -1 2051.26 275.763   3
  24  -8  -1 1952.55 417.619   1
  -8 -16  -1 1884.57 392.844   3
 -24  16  -1 1735.80 385.645   3
 -24  16  -1 2185.42 503.840   4
 -24  16  -1 1937.94 484.829   2
 -16  24  -1 1960.84 464.918   4
 -16  24  -1 1876.09 443.501   2
  24  -8   2 2867.16 377.418   1
  -8 -16   2 3337.30 447.738   3
 -24  16   2 2812.95 489.250   4
 -16  24   2 3453.96 521.992   4
 -24  16   2 3299.65 438.793   2
  16   8   2 3904.69 419.810   1
 -16  24   2 3229.78 478.294   2
 -24  16   5 1376.93 245.468   2
 -16  24   5 1498.06 415.622   2
 -24  16   5 1431.53 405.523   4
 -16  24   5 1736.58 435.330   4
   7 -24  -5 1417.56 433.259   3
  17   7  -5 1868.23 550.816   1
  -7 -17  -5 1869.75 513.476   3
 -24  17  -5 1164.73 386.926   3
 -24  17  -5 994.446 453.333   4
 -24  17  -5 1288.54 613.428   2
 -17  24  -5 1738.85 456.695   4
 -17  24  -5 1928.61 528.375   2
  24  -7  -5 1518.34 516.845   1
  24  -7  -2 263.760 384.789   1
  17   7  -2 227.440 383.896   1
   7 -24  -2 648.630 306.996   3
  -7 -17  -2 649.981 364.888   3
 -24  17  -2 751.399 319.752   3
 -24  17  -2 1076.21 422.881   4
 -17  24  -2 773.169 388.918   4
 -24  17  -2 1235.11 506.619   2
 -17  24  -2 70.0509 367.807   2
 -17  24   1 176.790 332.720   2
  17   7   1 12.4287 331.973   1
  -7 -17   1 304.586 298.483   3
  24  -7   1 167.702 297.347   1
 -24  17   1 112.390 374.675   4
 -17  24   1-11.6010 345.181   4
 -24  17   1 139.202 323.887   2
 -17  24   4 760.470 359.092   2
  24  -7   4 500.746 243.990   1
 -24  17   4 1870.81 436.707   4
  17   7   4 550.894 187.677   1
 -17  24   4 1458.60 439.596   4
 -24  17   4 2141.15 335.850   2
 -17  24   7 1153.07 442.292   2
 -24  17   7 475.847 358.729   4
 -17  24   7 817.391 417.601   4
   6 -24  -6 4454.14 618.487   3
  -6 -18  -6 4634.05 673.515   3
 -24  18  -6 4242.23 534.051   3
 -24  18  -6 4012.41 605.407   4
 -18  24  -6 4994.58 632.886   4
 -18  24  -6 5118.07 751.630   2
 -24  18  -6 4893.55 805.293   2
  24  -6  -6 4329.30 645.776   1
  18   6  -6 4541.48 738.065   1
   6 -24  -3 2260.56 414.707   3
  18   6  -3 1947.73 527.022   1
  -6 -18  -3 1564.56 419.807   3
 -24  18  -3 1451.16 374.356   3
 -24  18  -3 1914.85 491.196   4
 -18  24  -3 1251.91 423.812   4
 -24  18  -3 1413.96 546.209   2
  24  -6  -3 911.597 438.557   1
 -18  24  -3 1579.63 498.118   2
   6 -24   0 5733.75 297.512   3
  -6 -18   0 5076.18 474.242   3
 -24  18   0 4770.79 589.205   4
  24  -6   0 5786.39 535.565   1
 -24  18   0 6300.48 634.874   2
 -18  24   0 7742.87 705.127   4
 -18  24   0 7136.65 658.670   2
  18   6   0 5256.18 528.616   1
 -24  18   3 1286.50 332.482   2
 -18  24   3 425.564 323.941   2
  24  -6   3 767.649 275.609   1
  -6 -18   3 479.505 298.104   3
  18   6   3 956.049 282.584   1
 -24  18   3 1601.71 456.283   4
 -18  24   3 1053.53 420.383   4
 -18  24   6 3988.11 534.864   2
 -24  18   6 3664.33 522.071   4
 -18  24   6 4376.75 570.383   4
   5 -24  -7 1594.56 550.053   3
  -5 -19  -7 1176.69 523.654   3
  19   5  -7 1973.11 622.525   1
 -24  19  -7 1683.70 477.772   3
 -24  19  -7 815.550 497.889   4
 -19  24  -7 1484.53 483.987   4
 -24  19  -7 2552.69 757.462   2
  24  -5  -7 2206.67 615.099   1
 -19  24  -7 1910.24 628.567   2
   5 -24  -4 1023.12 403.614   3
  -5 -19  -4 1387.47 469.866   3
  19   5  -4 1527.34 526.133   1
 -24  19  -4 1177.16 344.073   3
 -24  19  -4 1785.96 494.630   4
 -19  24  -4 1813.97 461.512   4
 -24  19  -4 1891.96 625.292   2
  24  -5  -4 1133.14 498.590   1
 -19  24  -4 1963.80 537.927   2
   5 -24  -1 1944.95 313.663   3
  19   5  -1 2811.11 480.947   1
  -5 -19  -1 1629.28 382.745   3
 -24  19  -1 2070.55 472.052   4
 -19  24  -1 2041.76 491.472   4
 -24  19  -1 1889.76 489.944   2
 -19  24  -1 2316.01 499.134   2
  24  -5  -1 1762.24 436.205   1
 -19  24   2 1314.83 371.925   2
  -5 -19   2 1277.06 328.810   3
  19   5   2 1005.20 323.835   1
  24  -5   2 795.531 305.310   1
 -24  19   2 1342.78 431.089   4
 -19  24   2 1879.80 467.978   4
 -24  19   2 1792.75 382.630   2
 -24  19   5 1021.00 297.655   2
 -19  24   5 1159.89 398.185   2
 -24  19   5 1531.66 429.108   4
 -19  24   5 1101.25 416.930   4
   4 -24  -5 1327.56 461.963   3
  -4 -20  -5 981.447 494.169   3
  20   4  -5 1392.21 533.271   1
 -24  20  -5 967.794 335.301   3
 -24  20  -5 1169.21 454.890   4
 -20  24  -5 735.563 395.091   4
  24  -4  -5 610.967 468.558   1
 -24  20  -5 1538.47 637.177   2
 -20  24  -5 1905.69 568.008   2
   4 -24  -2 665.037 310.052   3
  -4 -20  -2 346.267 339.580   3
  20   4  -2-538.606 424.534   1
 -24  20  -2 162.911 304.531   3
 -24  20  -2 888.883 422.320   4
 -20  24  -2 160.855 369.255   4
 -24  20  -2 505.806 484.258   2
  24  -4  -2-404.340 385.348   1
 -20  24  -2 273.494 408.835   2
 -20  24   1 2301.08 462.211   2
  24  -4   1 2256.62 413.747   1
  -4 -20   1 2609.19 384.854   3
   4 -24   1 1586.72 165.870   3
  20   4   1 2716.63 409.811   1
 -24  20   1 2978.90 512.732   4
 -20  24   1 2476.21 524.132   4
 -24  20   1 2505.82 452.583   2
 -24  20   4 1095.38 319.557   2
 -20  24   4 934.621 349.846   2
  20   4   4 390.650 173.083   1
 -24  20   4 692.548 399.233   4
 -20  24   4 972.036 401.135   4
  24  -4   4 233.952 228.020   1
 -20  24   7 329.851 375.426   2
 -24  20   7 1631.53 438.782   4
 -20  24   7 1431.44 440.470   4
   3 -24  -6 3158.59 603.020   3
  -3 -21  -6 1857.96 554.157   3
 -24  21  -6 3066.26 451.466   3
  21   3  -6 2735.48 610.994   1
 -24  21  -6 2776.10 529.852   4
  24  -3  -6 3032.72 639.394   1
 -21  24  -6 3441.23 584.168   4
 -24  21  -6 3585.90 756.966   2
 -21  24  -6 3171.10 684.504   2
   3 -24  -3 948.781 367.988   3
  -3 -21  -3 100.462 367.577   3
  21   3  -3 122.943 416.109   1
 -24  21  -3-44.2879 302.251   3
 -24  21  -3 452.865 446.551   4
 -21  24  -3 679.615 427.006   4
  24  -3  -3 1247.97 468.141   1
 -24  21  -3 350.186 503.405   2
 -21  24  -3 413.068 464.875   2
  21   3   0 5810.67 556.759   1
   3 -24   0 5777.09 370.812   3
  -3 -21   0 4607.52 447.762   3
  24  -3   0 5509.59 562.151   1
 -24  21   0 5260.92 639.709   4
 -21  24   0 6818.21 694.539   4
 -24  21   0 6118.00 660.483   2
 -21  24   0 5941.83 644.666   2
 -24  21   3 34.8167 300.834   2
 -21  24   3 58.7488 335.899   2
 -24  21   3 598.367 395.515   4
 -21  24   3 161.918 385.670   4
  24  -3   3-143.665 263.569   1
  21   3   3 629.409 284.551   1
 -21  24   6 6517.38 606.620   2
 -24  21   6 6106.97 656.940   4
 -21  24   6 7727.05 735.954   4
   2 -24  -4 340.208 396.819   3
  -2 -22  -4 1517.88 460.508   3
  22   2  -4 291.394 466.209   1
 -24  22  -4 750.187 297.298   3
  24  -2  -4 371.954 445.224   1
 -24  22  -4 513.878 443.759   4
 -22  24  -4 1234.43 473.492   4
 -24  22  -4 1602.11 602.245   2
 -22  24  -4 520.060 512.801   2
   2 -24  -1 2102.64 339.102   3
  -2 -22  -1 1703.20 350.215   3
  22   2  -1 1909.78 464.117   1
 -24  22  -1 2026.64 516.337   4
 -22  24  -1 1069.25 426.715   4
  24  -2  -1 1333.85 437.523   1
 -24  22  -1 2352.28 540.237   2
 -22  24  -1 1538.18 489.032   2
 -24  22   2 1072.68 382.461   2
 -22  24   2 1142.84 401.734   2
  24  -2   2 735.537 325.920   1
  -2 -22   2 366.310 257.898   3
 -24  22   2 1513.65 459.716   4
 -22  24   2 1284.25 449.363   4
  22   2   2 1011.58 341.668   1
 -24  22   5 518.590 326.221   2
 -22  24   5 163.605 320.940   2
 -24  22   5 836.060 429.454   4
 -22  24   5 858.873 437.318   4
   1 -24  -5 580.478 421.995   3
  -1 -23  -5 873.883 458.532   3
  23   1  -5 1156.86 542.212   1
  24  -1  -5 714.213 493.887   1
 -24  23  -5 629.972 404.140   4
 -23  24  -5 883.892 473.766   4
 -24  23  -5 1755.00 610.159   2
 -23  24  -5 742.764 535.714   2
   1 -24  -2 830.413 333.683   3
  -1 -23  -2 243.077 324.440   3
  23   1  -2 390.879 425.819   1
 -24  23  -2 433.665 392.223   4
  24  -1  -2-186.970 412.473   1
 -23  24  -2 1013.54 416.951   4
 -24  23  -2 267.195 458.826   2
 -23  24  -2 787.983 485.816   2
  -1 -23   1 841.615 266.614   3
   1 -24   1 482.742 235.693   3
 -24  23   1 1171.51 455.457   4
 -23  24   1 743.797 423.965   4
  23   1   1 685.489 340.161   1
 -24  23   1 1024.69 385.476   2
  24  -1   1 1041.16 372.212   1
 -23  24   1 758.158 383.021   2
 -24  23   4 32.4137 314.412   2
 -23  24   4 29.3477 307.599   2
 -24  23   4-317.942 397.002   4
 -23  24   4 263.707 409.553   4
   0 -24  -6 2403.55 589.386   3
  24   0  -6 3182.53 633.746   1
 -24  24  -6 3648.18 620.959   4
 -24  24  -6 4605.06 804.677   2
   0 -24  -3-219.686 369.187   3
  24   0  -3 506.880 470.677   1
 -24  24  -3 567.157 438.445   4
 -24  24  -3-66.5126 485.827   2
  24   0   0 5520.40 585.548   1
   0 -24   0 6366.48 458.550   3
 -24  24   0 6666.34 735.422   4
 -24  24   0 6686.81 708.191   2
 -24  24   3-306.023 337.877   2
  24   0   3 214.012 260.650   1
 -24  24   3-338.762 400.495   4
 -24  24   6 1538.43 423.659   2
 -24  24   6 2639.11 527.962   4
   0  25  -4 1197.18 434.223   2
  25 -25  -4 1577.36 487.982   1
 -25   0  -4 1256.00 549.099   3
   0  25  -4 1461.32 436.268   4
  25 -25  -1-150.207 378.155   1
   0  25  -1 468.699 375.533   2
 -25   0  -1 70.2354 411.441   3
   0  25  -1 642.863 400.926   4
   0  25   2 1665.64 466.535   2
 -25   0   2 889.453 483.678   3
   0  25   2 1716.74 493.860   4
   0  25   5 379.158 424.038   2
   0  25   5 970.105 463.867   4
  -1  25  -5 1624.90 483.814   2
   1  24  -5 1382.60 446.206   2
  24 -25  -5 1969.85 495.612   1
 -24  -1  -5 829.992 527.102   3
 -25   1  -5 2088.92 581.751   3
  -1  25  -5 1547.75 459.026   4
  25 -24  -5 1352.40 503.842   1
   1  24  -5 814.191 412.701   4
  -1  25  -2 1160.32 426.125   2
   1  24  -2 1301.22 430.405   2
 -24  -1  -2 688.351 447.948   3
 -25   1  -2 1425.15 480.925   3
  25 -24  -2 1048.55 411.865   1
  -1  25  -2 1361.02 450.025   4
   1  24  -2 1493.22 447.829   4
  24 -25  -2 1234.87 442.205   1
   1  24   1 2477.00 538.882   2
  25 -24   1 1951.91 453.144   1
  -1  25   1 1073.96 417.061   2
  24 -25   1 2011.43 454.655   1
 -24  -1   1 2550.73 529.441   3
 -25   1   1 2010.22 536.293   3
  -1  25   1 2431.73 492.539   4
   1  24   1 2575.83 516.749   4
  -1  25   4-135.131 440.277   2
   1  24   4 652.151 385.526   2
  -1  25   4 472.908 434.192   4
   1  24   4-153.869 426.438   4
  -2  25  -6-569.173 404.841   2
   2  23  -6-119.516 365.089   2
  23 -25  -6-134.211 428.274   1
 -23  -2  -6 104.147 485.795   3
 -25   2  -6-442.646 500.969   3
  25 -23  -6-131.154 417.457   1
   2  23  -6 387.630 581.664   1
  -2  25  -6 83.2564 374.680   4
   2  23  -6 560.560 406.791   4
  -2  25  -3 4051.36 556.278   2
   2  23  -3 3592.24 523.775   2
 -23  -2  -3 3572.17 634.498   3
 -25   2  -3 2746.53 574.710   3
  25 -23  -3 3944.63 567.786   1
  23 -25  -3 3756.69 524.217   1
  -2  25  -3 4739.35 590.629   4
   2  23  -3 4307.17 567.466   4
  25 -23   0 1666.13 423.700   1
  23 -25   0 2830.88 484.149   1
  -2  25   0 1784.01 455.449   2
   2  23   0 1608.55 416.460   2
 -23  -2   0 1386.34 474.701   3
 -25   2   0 1503.60 465.903   3
   2  23   0 2772.55 534.255   4
  -2  25   0 2865.10 527.267   4
  -2  25   3 4132.15 610.291   2
   2  23   3 3371.53 567.745   2
 -23  -2   3 4793.48 660.695   3
 -25   2   3 3881.43 628.556   3
  -2  25   3 5010.54 642.116   4
   2  23   3 4491.08 622.286   4
  -2  25   6 1169.69 489.553   2
   2  23   6 1337.12 543.498   2
  -2  25   6 1174.72 461.415   4
   2  23   6 2034.65 523.481   4
  -3  25  -4 1424.21 422.799   2
   3  22  -4 999.053 415.054   2
 -22  -3  -4 892.666 481.575   3
 -25   3  -4 1171.68 526.809   3
  22 -25  -4 1129.98 415.841   1
  25 -22  -4 842.888 404.446   1
  -3  25  -4 2093.31 459.114   4
   3  22  -4 2114.59 438.511   4
  -3  25  -1 606.018 363.432   2
   3  22  -1 912.977 395.188   2
 -22  -3  -1 917.932 442.179   3
 -25   3  -1 507.962 404.384   3
  25 -22  -1 893.483 394.636   1
  22 -25  -1 361.852 346.683   1
  -3  25  -1 439.968 387.544   4
   3  22  -1 1312.09 429.137   4
  -3  25   2 620.946 413.092   2
   3  22   2 1340.22 422.585   2
 -22  -3   2 394.774 405.042   3
 -25   3   2 495.625 426.446   3
  25 -22   2 579.866 360.498   1
  -3  25   2 509.245 399.681   4
   3  22   2 890.336 448.589   4
  -3  25   5 573.240 439.136   2
   3  22   5-52.9938 415.043   2
  -3  25   5 769.204 450.393   4
   3  22   5 582.061 438.292   4
  -4  25  -5 1818.07 471.526   2
   4  21  -5 1075.24 403.987   2
  25 -21  -5 1552.34 490.392   1
 -21  -4  -5 714.093 483.689   3
 -25   4  -5 402.292 441.122   3
  21 -25  -5 1433.50 474.272   1
   4  21  -5 1613.34 635.672   1
  -4  25  -5 1681.17 436.200   4
   4  21  -5 1907.62 437.508   4
  25 -21  -2 998.172 415.754   1
  -4  25  -2 1077.65 416.204   2
   4  21  -2 550.430 369.039   2
  21 -25  -2 738.110 386.079   1
 -21  -4  -2 1239.81 480.830   3
 -25   4  -2-234.529 381.413   3
  -4  25  -2 1047.10 418.094   4
   4  21  -2 960.614 394.273   4
  25 -21   1 1969.03 422.863   1
  -4  25   1 1828.56 464.123   2
   4  21   1 2176.32 475.490   2
 -21  -4   1 1985.25 479.516   3
 -25   4   1 2233.66 496.636   3
  -4  25   1 3148.95 510.301   4
  -4  25   4 2078.94 476.942   2
   4  21   4 1485.04 450.266   2
  -4  25   4 1859.28 512.099   4
   4  21   4 1438.36 480.868   4
  25 -20  -6 1997.23 507.406   1
  -5  25  -6 291.444 394.828   2
   5  20  -6 1423.09 412.810   2
 -20  -5  -6 1281.00 570.813   3
 -25   5  -6 1079.56 516.953   3
  20 -25  -6 1156.23 434.019   1
   5  20  -6 1662.26 649.891   1
  -5  25  -6 1184.37 435.638   4
   5  20  -6 614.453 377.789   4
   5  20  -3 4950.79 551.978   2
  20 -25  -3 6042.15 598.018   1
  25 -20  -3 6161.72 633.874   1
 -20  -5  -3 5267.54 659.779   3
 -25   5  -3 4165.89 584.906   3
  -5  25  -3 7166.10 648.702   4
   5  20  -3 5635.38 613.737   4
  -5  25  -3 5552.67 604.932   2
  -5  25   0 947.259 379.616   2
  20 -25   0 759.897 376.025   1
   5  20   0 709.851 372.338   2
 -20  -5   0 839.966 413.741   3
  25 -20   0 604.189 356.728   1
 -25   5   0 1206.63 429.671   3
  -5  25   0 1471.43 456.219   4
   5  20   0 775.469 405.188   4
  -5  25   3 5850.86 625.801   2
   5  20   3 5541.36 622.172   2
 -20  -5   3 6526.70 705.218   3
  -5  25   3 5804.23 663.914   4
   5  20   3 5603.89 644.148   4
  25 -20   3 5884.68 537.744   1
  -5  25   6 1188.14 424.383   2
   5  20   6 819.204 493.996   2
 -25   5   6 1079.62 409.104   4
  -5  25   6 1176.94 486.211   4
   5  20   6 1436.13 518.881   4
  -6  25  -7 794.761 473.393   2
  19 -25  -7 638.412 540.267   3
   6  19  -7 389.080 319.351   2
 -19  -6  -7-138.281 531.013   3
 -25   6  -7-517.110 522.777   3
  19 -25  -7-94.5058 419.325   1
  25 -19  -7 1304.37 533.118   1
   6  19  -7-668.513 686.647   1
  -6  25  -7 838.420 434.040   4
   6  19  -7 493.401 375.684   4
  19 -25  -4 2289.11 485.223   1
  -6  25  -4 2947.48 518.619   2
  25 -19  -4 2349.71 508.326   1
   6  19  -4 1494.87 379.320   2
 -19  -6  -4 1369.35 495.269   3
 -25   6  -4 1807.32 485.384   3
   6  19  -4 2304.91 596.723   1
  -6  25  -4 2423.77 454.464   4
   6  19  -4 1949.29 427.576   4
  -6  25  -1 1371.20 427.446   2
   6  19  -1 408.985 329.326   2
 -19  -6  -1 452.566 387.482   3
 -25   6  -1 802.119 385.564   3
  19 -25  -1 583.430 359.993   1
  -6  25  -1 1081.47 394.755   4
  25 -19  -1 732.395 354.840   1
   6  19  -1 740.161 388.247   4
  -6  25   2-24.4283 344.952   2
  25 -19   2-6.86947 307.820   1
   6  19   2-203.133 374.948   2
 -19  -6   2-417.424 411.869   3
 -25   6   2 314.689 396.141   3
 -25   6   2-379.368 343.039   2
  -6  25   2 307.008 365.148   4
   6  19   2-197.753 354.376   4
  -6  25   5 2038.49 483.581   2
   6  19   5 689.315 461.441   2
 -25   6   5 1212.24 422.075   4
  -6  25   5 713.179 423.883   4
   6  19   5 1159.81 451.697   4
  18 -25  -5 2573.19 539.346   3
  -7  25  -5 2003.81 473.271   2
   7  18  -5 1295.04 376.889   2
 -18  -7  -5 1433.69 524.980   3
 -25   7  -5 1336.30 480.125   3
   7  18  -5 2165.78 635.163   1
  25 -18  -5 2041.00 478.256   1
  -7  25  -5 1577.96 431.301   4
  18 -25  -5 1626.93 435.401   1
   7  18  -5 1032.78 368.115   4
  -7  25  -2 2891.32 477.283   2
  18 -25  -2 2793.29 468.186   1
  25 -18  -2 2298.87 480.788   1
   7  18  -2 1764.53 400.321   2
 -18  -7  -2 1563.78 440.331   3
 -25   7  -2 2632.39 482.237   3
   7  18  -2 3863.05 606.205   1
  -7  25  -2 3423.71 506.375   4
   7  18  -2 2462.75 443.497   4
  -7  25   1 3889.80 520.568   2
   7  18   1 4257.56 544.937   2
 -18  -7   1 3721.47 548.099   3
 -25   7   1 4377.77 572.845   3
  25 -18   1 4637.44 491.620   1
  -7  25   1 5014.30 574.331   4
   7  18   1 4278.25 551.116   4
  -7  25   4 937.665 403.812   2
   7  18   4 1597.56 481.946   2
 -25   7   4 1551.55 468.969   4
  -7  25   4 2191.23 513.505   4
   7  18   4 1403.47 466.873   4
  -7  25   7 1662.43 537.901   2
 -25   7   7 2086.05 425.034   4
  -7  25   7 1866.86 502.169   4
   7  18   7 1550.21 525.430   4
  -8  25  -6 438.603 435.877   2
  17 -25  -6 1097.40 533.972   3
   8  17  -6 297.081 321.917   2
 -17  -8  -6 668.527 514.888   3
 -25   8  -6 47.1981 453.991   3
  25 -17  -6 48.7689 447.315   1
  -8  25  -6 264.659 370.486   4
  17 -25  -6 10.2178 382.372   1
   8  17  -6-205.421 594.099   1
   8  17  -6 50.1097 348.172   4
  25 -17  -3 7555.58 682.509   1
   8  17  -3 7180.23 591.912   2
 -17  -8  -3 6570.41 686.976   3
 -25   8  -3 6461.34 637.433   3
  17 -25  -3 9202.59 689.243   1
   8  17  -3 9243.79 828.682   1
  -8  25  -3 9713.68 728.318   4
  -8  25  -3 9289.28 744.957   2
   8  17  -3 7827.12 646.172   4
  17 -25  -3 7936.25 616.159   3
  17 -25   0 983.554 194.441   3
  -8  25   0 1607.41 420.578   2
   8  17   0 582.736 362.316   2
 -17  -8   0 1011.87 406.882   3
 -25   8   0 925.065 408.579   3
   8  17   0 1002.55 414.514   1
  25 -17   0 795.541 377.500   1
  -8  25   0 1414.85 438.889   4
   8  17   0 597.961 366.430   4
  -8  25   3 3060.19 492.561   2
  25 -17   3 3255.52 437.476   1
   8  17   3 2717.71 521.388   2
 -17  -8   3 2910.24 517.417   3
 -25   8   3 2258.56 317.474   2
  -8  25   3 3345.79 543.066   4
   8  17   3 2785.43 528.182   4
  -8  25   6 1047.06 431.216   2
 -25   8   6 782.550 357.204   4
  -8  25   6 1644.69 483.707   4
   8  17   6 1431.63 489.504   4
  16 -25  -7 1101.37 538.601   3
   9  16  -7 995.147 328.658   2
 -16  -9  -7 878.603 542.237   3
 -25   9  -7 421.974 452.333   3
  25 -16  -7 1300.69 534.679   1
  -9  25  -7 531.342 399.778   4
  16 -25  -7 883.995 429.899   1
   9  16  -7-540.832 599.982   1
  -9  25  -7 875.129 452.525   2
  -9  25  -4 457.337 405.607   2
  16 -25  -4 1133.37 427.827   3
   9  16  -4 340.291 306.993   2
 -16  -9  -4 1059.74 482.534   3
 -25   9  -4-164.374 386.561   3
  25 -16  -4 272.230 384.849   1
  16 -25  -4 216.781 341.643   1
  -9  25  -4 350.650 357.257   4
   9  16  -4 22.7145 484.030   1
   9  16  -4 322.090 356.986   4
  16 -25  -1 881.800 273.332   3
  -9  25  -1 910.389 390.913   2
  25 -16  -1 711.906 375.899   1
   9  16  -1 550.099 326.717   2
 -16  -9  -1-249.724 365.363   3
 -25   9  -1 566.518 391.184   3
   9  16  -1 1325.27 427.429   1
  -9  25  -1 883.751 393.923   4
   9  16  -1 1002.35 370.002   4
  -9  25   2 1035.22 396.078   2
   9  16   2 177.733 344.186   2
 -16  -9   2 245.021 376.322   3
 -25   9   2-252.516 375.402   3
  25 -16   2 1039.70 328.346   1
 -25   9   2 22.0103 295.636   2
   9  16   2 710.807 338.209   1
  -9  25   2 1069.65 419.530   4
   9  16   2 1274.35 429.918   4
  -9  25   5 398.001 369.940   2
   9  16   5 1114.29 467.925   2
 -25   9   5 475.544 394.165   4
   9  16   5 1415.41 304.495   1
  -9  25   5 2064.99 505.675   4
   9  16   5 867.465 455.730   4
  15 -25  -5 4655.61 615.301   3
  10  15  -5 3206.35 419.571   2
 -25  10  -5 3298.50 575.987   3
 -15 -10  -5 2892.10 587.269   3
  15 -25  -5 4243.11 518.210   1
  25 -15  -5 3093.90 538.244   1
 -10  25  -5 3686.75 540.091   4
 -10  25  -5 4335.73 606.571   2
  10  15  -5 3353.26 671.857   1
  10  15  -5 2655.87 454.991   4
  15 -25  -2 3645.45 413.134   3
  15 -25  -2 3167.60 484.294   1
 -15 -10  -2 2346.81 466.624   3
  10  15  -2 2615.58 403.728   2
 -25  10  -2 2510.57 474.369   3
  10  15  -2 4714.66 615.368   1
 -10  25  -2 3674.99 539.785   4
 -10  25  -2 3583.09 529.126   2
  10  15  -2 2699.09 448.387   4
  25 -15  -2 3092.02 499.559   1
 -10  25   1 1412.36 399.100   2
  10  15   1 1021.72 395.729   2
 -15 -10   1 835.778 381.975   3
 -25  10   1 604.628 392.024   3
 -25  10   1 960.208 389.900   2
  10  15   1 1854.83 420.085   1
 -10  25   1 986.250 429.622   4
  25 -15   1 774.297 337.033   1
  10  15   1 1819.98 440.136   4
 -10  25   4 2304.91 440.749   2
  10  15   4 1795.79 483.053   2
  10  15   4 2999.85 378.197   1
 -25  10   4 2147.43 458.573   4
 -10  25   4 2816.78 510.172   4
  25 -15   4 2214.27 381.010   1
 -25  10   4 1018.12 157.962   2
  10  15   4 2543.04 521.567   4
 -10  25   7 1341.80 491.978   2
 -25  10   7 1823.10 398.201   4
  14 -25  -6 296.451 482.909   3
 -14 -11  -6 905.264 521.056   3
  25 -14  -6 786.678 474.579   1
  11  14  -6 424.989 288.382   2
 -25  11  -6 1175.29 491.110   3
  14 -25  -6 462.409 366.938   1
 -11  25  -6 1549.65 478.677   4
 -11  25  -6 483.806 439.503   2
  11  14  -6 848.558 562.217   1
  14 -25  -3 3891.27 465.807   3
  14 -25  -3 3093.43 459.196   1
  11  14  -3 2976.79 419.284   2
 -25  11  -3 3225.28 509.865   3
 -14 -11  -3 2985.64 526.228   3
 -25  11  -3 2447.34 606.145   2
 -11  25  -3 3626.00 535.043   4
  25 -14  -3 3702.00 513.822   1
 -11  25  -3 3892.11 563.064   2
  11  14  -3 3598.46 605.331   1
  11  14  -3 3462.22 468.623   4
 -11  25   0 1369.15 395.251   2
  25 -14   0 1093.43 359.654   1
  14 -25   0 879.603 106.141   3
 -14 -11   0 1496.09 411.996   3
  11  14   0 1362.84 402.668   2
 -25  11   0 585.973 354.117   3
 -25  11   0 1865.15 480.582   4
 -25  11   0 832.089 435.558   2
 -11  25   0 1745.14 435.345   4
  11  14   0 1706.83 432.372   1
  11  14   0 1148.67 388.752   4
 -11  25   3 1380.51 396.848   2
 -14 -11   3 925.893 398.283   3
  11  14   3 1463.24 439.641   2
 -25  11   3 1648.90 476.380   4
 -11  25   3 1631.80 436.660   4
  11  14   3 1810.38 364.964   1
 -25  11   3 1202.42 280.399   2
  25 -14   3 1577.88 352.581   1
  11  14   3 1303.80 442.030   4
 -11  25   6 1673.13 474.608   2
 -25  11   6 1430.49 381.765   4
 -11  25   6 1614.41 465.152   4
  12  13  -7 189.060 581.651   1
  13 -25  -7 1582.74 557.373   3
  25 -13  -7 653.660 512.108   1
 -13 -12  -7 618.687 526.513   3
 -25  12  -7 1532.31 509.352   3
 -25  12  -7 249.444 433.199   4
 -25  12  -7 2579.61 724.278   2
  13 -25  -7 2080.94 476.841   1
 -12  25  -7 1896.07 492.631   4
 -12  25  -7 1411.51 491.836   2
  13 -25  -4 961.628 390.906   3
 -13 -12  -4 857.119 451.200   3
  25 -13  -4 993.935 454.719   1
  12  13  -4 873.891 318.202   2
 -25  12  -4 1021.43 434.525   3
  13 -25  -4 1441.22 409.967   1
 -25  12  -4 1256.00 576.040   2
 -12  25  -4 1623.80 438.497   4
  12  13  -4 1882.57 569.814   1
 -12  25  -4 1209.72 471.282   2
  13 -25  -1 3084.68 294.342   3
 -12  25  -1 2427.49 487.667   2
 -13 -12  -1 1581.21 420.931   3
  13 -25  -1 2833.21 242.580   3
  12  13  -1 2616.46 421.906   2
 -25  12  -1 2434.54 455.795   3
 -25  12  -1 2721.91 527.521   4
 -25  12  -1 1804.57 530.306   2
 -12  25  -1 4031.70 540.157   4
  25 -13  -1 2806.14 448.898   1
  12  13  -1 2444.67 483.894   1
  12  13  -1 2147.29 430.103   4
 -12  25   2 3077.61 482.870   2
 -13 -12   2 2944.56 472.249   3
  25 -13   2 3542.73 428.440   1
  12  13   2 3011.26 494.625   2
 -25  12   2 3130.40 525.368   4
  12  13   2 3179.73 433.482   1
 -12  25   2 4168.47 561.646   4
 -25  12   2 2347.14 390.900   2
 -12  25   5 540.870 377.028   2
 -25  12   5 420.713 341.958   4
 -12  25   5 371.679 390.767   4
  13  12  -5 143.835 498.916   1
  12 -25  -5 1804.32 475.610   3
  25 -12  -5 1207.41 501.943   1
 -12 -13  -5 288.323 433.930   3
 -25  13  -5 262.644 415.227   3
  13  12  -5 842.106 299.506   2
  12 -25  -5 3.38707 346.527   1
 -25  13  -5-429.951 425.959   4
 -25  13  -5 661.906 569.077   2
 -13  25  -5 723.570 417.406   4
 -13  25  -5 540.568 423.867   2
  12 -25  -2 4513.87 403.518   3
 -12 -13  -2 3599.20 511.484   3
 -25  13  -2 2837.88 468.610   3
  13  12  -2 2298.26 386.588   2
 -25  13  -2 2931.14 531.714   4
 -25  13  -2 3953.86 639.350   2
  13  12  -2 3852.75 554.381   1
 -13  25  -2 3692.23 528.193   4
  25 -12  -2 3382.28 491.551   1
 -13  25  -2 4340.88 555.847   2
  25 -12   1 2445.78 397.712   1
 -12 -13   1 2042.26 428.103   3
  13  12   1 1523.58 407.048   2
 -25  13   1 2803.79 484.902   3
 -25  13   1 1543.07 492.713   4
 -25  13   1 2065.28 435.490   2
 -13  25   1 2444.14 472.493   4
  13  12   1 2280.68 434.621   1
 -13  25   1 2709.37 461.953   2
 -25  13   4 624.947 195.496   2
  13  12   4 1331.36 282.016   1
 -13  25   4 839.108 349.687   2
  25 -12   4 1108.27 312.439   1
 -25  13   4 836.902 380.698   4
 -13  25   4 1393.78 404.306   4
 -13  25   7 1459.30 493.673   2
 -25  13   7 1111.40 359.875   4
 -13  25   7 1026.10 456.480   4
  14  11  -6 990.333 575.003   1
  11 -25  -6 2189.42 568.060   3
  25 -11  -6 2883.38 599.512   1
 -11 -14  -6 653.392 510.057   3
 -25  14  -6 1554.66 461.382   3
  14  11  -6 747.959 275.936   2
 -25  14  -6 906.727 497.146   4
 -25  14  -6 1996.67 665.594   2
 -14  25  -6 1770.44 479.874   4
  11 -25  -6 1555.09 425.768   1
 -14  25  -6 1186.85 501.205   2
  14  11  -3 1345.50 488.066   1
  11 -25  -3 1751.72 372.340   3
  25 -11  -3 1174.35 420.692   1
 -11 -14  -3 1278.05 441.005   3
 -25  14  -3 1294.77 408.455   3
  14  11  -3 1420.10 345.800   2
 -25  14  -3 2109.02 499.614   4
 -25  14  -3 811.845 524.409   2
 -14  25  -3 1387.86 410.544   4
 -14  25  -3 1301.86 481.533   2
  14  11   0 1095.43 417.334   1
 -14  25   0 1506.35 440.706   2
 -11 -14   0 1535.94 408.695   3
  14  11   0 1401.96 388.187   2
 -25  14   0 1470.24 401.256   3
 -25  14   0 1564.63 492.710   4
  25 -11   0 376.814 323.220   1
 -25  14   0 1279.40 415.845   2
 -14  25   0 1253.38 384.356   4
 -14  25   3 2615.68 462.574   2
 -11 -14   3 2812.04 472.320   3
  25 -11   3 2362.78 355.716   1
 -25  14   3 1927.01 455.613   4
 -14  25   3 3305.20 528.491   4
 -25  14   3 2095.83 334.629   2
  14  11   3 2636.45 380.022   1
 -14  25   6 473.383 385.564   2
 -25  14   6 844.340 406.552   4
 -14  25   6 422.457 391.164   4
  25 -10  -7 2819.32 640.115   1
  10 -25  -7 3459.55 647.528   3
  15  10  -7 2902.34 717.279   1
 -10 -15  -7 1930.16 594.078   3
 -25  15  -7 1783.84 522.039   3
 -25  15  -7 1851.55 537.751   4
 -25  15  -7 2556.64 770.937   2
 -15  25  -7 3169.96 583.695   4
  10 -25  -7 2520.78 460.628   1
 -15  25  -7 1778.06 576.947   2
  15  10  -4 3450.23 589.329   1
  25 -10  -4 2430.63 544.794   1
  10 -25  -4 2492.72 446.775   3
 -10 -15  -4 1600.07 476.909   3
 -25  15  -4 2067.46 465.743   3
  15  10  -4 1550.89 342.085   2
 -25  15  -4 1434.79 478.286   4
 -25  15  -4 1989.87 591.086   2
 -15  25  -4 2077.77 465.995   4
 -15  25  -4 2514.90 538.373   2
 -15  25  -1 1471.55 428.190   2
  15  10  -1 1562.89 446.206   1
  10 -25  -1 1114.59 226.793   3
 -10 -15  -1 437.231 352.931   3
  25 -10  -1 213.432 361.199   1
 -25  15  -1 881.329 352.823   3
  15  10  -1 895.151 347.032   2
 -25  15  -1 1267.62 453.978   4
 -25  15  -1 941.233 451.980   2
 -15  25  -1 947.069 395.303   4
  15  10   2 2862.83 401.128   1
 -15  25   2 2823.06 460.862   2
  25 -10   2 1770.29 351.689   1
 -10 -15   2 1580.03 408.505   3
 -25  15   2 2555.21 496.883   4
 -15  25   2 2783.37 486.256   4
 -25  15   2 2240.14 382.613   2
 -15  25   5 3098.32 498.948   2
 -25  15   5 2914.47 499.195   4
 -15  25   5 4300.61 570.435   4
  25  -9  -5 936.374 488.760   1
  16   9  -5 1816.75 574.173   1
   9 -25  -5 1419.81 437.189   3
  -9 -16  -5 923.538 483.585   3
 -25  16  -5 1141.00 406.817   3
  16   9  -5 657.699 267.423   2
 -25  16  -5 273.046 418.722   4
 -25  16  -5 527.382 581.145   2
 -16  25  -5 1393.99 468.941   4
 -16  25  -5 1092.07 502.778   2
  16   9  -2 1153.77 417.379   1
  25  -9  -2 635.801 376.526   1
   9 -25  -2 1235.40 314.379   3
  -9 -16  -2 69.2372 347.352   3
 -25  16  -2 791.090 365.158   3
  16   9  -2 461.384 317.335   2
 -25  16  -2 272.963 383.482   4
 -25  16  -2 776.652 500.367   2
 -16  25  -2 906.868 390.604   4
 -16  25  -2 1296.21 480.946   2
 -16  25   1 968.266 397.970   2
  16   9   1 1867.56 408.716   1
  -9 -16   1 808.729 352.186   3
 -25  16   1 1415.59 453.541   4
  25  -9   1 1179.99 346.774   1
 -16  25   1 1032.20 439.253   4
 -25  16   1 821.347 392.789   2
 -25  16   4-25.8597 235.058   2
 -16  25   4 512.360 365.451   2
  16   9   4 63.4191 189.273   1
 -25  16   4-244.449 369.768   4
  25  -9   4 503.762 257.289   1
 -16  25   4 214.126 369.591   4
 -16  25   7 1663.74 507.796   2
 -25  16   7 949.049 376.381   4
 -16  25   7 744.548 412.323   4
   8 -25  -6 641.988 463.523   3
  17   8  -6 1975.73 622.659   1
  -8 -17  -6 1389.56 531.409   3
 -25  17  -6 744.167 433.877   3
 -25  17  -6 1484.81 513.897   4
 -25  17  -6 1840.53 688.844   2
 -17  25  -6 1744.36 506.900   4
 -17  25  -6 1526.97 558.610   2
  25  -8  -6 944.113 547.293   1
  25  -8  -3 2673.00 524.413   1
   8 -25  -3 3289.19 438.040   3
  17   8  -3 2426.74 521.779   1
  -8 -17  -3 2285.05 492.143   3
 -25  17  -3 2159.89 407.206   3
 -25  17  -3 3025.27 560.900   4
 -17  25  -3 3233.07 539.861   4
 -25  17  -3 2454.27 637.240   2
 -17  25  -3 2825.44 512.478   2
 -17  25   0 901.602 392.383   2
  17   8   0 1588.88 436.169   1
  25  -8   0 482.479 359.016   1
   8 -25   0 840.722 133.660   3
  -8 -17   0 839.049 348.909   3
 -25  17   0 1482.49 467.757   4
 -17  25   0 1349.96 469.891   4
 -25  17   0 1389.16 463.871   2
 -17  25   3 8211.08 660.426   2
  25  -8   3 6347.30 478.110   1
  -8 -17   3 7613.08 576.726   3
 -25  17   3 8417.64 724.496   4
 -17  25   3 8706.91 746.840   4
 -25  17   3 8173.43 554.883   2
  17   8   3 6605.87 445.024   1
 -17  25   6-535.099 427.309   2
 -25  17   6 404.785 379.051   4
 -17  25   6-252.765 383.491   4
   7 -25  -7 2342.99 614.757   3
  -7 -18  -7 1330.85 563.464   3
  18   7  -7 2808.77 688.314   1
 -25  18  -7 1291.76 473.181   3
 -25  18  -7 1037.95 462.727   4
 -25  18  -7 2754.39 768.182   2
 -18  25  -7 2280.34 578.450   4
 -18  25  -7 2069.50 626.622   2
  25  -7  -7 2286.08 612.295   1
   7 -25  -4 1302.81 395.011   3
  18   7  -4 1740.10 528.669   1
  -7 -18  -4 953.034 463.462   3
 -25  18  -4 1280.50 416.258   3
 -25  18  -4 1420.83 467.590   4
 -25  18  -4 361.130 511.421   2
 -18  25  -4 1019.33 416.124   4
 -18  25  -4 1939.90 514.051   2
  25  -7  -4 1240.95 511.046   1
   7 -25  -1 4129.24 330.255   3
  -7 -18  -1 2691.92 448.659   3
 -25  18  -1 4450.14 501.886   3
  25  -7  -1 4536.29 550.125   1
 -25  18  -1 3654.23 573.425   4
 -25  18  -1 4901.44 675.063   2
 -18  25  -1 4917.93 611.501   4
 -18  25  -1 3387.71 551.974   2
  18   7  -1 4436.20 561.945   1
  -7 -18   2 1870.81 384.757   3
 -25  18   2 2957.56 525.691   4
 -18  25   2 2820.32 517.478   4
 -25  18   2 2220.52 414.327   2
 -18  25   2 2993.18 484.222   2
  18   7   2 2699.61 396.601   1
  25  -7   2 2416.12 388.753   1
 -25  18   5 1601.89 309.132   2
 -18  25   5 981.284 371.355   2
 -25  18   5 1774.71 430.118   4
 -18  25   5 1208.11 421.885   4
   6 -25  -5 721.303 439.543   3
  -6 -19  -5 830.078 470.035   3
  19   6  -5 1881.87 556.720   1
 -25  19  -5 723.686 370.560   3
 -25  19  -5 1743.01 523.836   4
 -19  25  -5 1250.37 477.785   4
 -25  19  -5 877.397 588.560   2
  25  -6  -5 1236.74 514.897   1
 -19  25  -5 1176.49 501.622   2
   6 -25  -2 639.001 311.121   3
  19   6  -2-423.110 411.066   1
  -6 -19  -2 501.685 358.849   3
 -25  19  -2 161.522 327.523   3
 -25  19  -2 576.964 399.009   4
 -19  25  -2 491.026 411.801   4
 -25  19  -2 421.051 477.230   2
 -19  25  -2-233.350 397.033   2
  25  -6  -2-183.733 405.170   1
 -19  25   1 875.577 381.834   2
  19   6   1 802.642 363.171   1
  25  -6   1 729.344 342.502   1
  -6 -19   1 202.768 294.049   3
 -25  19   1 1010.65 441.516   4
 -19  25   1-216.038 387.077   4
 -25  19   1 143.831 344.369   2
  19   6   4 1028.51 210.997   1
 -25  19   4 1862.70 342.959   2
 -19  25   4 1603.46 426.222   2
  25  -6   4 1229.88 278.419   1
 -25  19   4 1331.82 441.642   4
 -19  25   4 1397.32 445.792   4
 -19  25   7 99.4130 366.906   2
 -25  19   7 321.496 390.398   4
 -19  25   7-75.1396 375.302   4
   5 -25  -6 1905.22 521.202   3
  -5 -20  -6 1473.51 535.648   3
  20   5  -6 1997.50 600.349   1
 -25  20  -6 1671.84 415.654   3
 -25  20  -6 1492.37 484.197   4
 -20  25  -6 952.854 474.605   4
 -25  20  -6 2674.19 738.618   2
  25  -5  -6 1497.93 563.106   1
 -20  25  -6 2935.39 689.587   2
   5 -25  -3 5800.59 519.681   3
  -5 -20  -3 5262.00 603.090   3
  25  -5  -3 4817.55 634.847   1
 -25  20  -3 5893.03 526.575   3
 -25  20  -3 4940.88 653.515   4
 -25  20  -3 6267.82 810.099   2
 -20  25  -3 6953.77 723.588   4
 -20  25  -3 7216.38 799.383   2
  20   5  -3 5700.67 687.172   1
  25  -5   0 965.630 403.202   1
  20   5   0 454.015 365.738   1
   5 -25   0 314.284 185.330   3
  -5 -20   0 547.637 331.990   3
 -25  20   0 948.929 466.942   4
 -20  25   0 1415.31 453.336   4
 -25  20   0 1213.83 452.863   2
 -20  25   0 1671.98 451.578   2
  25  -5   3 4571.16 413.318   1
 -25  20   3 6100.76 666.872   4
 -20  25   3 6594.85 684.140   4
 -25  20   3 5929.03 544.842   2
 -20  25   3 6122.51 609.305   2
 -20  25   6 929.444 373.912   2
 -25  20   6 1256.45 440.859   4
 -20  25   6 911.570 466.134   4
   4 -25  -4 2391.63 469.384   3
  -4 -21  -4 1667.28 489.090   3
  21   4  -4 2748.07 590.249   1
 -25  21  -4 1410.30 363.646   3
 -25  21  -4 1906.17 513.808   4
 -21  25  -4 2450.05 550.504   4
  25  -4  -4 1846.71 556.213   1
 -25  21  -4 1683.90 640.652   2
 -21  25  -4 2370.69 606.195   2
   4 -25  -1 2013.80 321.535   3
  -4 -21  -1 1913.96 366.320   3
  21   4  -1 2613.74 477.773   1
 -21  25  -1 3749.38 605.957   4
 -25  21  -1 3186.26 547.345   4
 -25  21  -1 2316.76 547.155   2
 -21  25  -1 2669.40 521.385   2
  25  -4  -1 2546.25 496.576   1
 -21  25   2 1268.56 402.335   2
  25  -4   2-470.603 321.985   1
  -4 -21   2 1071.68 302.034   3
  21   4   2 903.567 342.443   1
 -25  21   2 903.999 445.280   4
 -21  25   2 1457.16 464.886   4
 -25  21   2 856.090 388.036   2
 -25  21   5 1827.37 357.476   2
 -21  25   5 485.989 356.315   2
 -25  21   5 2200.08 502.871   4
 -21  25   5 1435.59 473.001   4
   3 -25  -5 797.963 464.896   3
  -3 -22  -5 440.319 467.202   3
  22   3  -5 1160.81 555.305   1
 -25  22  -5 286.112 318.936   3
 -25  22  -5 913.193 424.546   4
  25  -3  -5-50.2217 468.191   1
 -22  25  -5 995.219 464.470   4
 -25  22  -5 989.090 627.818   2
 -22  25  -5 1927.52 657.808   2
   3 -25  -2 1135.05 328.896   3
  -3 -22  -2 873.706 361.963   3
  22   3  -2 436.085 434.403   1
 -25  22  -2 1177.68 467.849   4
 -22  25  -2 1212.60 453.559   4
  25  -3  -2 948.200 436.326   1
 -25  22  -2 765.071 505.234   2
 -22  25  -2 1040.38 494.434   2
 -22  25   1 434.164 354.092   2
  25  -3   1 668.934 361.552   1
  -3 -22   1 667.216 305.483   3
   3 -25   1 264.759 158.277   3
  22   3   1-64.2761 341.433   1
 -25  22   1-108.126 415.054   4
 -22  25   1 644.136 420.914   4
 -25  22   1 198.292 362.668   2
 -25  22   4 299.317 302.906   2
 -22  25   4 1550.49 419.012   2
  25  -3   4 617.619 235.271   1
 -25  22   4 1097.33 457.948   4
 -22  25   4 1218.00 441.825   4
   2 -25  -6 1338.48 519.629   3
  -2 -23  -6 326.759 497.131   3
  23   2  -6 977.025 559.411   1
  25  -2  -6 661.849 591.009   1
 -25  23  -6 1073.10 521.648   4
 -23  25  -6 1422.13 539.649   4
 -25  23  -6 1054.97 662.107   2
 -23  25  -6 1466.37 623.911   2
  23   2  -3 4180.19 614.571   1
   2 -25  -3 3782.36 508.655   3
  -2 -23  -3 3375.18 516.973   3
 -25  23  -3 4388.69 659.758   4
 -23  25  -3 4050.67 619.006   4
 -25  23  -3 4091.75 740.728   2
  25  -2  -3 3568.23 601.605   1
 -23  25  -3 4262.70 713.507   2
  -2 -23   0 2497.97 379.238   3
   2 -25   0 2131.58 298.376   3
 -23  25   0 3267.01 603.865   4
  23   2   0 2598.46 483.560   1
 -25  23   0 2543.17 570.215   4
 -25  23   0 2584.43 519.956   2
  25  -2   0 1574.20 444.992   1
 -23  25   0 1805.25 493.790   2
  23   2   3 2386.42 339.779   1
 -25  23   3 4431.76 631.788   4
 -23  25   3 4439.23 628.107   4
  25  -2   3 2659.17 367.602   1
 -25  23   3 3729.68 512.001   2
 -23  25   3 4379.07 545.779   2
 -23  25   6 431.276 361.018   2
 -25  23   6 363.213 426.827   4
 -23  25   6 711.306 472.531   4
   1 -25  -4 194.877 403.341   3
  -1 -24  -4 675.787 433.078   3
  24   1  -4 436.731 490.948   1
  25  -1  -4 913.087 492.911   1
 -25  24  -4 542.259 427.828   4
 -24  25  -4 709.238 436.164   4
 -25  24  -4-76.8494 522.506   2
 -24  25  -4 837.219 580.551   2
   1 -25  -1 1983.18 356.782   3
  -1 -24  -1 1368.69 325.939   3
  24   1  -1 992.755 446.860   1
 -25  24  -1 2290.37 547.171   4
 -24  25  -1 2522.70 546.248   4
  25  -1  -1 2272.57 504.535   1
 -25  24  -1 1488.53 460.857   2
 -24  25  -1 2810.12 591.104   2
  24   1   2 1026.74 360.390   1
 -25  24   2 967.813 377.001   2
 -24  25   2 1489.09 455.260   2
  25  -1   2 466.937 327.091   1
 -25  24   2 1215.94 474.238   4
 -24  25   2 1824.51 532.549   4
 -25  24   5 678.688 364.302   2
 -24  25   5 1122.78 389.587   2
 -25  24   5 1734.88 520.614   4
 -24  25   5 726.285 427.744   4
   0 -25  -5-1168.77 495.212   3
  25   0  -5 469.043 506.484   1
 -25  25  -5-436.563 455.374   4
 -25  25  -5 523.589 607.361   2
   0 -25  -2 1305.53 362.206   3
  25   0  -2 2133.79 538.232   1
 -25  25  -2 1947.54 549.277   4
 -25  25  -2 1020.76 515.146   2
   0 -25   1 101.093 240.639   3
 -25  25   1-428.519 456.624   4
  25   0   1 101.948 365.807   1
 -25  25   1-603.198 409.639   2
 -25  25   4 1421.72 389.734   2
 -25  25   4 1697.64 530.652   4
   0  26  -2 2849.32 545.821   2
 -26   0  -2 2664.90 544.213   3
   0  26  -2 2866.61 534.116   4
  26 -26  -2 2806.67 501.355   1
  26 -26   1-1.32527 384.278   1
   0  26   1 27.6149 379.865   2
 -26   0   1-658.541 469.647   3
   0  26   1-139.988 395.946   4
   0  26   4 1225.00 502.321   2
   0  26   4 931.892 508.494   4
  -1  26  -3 3400.41 588.084   2
   1  25  -3 2974.89 535.617   2
 -25  -1  -3 2595.85 572.498   3
 -26   1  -3 3400.38 625.315   3
  26 -25  -3 4886.16 628.216   1
  -1  26  -3 4051.70 586.118   4
   1  25  -3 3650.60 557.407   4
  25 -26  -3 4072.82 562.424   1
  25 -26   0 934.021 398.688   1
  -1  26   0 556.820 405.895   2
   1  25   0-38.3710 375.746   2
 -25  -1   0 823.688 434.946   3
 -26   1   0-169.619 432.260   3
  26 -25   0 1010.24 422.643   1
  -1  26   0 954.382 435.555   4
   1  25   0 829.850 458.447   4
  -1  26   3 1858.17 512.475   2
   1  25   3 2085.21 535.026   2
 -25  -1   3 2517.93 609.111   3
 -26   1   3 2506.69 589.268   3
  -1  26   3 2561.95 593.000   4
   1  25   3 2640.15 564.047   4
  26 -24  -4 469.728 416.647   1
  -2  26  -4 628.099 396.410   2
   2  24  -4 417.276 403.527   2
 -24  -2  -4-400.163 489.655   3
 -26   2  -4 759.352 516.798   3
  24 -26  -4 991.409 437.671   1
  -2  26  -4 1095.69 442.596   4
   2  24  -4 634.507 400.950   4
  -2  26  -1 650.436 400.343   2
   2  24  -1-105.660 377.199   2
 -24  -2  -1-125.317 414.656   3
 -26   2  -1-119.309 399.658   3
  24 -26  -1 608.525 377.894   1
  26 -24  -1 962.465 462.684   1
  -2  26  -1 243.675 411.114   4
   2  24  -1 25.3063 368.870   4
  26 -24   2 1482.68 455.017   1
  -2  26   2 1742.03 453.004   2
   2  24   2 1294.60 468.811   2
 -24  -2   2 1369.14 508.756   3
 -26   2   2 978.740 503.705   3
  -2  26   2 998.090 429.632   4
   2  24   2 1145.93 441.163   4
  -2  26   5 119.553 430.444   2
   2  24   5 320.466 476.844   2
  -2  26   5-601.440 469.825   4
   2  24   5 77.7611 427.978   4
  -3  26  -5 124.626 425.498   2
   3  23  -5 529.611 387.272   2
 -23  -3  -5 794.173 494.194   3
 -26   3  -5-58.2112 463.234   3
  23 -26  -5 170.732 402.810   1
  26 -23  -5 236.349 424.909   1
   3  23  -5 1623.40 646.569   1
  -3  26  -5 603.090 411.967   4
   3  23  -5 1169.60 452.864   4
  -3  26  -2 4742.91 586.982   2
   3  23  -2 4406.87 559.620   2
  23 -26  -2 4309.98 569.720   1
 -26   3  -2 4381.38 617.519   3
 -23  -3  -2 3553.03 571.694   3
  26 -23  -2 3918.21 551.683   1
  -3  26  -2 5091.76 608.999   4
   3  23  -2 5460.03 625.333   4
  -3  26   1 724.553 406.927   2
   3  23   1 1273.06 458.936   2
 -23  -3   1 26.4084 436.164   3
 -26   3   1 339.959 412.042   3
  26 -23   1 884.872 389.985   1
  -3  26   1 1098.91 441.317   4
   3  23   1 821.439 437.585   4
  -3  26   4 2326.95 562.649   2
   3  23   4 2336.38 537.952   2
  -3  26   4 1826.62 507.698   4
   3  23   4 1888.30 504.729   4
   4  22  -3 3357.96 513.500   2
  22 -26  -3 3983.63 563.765   1
 -22  -4  -3 3818.95 635.771   3
 -26   4  -3 3330.64 591.618   3
  26 -22  -3 4029.90 574.126   1
  -4  26  -3 4474.15 584.510   4
   4  22  -3 3425.21 540.560   4
  -4  26  -3 4319.11 583.487   2
  -4  26   0 1047.90 436.176   2
   4  22   0 1549.70 430.787   2
 -22  -4   0 1046.62 452.569   3
 -26   4   0 785.960 427.473   3
  22 -26   0 1394.92 457.968   1
  26 -22   0 999.158 430.064   1
  -4  26   0 822.312 409.293   4
   4  22   0 1031.04 446.579   4
  -4  26   3 3165.77 547.906   2
   4  22   3 2180.48 497.915   2
 -22  -4   3 3172.98 600.935   3
  -4  26   3 3486.36 613.021   4
   4  22   3 2945.56 555.352   4
  -5  26  -4 822.969 416.197   2
   5  21  -4 507.902 367.471   2
 -21  -5  -4 665.895 467.866   3
  26 -21  -4 109.852 396.820   1
 -26   5  -4 800.363 461.267   3
   5  21  -4 1123.53 546.725   1
  -5  26  -4 1037.96 428.755   4
   5  21  -4 488.885 343.035   4
  21 -26  -4-18.9964 382.734   1
  -5  26  -1 538.032 385.173   2
  26 -21  -1 340.734 365.293   1
   5  21  -1 816.065 383.723   2
 -21  -5  -1-194.959 393.387   3
 -26   5  -1 611.868 409.688   3
  21 -26  -1 418.322 364.833   1
  -5  26  -1 861.959 405.436   4
   5  21  -1 774.237 409.247   4
  -5  26   2 741.083 404.596   2
   5  21   2 1034.29 434.915   2
 -21  -5   2 446.336 438.248   3
 -26   5   2 592.667 426.689   3
  -5  26   2 281.649 381.978   4
  26 -21   2 776.438 367.168   1
   5  21   2 670.676 424.363   4
  -5  26   5 1403.52 493.324   2
   5  21   5 1161.83 494.133   2
 -26   5   5 200.733 392.977   4
  -5  26   5 356.394 419.878   4
   5  21   5 851.001 461.351   4
  -6  26  -5 2241.63 530.278   2
  26 -20  -5 1977.18 506.949   1
   6  20  -5 1623.30 400.644   2
 -20  -6  -5 2196.31 595.760   3
 -26   6  -5 837.558 482.402   3
   6  20  -5 3347.06 773.395   1
  -6  26  -5 2217.33 478.738   4
  20 -26  -5 761.981 446.263   1
   6  20  -5 1891.58 444.403   4
  20 -26  -2 1711.46 458.195   1
  -6  26  -2 2460.63 489.387   2
   6  20  -2 2183.67 448.267   2
 -20  -6  -2 2399.98 530.625   3
 -26   6  -2 1894.49 485.443   3
  26 -20  -2 2276.55 453.007   1
  -6  26  -2 2322.11 466.445   4
   6  20  -2 2564.91 473.729   4
  -6  26   1 2532.71 482.974   2
   6  20   1 2045.08 443.302   2
 -20  -6   1 2721.60 520.098   3
 -26   6   1 2764.02 538.229   3
  -6  26   1 2861.58 517.804   4
   6  20   1 3491.46 540.924   4
  26 -20   1 3010.21 465.469   1
  -6  26   4 3099.05 536.028   2
   6  20   4 2929.61 558.376   2
  -6  26   4 3414.56 575.545   4
   6  20   4 4274.25 607.542   4
  19 -26  -6 523.681 508.282   3
  -7  26  -6 2014.92 560.447   2
   7  19  -6 1044.61 376.785   2
 -19  -7  -6 1418.34 587.646   3
 -26   7  -6 974.480 529.013   3
  19 -26  -6 645.867 396.697   1
  26 -19  -6 860.239 471.749   1
   7  19  -6 850.548 655.282   1
  -7  26  -6 1367.37 437.725   4
   7  19  -6 674.375 383.520   4
  26 -19  -3 2721.64 513.573   1
   7  19  -3 2557.71 462.616   2
 -19  -7  -3 2075.66 521.901   3
 -26   7  -3 1812.18 492.184   3
   7  19  -3 2740.78 615.681   1
  19 -26  -3 3238.99 498.316   1
  -7  26  -3 2502.61 495.913   4
   7  19  -3 2818.89 506.791   4
  -7  26  -3 3497.52 544.308   2
  -7  26   0 3480.05 521.481   2
   7  19   0 5124.79 579.203   2
 -19  -7   0 3419.46 544.434   3
 -26   7   0 4468.26 593.205   3
  26 -19   0 4279.59 522.877   1
  -7  26   0 4890.92 595.915   4
   7  19   0 4599.32 583.282   4
  19 -26   0 3278.77 297.330   3
  -7  26   3 3620.88 556.978   2
   7  19   3 3430.33 559.240   2
 -19  -7   3 3241.01 577.840   3
 -26   7   3 1740.67 321.119   2
  26 -19   3 3588.36 471.243   1
  -7  26   3 4045.01 595.335   4
   7  19   3 3204.76 562.137   4
  -7  26   6 1495.55 472.164   2
   7  19   6 453.728 456.007   2
 -26   7   6 531.698 398.956   4
  -7  26   6 1310.28 511.702   4
   7  19   6 1365.83 502.697   4
  18 -26  -4-7.74238 452.899   3
  -8  26  -4 112.855 379.006   2
   8  18  -4 750.029 338.540   2
 -18  -8  -4 750.959 476.523   3
 -26   8  -4 609.827 423.128   3
  18 -26  -4 843.204 412.166   1
   8  18  -4 831.570 540.745   1
  -8  26  -4 893.606 389.971   4
  26 -18  -4 730.061 427.724   1
   8  18  -4 547.323 360.772   4
  18 -26  -1 2399.51 330.255   3
  -8  26  -1 2303.64 447.080   2
   8  18  -1 2682.18 460.544   2
 -18  -8  -1 2504.70 500.699   3
 -26   8  -1 2698.11 510.858   3
  26 -18  -1 2959.60 466.339   1
  18 -26  -1 3363.56 489.497   1
   8  18  -1 3327.85 536.573   1
  -8  26  -1 3411.62 523.659   4
   8  18  -1 2660.98 475.845   4
  26 -18   2 383.393 328.163   1
  -8  26   2 1606.40 423.884   2
   8  18   2 375.649 367.637   2
 -18  -8   2 1521.49 489.468   3
 -26   8   2 1176.55 447.009   3
 -26   8   2 308.520 322.387   2
  -8  26   2 1041.78 417.266   4
   8  18   2 989.458 435.597   4
  -8  26   5 1461.02 445.425   2
   8  18   5 825.570 462.515   2
 -26   8   5 972.793 439.739   4
   8  18   5 1591.01 337.548   1
  -8  26   5 1915.68 510.679   4
   8  18   5 2231.59 542.708   4
  -9  26  -5 3391.47 574.541   2
  17 -26  -5 3619.60 588.896   3
   9  17  -5 2628.56 437.841   2
 -26   9  -5 3284.05 599.873   3
  17 -26  -5 3324.17 537.064   1
 -17  -9  -5 2939.87 622.811   3
  26 -17  -5 3305.39 570.820   1
  -9  26  -5 4782.76 593.008   4
   9  17  -5 3577.58 709.663   1
   9  17  -5 3210.31 507.009   4
  17 -26  -2 2482.19 458.990   1
  17 -26  -2 2215.77 383.281   3
  -9  26  -2 2587.24 501.411   2
  26 -17  -2 2625.69 489.523   1
 -17  -9  -2 2338.00 499.387   3
   9  17  -2 2122.66 422.510   2
 -26   9  -2 1448.36 435.136   3
   9  17  -2 2812.70 561.132   1
  -9  26  -2 2226.91 460.687   4
   9  17  -2 2615.91 469.304   4
  -9  26   1 3684.76 513.649   2
   9  17   1 3060.74 517.464   2
  26 -17   1 3048.20 427.926   1
 -26   9   1 3722.29 567.556   3
 -17  -9   1 2770.87 501.409   3
   9  17   1 3263.40 507.337   1
 -26   9   1 2677.36 510.176   2
  -9  26   1 3536.14 541.979   4
   9  17   1 3544.83 521.688   4
  26 -17   4 889.201 345.938   1
  -9  26   4 704.038 389.613   2
   9  17   4 685.865 416.023   2
 -26   9   4-182.235 397.453   4
   9  17   4 357.509 311.644   1
  -9  26   4 21.8803 383.240   4
   9  17   4 993.558 454.242   4
  16 -26  -6 3291.87 615.697   3
  10  16  -6 3004.59 414.376   2
  16 -26  -6 3840.36 548.127   1
 -16 -10  -6 2927.48 676.479   3
 -26  10  -6 2823.27 593.658   3
  26 -16  -6 3003.83 581.820   1
 -10  26  -6 4944.04 608.805   4
 -10  26  -6 4086.65 641.467   2
  10  16  -6 3786.90 751.862   1
 -10  26  -3 1638.49 453.196   2
  16 -26  -3 1869.37 421.980   3
  16 -26  -3 1166.74 407.002   1
 -16 -10  -3 1392.36 457.524   3
  10  16  -3 801.902 341.473   2
 -26  10  -3 465.895 391.466   3
  26 -16  -3 1379.33 456.633   1
 -10  26  -3 2076.75 455.445   4
  10  16  -3 1376.40 547.493   1
  10  16  -3 1987.79 435.872   4
  16 -26   0 4035.47 202.290   3
  10  16   0 4412.76 541.851   2
  26 -16   0 4024.79 480.845   1
 -16 -10   0 3911.96 548.330   3
 -26  10   0 3453.39 520.414   3
 -26  10   0 4236.50 618.319   2
  10  16   0 5540.07 597.434   1
 -10  26   0 5786.27 633.291   4
  10  16   0 4167.79 541.602   4
 -10  26   0 4491.46 535.617   2
 -10  26   3 1243.30 409.551   2
  26 -16   3 1721.48 367.600   1
  10  16   3 1257.66 426.514   2
 -16 -10   3 1644.31 495.766   3
 -26  10   3 685.168 438.335   4
  10  16   3 1084.64 353.754   1
 -26  10   3 928.041 274.080   2
 -10  26   3 1696.32 486.707   4
  10  16   3 1480.01 464.781   4
 -10  26   6 4177.06 606.207   2
 -26  10   6 4170.38 514.721   4
 -10  26   6 4153.67 608.112   4
  11  15  -7 951.779 635.920   1
  15 -26  -7 1129.64 577.584   3
 -15 -11  -7 1035.83 612.045   3
 -26  11  -7 729.606 505.267   3
  26 -15  -7 640.279 474.054   1
  15 -26  -7 1449.69 467.664   1
 -11  26  -7 1624.27 494.400   4
 -11  26  -7 1780.96 543.839   2
 -11  26  -4 498.006 435.647   2
  15 -26  -4-127.594 401.069   3
 -15 -11  -4 833.979 478.149   3
  11  15  -4-308.860 304.600   2
 -26  11  -4-68.5263 383.431   3
  26 -15  -4-279.438 405.284   1
 -11  26  -4-406.780 401.835   4
  15 -26  -4 331.442 381.028   1
  11  15  -4 332.453 505.047   1
  15 -26  -1 4306.13 318.810   3
  26 -15  -1 3699.93 496.842   1
  11  15  -1 3645.35 490.127   2
 -15 -11  -1 3757.04 545.789   3
 -26  11  -1 2640.68 499.687   3
 -26  11  -1 4035.26 655.305   2
  11  15  -1 4120.83 580.189   1
 -11  26  -1 4559.47 588.597   4
 -11  26  -1 4895.08 596.588   2
  11  15  -1 3822.58 527.766   4
 -11  26   2 151.733 331.952   2
  26 -15   2 768.382 320.523   1
 -15 -11   2 1094.89 460.601   3
  11  15   2 868.154 385.684   2
 -26  11   2 364.072 424.156   4
 -26  11   2-105.967 316.000   2
  11  15   2 415.139 336.753   1
 -11  26   2 604.658 397.916   4
  11  15   2 381.972 386.628   4
 -11  26   5 1001.05 425.808   2
 -26  11   5 1119.36 426.052   4
 -11  26   5 1331.64 454.032   4
  14 -26  -5 4787.42 601.787   3
  12  14  -5 3319.66 421.244   2
 -14 -12  -5 3697.77 635.013   3
  26 -14  -5 3062.45 573.089   1
 -26  12  -5 3112.88 534.748   3
 -26  12  -5 2702.02 597.084   4
 -26  12  -5 2850.83 693.816   2
  12  14  -5 5243.93 767.626   1
 -12  26  -5 4931.44 612.216   4
  14 -26  -5 4588.05 550.703   1
 -12  26  -5 4155.25 611.027   2
 -12  26  -2 1201.49 410.007   2
  14 -26  -2 1403.55 306.350   3
 -14 -12  -2 718.579 422.457   3
  12  14  -2 875.941 347.053   2
 -26  12  -2 1199.44 432.062   3
 -26  12  -2 1333.80 487.039   4
 -26  12  -2 677.252 522.998   2
  26 -14  -2 1234.87 399.511   1
 -12  26  -2 1437.83 430.968   4
  12  14  -2 1831.07 515.386   1
  12  14  -2 1424.25 407.861   4
 -12  26   1 3011.54 479.441   2
  26 -14   1 2579.89 439.852   1
  12  14   1 3032.97 511.767   2
 -14 -12   1 2699.28 478.005   3
 -26  12   1 2942.78 501.431   3
 -26  12   1 2734.53 559.750   4
 -26  12   1 2074.46 441.010   2
 -12  26   1 3341.90 555.596   4
  12  14   1 3040.93 461.207   1
  12  14   1 3429.60 541.028   4
  26 -14   4 10.1409 289.181   1
 -12  26   4-47.4796 347.503   2
 -26  12   4-291.558 390.054   4
 -12  26   4-26.3688 391.189   4
  12  14   4-109.540 269.802   1
 -12  26   7 1148.93 471.733   2
 -26  12   7 2063.40 446.645   4
 -12  26   7 2152.84 482.586   4
  13 -26  -6 5090.77 681.755   3
  13  13  -6 3269.58 406.127   2
  26 -13  -6 3473.30 615.586   1
 -26  13  -6 3902.16 610.197   3
 -13 -13  -6 2951.33 635.839   3
 -26  13  -6 1927.51 526.487   4
 -26  13  -6 2193.52 736.884   2
 -13  26  -6 4627.57 646.506   4
  13  13  -6 4298.03 784.036   1
 -13  26  -6 5354.25 761.438   2
  13 -26  -6 3815.56 526.535   1
 -13  26  -3 960.778 430.808   2
  13 -26  -3 1895.72 406.713   3
 -13 -13  -3 1015.71 411.990   3
  13  13  -3 732.740 316.530   2
  26 -13  -3 720.370 417.374   1
 -26  13  -3 1347.35 421.063   3
 -26  13  -3 318.911 400.016   4
 -26  13  -3 315.849 499.601   2
 -13  26  -3 944.243 406.717   4
  13  13  -3 1893.60 526.246   1
  26 -13   0 3626.46 474.999   1
 -13 -13   0 3660.01 520.752   3
  13  13   0 3597.72 497.365   2
 -26  13   0 3763.23 527.065   3
 -26  13   0 3307.67 565.576   2
 -26  13   0 3249.36 564.566   4
  13  13   0 4826.06 554.975   1
 -13  26   0 5156.24 614.482   4
 -13  26   0 3783.25 523.825   2
 -13  26   3 1280.76 408.030   2
 -13 -13   3 896.435 430.891   3
 -26  13   3 434.538 389.605   4
  26 -13   3 217.206 290.314   1
 -13  26   3 1395.30 463.250   4
 -26  13   3 217.025 263.762   2
  13  13   3 1379.96 345.956   1
 -13  26   6 4562.71 603.435   2
 -26  13   6 3129.08 498.918   4
 -13  26   6 4917.08 626.498   4
  12 -26  -7 2234.72 490.693   1
  14  12  -7 1200.70 633.478   1
  12 -26  -7 3400.15 677.244   3
  26 -12  -7 1949.95 617.019   1
 -12 -14  -7 1473.15 590.389   3
 -26  14  -7 2111.30 561.267   3
 -26  14  -7 1851.12 562.011   4
 -26  14  -7 572.885 668.686   2
 -14  26  -7 2099.74 531.998   4
 -14  26  -7 1654.27 573.352   2
  14  12  -4-174.392 463.980   1
  12 -26  -4 595.571 366.082   3
  26 -12  -4-3.58684 408.915   1
 -12 -14  -4-311.973 451.311   3
 -26  14  -4 125.631 399.818   3
  14  12  -4 190.016 288.684   2
 -26  14  -4-504.403 435.857   4
 -26  14  -4-1161.49 582.289   2
 -14  26  -4 63.5214 373.333   4
 -14  26  -4 71.7819 412.819   2
 -14  26  -1 3241.07 507.079   2
  12 -26  -1 3684.27 292.877   3
  14  12  -1 3061.79 468.487   2
 -12 -14  -1 2861.47 464.130   3
 -26  14  -1 2828.44 483.389   3
 -26  14  -1 2529.64 545.717   4
  26 -12  -1 2937.80 463.895   1
  14  12  -1 3518.66 549.488   1
 -26  14  -1 3131.95 572.773   2
 -14  26  -1 3120.74 511.500   4
  14  12   2 1191.79 347.594   1
 -14  26   2 1335.79 412.974   2
 -12 -14   2 425.875 357.514   3
 -26  14   2 1653.64 473.708   4
  26 -12   2 667.777 312.223   1
 -14  26   2 1444.15 458.222   4
 -26  14   2 1125.17 367.950   2
 -14  26   5 3613.97 552.657   2
 -26  14   5 4064.48 581.014   4
  15  11  -5 1966.45 566.595   1
  11 -26  -5 2227.29 498.666   3
  26 -11  -5 813.410 496.542   1
 -11 -15  -5 1312.18 530.581   3
 -26  15  -5 617.078 413.961   3
  15  11  -5 935.847 306.726   2
 -26  15  -5 830.591 489.387   4
 -26  15  -5-294.123 559.694   2
 -15  26  -5 1138.91 433.868   4
 -15  26  -5 2259.87 571.373   2
 -15  26  -2 394.241 384.574   2
  15  11  -2-460.487 432.093   1
  11 -26  -2 311.411 259.215   3
  26 -11  -2 479.794 408.742   1
 -11 -15  -2-171.943 393.644   3
 -26  15  -2 348.016 352.025   3
  15  11  -2 516.720 328.933   2
 -26  15  -2 461.398 419.997   4
 -26  15  -2-245.802 469.495   2
 -15  26  -2 1021.34 394.119   4
  15  11   1 3187.10 456.261   1
  26 -11   1 3702.16 461.585   1
 -11 -15   1 3489.25 464.235   3
 -26  15   1 3001.46 549.067   4
 -15  26   1 3435.21 571.755   4
 -26  15   1 3132.83 484.601   2
 -15  26   1 3770.42 520.818   2
 -26  15   4-5.20138 218.694   2
  26 -11   4 431.975 280.837   1
 -15  26   4 183.661 358.598   2
  15  11   4-255.839 233.024   1
 -26  15   4-642.522 406.824   4
 -15  26   4-930.726 402.800   4
 -15  26   7 1290.42 500.446   2
 -26  15   7 1118.40 400.509   4
 -15  26   7 1243.68 435.417   4
  10 -26  -6 5163.59 672.681   3
  16  10  -6 3307.85 706.161   1
 -10 -16  -6 4140.94 675.795   3
 -26  16  -6 3823.53 572.632   3
  26 -10  -6 4070.62 695.033   1
 -26  16  -6 4774.13 879.870   2
 -26  16  -6 2959.12 594.554   4
 -16  26  -6 4322.24 618.934   4
 -16  26  -6 4620.18 708.327   2
  16  10  -3 1112.68 466.620   1
  10 -26  -3 1140.90 358.477   3
  26 -10  -3 2036.82 507.032   1
 -10 -16  -3 1942.69 483.731   3
 -26  16  -3 1516.88 426.952   3
  16  10  -3 998.275 342.190   2
 -26  16  -3 1187.69 484.722   4
 -26  16  -3 1317.56 560.964   2
 -16  26  -3 1781.83 462.682   4
 -16  26  -3 1608.70 506.080   2
 -10 -16   0 3410.75 482.180   3
 -26  16   0 2903.97 473.717   3
 -26  16   0 2809.88 549.596   4
 -26  16   0 3631.94 580.671   2
 -16  26   0 4167.56 574.302   4
  16  10   0 4170.32 520.377   1
  26 -10   0 2973.48 464.403   1
 -16  26   0 4530.69 595.034   2
  26 -10   3 1167.07 313.846   1
 -16  26   3 1740.33 416.898   2
  16  10   3 1073.56 312.698   1
 -10 -16   3 838.204 391.319   3
 -26  16   3 1627.70 452.755   4
 -16  26   3 1434.98 439.860   4
 -26  16   3 1397.34 334.648   2
 -16  26   6 2883.74 502.658   2
 -26  16   6 2365.43 485.996   4
 -16  26   6 4131.58 615.676   4
  26  -9  -4 812.346 476.477   1
  17   9  -4-355.234 472.110   1
   9 -26  -4 971.886 404.991   3
  -9 -17  -4 474.366 466.882   3
 -26  17  -4 305.619 359.739   3
 -26  17  -4 106.156 445.926   4
 -26  17  -4 916.480 572.210   2
 -17  26  -4 28.0712 392.577   4
 -17  26  -4 482.456 456.069   2
 -17  26  -1 2452.98 515.295   2
   9 -26  -1 3206.35 295.252   3
  26  -9  -1 2410.96 449.208   1
  -9 -17  -1 2312.85 436.521   3
 -26  17  -1 3141.71 485.558   3
 -26  17  -1 3631.43 638.875   2
 -26  17  -1 3006.35 554.738   4
 -17  26  -1 3723.23 571.276   4
  17   9  -1 4010.57 558.470   1
 -17  26   2 2309.56 464.642   2
  26  -9   2 1889.41 387.198   1
  17   9   2 1878.80 378.058   1
  -9 -17   2 2038.41 421.169   3
 -26  17   2 2214.50 490.960   4
 -17  26   2 2682.17 523.177   4
 -26  17   2 1429.94 363.758   2
 -17  26   5 2824.34 484.390   2
 -26  17   5 3405.83 542.359   4
 -17  26   5 3864.07 575.360   4
   8 -26  -5 2514.09 551.205   3
  18   8  -5 168.868 506.694   1
  -8 -18  -5 1117.37 460.607   3
 -26  18  -5 1657.38 435.263   3
 -26  18  -5 345.433 427.994   4
 -26  18  -5 797.207 582.836   2
 -18  26  -5 2145.48 531.761   4
 -18  26  -5 1035.74 523.740   2
  26  -8  -5 1334.23 508.958   1
  26  -8  -2 1830.96 498.451   1
  18   8  -2 454.865 426.137   1
   8 -26  -2 1355.90 314.543   3
  -8 -18  -2 296.544 402.626   3
 -26  18  -2 472.301 337.699   3
 -26  18  -2 743.319 420.919   4
 -18  26  -2 807.523 430.851   4
 -26  18  -2 1043.35 529.288   2
 -18  26  -2 570.788 434.070   2
  18   8   1 2694.57 452.710   1
  -8 -18   1 3249.02 438.309   3
  26  -8   1 2302.68 414.614   1
 -26  18   1 2719.66 545.185   4
 -26  18   1 3384.40 528.627   2
 -18  26   1 3099.38 528.327   4
 -18  26   1 3141.06 517.193   2
 -26  18   4 278.986 258.863   2
 -18  26   4 397.214 378.903   2
  26  -8   4 668.123 283.998   1
 -26  18   4 422.701 375.832   4
 -18  26   4 419.814 387.533   4
   7 -26  -6 1944.91 527.532   3
  19   7  -6 1986.87 598.433   1
  -7 -19  -6 936.999 498.128   3
 -26  19  -6 645.894 429.220   3
 -26  19  -6 1172.74 510.538   4
 -26  19  -6 1737.08 682.530   2
 -19  26  -6 898.674 462.107   4
 -19  26  -6 1844.71 590.251   2
  26  -7  -6 2578.79 608.672   1
   7 -26  -3 3663.87 456.062   3
  -7 -19  -3 3210.08 541.413   3
 -26  19  -3 3425.48 487.242   3
  26  -7  -3 3750.58 587.265   1
 -26  19  -3 3590.60 614.227   4
 -19  26  -3 3905.74 593.781   4
 -26  19  -3 4046.06 722.003   2
 -19  26  -3 4065.71 656.034   2
  19   7  -3 4114.87 619.063   1
   7 -26   0 3305.73 211.099   3
  -7 -19   0 3650.05 458.919   3
 -26  19   0 3955.89 608.807   4
  26  -7   0 4131.47 513.944   1
 -26  19   0 5458.40 654.631   2
 -19  26   0 4898.22 631.545   4
 -19  26   0 4608.85 589.276   2
  19   7   0 3833.29 519.993   1
 -19  26   3 2502.68 462.748   2
  26  -7   3 2006.07 340.429   1
  -7 -19   3 2370.87 389.223   3
  19   7   3 2010.67 326.977   1
 -26  19   3 3253.17 572.467   4
 -19  26   3 2724.31 504.692   4
 -26  19   3 1475.14 350.266   2
 -19  26   6 729.524 408.183   2
 -26  19   6 347.711 397.743   4
 -19  26   6 1033.69 460.766   4
   6 -26  -4 4232.28 528.158   3
  20   6  -4 3713.59 621.430   1
  -6 -20  -4 2953.35 570.943   3
 -26  20  -4 3164.84 454.946   3
 -26  20  -4 5080.60 826.838   2
 -26  20  -4 2729.43 583.566   4
 -20  26  -4 3227.02 558.484   4
 -20  26  -4 4514.44 701.701   2
  26  -6  -4 2966.73 598.855   1
  26  -6  -1 1847.18 451.167   1
   6 -26  -1 2236.61 293.574   3
  20   6  -1 2846.72 523.610   1
  -6 -20  -1 2179.09 436.938   3
 -26  20  -1 2193.65 538.666   4
 -20  26  -1 3099.08 559.899   4
 -26  20  -1 2715.68 570.990   2
 -20  26  -1 2429.98 523.450   2
 -20  26   2 1811.31 428.421   2
  -6 -20   2 1811.54 365.997   3
  20   6   2 2149.17 390.653   1
 -26  20   2 2259.39 524.299   4
 -20  26   2 2621.92 561.512   4
  26  -6   2 1780.55 361.701   1
 -26  20   2 1464.44 401.090   2
 -26  20   5 1500.22 339.428   2
 -20  26   5 1114.40 409.220   2
 -26  20   5 1884.07 514.030   4
 -20  26   5 1886.33 485.070   4
   5 -26  -5 555.560 401.679   3
  -5 -21  -5 533.973 453.781   3
  21   5  -5 2539.83 608.935   1
 -26  21  -5 801.753 370.786   3
 -26  21  -5 212.347 428.542   4
 -21  26  -5 640.752 461.769   4
 -26  21  -5 1639.65 662.675   2
  26  -5  -5 622.611 493.662   1
 -21  26  -5 887.716 554.797   2
   5 -26  -2 411.404 276.993   3
  -5 -21  -2 419.717 363.891   3
  21   5  -2-64.4154 417.669   1
 -26  21  -2 286.053 405.870   4
 -21  26  -2 1389.73 468.823   4
 -26  21  -2 943.439 522.361   2
 -21  26  -2 1513.97 532.123   2
  26  -5  -2 633.476 427.644   1
 -21  26   1 600.024 373.255   2
  26  -5   1 576.209 363.242   1
  -5 -21   1 274.235 296.113   3
  21   5   1 241.491 333.689   1
 -26  21   1 233.544 416.244   4
 -21  26   1 1343.81 479.556   4
 -26  21   1 632.446 395.330   2
 -26  21   4-62.2741 288.356   2
  26  -5   4 143.742 237.364   1
 -21  26   4 523.147 383.597   2
 -26  21   4 680.354 408.965   4
 -21  26   4 586.590 424.889   4
   4 -26  -3 3539.91 479.553   3
  -4 -22  -3 2643.80 496.007   3
  22   4  -3 2501.69 551.330   1
 -26  22  -3 1990.14 405.309   3
 -26  22  -3 2622.26 589.260   4
 -22  26  -3 2026.67 522.507   4
 -26  22  -3 3265.16 665.023   2
  26  -4  -3 3623.36 590.752   1
 -22  26  -3 3094.06 614.990   2
  26  -4   0 442.554 370.613   1
   4 -26   0 477.399 210.397   3
  -4 -22   0-7.96299 298.504   3
  22   4   0 310.156 387.498   1
 -26  22   0 823.259 445.609   4
 -22  26   0 734.648 421.374   4
 -26  22   0 498.961 436.686   2
 -22  26   0 1603.92 468.920   2
  26  -4   3 2488.93 367.972   1
 -22  26   3 3254.16 476.995   2
 -26  22   3 3973.34 637.943   4
 -22  26   3 4013.34 627.479   4
 -26  22   3 2848.04 453.864   2
  22   4   3 1729.68 325.042   1
   3 -26  -4 2726.73 509.115   3
  -3 -23  -4 2577.43 532.451   3
  23   3  -4 2113.27 577.017   1
 -26  23  -4 2197.46 401.329   3
 -26  23  -4 2305.71 546.998   4
 -23  26  -4 2595.92 553.345   4
  26  -3  -4 3459.67 601.246   1
 -26  23  -4 2359.94 664.254   2
 -23  26  -4 2747.25 649.514   2
   3 -26  -1 1049.00 297.074   3
  -3 -23  -1 554.270 343.106   3
  23   3  -1 827.112 456.914   1
 -26  23  -1 1456.94 530.846   4
 -23  26  -1 1241.82 471.558   4
 -26  23  -1 819.649 455.976   2
  26  -3  -1 740.695 436.049   1
 -23  26  -1 448.228 424.447   2
  23   3   2 4489.51 466.363   1
  -3 -23   2 4016.40 400.206   3
 -26  23   2 6283.56 719.264   4
 -23  26   2 6332.90 742.447   4
  26  -3   2 3436.42 426.309   1
 -26  23   2 4110.39 542.868   2
 -23  26   2 4294.27 575.734   2
 -26  23   5 413.884 333.093   2
 -23  26   5 595.189 386.537   2
 -26  23   5-199.678 408.252   4
 -23  26   5 30.6895 401.479   4
   2 -26  -5-340.087 453.535   3
  -2 -24  -5 521.809 490.083   3
  24   2  -5 1052.78 562.581   1
 -26  24  -5 751.250 494.582   4
  26  -2  -5 743.964 539.258   1
 -24  26  -5-134.395 428.387   4
 -26  24  -5 678.347 597.136   2
 -24  26  -5 883.287 620.543   2
   2 -26  -2 1194.72 347.146   3
  -2 -24  -2 705.236 375.036   3
  24   2  -2 1468.55 513.020   1
 -26  24  -2 1499.83 526.040   4
 -24  26  -2 1486.01 505.763   4
  26  -2  -2 852.060 474.709   1
 -26  24  -2 1353.01 544.708   2
 -24  26  -2 2473.87 593.176   2
 -24  26   1 791.761 422.603   2
  26  -2   1-80.4609 350.185   1
  -2 -24   1 872.186 299.434   3
 -26  24   1 701.326 450.744   4
 -24  26   1 941.485 501.268   4
  24   2   1 607.415 369.706   1
 -26  24   1 659.286 399.623   2
 -26  24   4 915.940 338.562   2
 -24  26   4 847.507 378.037   2
 -26  24   4 1015.87 480.113   4
 -24  26   4 492.212 426.033   4
   1 -26  -3 2625.84 457.366   3
  -1 -25  -3 2260.22 468.478   3
  25   1  -3 2428.43 573.945   1
 -25  26  -3 4023.83 638.515   4
 -26  25  -3 2692.60 590.336   4
  26  -1  -3 2279.40 556.686   1
 -26  25  -3 2399.27 633.380   2
 -25  26  -3 3280.82 715.382   2
   1 -26   0 143.263 257.633   3
  -1 -25   0 598.344 276.370   3
 -26  25   0 79.2675 475.792   4
 -25  26   0 554.135 432.248   4
  25   1   0 409.756 393.917   1
  26  -1   0 1310.11 447.586   1
 -26  25   0 672.929 460.860   2
 -25  26   0 895.959 492.594   2
 -26  25   3 2941.91 496.011   2
 -26  25   3 4388.92 680.874   4
  25   1   3 2600.53 374.389   1
 -25  26   3 4061.63 658.558   4
  26  -1   3 2954.06 394.912   1
 -25  26   3 3434.73 538.137   2
   0 -26  -4 513.702 402.080   3
  26   0  -4 551.758 498.653   1
 -26  26  -4 153.008 466.616   4
 -26  26  -4 83.9372 541.555   2
   0 -26  -1-261.762 292.152   3
 -26  26  -1-161.125 451.147   4
  26   0  -1-940.348 450.791   1
 -26  26  -1-72.1845 462.957   2
 -26  26   2 3165.18 543.682   2
  26   0   2 2488.40 420.764   1
 -26  26   2 2724.57 632.586   4
   0  27  -3 218.044 418.107   2
 -27   0  -3-695.080 492.605   3
  27 -27  -3 662.546 476.098   1
   0  27  -3-269.211 438.664   4
  27 -27   0 1812.34 497.834   1
   0  27   0 1731.19 512.095   2
 -27   0   0 2170.54 593.154   3
   0  27   0 1918.88 509.682   4
   0  27   3-105.832 427.327   2
   0  27   3-141.553 438.985   4
  27 -26  -1 1563.97 476.220   1
  -1  27  -1 1028.85 451.300   2
   1  26  -1 1345.45 451.685   2
 -26  -1  -1 1061.73 477.497   3
 -27   1  -1 158.171 460.125   3
  26 -27  -1 1690.71 444.747   1
  -1  27  -1 1669.16 502.398   4
   1  26  -1 1259.86 460.449   4
  -1  27   2 184.976 461.785   2
   1  26   2-111.504 429.844   2
 -26  -1   2 1152.73 535.408   3
 -27   1   2 964.114 551.470   3
  -1  27   2-0.29070 436.870   4
   1  26   2 270.953 413.651   4
  -2  27  -2 545.989 450.449   2
   2  25  -2 582.966 418.518   2
  25 -27  -2 347.972 429.719   1
 -25  -2  -2 392.888 460.262   3
 -27   2  -2 1112.48 517.942   3
  27 -25  -2 231.580 396.710   1
  -2  27  -2 488.439 422.826   4
   2  25  -2 545.651 422.935   4
  27 -25   1 1459.30 435.318   1
  -2  27   1 1058.45 465.235   2
   2  25   1 693.467 432.785   2
 -25  -2   1 705.714 439.026   3
 -27   2   1 300.241 444.564   3
  25 -27   1 762.074 438.728   1
  -2  27   1 1262.68 471.485   4
   2  25   1 924.906 448.582   4
  -2  27   4 731.374 439.698   2
   2  25   4 11.1291 408.840   2
  -2  27   4 330.498 448.473   4
   2  25   4 150.693 456.437   4
  24 -27  -3 2.60842 427.005   1
  -3  27  -3 941.932 437.112   2
  27 -24  -3-314.672 436.640   1
   3  24  -3 369.638 395.066   2
 -24  -3  -3-297.439 468.629   3
 -27   3  -3-43.3885 456.611   3
  -3  27  -3 528.278 409.076   4
   3  24  -3-176.269 415.010   4
  -3  27   0 3412.26 551.043   2
  27 -24   0 3350.53 513.486   1
   3  24   0 3037.60 559.807   2
  24 -27   0 2780.42 492.248   1
 -24  -3   0 2390.48 551.719   3
 -27   3   0 2217.15 553.288   3
   3  24   0 3418.33 571.058   4
  -3  27   0 2580.08 503.406   4
  -3  27   3 361.038 407.203   2
   3  24   3 221.128 418.545   2
 -24  -3   3-91.4139 491.024   3
  -3  27   3 1135.21 494.593   4
   3  24   3 702.430 452.455   4
  -4  27  -4-110.482 396.875   2
   4  23  -4-15.9990 358.339   2
 -23  -4  -4 265.116 486.533   3
 -27   4  -4 383.997 474.549   3
   4  23  -4-533.124 552.040   1
  27 -23  -4-210.506 402.376   1
  -4  27  -4 1.01738 393.466   4
   4  23  -4 483.573 392.327   4
  23 -27  -4-161.614 391.583   1
  -4  27  -1 930.863 442.329   2
   4  23  -1 345.332 377.243   2
  23 -27  -1-157.290 380.195   1
 -23  -4  -1 981.513 464.398   3
 -27   4  -1 1733.68 499.720   3
  27 -23  -1 509.347 402.441   1
  -4  27  -1 840.315 437.987   4
   4  23  -1 649.017 404.962   4
  -4  27   2-34.8801 388.290   2
   4  23   2 131.005 386.915   2
 -23  -4   2 201.170 444.336   3
 -27   4   2 563.825 462.429   3
  27 -23   2 148.497 368.013   1
  -4  27   2-91.4111 407.641   4
   4  23   2-228.158 443.631   4
  -4  27   5 1354.96 475.200   2
   4  23   5 1095.90 536.726   2
  -4  27   5 1033.54 505.797   4
   4  23   5 1373.24 524.081   4
  -5  27  -5 1296.94 483.268   2
   5  22  -5 1156.06 422.261   2
 -22  -5  -5 963.911 544.699   3
  27 -22  -5 405.994 465.529   1
 -27   5  -5 988.083 539.908   3
   5  22  -5 1476.56 646.063   1
  22 -27  -5 1879.40 504.506   1
  -5  27  -5 1915.58 513.529   4
   5  22  -5 1270.52 439.374   4
  27 -22  -2 1867.53 444.213   1
  -5  27  -2 1338.59 458.284   2
   5  22  -2 2026.45 463.279   2
 -22  -5  -2 1258.12 486.834   3
 -27   5  -2 1350.55 501.372   3
  -5  27  -2 1310.36 480.341   4
   5  22  -2 990.266 401.859   4
  22 -27  -2 746.007 394.933   1
  27 -22   1 2444.64 454.388   1
  -5  27   1 2276.20 466.853   2
   5  22   1 2361.11 498.826   2
 -22  -5   1 1941.11 521.121   3
 -27   5   1 2052.56 548.241   3
  -5  27   1 1918.03 504.734   4
   5  22   1 2045.31 487.573   4
  -5  27   4 1431.06 499.809   2
   5  22   4 281.054 409.638   2
  -5  27   4 1058.85 457.311   4
   5  22   4 834.911 457.979   4
  -6  27  -3 1330.89 433.482   2
   6  21  -3 1313.24 412.947   2
 -21  -6  -3 1237.31 478.687   3
 -27   6  -3 1232.07 492.866   3
  27 -21  -3 1731.92 460.903   1
  21 -27  -3 1044.47 453.637   1
   6  21  -3 1079.52 524.000   1
  -6  27  -3 1413.34 443.776   4
   6  21  -3 1491.60 458.648   4
  -6  27   0 5894.19 637.602   2
   6  21   0 6151.09 647.122   2
 -21  -6   0 5146.45 626.778   3
 -27   6   0 5979.06 680.945   3
  27 -21   0 7202.32 648.628   1
  -6  27   0 7331.45 707.294   4
   6  21   0 6284.83 667.181   4
  -6  27   3 202.765 390.712   2
  27 -21   3 577.032 372.873   1
   6  21   3 41.3061 399.713   2
 -21  -6   3 668.816 510.080   3
  -6  27   3 1401.96 480.278   4
   6  21   3 592.211 437.047   4
  20 -27  -4 1438.19 499.044   3
  -7  27  -4 508.652 388.544   2
  27 -20  -4 15.6620 421.774   1
   7  20  -4 8.52119 317.453   2
 -20  -7  -4 278.426 449.347   3
 -27   7  -4 919.161 483.673   3
  20 -27  -4 146.532 388.941   1
   7  20  -4-308.652 546.574   1
  -7  27  -4 496.332 387.456   4
   7  20  -4 1063.01 414.847   4
  27 -20  -1 582.576 393.584   1
  -7  27  -1 710.174 373.754   2
   7  20  -1 718.638 384.742   2
 -20  -7  -1 1377.44 461.252   3
 -27   7  -1 649.354 390.777   3
  20 -27  -1 301.956 370.679   1
   7  20  -1-348.260 473.453   1
  -7  27  -1 987.128 458.673   4
   7  20  -1 917.169 407.145   4
  -7  27   2 221.960 375.254   2
  27 -20   2 803.656 382.038   1
   7  20   2-38.6963 369.425   2
 -20  -7   2 687.139 434.575   3
 -27   7   2 1740.35 501.390   3
 -27   7   2 509.899 363.878   2
  -7  27   2 670.201 438.257   4
   7  20   2-49.8615 386.103   4
  -7  27   5 168.238 399.614   2
   7  20   5 89.2343 441.905   2
 -27   7   5 12.0002 431.766   4
  -7  27   5 560.968 425.093   4
   7  20   5 916.028 486.096   4
  19 -27  -5 328.984 464.252   3
  -8  27  -5 1586.80 534.687   2
   8  19  -5 807.322 372.663   2
  19 -27  -5 1101.30 418.081   1
 -19  -8  -5 321.063 511.318   3
 -27   8  -5 958.609 490.923   3
   8  19  -5 1610.29 659.377   1
  -8  27  -5 855.118 430.840   4
  27 -19  -5 85.0011 440.705   1
   8  19  -5 325.204 388.746   4
  19 -27  -2 1911.85 394.945   3
  -8  27  -2 1686.80 484.589   2
  19 -27  -2 943.892 358.284   1
   8  19  -2 1626.64 415.584   2
  27 -19  -2 1216.10 425.566   1
 -19  -8  -2 991.585 450.044   3
 -27   8  -2 1600.76 466.635   3
   8  19  -2 1960.21 553.863   1
  -8  27  -2 1137.40 444.683   4
   8  19  -2 1336.52 409.003   4
  -8  27   1 1862.97 473.888   2
   8  19   1 1740.33 462.295   2
 -19  -8   1 1430.93 458.170   3
 -27   8   1 2300.90 524.879   3
  27 -19   1 1264.13 374.961   1
 -27   8   1 1176.48 466.507   2
  -8  27   1 2438.19 503.187   4
   8  19   1 1966.00 474.707   4
  -8  27   4 1423.94 457.425   2
   8  19   4 1406.72 495.812   2
 -27   8   4 1625.23 514.888   4
  -8  27   4 2758.72 566.510   4
   8  19   4 1794.47 530.951   4
  -9  27  -6 3008.68 603.562   2
  18 -27  -6 2528.20 583.656   3
  18 -27  -6 2821.38 525.606   1
   9  18  -6 2453.77 430.624   2
 -18  -9  -6 2156.45 624.208   3
 -27   9  -6 2657.56 610.038   3
  27 -18  -6 2366.65 572.022   1
  -9  27  -6 3080.32 561.474   4
   9  18  -6 3130.25 784.643   1
   9  18  -6 3011.73 514.050   4
  27 -18  -3 1937.31 459.850   1
  -9  27  -3 2203.88 464.615   2
   9  18  -3 1882.42 428.588   2
 -18  -9  -3 1921.82 523.428   3
 -27   9  -3 2267.05 483.526   3
  18 -27  -3 2238.39 474.997   1
  -9  27  -3 3307.36 546.896   4
   9  18  -3 2918.48 620.720   1
   9  18  -3 2114.86 461.077   4
  18 -27  -3 3491.83 487.092   3
  -9  27   0 1928.47 443.805   2
   9  18   0 1883.14 426.859   2
 -18  -9   0 2424.12 496.785   3
 -27   9   0 2191.57 504.867   3
   9  18   0 3227.70 549.945   1
 -27   9   0 1679.03 514.984   2
  -9  27   0 2813.87 529.160   4
  27 -18   0 1548.92 398.380   1
   9  18   0 2519.65 516.227   4
  -9  27   3 913.836 388.718   2
   9  18   3 608.417 415.361   2
 -18  -9   3 909.971 454.459   3
 -27   9   3 920.997 449.751   4
   9  18   3 824.611 341.007   1
 -27   9   3 481.418 268.294   2
  27 -18   3 791.498 352.044   1
  -9  27   3 1448.18 458.481   4
   9  18   3 1207.78 478.898   4
  -9  27   6 1408.13 489.970   2
 -27   9   6 1089.02 413.144   4
  -9  27   6 1099.17 483.590   4
 -10  27  -4 912.560 451.807   2
  17 -27  -4 1995.37 485.094   3
 -17 -10  -4 1313.16 529.390   3
  10  17  -4 781.998 333.067   2
 -27  10  -4 1608.60 500.073   3
  17 -27  -4 2212.90 476.903   1
  27 -17  -4 787.550 413.950   1
 -10  27  -4 1078.05 424.510   4
  10  17  -4 948.292 549.277   1
  10  17  -4 1991.16 474.652   4
  17 -27  -1 1496.20 261.554   3
 -10  27  -1 1228.54 429.962   2
  27 -17  -1 1389.35 432.814   1
 -17 -10  -1 848.501 402.679   3
  10  17  -1 1555.22 411.990   2
 -27  10  -1 910.834 409.268   3
 -27  10  -1 1621.00 525.336   2
  10  17  -1 1374.26 472.571   1
 -10  27  -1 338.418 368.604   4
  10  17  -1 1158.18 396.838   4
 -10  27   2 452.515 390.044   2
  10  17   2 731.406 433.143   2
 -17 -10   2 1606.97 486.297   3
 -27  10   2 126.550 418.879   4
  27 -17   2 350.832 331.171   1
 -27  10   2 504.728 333.325   2
  10  17   2 845.671 369.580   1
 -10  27   2 1287.99 451.426   4
  10  17   2 520.878 396.238   4
 -10  27   5 183.745 377.951   2
 -27  10   5 200.550 397.375   4
 -10  27   5 376.897 435.711   4
 -11  27  -5 1645.13 505.445   2
  16 -27  -5 438.793 447.190   3
  16 -27  -5 967.192 421.646   1
 -16 -11  -5 1604.54 566.923   3
  11  16  -5 749.894 329.418   2
 -27  11  -5 203.144 431.233   3
  27 -16  -5 1277.99 510.463   1
 -11  27  -5 1669.80 505.937   4
  11  16  -5 1734.57 638.240   1
 -11  27  -2 1507.58 473.024   2
  16 -27  -2 1476.45 347.191   3
 -16 -11  -2 1568.55 494.334   3
  11  16  -2 1315.03 385.980   2
 -27  11  -2 626.730 408.164   3
 -27  11  -2 303.905 484.402   2
 -11  27  -2 1975.52 472.571   4
  11  16  -2 1759.87 534.604   1
  27 -16  -2 1199.82 423.556   1
  11  16  -2 1718.38 435.390   4
  27 -16   1 545.949 339.863   1
 -11  27   1 1187.37 436.720   2
 -16 -11   1 535.636 394.835   3
  11  16   1 637.605 400.502   2
 -27  11   1 1105.94 427.369   3
 -27  11   1 857.393 469.256   4
 -27  11   1 1152.47 427.211   2
  11  16   1 684.179 379.972   1
 -11  27   1 552.507 432.775   4
  11  16   1 734.523 387.786   4
 -11  27   4 1104.31 416.553   2
  11  16   4 647.640 452.853   2
 -27  11   4 1156.74 464.037   4
  27 -16   4 1526.65 385.229   1
 -11  27   4 2140.48 497.754   4
  11  16   4 1753.72 352.983   1
  12  15  -6 798.733 585.411   1
  15 -27  -6 446.825 482.120   3
 -15 -12  -6 943.215 572.126   3
  15 -27  -6-85.7854 392.005   1
  12  15  -6 290.304 296.487   2
 -27  12  -6-16.4481 462.686   3
  27 -15  -6 595.507 485.673   1
 -27  12  -6 861.279 517.471   4
 -27  12  -6 240.922 598.032   2
 -12  27  -6 427.069 441.772   4
 -12  27  -6 153.159 448.710   2
 -12  27  -3 1376.57 419.111   2
  15 -27  -3 1581.45 403.195   3
 -15 -12  -3 1067.61 482.017   3
  12  15  -3 719.449 334.933   2
 -27  12  -3 1390.55 445.057   3
 -27  12  -3 1329.60 590.387   2
  27 -15  -3 1567.83 465.493   1
 -12  27  -3 1786.36 464.575   4
  12  15  -3 890.963 513.500   1
 -12  27   0 648.632 394.215   2
  27 -15   0 276.700 348.047   1
 -15 -12   0 894.731 420.888   3
  12  15   0 994.183 413.237   2
 -27  12   0 819.132 409.728   3
 -27  12   0-307.753 429.605   4
 -27  12   0-5.92611 420.203   2
 -12  27   0 831.524 449.421   4
  12  15   0 201.254 384.820   1
  12  15   0 937.276 417.674   4
  27 -15   3 94.9944 307.077   1
 -12  27   3 973.318 411.420   2
 -15 -12   3 324.220 408.531   3
  12  15   3 879.898 430.384   2
 -27  12   3 1156.10 490.964   4
 -12  27   3 1350.07 455.027   4
 -27  12   3 1712.67 318.367   2
  12  15   3 1061.80 359.127   1
 -12  27   6 1583.96 475.709   2
 -27  12   6 1202.18 411.019   4
 -12  27   6 2186.87 530.156   4
 -13  27  -4 1957.63 490.925   2
  14 -27  -4 2417.55 463.631   3
 -14 -13  -4 1904.59 533.898   3
  13  14  -4 1318.51 361.940   2
 -27  13  -4 2016.10 496.438   3
  27 -14  -4 1646.77 492.517   1
 -27  13  -4 1393.21 500.463   4
 -27  13  -4 1615.42 610.508   2
 -13  27  -4 2573.12 531.441   4
  13  14  -4 3194.61 648.486   1
 -13  27  -1 2328.05 512.471   2
  14 -27  -1 2423.94 250.422   3
 -14 -13  -1 1580.58 421.750   3
  13  14  -1 2039.92 423.177   2
 -27  13  -1 1474.32 448.299   3
 -27  13  -1 2282.13 538.581   4
 -27  13  -1 1473.03 551.354   2
 -13  27  -1 2777.21 501.990   4
  27 -14  -1 1815.24 445.269   1
  13  14  -1 2277.76 492.355   1
 -13  27   2 1296.84 422.590   2
  27 -14   2 1218.55 351.010   1
 -14 -13   2 1320.44 447.424   3
  13  14   2 1015.94 446.896   2
 -27  13   2 2198.95 527.762   4
 -27  13   2 1449.65 378.870   2
 -13  27   2 1550.44 474.810   4
  13  14   2 2061.38 420.179   1
 -13  27   5 553.652 388.036   2
 -27  13   5 1074.74 441.907   4
 -13  27   5 1538.01 502.169   4
  14  13  -5 1197.10 570.545   1
  13 -27  -5 1996.53 493.070   3
  27 -13  -5 1258.96 511.308   1
 -13 -14  -5 1050.58 523.464   3
 -27  14  -5 741.381 431.390   3
  14  13  -5 106.027 278.995   2
 -27  14  -5 761.392 512.867   4
 -27  14  -5 1347.24 678.295   2
 -14  27  -5 796.610 475.946   4
 -14  27  -5 1639.31 552.134   2
 -14  27  -2 1989.50 487.272   2
  13 -27  -2 1991.09 330.394   3
 -13 -14  -2 2163.35 475.883   3
  14  13  -2 1045.69 361.449   2
 -27  14  -2 1968.95 483.540   3
  27 -13  -2 1919.95 474.368   1
 -27  14  -2 1470.56 487.052   4
 -27  14  -2 1469.19 602.422   2
 -14  27  -2 2552.39 493.165   4
  14  13  -2 1153.41 487.986   1
 -14  27   1 2087.30 462.070   2
  27 -13   1 1792.47 397.509   1
 -13 -14   1 2113.91 467.679   3
  14  13   1 2542.72 494.026   2
 -27  14   1 2658.76 562.111   4
  14  13   1 3049.96 492.256   1
 -27  14   1 1935.57 473.847   2
 -14  27   1 2319.42 522.300   4
  14  13   4 1930.52 329.056   1
 -14  27   4 1427.30 426.456   2
  27 -13   4 1880.16 364.080   1
 -27  14   4 2182.25 480.580   4
 -14  27   4 3091.74 569.211   4
  15  12  -6 2228.26 694.078   1
  12 -27  -6 3157.65 598.132   3
  27 -12  -6 1189.68 573.477   1
 -12 -15  -6 1837.85 605.650   3
 -27  15  -6 1612.64 505.152   3
 -27  15  -6 1624.08 540.600   4
 -27  15  -6 1281.23 638.330   2
 -15  27  -6 1957.91 533.472   4
 -15  27  -6 1978.91 590.825   2
 -15  27  -3 637.339 408.806   2
  15  12  -3 416.108 456.078   1
  12 -27  -3 566.260 344.300   3
 -12 -15  -3 862.229 449.347   3
  27 -12  -3 1034.58 451.766   1
 -27  15  -3 1125.14 433.035   3
  15  12  -3 1324.50 345.827   2
 -27  15  -3 1480.31 534.527   4
 -27  15  -3 1736.62 601.108   2
 -15  27  -3 1288.36 433.745   4
  15  12   0 680.573 416.615   1
 -15  27   0 671.783 410.288   2
 -12 -15   0-49.2472 360.416   3
  15  12   0-78.9789 333.059   2
 -27  15   0 791.708 406.788   3
 -27  15   0-287.996 430.360   4
 -27  15   0 831.215 460.304   2
 -15  27   0 349.373 372.484   4
  27 -12   0 7.90822 343.174   1
  15  12   3 1712.33 357.755   1
 -15  27   3 1770.73 449.537   2
  27 -12   3 868.321 330.611   1
 -12 -15   3 1699.84 452.214   3
 -27  15   3 1500.19 476.053   4
 -15  27   3 1709.34 490.080   4
 -27  15   3 1170.80 304.056   2
 -15  27   6 1162.30 469.753   2
 -27  15   6 374.861 375.919   4
 -15  27   6 826.140 442.529   4
  16  11  -4 1476.77 520.766   1
  11 -27  -4 1492.46 414.292   3
  27 -11  -4 1599.65 532.656   1
 -11 -16  -4 611.265 453.688   3
 -27  16  -4 594.894 381.937   3
  16  11  -4 495.813 301.289   2
 -27  16  -4 962.932 510.789   4
 -27  16  -4 1066.05 591.193   2
 -16  27  -4 1572.07 469.412   4
 -16  27  -4 431.187 433.399   2
 -16  27  -1 1583.55 471.037   2
  16  11  -1 1372.81 470.433   1
  11 -27  -1 1053.33 207.875   3
 -11 -16  -1 468.098 368.923   3
 -27  16  -1 1059.88 393.449   3
  16  11  -1 604.587 360.250   2
  27 -11  -1 237.166 361.928   1
 -27  16  -1 1087.97 487.103   4
 -27  16  -1 613.742 482.496   2
 -16  27  -1 1492.18 491.830   4
  16  11   2 1202.68 369.064   1
 -16  27   2 678.969 389.154   2
  27 -11   2 1153.77 350.252   1
 -11 -16   2 880.436 371.592   3
 -27  16   2 743.847 436.796   4
 -16  27   2 1331.04 448.091   4
 -27  16   2 941.429 353.586   2
 -16  27   5 784.552 411.470   2
 -27  16   5 545.440 406.034   4
  27 -10  -5 1144.34 506.449   1
  17  10  -5 1470.17 569.220   1
  10 -27  -5 480.063 421.811   3
 -10 -17  -5 115.036 456.750   3
 -27  17  -5 30.8562 400.847   3
 -27  17  -5 589.490 489.639   4
 -27  17  -5 695.623 566.547   2
 -17  27  -5 202.668 384.002   4
 -17  27  -5 21.0452 470.927   2
 -17  27  -2 128.262 414.582   2
  17  10  -2 254.898 415.457   1
  10 -27  -2 548.606 272.439   3
  27 -10  -2-427.238 426.337   1
 -10 -17  -2 374.346 382.872   3
 -27  17  -2 711.823 414.507   3
 -27  17  -2 621.876 436.650   4
 -27  17  -2 1254.86 554.395   2
 -17  27  -2 734.249 427.446   4
 -17  27   1 1246.89 451.570   2
  17  10   1 1154.60 411.442   1
 -10 -17   1 1645.19 419.072   3
 -27  17   1 1034.25 473.270   4
 -17  27   1 1545.27 487.522   4
 -27  17   1 1132.70 424.749   2
  27 -10   1 890.956 354.677   1
 -27  17   4 1212.69 292.689   2
 -17  27   4 1684.08 449.483   2
 -27  17   4 1024.62 458.779   4
 -17  27   4 1696.17 481.359   4
  27 -10   4 1151.84 329.161   1
  27  -9  -6 1147.40 565.278   1
   9 -27  -6 1783.76 524.060   3
  18   9  -6 1774.14 638.649   1
  -9 -18  -6 1427.95 548.764   3
 -27  18  -6 1019.18 460.515   3
 -27  18  -6 1726.99 588.919   4
 -27  18  -6 2271.20 752.785   2
 -18  27  -6 1916.29 550.897   4
 -18  27  -6 2391.16 657.586   2
  27  -9  -3 836.863 463.313   1
  18   9  -3 362.482 452.294   1
   9 -27  -3 1618.67 378.449   3
  -9 -18  -3 524.999 402.894   3
 -27  18  -3 993.383 393.960   3
 -27  18  -3 757.271 444.656   4
 -27  18  -3 1186.60 591.130   2
 -18  27  -3 1568.08 483.528   4
 -18  27  -3 1588.16 486.979   2
 -18  27   0 1953.51 486.665   2
  18   9   0 1895.24 465.202   1
  -9 -18   0 1962.71 428.671   3
  27  -9   0 2416.13 454.838   1
 -27  18   0 2486.99 567.300   4
 -18  27   0 2971.95 525.167   4
 -27  18   0 1884.62 495.121   2
 -18  27   3 2042.31 466.094   2
  18   9   3 1610.82 326.325   1
  27  -9   3 3039.72 387.435   1
  -9 -18   3 1786.15 431.305   3
 -27  18   3 2035.48 498.415   4
 -18  27   3 2407.31 544.058   4
 -27  18   3 2115.49 370.791   2
 -27  18   6 3679.22 570.158   4
 -18  27   6 3013.32 549.549   4
  27  -8  -4 1736.99 558.554   1
   8 -27  -4 1857.72 441.185   3
  19   8  -4 2024.50 582.186   1
  -8 -19  -4 1031.06 481.068   3
 -27  19  -4 1734.06 465.621   3
 -27  19  -4 1320.55 521.819   4
 -27  19  -4 2456.37 705.925   2
 -19  27  -4 1903.20 544.012   4
 -19  27  -4 2364.74 604.560   2
 -19  27  -1 2681.25 541.260   2
   8 -27  -1 2156.00 266.895   3
  19   8  -1 1530.57 480.625   1
  27  -8  -1 2461.38 476.046   1
  -8 -19  -1 2099.40 428.638   3
 -27  19  -1 2494.21 535.094   4
 -19  27  -1 1689.44 483.766   4
 -27  19  -1 2669.70 595.654   2
  27  -8   2 400.021 322.453   1
 -19  27   2 1273.03 414.238   2
  19   8   2 732.903 353.677   1
  -8 -19   2 661.913 350.018   3
 -27  19   2 1538.16 501.546   4
 -19  27   2 1811.87 504.888   4
 -27  19   2 1134.19 378.446   2
 -19  27   5 490.861 385.817   2
 -27  19   5 1184.54 465.682   4
 -19  27   5 530.558 414.789   4
   7 -27  -5 1294.40 459.673   3
  20   7  -5 565.162 535.377   1
  -7 -20  -5 368.254 489.955   3
 -27  20  -5 1195.07 418.191   3
 -27  20  -5 363.275 493.401   4
 -20  27  -5 709.529 501.741   4
 -27  20  -5-18.3278 605.458   2
 -20  27  -5 505.809 558.246   2
  27  -7  -5 936.590 527.312   1
  27  -7  -2 438.938 407.099   1
   7 -27  -2 647.919 295.608   3
  20   7  -2-55.3081 437.634   1
  -7 -20  -2 422.199 358.388   3
 -27  20  -2 349.632 360.508   3
 -27  20  -2 652.226 424.396   4
 -20  27  -2 683.008 417.486   4
 -27  20  -2 1007.15 556.150   2
 -20  27  -2 698.184 471.610   2
 -20  27   1 1177.73 442.292   2
  20   7   1 643.284 384.047   1
  -7 -20   1 1159.88 367.912   3
  27  -7   1-403.112 364.482   1
 -27  20   1 877.195 453.307   4
 -20  27   1 270.414 398.837   4
 -27  20   1 558.222 380.519   2
 -27  20   4-126.107 278.064   2
 -20  27   4-28.6226 352.460   2
  27  -7   4 241.805 253.361   1
 -27  20   4 228.117 420.562   4
 -20  27   4 10.6465 407.776   4
   6 -27  -3 1582.91 400.291   3
  21   6  -3 285.277 457.616   1
  -6 -21  -3 42.3127 409.699   3
 -27  21  -3 508.017 394.351   3
 -27  21  -3 146.918 434.685   4
 -21  27  -3 668.825 473.608   4
 -27  21  -3 1834.21 629.383   2
 -21  27  -3 960.675 542.307   2
  27  -6  -3 740.448 444.823   1
  21   6   0 4871.38 594.318   1
  -6 -21   0 6295.91 542.564   3
 -27  21   0 5584.40 720.629   4
  27  -6   0 4700.40 554.544   1
 -21  27   0 8309.90 786.403   4
 -27  21   0 6759.80 741.392   2
 -21  27   0 7299.74 724.969   2
 -27  21   3 1066.79 361.044   2
 -21  27   3 896.304 402.043   2
  27  -6   3-67.5966 288.896   1
 -27  21   3 934.111 490.181   4
  21   6   3 910.502 323.757   1
 -21  27   3 571.073 419.918   4
   5 -27  -4 890.358 402.264   3
  -5 -22  -4 958.802 476.093   3
  22   5  -4 969.550 509.859   1
 -27  22  -4 446.804 379.668   3
 -27  22  -4 1118.21 490.293   4
 -22  27  -4 1372.26 489.910   4
 -27  22  -4 377.802 531.869   2
  27  -5  -4 554.941 503.740   1
 -22  27  -4 479.029 540.673   2
  27  -5  -1 2750.98 531.523   1
   5 -27  -1 2002.79 293.903   3
  -5 -22  -1 2111.08 433.656   3
  22   5  -1 1749.45 480.212   1
 -27  22  -1 1971.87 530.920   4
 -22  27  -1 2573.30 569.266   4
 -27  22  -1 2012.49 556.534   2
 -22  27  -1 2924.52 579.291   2
 -22  27   2 2277.81 511.250   2
  -5 -22   2 914.004 344.111   3
  27  -5   2 1003.46 328.144   1
  22   5   2 1454.55 372.714   1
 -27  22   2 1547.72 507.783   4
 -22  27   2 1951.60 521.544   4
 -27  22   2 1249.89 416.374   2
 -22  27   5 1652.02 466.239   2
 -27  22   5 1055.43 453.973   4
 -22  27   5 1054.09 483.452   4
   4 -27  -5 330.867 425.029   3
  -4 -23  -5 1655.99 557.578   3
  23   4  -5 1790.47 603.220   1
 -27  23  -5 904.348 537.089   4
 -23  27  -5 952.073 487.834   4
 -27  23  -5 788.224 625.881   2
  27  -4  -5 1054.39 578.085   1
 -23  27  -5 1518.89 631.793   2
   4 -27  -2-98.3186 287.847   3
  -4 -23  -2-312.708 340.884   3
  23   4  -2-540.529 426.827   1
 -27  23  -2 1273.37 485.639   4
 -23  27  -2 64.7516 408.770   4
 -27  23  -2 1047.16 538.115   2
  27  -4  -2 24.3615 432.366   1
 -23  27  -2 305.956 468.351   2
 -23  27   1 1159.01 464.216   2
  27  -4   1 1009.50 379.220   1
  -4 -23   1 720.181 317.029   3
  23   4   1 877.729 389.238   1
 -27  23   1 1617.02 513.823   4
 -23  27   1 694.595 425.094   4
 -27  23   1 1608.69 455.309   2
 -27  23   4-283.522 319.071   2
 -23  27   4-125.374 368.347   2
 -27  23   4 815.625 465.019   4
 -23  27   4 594.776 435.964   4
   3 -27  -3 503.614 385.848   3
  -3 -24  -3 677.869 408.459   3
  24   3  -3 335.638 467.306   1
 -27  24  -3 730.724 526.281   4
 -24  27  -3 712.297 505.787   4
  27  -3  -3 125.664 470.194   1
 -27  24  -3 51.1411 524.536   2
 -24  27  -3 656.816 533.508   2
  -3 -24   0 3540.54 432.451   3
  27  -3   0 3513.42 532.605   1
 -27  24   0 3963.92 672.707   4
  24   3   0 2206.38 469.989   1
 -24  27   0 4042.58 660.144   4
 -24  27   0 4393.06 644.090   2
 -27  24   0 3105.76 604.520   2
 -27  24   3 399.374 352.591   2
 -24  27   3 64.4575 368.587   2
 -27  24   3 213.869 471.557   4
 -24  27   3-192.496 450.376   4
  27  -3   3-446.922 308.106   1
   2 -27  -4 553.905 435.213   3
  -2 -25  -4 442.581 424.283   3
  25   2  -4-368.519 507.274   1
 -27  25  -4 733.695 484.381   4
 -25  27  -4 697.351 506.156   4
  27  -2  -4 1174.13 546.387   1
 -27  25  -4 968.246 588.722   2
 -25  27  -4-46.0659 526.307   2
   2 -27  -1 800.463 287.140   3
  -2 -25  -1 526.226 327.907   3
  25   2  -1 1387.39 480.245   1
 -27  25  -1 2270.62 591.301   4
 -25  27  -1 1916.62 561.273   4
  27  -2  -1 997.752 454.242   1
 -27  25  -1 1461.46 544.072   2
 -25  27  -1 635.352 454.938   2
  25   2   2 603.282 338.369   1
 -27  25   2 451.610 373.894   2
 -25  27   2 429.835 392.594   2
  27  -2   2 1047.60 357.495   1
 -27  25   2 535.358 465.208   4
 -25  27   2 645.096 513.626   4
   1 -27  -2 82.5068 315.599   3
  -1 -26  -2 32.0706 334.204   3
  26   1  -2 44.4290 466.818   1
 -27  26  -2 723.033 479.431   4
 -26  27  -2 274.799 438.015   4
  27  -1  -2 684.898 480.718   1
 -27  26  -2 278.870 499.941   2
 -26  27  -2-95.0575 472.091   2
 -26  27   1 2375.69 552.969   2
  27  -1   1 1268.96 430.014   1
 -27  26   1 1629.84 542.027   4
 -26  27   1 2036.47 585.497   4
  26   1   1 1268.19 439.093   1
 -27  26   1 1623.90 497.281   2
   0 -27  -3 300.766 369.823   3
 -27  27  -3-151.760 453.779   4
 -27  27  -3 90.7529 521.146   2
 -27  27   0 2897.18 651.864   4
  27   0   0 1833.60 498.744   1
 -27  27   0 2027.21 578.751   2
 -27  27   3 427.853 392.835   2
 -27  27   3 769.335 502.577   4
  28 -27  -2 837.537 479.445   1
  -1  28  -2 717.772 455.172   2
   1  27  -2 833.623 455.630   2
  27 -28  -2 485.531 429.417   1
 -27  -1  -2 103.702 472.843   3
 -28   1  -2 483.925 475.016   3
  -1  28  -2 925.394 458.662   4
   1  27  -2 308.179 416.784   4
  28 -27   1 393.528 415.409   1
  -1  28   1-31.7198 449.457   2
   1  27   1 688.927 448.961   2
 -27  -1   1 727.093 511.803   3
 -28   1   1 232.527 466.230   3
  27 -28   1 156.970 417.023   1
  -1  28   1 779.070 476.427   4
   1  27   1 944.626 503.807   4
  26 -28   0 1222.79 446.449   1
  -2  28   0 475.019 422.963   2
   2  26   0 643.892 444.556   2
 -26  -2   0 1254.34 532.380   3
 -28   2   0 783.479 526.819   3
  28 -26   0 1241.29 456.296   1
  -2  28   0 1041.81 467.542   4
   2  26   0 723.059 427.526   4
  -3  28  -1-117.627 387.313   2
   3  25  -1-6.63249 398.475   2
  25 -28  -1 698.195 458.758   1
 -25  -3  -1 465.843 456.056   3
 -28   3  -1 316.682 467.725   3
  28 -25  -1-63.1087 396.828   1
  -3  28  -1 182.793 409.123   4
   3  25  -1 630.495 434.668   4
  -3  28   2 1444.85 477.542   2
   3  25   2 938.245 453.265   2
 -25  -3   2 1041.30 524.232   3
 -28   3   2-294.086 488.891   3
  -3  28   2 1156.35 506.415   4
   3  25   2 725.761 450.018   4
  28 -25   2 1271.98 451.379   1
  -4  28  -2 959.617 421.685   2
   4  24  -2 1090.22 424.550   2
  28 -24  -2 1066.23 407.321   1
 -24  -4  -2 181.171 457.356   3
 -28   4  -2 437.548 485.905   3
  24 -28  -2 916.686 471.175   1
  -4  28  -2 775.636 460.389   4
   4  24  -2 834.621 431.593   4
  -4  28   1 675.595 436.715   2
   4  24   1 836.849 452.278   2
 -24  -4   1 1348.79 488.097   3
 -28   4   1 215.997 470.407   3
  28 -24   1 521.882 397.688   1
  -4  28   1 1296.65 483.718   4
   4  24   1 690.423 432.568   4
  -4  28   4 1267.81 520.836   2
   4  24   4 693.479 437.093   2
  -4  28   4 1731.99 498.671   4
   4  24   4 2467.87 559.814   4
  -5  28  -3 3814.45 580.238   2
 -23  -5  -3 3716.46 669.083   3
   5  23  -3 2444.90 486.075   2
  23 -28  -3 3684.81 579.012   1
 -28   5  -3 3538.08 614.072   3
   5  23  -3 4390.48 737.894   1
  -5  28  -3 3635.61 587.369   4
   5  23  -3 3961.20 573.535   4
  28 -23  -3 2615.10 559.196   1
  -5  28   0 2396.22 494.976   2
   5  23   0 1365.69 477.502   2
 -23  -5   0 1475.22 504.144   3
 -28   5   0 1423.65 515.065   3
  23 -28   0 2172.23 484.329   1
  28 -23   0 1612.58 457.764   1
  -5  28   0 2151.93 519.031   4
   5  23   0 2049.27 501.439   4
  -5  28   3 4130.25 662.723   2
 -23  -5   3 4780.20 715.553   3
   5  23   3 2940.22 586.183   2
  -5  28   3 5799.12 722.410   4
   5  23   3 4563.26 663.402   4
  -6  28  -4-174.587 408.626   2
   6  22  -4-420.752 371.857   2
 -22  -6  -4 396.506 500.294   3
  22 -28  -4-235.494 396.264   1
 -28   6  -4 1023.51 517.846   3
  28 -22  -4 176.760 420.026   1
   6  22  -4 177.770 555.612   1
  -6  28  -4 212.014 417.933   4
   6  22  -4 658.955 447.941   4
  -6  28  -1-123.506 367.928   2
  28 -22  -1 456.625 394.726   1
   6  22  -1 457.319 371.786   2
 -22  -6  -1-104.644 410.516   3
 -28   6  -1 944.950 462.455   3
  -6  28  -1 1051.73 455.899   4
  22 -28  -1 1053.27 448.215   1
   6  22  -1 8.85581 383.895   4
  -6  28   2 171.633 377.117   2
   6  22   2 163.831 398.212   2
 -22  -6   2 336.687 444.462   3
 -28   6   2 641.506 455.580   3
 -28   6   2 396.457 396.221   2
  -6  28   2 772.017 451.368   4
   6  22   2 325.950 415.035   4
  28 -22   2 332.776 364.296   1
  21 -28  -5 1010.80 533.033   3
  -7  28  -5 1612.68 492.710   2
  28 -21  -5 783.113 491.166   1
  21 -28  -5 1483.41 489.187   1
   7  21  -5 931.155 393.086   2
 -21  -7  -5 679.397 511.222   3
 -28   7  -5 819.424 522.557   3
   7  21  -5 1356.18 649.216   1
  -7  28  -5 1359.84 500.864   4
   7  21  -5 918.252 417.288   4
  -7  28  -2 1855.43 483.724   2
   7  21  -2 2029.33 447.536   2
 -21  -7  -2 1422.40 502.909   3
 -28   7  -2 879.779 477.926   3
   7  21  -2 3113.47 655.889   1
  28 -21  -2 2554.18 521.621   1
  -7  28  -2 2569.74 526.868   4
  21 -28  -2 2413.72 488.757   1
   7  21  -2 2190.97 487.142   4
  -7  28   1 1228.23 435.268   2
   7  21   1 1090.48 398.877   2
 -21  -7   1 535.999 472.518   3
 -28   7   1 2339.66 518.020   3
 -28   7   1 1559.85 503.570   2
  -7  28   1 1152.87 452.563   4
  28 -21   1 775.176 384.134   1
   7  21   1 1941.73 507.256   4
  -7  28   4 499.087 425.632   2
   7  21   4 1687.60 511.605   2
 -28   7   4 1485.87 544.064   4
  -7  28   4 1358.68 488.421   4
   7  21   4 1732.56 541.426   4
   8  20  -3 5020.27 559.780   2
  28 -20  -3 4103.44 595.837   1
 -28   8  -3 4018.54 612.815   3
 -20  -8  -3 2550.07 582.080   3
   8  20  -3 5374.65 754.945   1
  20 -28  -3 5410.55 598.833   1
  -8  28  -3 5228.67 631.216   4
   8  20  -3 4957.37 608.141   4
  -8  28  -3 4937.32 640.151   2
  20 -28  -3 4804.71 546.210   3
  -8  28   0 2780.45 528.959   2
  28 -20   0 1796.07 444.265   1
   8  20   0 1556.89 450.682   2
 -20  -8   0 1896.68 487.205   3
 -28   8   0 2428.31 517.970   3
   8  20   0 3234.00 570.732   1
  -8  28   0 2489.80 527.975   4
   8  20   0 2654.13 524.644   4
  -8  28   3 2699.37 548.170   2
   8  20   3 2522.54 541.796   2
 -20  -8   3 2417.20 591.674   3
  28 -20   3 3039.09 486.441   1
  -8  28   3 3540.79 596.879   4
   8  20   3 4016.96 627.162   4
  28 -19  -4 209.482 411.658   1
  19 -28  -4 1165.20 472.565   3
  -9  28  -4 804.805 461.051   2
  19 -28  -4 76.7543 406.084   1
   9  19  -4-122.092 359.671   2
 -19  -9  -4 854.755 507.851   3
 -28   9  -4 604.911 495.389   3
   9  19  -4 662.463 561.271   1
  -9  28  -4 456.091 448.429   4
   9  19  -4 270.646 369.209   4
  19 -28  -1 621.685 276.719   3
  -9  28  -1 745.725 384.734   2
   9  19  -1 226.822 379.295   2
 -19  -9  -1-155.054 406.981   3
 -28   9  -1-46.6979 400.216   3
  28 -19  -1 390.029 391.017   1
   9  19  -1 24.8837 437.270   1
  -9  28  -1 543.760 403.999   4
   9  19  -1 596.879 401.412   4
  28 -19   2 906.658 391.699   1
  -9  28   2 472.121 434.530   2
   9  19   2-394.699 447.378   2
 -19  -9   2 167.525 417.748   3
 -28   9   2 167.798 431.687   3
 -28   9   2 502.571 357.249   2
   9  19   2 638.769 382.698   1
  -9  28   2 718.615 462.193   4
   9  19   2-49.8302 407.628   4
  -9  28   5 625.970 435.551   2
   9  19   5-563.801 492.257   2
 -28   9   5 90.3904 410.084   4
  -9  28   5 1046.35 427.838   4
   9  19   5 559.117 444.629   4
 -10  28  -5 1469.67 483.443   2
  18 -28  -5 2562.46 550.744   3
 -18 -10  -5 1775.98 580.410   3
  10  18  -5 873.353 366.772   2
 -28  10  -5 722.726 486.898   3
  18 -28  -5 3254.15 559.859   1
  28 -18  -5 2304.41 529.787   1
 -10  28  -5 2267.25 519.430   4
  10  18  -5 3005.50 706.266   1
  10  18  -5 1758.42 472.210   4
  18 -28  -2 2577.82 394.595   3
 -10  28  -2 2533.72 520.003   2
  28 -18  -2 2146.90 454.103   1
 -18 -10  -2 2327.66 534.772   3
  10  18  -2 2447.80 460.046   2
 -28  10  -2 2540.62 513.107   3
  10  18  -2 3411.04 625.752   1
 -10  28  -2 2833.96 541.952   4
  10  18  -2 2232.87 477.119   4
 -10  28   1 4731.27 591.885   2
  28 -18   1 2945.56 463.032   1
  10  18   1 2879.79 516.890   2
 -18 -10   1 3420.91 533.618   3
 -28  10   1 2775.80 520.717   3
 -28  10   1 2379.99 512.182   2
  10  18   1 2738.07 497.941   1
 -10  28   1 4710.42 611.052   4
  10  18   1 4239.30 609.160   4
  28 -18   4 2378.28 428.020   1
 -10  28   4 2358.97 516.510   2
  10  18   4 2368.84 564.522   2
 -28  10   4 1538.45 505.148   4
  10  18   4 2761.22 424.101   1
 -10  28   4 3555.57 595.638   4
  10  18   4 2490.91 552.122   4
  17 -28  -3 3266.63 439.659   3
  11  17  -3 2950.47 467.822   2
  17 -28  -3 3012.37 517.519   1
 -17 -11  -3 2111.20 523.273   3
 -28  11  -3 2665.33 536.154   3
 -28  11  -3 1985.87 646.127   2
 -11  28  -3 3498.32 535.636   4
  11  17  -3 3190.22 658.938   1
  28 -17  -3 2466.28 513.318   1
 -11  28  -3 4323.58 604.928   2
  11  17  -3 3196.90 526.444   4
 -11  28   0 1293.06 449.632   2
 -17 -11   0 632.582 416.361   3
  11  17   0 1323.21 421.457   2
 -28  11   0 1722.56 463.298   3
  28 -17   0 613.397 397.004   1
 -28  11   0 1169.74 505.514   2
  11  17   0 1076.98 463.607   1
 -11  28   0 1880.40 504.528   4
  11  17   0 586.815 391.121   4
 -11  28   3 1536.28 470.979   2
  28 -17   3 1488.25 374.561   1
  11  17   3 825.876 457.507   2
 -17 -11   3 1107.43 493.710   3
 -28  11   3 1467.61 540.350   4
 -28  11   3 278.977 270.209   2
  11  17   3 886.461 361.732   1
 -11  28   3 1626.65 472.945   4
  11  17   3 677.595 414.600   4
 -12  28  -4 1585.33 498.266   2
  16 -28  -4 2043.02 470.274   3
 -16 -12  -4 665.866 481.415   3
  12  16  -4 1330.59 390.658   2
 -28  12  -4 1228.96 474.875   3
 -28  12  -4 996.693 588.165   2
  28 -16  -4 675.362 456.450   1
 -12  28  -4 2388.42 524.823   4
  12  16  -4 850.233 543.994   1
  16 -28  -4 1331.23 458.263   1
 -12  28  -1 11.3814 378.822   2
  28 -16  -1 770.043 405.187   1
 -16 -12  -1 183.622 379.723   3
  12  16  -1 116.409 346.537   2
 -28  12  -1-41.6903 419.494   3
 -28  12  -1 495.678 461.370   4
 -28  12  -1 732.752 494.857   2
 -12  28  -1 385.430 402.056   4
  12  16  -1 441.325 445.551   1
  12  16  -1 552.322 383.407   4
 -12  28   2 2474.18 523.781   2
  28 -16   2 1084.61 377.188   1
 -16 -12   2 1861.78 515.638   3
  12  16   2 1219.22 446.226   2
 -28  12   2 680.561 519.288   4
 -28  12   2 1250.64 385.603   2
 -12  28   2 2241.68 535.433   4
  12  16   2 1938.29 425.122   1
  12  16   2 2168.30 523.668   4
 -12  28   5 864.782 465.167   2
 -28  12   5 21.8507 399.877   4
 -12  28   5 1052.28 463.291   4
  13  15  -5 2161.46 666.407   1
 -13  28  -5 1507.49 505.183   2
  15 -28  -5 1086.19 467.556   3
 -15 -13  -5 1074.55 548.670   3
  13  15  -5 623.335 323.213   2
 -28  13  -5 1001.46 487.258   3
  28 -15  -5 1183.94 492.932   1
 -28  13  -5 739.317 505.450   4
 -28  13  -5 307.922 559.902   2
  15 -28  -5 1501.29 465.614   1
 -13  28  -5 1466.25 518.989   4
  15 -28  -2 3079.98 366.037   3
 -13  28  -2 3057.51 545.008   2
 -15 -13  -2 2989.35 565.995   3
  13  15  -2 2501.13 459.326   2
 -28  13  -2 2267.98 517.115   3
 -28  13  -2 1714.22 518.971   4
 -28  13  -2 2627.93 658.640   2
 -13  28  -2 3671.76 574.216   4
  28 -15  -2 2034.83 466.141   1
  13  15  -2 2425.07 570.006   1
 -13  28   1 1311.03 419.766   2
 -15 -13   1 317.048 389.951   3
  13  15   1 934.296 389.271   2
 -28  13   1-15.1528 412.905   3
 -28  13   1 1237.05 491.436   4
 -28  13   1 1331.95 457.153   2
  28 -15   1 741.894 355.293   1
 -13  28   1 1450.49 477.919   4
  13  15   1 2175.33 476.476   1
 -13  28   4 3124.51 527.152   2
  28 -15   4 3276.92 445.579   1
 -28  13   4 3150.23 570.179   4
 -13  28   4 4698.44 652.762   4
 -14  28  -3 1139.81 479.377   2
  14 -28  -3 904.171 343.183   3
 -14 -14  -3 1202.38 469.936   3
  14  14  -3 881.209 357.657   2
 -28  14  -3 1344.16 451.726   3
  28 -14  -3 566.852 452.718   1
 -28  14  -3 110.207 469.457   4
 -28  14  -3 630.998 564.496   2
 -14  28  -3 821.721 434.808   4
  14  14  -3 459.911 488.925   1
 -14  28   0 467.430 379.273   2
  28 -14   0 670.562 405.871   1
 -14 -14   0 1359.21 409.041   3
  14  14   0 1301.73 421.744   2
 -28  14   0 701.718 427.778   3
 -28  14   0 1735.09 544.762   4
 -28  14   0 176.981 459.889   2
 -14  28   0 1351.90 501.778   4
  14  14   0 1008.36 462.140   1
  14  14   3 379.746 312.805   1
 -14  28   3 557.949 420.606   2
 -14 -14   3 475.335 434.329   3
 -28  14   3 1447.78 475.440   4
  28 -14   3 411.269 310.295   1
 -14  28   3 1431.86 490.489   4
 -28  14   3 1084.99 320.557   2
  13 -28  -4 3963.23 524.105   3
  15  13  -4 2673.55 426.910   2
 -13 -15  -4 2669.48 579.166   3
  28 -13  -4 2600.15 562.834   1
 -28  15  -4 2544.43 542.195   3
 -28  15  -4 1863.24 538.715   4
 -28  15  -4 2600.61 697.037   2
 -15  28  -4 3948.73 591.146   4
  15  13  -4 3863.96 687.432   1
 -15  28  -4 3443.40 609.484   2
  15  13  -1 1329.83 456.932   1
 -15  28  -1 744.169 418.395   2
 -13 -15  -1 302.110 385.012   3
  15  13  -1 1083.91 395.869   2
 -28  15  -1 385.027 418.450   3
 -28  15  -1 1300.34 531.453   4
 -28  15  -1 1212.21 492.753   2
  28 -13  -1 484.713 382.002   1
 -15  28  -1 1188.30 458.650   4
  15  13   2 2324.31 426.601   1
 -15  28   2 2647.35 496.237   2
 -13 -15   2 3051.77 546.587   3
 -28  15   2 2644.80 559.069   4
 -15  28   2 2766.16 550.634   4
 -28  15   2 1892.61 409.819   2
  28 -13   2 1894.19 398.102   1
 -15  28   5 868.906 428.401   2
 -28  15   5 1369.23 445.855   4
 -15  28   5 1274.15 500.323   4
  16  12  -5-379.866 532.083   1
  12 -28  -5 485.967 421.122   3
  28 -12  -5 1266.49 507.866   1
 -12 -16  -5 240.009 486.816   3
 -28  16  -5 148.181 412.883   3
  16  12  -5 521.103 301.360   2
 -28  16  -5 573.567 515.532   4
 -28  16  -5 1497.32 661.243   2
 -16  28  -5 581.705 459.712   4
 -16  28  -5 542.271 457.234   2
 -16  28  -2 1826.96 471.801   2
  16  12  -2 2574.15 539.891   1
  12 -28  -2 2068.71 327.466   3
 -12 -16  -2 2549.74 518.297   3
  28 -12  -2 1415.82 482.393   1
 -28  16  -2 1445.36 474.438   3
  16  12  -2 1290.30 373.331   2
 -28  16  -2 1897.49 571.132   4
 -28  16  -2 2127.80 619.111   2
 -16  28  -2 2213.00 508.102   4
  16  12   1-388.109 370.877   1
 -16  28   1 20.6846 362.949   2
  28 -12   1 907.382 370.101   1
 -12 -16   1 74.1865 359.360   3
 -28  16   1-8.46456 434.823   4
 -16  28   1 376.638 443.776   4
 -28  16   1-716.584 398.195   2
  28 -12   4 1494.44 352.216   1
 -16  28   4 1032.27 431.892   2
 -28  16   4 906.021 446.590   4
 -16  28   4 2058.48 502.853   4
  17  11  -3 1156.32 509.151   1
  11 -28  -3 1365.02 359.086   3
  28 -11  -3 1697.95 495.939   1
 -11 -17  -3 457.416 435.208   3
 -28  17  -3 495.655 401.333   3
  17  11  -3 171.101 310.346   2
 -28  17  -3 751.592 490.911   4
 -28  17  -3 1560.52 620.414   2
 -17  28  -3 1232.24 466.049   4
 -17  28  -3 1429.39 505.284   2
 -17  28   0 1708.30 455.252   2
  17  11   0 525.724 407.973   1
 -11 -17   0 579.663 367.834   3
 -28  17   0 270.063 457.869   4
  28 -11   0 1739.99 433.694   1
 -28  17   0 679.350 440.931   2
 -17  28   0 797.172 422.542   4
 -17  28   3 2980.68 514.485   2
  17  11   3 2590.89 384.387   1
 -11 -17   3 2181.68 466.186   3
  28 -11   3 2940.60 403.378   1
 -28  17   3 3397.53 573.786   4
 -17  28   3 3209.11 585.216   4
 -28  17   3 2218.83 385.791   2
  10 -28  -4 3434.26 483.770   3
  18  10  -4 3585.85 652.539   1
  28 -10  -4 1341.84 531.535   1
 -10 -18  -4 1658.22 541.237   3
 -28  18  -4 3272.45 549.366   3
 -28  18  -4 1972.62 559.326   4
 -28  18  -4 2535.56 730.020   2
 -18  28  -4 2231.82 510.820   4
 -18  28  -4 1955.21 532.007   2
 -10 -18  -1 3236.33 523.111   3
 -28  18  -1 3971.59 553.710   3
  28 -10  -1 2500.72 487.292   1
 -28  18  -1 4271.10 670.439   4
 -28  18  -1 4339.80 678.464   2
 -18  28  -1 4749.12 648.164   4
  18  10  -1 4115.65 575.117   1
 -18  28  -1 4431.88 644.438   2
  18  10   2 1975.65 419.988   1
  28 -10   2 2085.61 404.024   1
 -10 -18   2 2374.02 469.326   3
 -28  18   2 2200.99 563.343   4
 -18  28   2 2650.38 546.005   4
 -28  18   2 1887.47 447.821   2
 -18  28   2 3145.03 525.954   2
 -18  28   5 1158.36 446.625   2
 -28  18   5 1659.31 505.509   4
 -18  28   5 1923.37 505.694   4
  28  -9  -5 54.8378 506.750   1
   9 -28  -5-434.309 415.691   3
  19   9  -5-1560.34 609.284   1
  -9 -19  -5 488.713 494.244   3
 -28  19  -5-290.343 392.747   3
 -28  19  -5 749.613 537.771   4
 -28  19  -5 1352.08 651.626   2
 -19  28  -5 641.455 474.680   4
 -19  28  -5-0.34558 461.396   2
  19   9  -2 272.362 451.833   1
   9 -28  -2 353.391 266.332   3
  28  -9  -2 444.308 435.128   1
  -9 -19  -2 533.936 395.277   3
 -28  19  -2 117.703 396.315   3
 -28  19  -2 1161.29 510.063   4
 -19  28  -2 26.2501 397.532   4
 -28  19  -2-121.927 511.881   2
 -19  28  -2 379.291 421.844   2
 -19  28   1 379.280 405.408   2
  19   9   1 900.902 400.484   1
  -9 -19   1-168.117 364.900   3
 -28  19   1 724.382 467.426   4
 -19  28   1 696.773 435.513   4
  28  -9   1 402.844 330.396   1
 -28  19   1 987.482 429.494   2
 -28  19   4 387.649 287.442   2
 -19  28   4 836.866 414.543   2
  28  -9   4-8.06809 272.594   1
 -28  19   4 545.578 440.827   4
 -19  28   4 634.588 471.133   4
  28  -8  -3 2840.94 575.303   1
   8 -28  -3 2779.36 430.478   3
  -8 -20  -3 2778.70 525.242   3
 -28  20  -3 2677.61 498.849   3
 -28  20  -3 3742.47 619.308   4
 -20  28  -3 3586.87 627.069   4
 -28  20  -3 2505.98 698.446   2
 -20  28  -3 4308.42 711.503   2
  20   8  -3 3354.60 646.922   1
 -20  28   0 2372.82 535.361   2
  20   8   0 2462.76 495.170   1
  -8 -20   0 1960.57 419.342   3
  28  -8   0 1892.75 414.592   1
 -28  20   0 2765.73 602.752   4
 -20  28   0 3210.64 615.130   4
 -28  20   0 2421.20 571.260   2
 -20  28   3 4282.91 552.880   2
  20   8   3 3386.50 405.585   1
  28  -8   3 2914.72 411.621   1
  -8 -20   3 3479.16 470.010   3
 -28  20   3 5072.86 671.297   4
 -20  28   3 4865.14 658.241   4
 -28  20   3 3684.40 491.663   2
   7 -28  -4 1373.04 412.195   3
  21   7  -4 1714.97 569.154   1
  -7 -21  -4 1481.21 496.245   3
 -28  21  -4 1589.61 441.042   3
 -28  21  -4 524.503 451.935   4
 -21  28  -4 1169.86 498.863   4
 -28  21  -4 1798.38 660.853   2
 -21  28  -4 2055.53 610.964   2
  28  -7  -4 496.834 493.952   1
 -21  28  -1 1126.99 491.369   2
  28  -7  -1 992.729 451.480   1
  21   7  -1 1733.96 504.364   1
  -7 -21  -1 1080.01 384.602   3
 -28  21  -1 1038.25 527.885   4
 -21  28  -1 1578.82 525.992   4
 -28  21  -1 1463.36 518.678   2
 -21  28   2 2303.09 506.517   2
  -7 -21   2 2984.16 449.813   3
  21   7   2 1534.60 378.395   1
 -28  21   2 2303.41 574.979   4
 -21  28   2 3313.57 586.632   4
  28  -7   2 1958.30 391.087   1
 -28  21   2 2058.02 469.962   2
 -21  28   5 651.513 412.529   2
 -28  21   5 897.672 473.314   4
 -21  28   5 1733.58 524.553   4
  28  -6  -2 592.124 458.663   1
   6 -28  -2 143.829 278.842   3
  -6 -22  -2 1163.76 434.684   3
  22   6  -2 270.855 432.451   1
 -28  22  -2-485.826 429.696   4
 -22  28  -2 583.054 462.228   4
 -28  22  -2 708.575 474.960   2
 -22  28  -2 141.276 476.553   2
 -22  28   1 919.953 436.883   2
  -6 -22   1 246.929 316.252   3
  28  -6   1 287.635 342.674   1
  22   6   1 757.824 403.327   1
 -28  22   1 228.923 481.321   4
 -22  28   1 720.052 463.892   4
 -28  22   1 423.529 396.617   2
 -28  22   4 439.720 326.770   2
 -22  28   4 989.884 432.014   2
 -28  22   4-208.665 470.930   4
 -22  28   4 223.549 432.295   4
   5 -28  -3 4599.59 517.791   3
  -5 -23  -3 5156.12 623.909   3
  28  -5  -3 3983.13 662.963   1
  23   5  -3 3395.98 635.949   1
 -28  23  -3 5458.58 744.398   4
 -23  28  -3 5243.28 737.310   4
 -28  23  -3 5119.58 835.801   2
 -23  28  -3 6691.46 826.824   2
 -23  28   0 2133.96 529.080   2
  28  -5   0 1943.69 457.717   1
  -5 -23   0 2099.51 373.336   3
  23   5   0 1720.25 472.781   1
 -28  23   0 2556.24 594.781   4
 -23  28   0 3043.13 639.620   4
 -28  23   0 2265.21 568.995   2
 -23  28   3 2867.47 508.041   2
  28  -5   3 2246.22 377.359   1
 -28  23   3 3281.71 608.839   4
 -23  28   3 3351.15 621.497   4
 -28  23   3 3117.69 485.816   2
   4 -28  -4 2095.53 465.352   3
  -4 -24  -4 1093.27 495.910   3
  24   4  -4 1426.12 570.884   1
 -28  24  -4 1219.65 501.007   4
 -24  28  -4 2373.45 571.023   4
 -28  24  -4 1904.74 684.382   2
  28  -4  -4 748.758 544.274   1
 -24  28  -4 1637.88 635.919   2
  28  -4  -1 1391.32 477.101   1
  -4 -24  -1 1036.03 355.542   3
  24   4  -1 686.059 456.414   1
 -28  24  -1 916.817 500.703   4
 -24  28  -1 1920.52 581.488   4
 -28  24  -1 273.930 486.328   2
 -24  28  -1 1190.88 510.951   2
 -28  24   2 1477.92 433.181   2
 -24  28   2 1371.30 474.473   2
  -4 -24   2 165.211 304.123   3
  28  -4   2 675.789 336.275   1
 -28  24   2 542.124 453.616   4
 -24  28   2 929.732 484.895   4
  24   4   2 586.167 361.852   1
   3 -28  -2 1039.97 350.756   3
  -3 -25  -2 498.339 353.923   3
  25   3  -2 1030.54 502.931   1
 -28  25  -2 882.690 509.302   4
 -25  28  -2 1676.64 543.970   4
 -28  25  -2 1032.30 545.128   2
  28  -3  -2 1804.76 552.254   1
 -25  28  -2 890.522 525.258   2
 -25  28   1 95.8013 416.021   2
  28  -3   1-174.902 348.450   1
  -3 -25   1-324.866 313.512   3
 -28  25   1-637.184 495.436   4
 -25  28   1-245.384 457.936   4
  25   3   1 79.5053 358.105   1
 -28  25   1-18.1080 426.461   2
  28  -2   0 911.783 453.917   1
  -2 -26   0 868.934 324.520   3
 -28  26   0 906.821 507.233   4
 -26  28   0 2156.72 613.703   4
  26   2   0 452.721 412.823   1
 -28  26   0 1070.69 482.966   2
 -26  28   0 1739.77 545.436   2
  -1 -27  -1 538.989 325.379   3
 -28  27  -1 450.961 550.433   4
 -27  28  -1 692.828 516.228   4
  27   1  -1-30.7624 439.308   1
  28  -1  -1 969.528 483.154   1
 -28  27  -1 963.384 541.568   2
 -27  28  -1 350.832 558.921   2
 -28  27   2 1328.74 475.197   2
 -27  28   2 638.481 447.619   2
 -28  27   2 480.861 527.004   4
 -27  28   2 263.517 525.822   4
  -3  29   1 642.877 430.848   2
  29 -26   1 576.905 426.630   1
   3  26   1 691.834 486.192   2
 -26  -3   1 488.665 493.658   3
 -29   3   1 212.131 474.208   3
  -3  29   1 996.143 508.115   4
   3  26   1 349.690 472.716   4
  25 -29   0 114.592 411.649   1
  29 -25   0 156.552 402.092   1
  -4  29   0 388.942 435.606   2
   4  25   0 256.262 410.790   2
 -25  -4   0-306.572 455.915   3
 -29   4   0 169.286 452.755   3
  -4  29   0 567.094 456.189   4
   4  25   0 685.701 437.455   4
  -5  29  -1 298.291 414.006   2
   5  24  -1 301.645 391.533   2
 -24  -5  -1 211.676 459.620   3
 -29   5  -1 550.133 465.205   3
  24 -29  -1-4.90606 425.109   1
  29 -24  -1-373.949 400.883   1
  -5  29  -1 175.713 419.034   4
   5  24  -1-176.578 388.570   4
  -5  29   2 1768.16 541.728   2
   5  24   2 16.4805 435.286   2
 -24  -5   2 1410.45 550.458   3
 -29   5   2 116.062 490.915   3
  29 -24   2 548.376 400.433   1
  -5  29   2 1799.74 552.404   4
   5  24   2 713.283 418.160   4
  -6  29  -2 1288.96 462.568   2
  29 -23  -2 1470.90 457.695   1
   6  23  -2 1070.34 464.614   2
 -23  -6  -2 1348.60 519.255   3
 -29   6  -2 626.380 450.282   3
   6  23  -2 1267.49 538.172   1
  23 -29  -2 1640.40 459.272   1
  -6  29  -2 1126.86 491.374   4
   6  23  -2 1629.33 486.588   4
  -6  29   1 647.519 409.988   2
  29 -23   1 865.473 412.779   1
   6  23   1 1568.89 491.840   2
 -23  -6   1 43.9146 434.453   3
 -29   6   1-78.2154 443.709   3
  -6  29   1 921.354 484.282   4
   6  23   1 201.007 414.041   4
  22 -29  -3 2438.13 491.134   3
  -7  29  -3 2264.79 548.667   2
  22 -29  -3 2567.99 538.850   1
   7  22  -3 2218.62 500.294   2
 -22  -7  -3 1923.51 586.766   3
 -29   7  -3 2227.09 583.927   3
  29 -22  -3 1863.70 536.471   1
   7  22  -3 2024.19 622.164   1
  -7  29  -3 3341.72 593.574   4
   7  22  -3 1911.23 484.151   4
  -7  29   0 1632.83 493.143   2
   7  22   0 1044.45 418.113   2
 -22  -7   0 1748.94 520.716   3
 -29   7   0 1399.37 492.313   3
  29 -22   0 1408.23 443.651   1
  -7  29   0 2676.04 555.583   4
   7  22   0 1692.00 491.982   4
  -7  29   3 3146.92 580.293   2
   7  22   3 2455.10 567.634   2
 -22  -7   3 2268.56 585.759   3
  29 -22   3 1783.19 451.455   1
  -7  29   3 3120.31 606.890   4
   7  22   3 2634.48 612.312   4
  21 -29  -4-255.395 423.549   3
  21 -29  -4-113.092 402.658   1
  -8  29  -4 882.786 462.809   2
  29 -21  -4 685.678 449.434   1
   8  21  -4 399.025 369.255   2
 -21  -8  -4 44.2263 487.429   3
 -29   8  -4 744.729 480.102   3
   8  21  -4 720.300 598.871   1
  -8  29  -4 516.344 446.998   4
   8  21  -4 439.848 458.242   4
  29 -21  -1 141.549 370.622   1
  -8  29  -1 594.629 411.253   2
   8  21  -1 646.179 400.890   2
 -21  -8  -1 1262.45 507.880   3
 -29   8  -1-243.768 446.017   3
   8  21  -1 979.289 507.151   1
  -8  29  -1 163.300 431.528   4
   8  21  -1-36.7765 378.626   4
  -8  29   2-1.09195 384.133   2
   8  21   2-319.443 386.725   2
  29 -21   2 774.762 367.118   1
 -21  -8   2 142.551 439.168   3
 -29   8   2 7.72408 444.158   3
 -29   8   2 442.885 386.339   2
   8  21   2 310.667 392.632   1
  -8  29   2-96.6439 426.126   4
   8  21   2 280.533 415.355   4
  20 -29  -2 2200.52 395.912   3
  -9  29  -2 2427.50 542.932   2
   9  20  -2 3022.99 511.908   2
 -20  -9  -2 1924.90 527.871   3
 -29   9  -2 1756.19 517.941   3
  29 -20  -2 2884.53 534.438   1
   9  20  -2 2475.70 632.932   1
  20 -29  -2 2635.77 514.109   1
  -9  29  -2 2680.61 560.993   4
   9  20  -2 2549.31 516.156   4
  -9  29   1 2107.58 489.462   2
   9  20   1 1692.66 484.312   2
 -20  -9   1 700.960 454.244   3
 -29   9   1 1442.59 482.189   3
 -29   9   1 1646.33 504.390   2
  29 -20   1 1952.02 447.171   1
   9  20   1 1681.08 484.362   1
  -9  29   1 2814.05 533.954   4
   9  20   1 1568.31 484.358   4
  -9  29   4 1042.37 460.796   2
   9  20   4 1001.09 518.258   2
 -29   9   4 423.578 479.443   4
   9  20   4 1041.70 384.273   1
  -9  29   4 915.856 469.520   4
   9  20   4 514.071 456.976   4
  19 -29  -3 1903.12 437.444   3
 -10  29  -3 1107.04 457.427   2
  29 -19  -3 1614.48 481.631   1
 -19 -10  -3 1421.63 521.935   3
  10  19  -3 1212.36 413.762   2
 -29  10  -3 2165.50 547.311   3
  19 -29  -3 2202.24 511.881   1
 -10  29  -3 2182.61 524.173   4
  10  19  -3 1547.04 618.213   1
  10  19  -3 1334.46 433.497   4
  29 -19   0 1857.45 434.460   1
 -10  29   0 2270.08 498.203   2
  10  19   0 1434.32 433.719   2
 -19 -10   0 1476.72 493.391   3
 -29  10   0 1833.65 512.905   3
 -29  10   0 1095.42 532.304   2
  10  19   0 1851.93 488.364   1
 -10  29   0 1696.55 484.148   4
  10  19   0 731.620 434.264   4
 -10  29   3 994.908 439.643   2
  10  19   3 856.868 474.340   2
 -19 -10   3 925.712 495.616   3
 -29  10   3 685.124 480.210   4
  10  19   3 729.661 395.964   1
 -10  29   3 1749.32 506.588   4
  29 -19   3 564.363 385.790   1
  10  19   3 388.746 446.577   4
 -11  29  -4-219.240 446.329   2
  18 -29  -4 453.883 417.791   3
 -18 -11  -4 415.351 483.346   3
  11  18  -4 245.232 340.204   2
 -29  11  -4 418.534 439.663   3
  18 -29  -4-273.058 412.186   1
 -11  29  -4 776.477 443.832   4
  29 -18  -4-524.419 487.785   1
  11  18  -4 375.039 546.054   1
  11  18  -4 432.029 378.394   4
 -11  29  -1 56.5083 390.082   2
 -18 -11  -1 794.175 460.309   3
  11  18  -1 324.580 377.627   2
  29 -18  -1-119.946 374.401   1
 -29  11  -1-152.848 441.143   3
 -29  11  -1 680.508 541.001   2
 -11  29  -1 1012.59 486.455   4
  11  18  -1 1235.81 500.390   1
  11  18  -1-398.477 399.402   4
 -11  29   2 7.09462 415.019   2
  11  18   2 139.703 418.045   2
 -18 -11   2 62.3921 427.164   3
 -29  11   2-367.328 457.673   4
 -29  11   2-479.857 346.306   2
  29 -18   2 51.3078 344.508   1
  11  18   2 95.7275 373.207   1
 -11  29   2-67.2052 413.829   4
  11  18   2 347.083 438.680   4
 -11  29   5 727.530 436.823   2
 -29  11   5 83.8738 414.764   4
 -11  29   5 456.747 459.763   4
 -12  29  -5 2675.98 570.430   2
  17 -29  -5 2636.17 559.258   3
 -17 -12  -5 2143.02 637.854   3
  12  17  -5 1680.86 415.208   2
 -29  12  -5 1654.80 531.384   3
  17 -29  -5 3156.47 572.130   1
 -29  12  -5 1672.56 657.711   2
  29 -17  -5 1966.10 563.764   1
 -12  29  -5 2845.55 541.168   4
  12  17  -5 3095.50 718.344   1
  29 -17  -2 395.269 412.984   1
 -12  29  -2 1290.01 480.602   2
  17 -29  -2 1164.81 322.540   3
 -17 -12  -2 950.435 481.434   3
  12  17  -2 851.018 388.083   2
 -29  12  -2 663.909 471.207   3
 -29  12  -2 1100.32 570.528   2
 -12  29  -2 1384.18 502.965   4
  12  17  -2 65.6955 470.633   1
  12  17  -2 269.746 386.083   4
  29 -17   1 2146.02 453.601   1
 -12  29   1 2050.99 487.232   2
 -17 -12   1 1117.96 458.324   3
  12  17   1 1577.86 492.415   2
 -29  12   1 1947.83 514.692   3
 -29  12   1 1763.70 553.935   4
 -29  12   1 987.537 434.017   2
 -12  29   1 1806.62 499.439   4
  12  17   1 2127.36 488.327   1
  12  17   1 1688.55 472.776   4
 -12  29   4-42.1178 438.762   2
 -29  12   4 203.235 444.613   4
 -12  29   4 722.917 463.133   4
  29 -17   4 1037.79 375.730   1
 -13  29  -3 395.974 449.811   2
  16 -29  -3 1018.82 364.378   3
 -16 -13  -3 819.389 497.713   3
  13  16  -3 338.241 350.516   2
 -29  13  -3 372.240 427.229   3
 -29  13  -3 345.360 464.022   4
 -29  13  -3 723.350 619.191   2
  29 -16  -3 722.353 472.974   1
 -13  29  -3 479.380 487.878   4
  13  16  -3 1589.96 566.698   1
 -13  29   0 2411.67 523.721   2
 -16 -13   0 1614.58 495.475   3
  29 -16   0 2656.26 481.889   1
  13  16   0 1975.57 463.811   2
 -29  13   0 2497.03 526.391   3
 -29  13   0 3085.23 628.649   4
  13  16   0 3531.80 575.502   1
 -29  13   0 2056.20 564.649   2
 -13  29   0 3282.85 577.737   4
  29 -16   3-10.1878 348.944   1
 -13  29   3-162.023 374.644   2
 -16 -13   3-308.380 441.268   3
  13  16   3 525.996 425.053   2
 -29  13   3 985.677 511.550   4
 -13  29   3 1077.20 510.403   4
  13  16   3-357.438 342.543   1
  14  15  -4 1382.62 597.702   1
 -14  29  -4 409.499 450.351   2
  15 -29  -4 529.774 382.388   3
 -15 -14  -4 172.477 478.601   3
  14  15  -4 746.164 357.493   2
 -29  14  -4 607.257 443.428   3
  29 -15  -4 756.167 477.111   1
 -29  14  -4 817.576 523.183   4
 -29  14  -4 1070.46 670.853   2
 -14  29  -4 566.288 414.870   4
  29 -15  -1 2272.68 512.384   1
 -15 -14  -1 2770.52 513.845   3
  14  15  -1 2442.41 458.547   2
 -29  14  -1 2786.15 548.470   3
 -29  14  -1 2027.85 562.053   4
 -29  14  -1 2884.82 642.050   2
 -14  29  -1 3150.73 595.137   4
 -14  29  -1 3489.59 592.116   2
  14  15  -1 3073.66 573.989   1
 -14  29   2 87.7434 371.782   2
  29 -15   2 128.120 328.795   1
 -15 -14   2-152.520 406.563   3
  14  15   2 147.387 399.189   2
 -29  14   2 168.925 448.216   4
 -29  14   2 35.8738 328.142   2
 -14  29   2 148.556 420.178   4
  14  15   2-153.010 374.297   1
 -14  29   5 885.018 437.477   2
 -29  14   5 420.080 427.400   4
 -14  29   5 1060.96 471.980   4
  15  14  -5-257.100 549.396   1
  14 -29  -5 52.1887 429.851   3
 -14 -15  -5 1287.70 564.665   3
  29 -14  -5 368.680 461.117   1
 -29  15  -5 489.399 462.797   3
  15  14  -5 760.238 353.985   2
 -29  15  -5 182.016 510.011   4
 -29  15  -5-149.227 635.481   2
 -15  29  -5 230.501 435.217   4
 -15  29  -5 81.9838 480.578   2
  15  14  -2 180.604 443.385   1
 -15  29  -2-409.033 454.261   2
 -14 -15  -2-396.068 417.002   3
  15  14  -2 232.667 353.241   2
 -29  15  -2 423.146 423.279   3
 -29  15  -2 327.768 505.043   4
 -29  15  -2 94.8606 511.122   2
  29 -14  -2 496.995 419.616   1
 -15  29  -2 736.503 476.843   4
  15  14   1 3018.17 496.764   1
 -14 -15   1 1951.02 476.453   3
  29 -14   1 1781.09 444.662   1
  15  14   1 2441.12 543.945   2
 -29  15   1 2564.41 604.934   4
 -29  15   1 2748.12 524.003   2
 -15  29   1 2648.32 551.899   4
 -15  29   1 3220.28 559.215   2
 -15  29   4 839.732 453.786   2
 -29  15   4 742.729 451.018   4
  29 -14   4 346.929 326.224   1
 -15  29   4 901.812 457.177   4
 -16  29  -3 237.606 418.253   2
  16  13  -3 1667.97 548.939   1
  13 -29  -3 404.325 334.216   3
 -13 -16  -3 370.090 422.371   3
  29 -13  -3 332.675 424.022   1
 -29  16  -3 187.654 419.080   3
  16  13  -3 265.674 334.307   2
 -29  16  -3 236.640 498.333   4
 -29  16  -3 292.027 571.749   2
 -16  29  -3 88.8250 396.155   4
  29 -13   0 1859.27 449.961   1
  16  13   0 2637.02 513.601   1
 -16  29   0 2100.33 510.712   2
 -13 -16   0 2076.53 457.300   3
 -29  16   0 2181.14 511.349   3
  16  13   0 2012.58 478.469   2
 -29  16   0 2829.64 614.362   4
 -16  29   0 3163.39 607.784   4
 -29  16   0 1981.81 521.316   2
  16  13   3 494.228 341.213   1
 -16  29   3 14.0592 397.137   2
  29 -13   3 595.225 343.142   1
 -13 -16   3 254.111 408.731   3
 -29  16   3 891.905 477.507   4
 -16  29   3 167.751 440.807   4
 -29  16   3 592.635 300.965   2
  17  12  -4 288.579 514.101   1
  12 -29  -4 647.033 378.266   3
  29 -12  -4 691.369 454.503   1
 -12 -17  -4 138.122 468.532   3
 -29  17  -4 1084.48 487.990   3
  17  12  -4 686.444 351.126   2
 -29  17  -4 916.365 533.684   4
 -29  17  -4 285.863 559.351   2
 -17  29  -4 995.094 494.104   4
 -17  29  -4 523.413 468.505   2
 -17  29  -1 2119.11 530.409   2
  17  12  -1 2480.62 525.585   1
 -12 -17  -1 2004.60 474.433   3
 -29  17  -1 2096.96 515.771   3
 -29  17  -1 2193.12 610.481   4
  29 -12  -1 1783.77 470.702   1
 -29  17  -1 1865.90 585.754   2
 -17  29  -1 2073.05 544.298   4
 -17  29   2 808.153 407.797   2
  17  12   2 481.123 362.765   1
 -12 -17   2 616.923 417.196   3
 -29  17   2 373.759 447.485   4
  29 -12   2 355.030 337.279   1
 -17  29   2 1095.87 464.829   4
 -29  17   2 185.019 342.283   2
 -17  29   5 2069.06 508.392   2
 -29  17   5 1613.62 518.433   4
 -17  29   5 3060.01 592.340   4
  11 -29  -5 787.072 443.718   3
  29 -11  -5 617.409 512.170   1
 -11 -18  -5-325.062 486.084   3
 -29  18  -5 314.487 417.147   3
 -29  18  -5 420.816 515.920   4
 -29  18  -5 915.813 589.939   2
 -18  29  -5 231.057 427.852   4
 -18  29  -5 347.654 514.162   2
 -18  29  -2 401.714 449.282   2
  18  11  -2 211.652 449.574   1
 -11 -18  -2 263.855 396.552   3
  29 -11  -2 240.140 424.781   1
 -29  18  -2-109.294 400.294   3
 -29  18  -2 1468.45 559.669   4
 -29  18  -2 116.149 507.780   2
 -18  29  -2 1050.80 491.940   4
  29 -11   1 258.030 344.666   1
 -18  29   1 347.740 410.838   2
  18  11   1 603.479 400.717   1
 -11 -18   1 371.883 362.542   3
 -29  18   1-98.7081 457.957   4
 -18  29   1-134.965 445.336   4
 -29  18   1 840.898 414.294   2
  29 -11   4 197.178 312.549   1
 -18  29   4-161.388 418.000   2
 -29  18   4 688.724 461.537   4
 -18  29   4 419.180 441.424   4
  19  10  -3 1225.02 541.159   1
  10 -29  -3 867.055 365.416   3
  29 -10  -3 1343.19 507.059   1
 -10 -19  -3 1158.58 508.179   3
 -29  19  -3 434.224 423.890   3
 -29  19  -3 1513.03 566.643   4
 -29  19  -3 744.233 546.761   2
 -19  29  -3 2106.72 551.069   4
 -19  29  -3 1836.97 566.703   2
 -19  29   0 2191.82 508.599   2
  19  10   0 855.688 443.032   1
 -10 -19   0 1657.87 417.514   3
 -29  19   0 1359.81 545.665   4
  29 -10   0 1523.50 421.326   1
 -19  29   0 1691.01 521.686   4
 -29  19   0 1444.77 514.977   2
  29 -10   3 1522.01 372.592   1
 -19  29   3 1558.00 476.238   2
 -10 -19   3 1063.60 435.891   3
 -29  19   3 1755.67 545.308   4
 -19  29   3 2142.52 555.784   4
 -29  19   3 1324.07 368.844   2
  29  -9  -4 698.947 520.087   1
   9 -29  -4 1748.86 450.763   3
  20   9  -4-6.27620 515.275   1
  -9 -20  -4 1948.14 533.308   3
 -29  20  -4 180.876 405.059   3
 -29  20  -4 1269.87 527.124   4
 -29  20  -4 372.365 646.833   2
 -20  29  -4 483.994 462.613   4
 -20  29  -4 979.412 504.940   2
 -20  29  -1 2171.07 535.596   2
  20   9  -1 1375.65 516.296   1
  29  -9  -1 1163.81 458.194   1
  -9 -20  -1 1112.78 435.480   3
 -29  20  -1 1428.45 557.908   4
 -20  29  -1 1523.71 479.865   4
 -29  20  -1 1396.83 536.784   2
 -20  29   2 2166.71 501.077   2
  29  -9   2 2178.64 410.572   1
  20   9   2 2155.12 414.691   1
  -9 -20   2 1802.43 414.396   3
 -29  20   2 3857.24 678.517   4
 -20  29   2 3508.41 633.516   4
 -29  20   2 2411.70 459.524   2
  29  -8  -2 71.1683 420.875   1
  21   8  -2-323.508 454.166   1
  -8 -21  -2 474.069 408.169   3
 -29  21  -2 413.204 388.356   3
 -29  21  -2 231.345 456.031   4
 -21  29  -2 131.011 443.970   4
 -29  21  -2-28.9349 508.021   2
 -21  29  -2 1041.93 492.524   2
 -21  29   1 293.280 409.209   2
  21   8   1 399.106 378.237   1
  -8 -21   1 108.196 350.722   3
 -29  21   1 403.514 448.509   4
  29  -8   1 1123.55 396.316   1
 -21  29   1 200.625 444.463   4
 -29  21   1 141.151 385.472   2
 -21  29   4 418.273 406.265   2
 -29  21   4 579.550 462.925   4
 -21  29   4 369.211 464.828   4
  29  -7  -3 2545.21 583.291   1
   7 -29  -3 2112.56 414.590   3
  22   7  -3 2633.96 597.833   1
  -7 -22  -3 2878.26 562.728   3
 -29  22  -3 1671.71 442.539   3
 -29  22  -3 2365.43 599.099   4
 -22  29  -3 2707.45 579.519   4
 -29  22  -3 3228.82 729.718   2
 -22  29  -3 2655.50 645.220   2
 -22  29   0 1167.32 502.040   2
  29  -7   0 659.017 412.640   1
  22   7   0 614.517 441.002   1
  -7 -22   0 786.604 368.908   3
 -29  22   0 1480.71 555.465   4
 -22  29   0 1116.76 474.975   4
 -29  22   0 714.528 446.284   2
 -29  22   3 2141.90 433.604   2
 -22  29   3 1603.21 468.153   2
  29  -7   3 1498.75 371.750   1
 -29  22   3 2124.80 558.864   4
 -22  29   3 2234.58 578.470   4
  29  -6  -1 1588.03 472.351   1
  -6 -23  -1-108.787 352.273   3
  23   6  -1-22.5578 431.032   1
 -29  23  -1 1299.44 547.919   4
 -23  29  -1 1753.27 542.686   4
 -29  23  -1 293.370 483.347   2
 -23  29  -1 859.995 454.815   2
 -23  29   2 2194.86 521.759   2
  -6 -23   2 1053.97 384.081   3
  23   6   2 1244.22 382.757   1
 -29  23   2 2087.44 575.603   4
 -23  29   2 1399.79 538.369   4
  29  -6   2 461.621 349.763   1
 -29  23   2 1416.70 418.117   2
  29  -5  -2 295.448 461.130   1
  -5 -24  -2 557.540 382.856   3
  24   5  -2 252.331 474.818   1
 -29  24  -2 1662.72 595.967   4
 -24  29  -2 1375.70 496.070   4
 -29  24  -2 2232.72 639.634   2
 -24  29  -2 1348.23 549.760   2
 -24  29   1-322.363 430.736   2
  29  -5   1 280.276 349.874   1
  -5 -24   1 590.280 331.999   3
  24   5   1 598.696 403.143   1
 -29  24   1 1395.62 542.768   4
 -24  29   1 73.8660 465.493   4
 -29  24   1 713.400 430.217   2
 -25  29   0 1125.61 466.545   2
  29  -4   0 386.525 414.360   1
  -4 -25   0 92.3765 322.984   3
  25   4   0 134.198 404.412   1
 -29  25   0 378.267 493.208   4
 -25  29   0 540.336 469.786   4
 -29  25   0 82.9868 446.237   2
  29  -3  -1 457.925 465.749   1
  -3 -26  -1 1056.59 377.784   3
  26   3  -1 901.685 490.070   1
 -29  26  -1 622.554 518.931   4
 -26  29  -1 106.657 477.713   4
 -29  26  -1 170.529 505.074   2
 -26  29  -1-29.8696 480.717   2
  -6  30   0 909.491 451.403   2
   6  24   0 1561.66 508.909   2
 -24  -6   0 742.890 496.083   3
 -30   6   0 1344.86 517.077   3
  -6  30   0 2161.48 573.268   4
   6  24   0 481.014 424.534   4
  30 -24   0 123.586 410.083   1
  -7  30  -1 210.952 392.344   2
  30 -23  -1 95.8002 416.450   1
   7  23  -1 498.330 427.217   2
 -23  -7  -1-428.722 432.439   3
 -30   7  -1-412.036 487.127   3
   7  23  -1 135.908 488.585   1
  -7  30  -1 279.397 431.734   4
   7  23  -1 788.130 416.278   4
  30 -23   2 251.143 400.009   1
  -7  30   2-296.806 469.207   2
   7  23   2-361.095 445.854   2
 -23  -7   2 25.2002 465.268   3
 -30   7   2 1428.57 569.387   3
  -7  30   2 216.555 444.069   4
   7  23   2-135.827 462.714   4
  22 -30  -2 460.211 446.325   1
  -8  30  -2-147.858 430.275   2
   8  22  -2 1086.58 432.314   2
 -22  -8  -2 364.092 467.622   3
 -30   8  -2 146.600 454.812   3
   8  22  -2 357.319 551.305   1
  -8  30  -2 1038.66 499.160   4
  30 -22  -2 941.877 471.710   1
   8  22  -2 101.666 417.798   4
  30 -22   1 1193.48 459.548   1
  -8  30   1 1703.44 495.841   2
   8  22   1 1114.09 473.187   2
 -22  -8   1-115.295 461.740   3
 -30   8   1 814.909 475.362   3
 -30   8   1 352.259 466.821   2
   8  22   1 903.180 475.487   1
  -8  30   1 1485.55 532.772   4
   8  22   1 995.040 443.192   4
  -9  30  -3 646.902 418.902   2
   9  21  -3 432.617 383.678   2
 -21  -9  -3 191.446 481.681   3
 -30   9  -3 1383.35 532.079   3
  30 -21  -3 16.3390 443.091   1
  21 -30  -3 775.260 456.349   1
   9  21  -3 1532.16 642.490   1
  -9  30  -3 330.873 413.781   4
   9  21  -3 1142.42 453.438   4
  -9  30   0 2021.78 513.122   2
  30 -21   0 1636.21 470.929   1
   9  21   0 1480.94 489.494   2
 -21  -9   0 1515.88 509.343   3
 -30   9   0 1836.46 525.366   3
 -30   9   0 900.234 499.162   2
   9  21   0 1489.56 525.108   1
  -9  30   0 2067.24 541.460   4
   9  21   0 2174.72 530.347   4
  -9  30   3 854.046 475.804   2
   9  21   3-452.100 444.181   2
 -21  -9   3 258.030 493.915   3
  30 -21   3 1247.27 448.230   1
 -30   9   3 173.945 512.945   4
   9  21   3 25.2635 379.703   1
  -9  30   3 55.2225 447.437   4
   9  21   3 1140.98 461.821   4
 -10  30  -1-661.097 462.451   2
  10  20  -1-443.157 402.321   2
 -20 -10  -1-59.2996 420.825   3
 -30  10  -1-154.409 432.984   3
 -30  10  -1-183.276 493.363   2
  10  20  -1-326.025 493.609   1
  30 -20  -1-141.371 380.559   1
 -10  30  -1 344.594 440.493   4
  10  20  -1-198.319 406.598   4
  30 -20   2 306.197 357.789   1
 -10  30   2 210.702 402.394   2
  10  20   2 432.793 460.234   2
 -20 -10   2-57.5619 442.769   3
 -30  10   2-141.393 485.021   4
 -30  10   2 574.917 381.779   2
  10  20   2 855.238 440.797   1
 -10  30   2-195.856 420.493   4
  10  20   2 48.5843 418.293   4
 -11  30  -2 517.217 423.044   2
  30 -19  -2 395.723 435.270   1
 -19 -11  -2 364.460 473.602   3
  11  19  -2 1045.27 436.586   2
 -30  11  -2 603.467 483.745   3
 -30  11  -2 813.859 553.415   2
 -11  30  -2 846.846 440.524   4
  11  19  -2 981.473 525.310   1
  11  19  -2-2.06741 415.310   4
 -11  30   1 2128.85 514.115   2
  30 -19   1 1068.25 427.481   1
  11  19   1 1552.89 483.932   2
 -19 -11   1 1564.00 511.755   3
 -30  11   1 2025.91 507.899   3
 -30  11   1 1519.29 577.126   4
 -30  11   1 1788.59 506.553   2
  11  19   1 2256.68 489.046   1
 -11  30   1 1980.76 523.763   4
  11  19   1 1663.92 514.041   4
 -11  30   4 1728.72 504.843   2
  30 -19   4 1448.80 427.839   1
  11  19   4 1982.95 612.619   2
 -30  11   4 710.845 490.000   4
 -11  30   4 2276.33 576.154   4
  11  19   4 2376.55 598.681   4
  30 -18  -3 1291.74 478.043   1
 -12  30  -3 1651.47 514.885   2
 -18 -12  -3 1372.27 532.763   3
  12  18  -3 1103.23 416.322   2
 -30  12  -3 1668.75 519.368   3
 -30  12  -3 433.161 578.975   2
 -12  30  -3 1969.62 511.921   4
  12  18  -3 1306.68 587.645   1
 -12  30   0 1375.27 420.721   2
 -18 -12   0 1154.50 482.888   3
  12  18   0 659.743 396.736   2
 -30  12   0 574.848 476.422   3
 -30  12   0 560.578 524.249   4
 -30  12   0 725.443 509.325   2
  30 -18   0 991.978 431.607   1
 -12  30   0 1862.58 545.467   4
  12  18   0 1142.76 456.914   1
  12  18   0 970.199 466.873   4
 -12  30   3 388.883 450.610   2
  30 -18   3 1512.70 437.283   1
 -18 -12   3 1398.39 504.563   3
  12  18   3 1701.34 567.593   2
 -30  12   3 666.111 507.835   4
 -12  30   3 1942.68 530.107   4
  12  18   3 1946.16 436.620   1
 -13  30  -4 2881.03 592.818   2
  17 -30  -4 1181.80 425.155   3
 -17 -13  -4 1138.31 534.780   3
  13  17  -4 1406.77 408.754   2
 -30  13  -4 1383.69 521.951   3
 -30  13  -4 909.027 555.554   4
 -30  13  -4 878.008 597.314   2
  30 -17  -4 1642.93 524.666   1
 -13  30  -4 1838.98 530.929   4
  13  17  -4 2273.36 675.373   1
 -13  30  -1 1297.46 462.347   2
  30 -17  -1 1534.45 457.090   1
 -17 -13  -1 1205.17 441.239   3
  13  17  -1 1121.96 425.837   2
 -30  13  -1 1572.06 505.243   3
 -30  13  -1 1231.68 511.201   4
 -30  13  -1-146.911 543.209   2
 -13  30  -1 2024.61 537.947   4
  13  17  -1 703.631 486.168   1
 -13  30   2 2327.64 544.555   2
 -17 -13   2 2701.08 570.772   3
  13  17   2 2120.21 538.114   2
  30 -17   2 2496.81 462.047   1
 -30  13   2 2312.34 592.206   4
 -30  13   2 561.904 359.442   2
 -13  30   2 2278.75 546.370   4
  13  17   2 2495.61 493.246   1
 -14  30  -2 1662.55 496.945   2
 -16 -14  -2 613.062 430.784   3
  14  16  -2 1638.11 424.871   2
 -30  14  -2 1092.07 485.277   3
 -30  14  -2 1177.79 540.594   4
 -30  14  -2 1428.53 631.776   2
 -14  30  -2 1932.58 551.539   4
  30 -16  -2 1273.49 475.206   1
  14  16  -2 757.921 487.719   1
 -14  30   1-171.116 390.833   2
 -16 -14   1 15.2986 411.730   3
  14  16   1 718.237 422.026   2
 -30  14   1 543.971 478.847   4
 -30  14   1 610.334 450.872   2
 -14  30   1 988.936 432.124   4
  30 -16   1 505.005 367.098   1
  14  16   1 1310.82 447.144   1
  30 -16   4 1504.86 397.338   1
 -14  30   4 1827.48 514.084   2
 -30  14   4 2324.25 575.222   4
 -14  30   4 3333.08 629.593   4
  15  15  -3 1511.52 581.331   1
 -15  30  -3 1592.11 522.074   2
 -15 -15  -3 1986.62 555.006   3
 -30  15  -3 2134.15 525.712   3
  15  15  -3 1565.91 444.724   2
 -30  15  -3 1511.69 564.044   4
  30 -15  -3 2405.52 551.564   1
 -30  15  -3 2040.34 649.499   2
 -15  30  -3 2135.27 574.359   4
  15  15   0 372.573 445.268   1
 -15  30   0 589.044 415.274   2
  30 -15   0 107.938 390.420   1
 -15 -15   0 369.796 416.207   3
  15  15   0 308.829 409.827   2
 -30  15   0 398.601 427.966   3
 -30  15   0 32.0866 478.681   4
 -30  15   0 704.634 520.608   2
 -15  30   0-10.0396 435.641   4
  15  15   3 2188.04 414.191   1
 -15  30   3 1921.15 510.137   2
 -15 -15   3 1384.63 492.488   3
 -30  15   3 1936.21 585.848   4
 -15  30   3 2347.71 582.533   4
  30 -15   3 1593.58 394.524   1
 -16  30  -4 2222.19 620.216   2
  16  14  -4 2442.40 652.326   1
  14 -30  -4 1778.30 462.046   3
 -14 -16  -4 1159.26 532.822   3
 -30  16  -4 1865.16 518.045   3
  16  14  -4 1309.15 401.733   2
  30 -14  -4 1809.91 545.322   1
 -30  16  -4 1903.53 615.760   4
 -30  16  -4 1474.09 696.269   2
 -16  30  -4 3357.89 613.759   4
  16  14  -1 711.384 469.280   1
 -16  30  -1 1316.02 492.938   2
 -14 -16  -1 748.830 416.925   3
 -30  16  -1 1041.58 474.639   3
  16  14  -1 654.345 386.132   2
 -30  16  -1 1294.89 551.328   4
 -30  16  -1 854.369 539.976   2
 -16  30  -1 564.410 428.872   4
  30 -14  -1 259.958 394.658   1
  16  14   2 921.088 417.173   1
  30 -14   2 1250.59 378.628   1
 -16  30   2 2097.81 510.339   2
 -14 -16   2 1166.24 467.659   3
 -30  16   2 1147.23 541.450   4
 -16  30   2 1954.90 554.091   4
 -30  16   2 1327.13 409.579   2
 -17  30  -2 2831.93 615.502   2
  17  13  -2 1879.99 546.576   1
 -13 -17  -2 2116.22 530.880   3
 -30  17  -2 2209.29 527.565   3
  17  13  -2 1019.29 411.439   2
  30 -13  -2 1448.58 480.642   1
 -30  17  -2 2108.64 602.277   4
 -30  17  -2 2008.36 638.301   2
 -17  30  -2 2620.78 605.624   4
  17  13   1 1581.25 459.120   1
 -17  30   1 2051.02 504.657   2
  30 -13   1 1260.89 395.889   1
 -13 -17   1 1196.78 447.985   3
 -30  17   1 1214.51 515.655   4
 -17  30   1 1257.16 512.271   4
 -30  17   1 837.860 446.550   2
 -17  30   4 1379.42 489.901   2
  30 -13   4 1722.57 396.668   1
 -30  17   4 1411.09 517.748   4
 -17  30   4 2019.97 558.544   4
 -18  30  -3 1721.35 552.292   2
  18  12  -3 1665.29 575.950   1
 -12 -18  -3 720.673 483.903   3
  30 -12  -3 1644.00 530.022   1
 -30  18  -3 1494.04 440.536   3
 -30  18  -3 642.318 498.711   4
 -30  18  -3 2312.11 693.114   2
 -18  30  -3 1111.53 492.356   4
 -18  30   0 1154.93 458.415   2
  18  12   0 1210.81 479.893   1
 -12 -18   0 512.709 389.461   3
 -30  18   0 889.939 515.596   4
 -18  30   0 1870.27 547.986   4
 -30  18   0 803.350 476.205   2
  30 -12   0 741.990 402.081   1
 -18  30   3 1633.38 484.513   2
  30 -12   3 1916.14 395.170   1
 -12 -18   3 1390.01 471.184   3
 -30  18   3 2141.77 587.574   4
 -18  30   3 2366.83 610.730   4
 -30  18   3 1885.81 394.453   2
  11 -30  -4 2243.90 458.556   3
  30 -11  -4 2161.39 625.232   1
 -11 -19  -4 2106.95 588.842   3
 -30  19  -4 1684.35 482.508   3
 -30  19  -4 988.937 551.844   4
 -30  19  -4 723.549 629.126   2
 -19  30  -4 2125.63 546.341   4
 -19  30  -4 2210.41 631.461   2
 -19  30  -1 2316.90 569.393   2
  19  11  -1 1830.69 517.097   1
 -11 -19  -1 2193.64 470.966   3
 -30  19  -1 1331.53 503.431   3
  30 -11  -1 1819.58 481.488   1
 -30  19  -1 2317.33 652.460   4
 -19  30  -1 2775.89 591.305   4
 -30  19  -1 3070.80 659.564   2
 -19  30   2 1038.05 499.462   2
  19  11   2 1107.32 391.213   1
  30 -11   2 821.022 357.192   1
 -11 -19   2 318.484 374.442   3
 -30  19   2 266.661 493.972   4
 -19  30   2 546.409 484.272   4
 -30  19   2 760.684 396.490   2
 -20  30  -2 531.702 485.031   2
  20  10  -2 99.1765 480.491   1
  30 -10  -2 1057.88 462.089   1
 -10 -20  -2-20.1448 402.900   3
 -30  20  -2 1060.10 464.923   3
 -30  20  -2 977.439 525.701   4
 -20  30  -2 227.379 456.759   4
 -30  20  -2 824.475 558.106   2
 -20  30   1 129.873 422.251   2
  20  10   1 660.595 403.637   1
 -10 -20   1-108.313 370.536   3
 -30  20   1-345.363 476.515   4
 -20  30   1-410.037 473.572   4
 -30  20   1 459.260 435.403   2
  30 -10   1-311.542 363.388   1
  30  -9  -3 17.2787 480.104   1
  21   9  -3 1304.18 535.626   1
  -9 -21  -3 491.506 435.533   3
 -30  21  -3 889.898 457.635   3
 -30  21  -3 480.338 507.050   4
 -21  30  -3 1186.00 493.338   4
 -30  21  -3 454.799 599.403   2
 -21  30  -3 999.852 514.195   2
 -21  30   0 2286.81 546.077   2
  21   9   0 1582.43 493.868   1
  -9 -21   0 1338.79 410.870   3
  30  -9   0 1987.17 473.921   1
 -30  21   0 1180.21 548.204   4
 -21  30   0 2109.82 561.695   4
 -30  21   0 1741.86 530.648   2
 -30  21   3 180.488 332.363   2
 -21  30   3 1199.70 471.381   2
 -30  21   3 225.875 491.597   4
 -21  30   3 831.337 488.827   4
  30  -9   3 1121.68 357.995   1
 -22  30  -1 1069.91 457.371   2
  30  -8  -1 1230.38 465.369   1
  22   8  -1 1901.98 554.729   1
  -8 -22  -1 1318.18 394.811   3
 -30  22  -1 2084.48 603.669   4
 -22  30  -1 1143.37 537.371   4
 -30  22  -1 1487.45 598.620   2
  30  -8   2 284.830 326.426   1
 -22  30   2 500.813 407.182   2
  -8 -22   2-530.473 391.762   3
  22   8   2-97.5147 359.855   1
 -30  22   2 129.960 471.423   4
 -22  30   2 827.321 487.252   4
 -30  22   2-416.521 371.161   2
  30  -7  -2 909.448 507.290   1
  23   7  -2 358.274 480.181   1
  -7 -23  -2-426.518 416.386   3
 -30  23  -2 447.938 504.346   4
 -23  30  -2 436.396 482.995   4
 -30  23  -2-217.238 564.985   2
 -23  30  -2 363.972 477.519   2
 -23  30   1 143.326 449.842   2
  -7 -23   1 48.5227 332.661   3
  23   7   1-937.532 413.888   1
  30  -7   1-917.387 390.713   1
 -30  23   1 877.998 484.248   4
 -23  30   1-227.020 509.524   4
 -30  23   1-376.310 464.750   2
 -24  30   0 1318.88 522.069   2
  30  -6   0 1160.77 468.044   1
  -6 -24   0 749.210 382.769   3
  24   6   0 730.173 457.217   1
 -30  24   0 2770.67 666.592   4
 -24  30   0 977.381 496.620   4
 -30  24   0 1668.86 557.866   2
  -8  31   0 2020.71 530.845   2
   8  23   0 1061.12 451.561   2
 -23  -8   0 567.601 480.240   3
 -31   8   0 385.431 468.954   3
 -31   8   0 129.226 516.058   2
  31 -23   0 425.899 425.936   1
  -8  31   0 1310.75 522.523   4
   8  23   0 865.583 514.120   4
  -9  31  -1 552.600 476.786   2
  31 -22  -1 826.148 442.500   1
   9  22  -1 588.384 418.126   2
 -22  -9  -1 148.492 457.088   3
 -31   9  -1-279.299 455.637   3
 -31   9  -1 172.659 507.909   2
   9  22  -1 332.971 479.912   1
  -9  31  -1 152.552 469.141   4
   9  22  -1 619.497 455.640   4
 -10  31  -2 1828.48 478.101   2
  10  21  -2 1405.83 461.947   2
 -21 -10  -2 1007.49 504.676   3
 -31  10  -2 1832.61 520.697   3
 -31  10  -2 1531.01 607.409   2
  31 -21  -2 1076.82 475.213   1
  10  21  -2 1853.28 619.342   1
 -10  31  -2 2915.04 578.456   4
  10  21  -2 1971.97 507.517   4
 -10  31   1 397.090 438.562   2
  10  21   1 425.505 414.206   2
 -21 -10   1 155.410 455.489   3
 -31  10   1 84.2697 485.215   3
 -31  10   1-127.207 437.354   2
  31 -21   1 742.612 406.546   1
  10  21   1 361.053 444.036   1
 -10  31   1 483.373 471.904   4
  10  21   1 932.178 497.596   4
 -11  31   0 804.852 430.615   2
  31 -20   0 914.476 441.525   1
  11  20   0-371.077 453.561   2
 -20 -11   0 223.145 434.178   3
 -31  11   0 1006.22 492.060   3
 -31  11   0 1558.67 594.932   4
 -31  11   0-274.339 494.473   2
  11  20   0 1171.73 486.997   1
 -11  31   0 1116.53 476.776   4
  11  20   0 838.208 451.990   4
 -12  31  -1-500.424 443.355   2
 -19 -12  -1 36.5224 431.536   3
  12  19  -1 11.5635 395.240   2
 -31  12  -1 177.202 461.385   3
  31 -19  -1-129.437 416.484   1
 -31  12  -1 0.33861 530.562   4
 -31  12  -1 288.852 547.045   2
 -12  31  -1 342.640 442.973   4
  12  19  -1 234.415 481.867   1
  12  19  -1 68.8591 412.627   4
 -12  31   2 1482.96 478.171   2
 -19 -12   2 371.761 464.826   3
  12  19   2 426.307 467.468   2
 -31  12   2-716.483 559.835   4
 -12  31   2 1220.49 520.032   4
  12  19   2 1254.72 447.769   1
  31 -19   2 1313.48 428.632   1
  12  19   2 419.685 470.883   4
 -13  31  -2 3026.34 568.942   2
  31 -18  -2 1820.04 536.475   1
 -18 -13  -2 1681.54 553.555   3
  13  18  -2 2337.03 484.130   2
 -31  13  -2 2630.46 603.986   3
 -31  13  -2 2459.69 632.813   4
 -31  13  -2 2834.08 740.139   2
 -13  31  -2 3062.11 574.815   4
  13  18  -2 2700.57 633.890   1
 -13  31   1 179.010 418.311   2
  31 -18   1 86.1376 381.546   1
 -18 -13   1 1150.61 496.287   3
  13  18   1 312.854 431.876   2
 -31  13   1 374.968 452.873   3
 -31  13   1 1175.35 554.686   4
 -31  13   1 215.550 415.726   2
 -13  31   1 1752.99 530.990   4
  13  18   1 650.182 471.838   1
 -14  31  -3 809.749 490.658   2
 -17 -14  -3 1042.66 533.958   3
  14  17  -3 1133.28 420.635   2
 -31  14  -3 933.704 489.009   3
 -31  14  -3 649.293 561.431   4
 -31  14  -3 1552.98 691.457   2
 -14  31  -3 889.231 514.602   4
  31 -17  -3 678.501 482.689   1
  14  17  -3 530.428 525.425   1
 -14  31   0 1426.16 509.074   2
 -17 -14   0 1389.72 498.938   3
  14  17   0 458.504 414.661   2
 -31  14   0 768.947 503.518   3
  31 -17   0 1072.79 431.713   1
 -31  14   0 1315.58 565.161   4
 -31  14   0 933.625 503.764   2
 -14  31   0 60.1707 434.826   4
  14  17   0 1717.89 528.447   1
  31 -17   3 369.130 377.295   1
 -14  31   3-140.938 417.888   2
 -17 -14   3 658.590 496.291   3
 -31  14   3 684.842 517.879   4
 -14  31   3 873.495 478.844   4
  15  16  -1 157.821 464.569   1
 -15  31  -1 1041.38 467.349   2
  31 -16  -1-59.6909 425.924   1
 -16 -15  -1-120.538 435.707   3
  15  16  -1 1181.08 449.643   2
 -31  15  -1 736.427 493.700   3
 -31  15  -1 228.474 516.507   4
 -31  15  -1 1536.79 603.101   2
 -15  31  -1-84.3687 443.200   4
  15  16   2 2514.66 498.173   1
 -15  31   2 2772.00 596.528   2
  31 -16   2 2201.93 485.771   1
 -16 -15   2 2267.33 528.871   3
 -31  15   2 1677.32 582.085   4
 -31  15   2 1554.50 426.029   2
 -15  31   2 1998.94 544.762   4
  16  15  -2 1910.46 550.392   1
 -16  31  -2 2372.41 567.678   2
 -15 -16  -2 1846.13 555.318   3
 -31  16  -2 1711.97 530.908   3
  16  15  -2 1731.82 462.498   2
 -31  16  -2 1551.23 609.489   4
 -31  16  -2 1618.08 659.599   2
 -16  31  -2 2518.67 593.276   4
  31 -15  -2 1460.82 471.178   1
  16  15   1 323.747 423.993   1
 -16  31   1 923.132 438.521   2
 -15 -16   1 900.542 457.782   3
 -31  16   1-751.928 518.719   4
  31 -15   1 845.504 410.422   1
 -31  16   1 969.610 440.707   2
 -16  31   1-216.455 467.753   4
 -17  31  -3 1594.24 546.578   2
  17  14  -3 1381.19 542.997   1
 -14 -17  -3 753.810 508.770   3
 -31  17  -3 1587.45 485.260   3
  17  14  -3 612.630 353.191   2
  31 -14  -3 442.722 442.793   1
 -31  17  -3 1176.01 620.282   4
 -31  17  -3 354.998 612.205   2
 -17  31  -3 1304.98 515.125   4
  17  14   0 907.651 480.594   1
 -17  31   0 688.331 439.347   2
  31 -14   0 391.142 384.792   1
 -14 -17   0 1018.65 450.098   3
 -31  17   0 1058.17 546.372   4
 -31  17   0 995.290 521.990   2
 -17  31   0 2368.39 607.323   4
 -17  31   3 829.846 451.687   2
 -14 -17   3-306.437 452.532   3
 -31  17   3 1111.38 531.401   4
  31 -14   3 548.971 360.518   1
 -17  31   3 1330.65 539.494   4
 -18  31  -1 529.412 420.425   2
  18  13  -1 276.454 481.180   1
 -13 -18  -1 1071.63 419.097   3
 -31  18  -1 663.261 442.275   3
 -31  18  -1 491.003 538.495   4
 -31  18  -1 1542.97 580.934   2
 -18  31  -1 1147.01 505.669   4
  31 -13  -1 353.301 402.765   1
 -18  31   2 2991.87 530.570   2
  18  13   2 2269.97 433.845   1
 -13 -18   2 1865.67 465.684   3
 -31  18   2 2558.98 628.724   4
 -31  18   2 1098.32 402.436   2
  31 -13   2 1670.90 408.757   1
 -19  31  -2 1225.82 559.815   2
  19  12  -2 1807.63 566.484   1
 -12 -19  -2 456.030 420.994   3
 -31  19  -2 486.153 472.556   3
  31 -12  -2 570.935 456.052   1
 -31  19  -2 492.601 496.015   4
 -31  19  -2 44.9319 575.433   2
 -19  31  -2 1341.25 514.832   4
 -19  31   1 491.180 480.640   2
  31 -12   1 1026.25 405.604   1
  19  12   1 375.366 419.798   1
 -12 -19   1 158.704 383.803   3
 -31  19   1 944.397 535.253   4
 -19  31   1 1151.43 529.122   4
 -31  19   1 199.791 416.645   2
 -20  31   0 1313.50 503.959   2
  20  11   0 368.125 454.351   1
 -11 -20   0 700.169 394.663   3
 -31  20   0 1110.93 545.270   4
 -20  31   0 1892.60 555.932   4
 -31  20   0 297.586 484.007   2
  31 -11   0 871.789 428.124   1
 -21  31  -1 714.945 504.974   2
  21  10  -1 233.512 483.246   1
 -10 -21  -1 936.965 412.869   3
  31 -10  -1 575.577 463.386   1
 -31  21  -1-172.277 501.486   4
 -21  31  -1 281.274 473.906   4
 -31  21  -1 281.259 513.376   2
 -21  31   2 1771.01 465.375   2
  31 -10   2 1272.64 401.565   1
  21  10   2 206.445 351.166   1
 -10 -21   2 1649.25 440.397   3
 -31  21   2 1229.78 562.514   4
 -21  31   2 1264.14 518.086   4
 -31  21   2 1505.30 426.934   2
 -22  31   1 939.717 508.563   2
  22   9   1-45.8268 388.944   1
  -9 -22   1 274.098 388.127   3
 -31  22   1-529.477 506.883   4
 -22  31   1 133.540 477.645   4
  31  -9   1-333.063 382.353   1
 -31  22   1-150.599 404.596   2
 -23  31   0 2213.51 559.396   2
  -8 -23   0 1021.20 427.267   3
 -31  23   0 1436.34 624.012   4
 -23  31   0 1841.36 584.567   4
 -31  23   0 517.605 478.897   2
  32 -19   0 1141.66 465.788   1
 -13  32   0 1206.19 485.852   2
 -19 -13   0 2050.09 525.525   3
  13  19   0 1156.81 503.010   2
 -32  13   0 1066.67 511.029   3
 -32  13   0 1269.39 608.442   4
 -32  13   0 2288.52 627.642   2
 -13  32   0 1356.57 557.007   4
 -14  32  -1 1030.91 469.645   2
 -18 -14  -1 846.086 469.782   3
  32 -18  -1 1323.21 515.679   1
  14  18  -1 789.457 429.711   2
 -32  14  -1 1084.97 527.010   3
 -32  14  -1 623.536 518.288   4
 -32  14  -1 1787.71 611.457   2
 -14  32  -1 741.068 450.851   4
  15  17   1 2296.72 534.578   1
  32 -17   1 1830.13 492.861   1
 -15  32   1 2672.11 574.875   2
 -17 -15   1 814.150 459.026   3
  15  17   1 1686.17 518.183   2
 -32  15   1 2492.02 698.197   4
 -32  15   1 1292.80 491.657   2
 -15  32   1 3133.63 623.714   4
  16  16   0 1258.34 512.467   1
 -16  32   0 1858.14 533.432   2
 -16 -16   0 1080.77 462.701   3
  32 -16   0 1173.99 447.307   1
  16  16   0 913.235 473.825   2
 -32  16   0 2078.96 568.601   3
 -32  16   0 1804.39 637.180   4
 -32  16   0 835.764 540.097   2
 -16  32   0 1823.16 550.399   4
  32 -15  -1 1499.63 494.697   1
  17  15  -1 2286.05 585.176   1
 -17  32  -1 1726.90 533.098   2
 -15 -17  -1 1875.52 525.326   3
 -32  17  -1 1735.41 525.717   3
  17  15  -1 888.369 468.283   2
 -32  17  -1 1177.60 614.510   4
 -32  17  -1 2316.45 659.936   2
 -17  32  -1 2817.25 633.583   4
 -18  32   1 122.353 428.896   2
 -14 -18   1 884.291 441.923   3
  32 -14   1 1547.95 448.847   1
 -32  18   1 289.432 511.912   4
 -18  32   1 825.187 502.533   4
 -32  18   1 1491.75 490.002   2
  32 -13   0 1215.03 428.565   1
 -19  32   0 1219.37 475.727   2
 -13 -19   0 884.932 423.574   3
 -32  19   0 2168.36 627.991   4
 -19  32   0 1704.71 584.982   4
 -32  19   0 340.073 480.030   2
   0   0   0    0.00    0.00   0

TITL YY_Zn_Gly_Pyr_Ethylbenzene in R3c
REM R3c (#161 in standard setting)
CELL 0.71073  27.074911  27.074911  10.143741  90.0000  90.0000 120.0000
ZERR   18.00   0.001081   0.001081   0.000406   0.0000   0.0000   0.0000
LATT -3
SYMM -y, x-y, z
SYMM -x+y,-x, z
SYMM -y,-x, z+1/2
SYMM -x+y, y, z+1/2
SYMM  x, x-y, z+1/2
SFAC C H N O Zn
UNIT 108.00 90.00 54.00 54.00 18.00
TREF
HKLF 4
END
;
_shelx_hkl_checksum              18481
_olex2_submission_special_instructions 'No special instructions were received'
_oxdiff_exptl_absorpt_empirical_details
;
Empirical correction (ABSPACK) includes:
- Absorption correction using spherical harmonics
- Frame scaling
;
_oxdiff_exptl_absorpt_empirical_full_max 1.518
_oxdiff_exptl_absorpt_empirical_full_min 0.759
loop_
_space_group_symop_operation_xyz
'x, y, z'
'-y, x-y, z'
'-x+y, -x, z'
'-x+y, y, z+1/2'
'x, x-y, z+1/2'
'-y, -x, z+1/2'
'x+2/3, y+1/3, z+1/3'
'-y+2/3, x-y+1/3, z+1/3'
'-x+y+2/3, -x+1/3, z+1/3'
'-x+y+2/3, y+1/3, z+5/6'
'x+2/3, x-y+1/3, z+5/6'
'-y+2/3, -x+1/3, z+5/6'
'x+1/3, y+2/3, z+2/3'
'-y+1/3, x-y+2/3, z+2/3'
'-x+y+1/3, -x+2/3, z+2/3'
'-x+y+1/3, y+2/3, z+7/6'
'x+1/3, x-y+2/3, z+7/6'
'-y+1/3, -x+2/3, z+7/6'
loop_
_atom_site_label
_atom_site_type_symbol
_atom_site_fract_x
_atom_site_fract_y
_atom_site_fract_z
_atom_site_U_iso_or_equiv
_atom_site_adp_type
_atom_site_occupancy
_atom_site_site_symmetry_order
_atom_site_calc_flag
_atom_site_refinement_flags_posn
_atom_site_refinement_flags_adp
_atom_site_refinement_flags_occupancy
_atom_site_disorder_assembly
_atom_site_disorder_group
Zn1 Zn 0.67513(4) 0.64786(4) 0.42658(9) 0.0309(4) Uani 1 1 d . . . . .
N1 N 0.6457(3) 0.5958(3) 0.2755(7) 0.0300(17) Uani 1 1 d . . . . .
O2 O 0.6765(3) 0.5978(3) 0.5654(6) 0.0363(15) Uani 1 1 d . . . . .
N2 N 0.6309(3) 0.6853(3) 0.4804(7) 0.0319(17) Uani 1 1 d . . . . .
O1 O 0.7555(3) 0.7078(3) 0.4058(6) 0.0370(15) Uani 1 1 d . . . . .
N3 N 0.5826(4) 0.4629(3) 0.7031(8) 0.0344(18) Uani 1 1 d . . . . .
H3 H 0.5743 0.4516 0.7855 0.041 Uiso 1 1 calc R . . . .
C6 C 0.6443(4) 0.5645(4) 0.6569(9) 0.0309(19) Uani 1 1 d . . . . .
O3 O 0.5539(3) 0.4470(3) 0.4909(6) 0.0447(17) Uani 1 1 d . . . . .
C4 C 0.5420(4) 0.4389(4) 0.6103(9) 0.035(2) Uani 1 1 d . . . . .
C1 C 0.6166(4) 0.5403(4) 0.2784(9) 0.032(2) Uani 1 1 d . . . . .
H1 H 0.6087 0.5181 0.3562 0.038 Uiso 1 1 calc R . . . .
C5 C 0.6393(4) 0.5066(4) 0.6698(9) 0.035(2) Uani 1 1 d . . . . .
H5A H 0.6506 0.4967 0.5855 0.042 Uiso 1 1 calc R . . . .
H5B H 0.6660 0.5084 0.7388 0.042 Uiso 1 1 calc R . . . .
C2 C 0.4822(4) 0.4015(4) 0.6535(9) 0.035(2) Uani 1 1 d . . . . .
C3 C 0.6117(4) 0.7130(4) 0.4072(10) 0.036(2) Uani 1 1 d . . . . .
H3A H 0.6153 0.7172 0.3141 0.043 Uiso 1 1 calc R . . . .
C13 C 0.4824(18) 0.5438(18) 0.291(4) 0.097(11) Uiso 0.473(18) 1 d . U P A 1
H13A H 0.5203 0.5664 0.2495 0.117 Uiso 0.473(18) 1 calc R . P A 1
H13B H 0.4633 0.5060 0.2483 0.117 Uiso 0.473(18) 1 calc R . P A 1
C7 C 0.4500(12) 0.5711(12) 0.260(3) 0.076(9) Uiso 0.473(18) 1 d . U P A 1
C8 C 0.4611(13) 0.6207(13) 0.325(3) 0.116(13) Uiso 0.473(18) 1 d G U P A 1
H8 H 0.4920 0.6382 0.3857 0.140 Uiso 0.473(18) 1 calc R . P A 1
C9 C 0.4271(17) 0.6449(13) 0.302(4) 0.162(18) Uiso 0.473(18) 1 d G U P A 1
H9 H 0.4347 0.6788 0.3470 0.194 Uiso 0.473(18) 1 calc R . P A 1
C10 C 0.3819(15) 0.6194(18) 0.214(4) 0.178(19) Uiso 0.473(18) 1 d G U P A 1
H10 H 0.3586 0.6358 0.1982 0.214 Uiso 0.473(18) 1 calc R . P A 1
C11 C 0.3708(12) 0.5697(18) 0.148(3) 0.170(18) Uiso 0.473(18) 1 d G U P A 1
H11 H 0.3399 0.5523 0.0880 0.205 Uiso 0.473(18) 1 calc R . P A 1
C12 C 0.4048(14) 0.5456(12) 0.171(3) 0.124(14) Uiso 0.473(18) 1 d G U P A 1
H12 H 0.3972 0.5117 0.1267 0.149 Uiso 0.473(18) 1 calc R . P A 1
C14 C 0.4924(17) 0.5347(17) 0.440(4) 0.095(12) Uiso 0.473(18) 1 d . U P A 1
H14A H 0.4887 0.4970 0.4501 0.143 Uiso 0.473(18) 1 calc GR . P A 1
H14B H 0.4640 0.5371 0.4949 0.143 Uiso 0.473(18) 1 calc GR . P A 1
H14C H 0.5307 0.5642 0.4665 0.143 Uiso 0.473(18) 1 calc GR . P A 1
loop_
_atom_site_aniso_label
_atom_site_aniso_U_11
_atom_site_aniso_U_22
_atom_site_aniso_U_33
_atom_site_aniso_U_23
_atom_site_aniso_U_13
_atom_site_aniso_U_12
Zn1 0.0411(7) 0.0381(6) 0.0126(5) -0.0005(4) 0.0001(5) 0.0191(5)
N1 0.041(4) 0.038(4) 0.008(4) -0.002(3) -0.003(3) 0.017(3)
O2 0.041(4) 0.046(4) 0.018(4) 0.007(3) 0.005(3) 0.020(3)
N2 0.046(4) 0.042(4) 0.010(4) -0.004(3) 0.000(3) 0.025(4)
O1 0.041(4) 0.045(4) 0.018(3) 0.001(3) -0.004(3) 0.016(3)
N3 0.047(4) 0.038(4) 0.013(4) -0.002(3) -0.001(3) 0.017(4)
C6 0.037(5) 0.040(5) 0.015(4) -0.004(4) -0.002(4) 0.019(4)
O3 0.047(4) 0.057(4) 0.018(4) 0.004(3) 0.001(3) 0.017(3)
C4 0.042(5) 0.040(5) 0.018(5) 0.001(4) 0.002(4) 0.018(4)
C1 0.036(5) 0.040(5) 0.014(5) -0.002(3) -0.002(3) 0.016(4)
C5 0.035(5) 0.045(5) 0.021(5) -0.001(4) 0.000(4) 0.018(4)
C2 0.050(6) 0.043(5) 0.017(5) 0.000(4) 0.000(4) 0.027(5)
C3 0.051(6) 0.040(5) 0.020(5) 0.001(4) 0.000(4) 0.025(5)
loop_
_atom_type_symbol
_atom_type_description
_atom_type_scat_dispersion_real
_atom_type_scat_dispersion_imag
_atom_type_scat_source
C C 0.0033 0.0016 'International Tables Vol C Tables 4.2.6.8 and 6.1.1.4'
H H 0.0000 0.0000 'International Tables Vol C Tables 4.2.6.8 and 6.1.1.4'
N N 0.0061 0.0033 'International Tables Vol C Tables 4.2.6.8 and 6.1.1.4'
O O 0.0106 0.0060 'International Tables Vol C Tables 4.2.6.8 and 6.1.1.4'
Zn Zn 0.2839 1.4301 'International Tables Vol C Tables 4.2.6.8 and 6.1.1.4'
loop_
_geom_angle_atom_site_label_1
_geom_angle_atom_site_label_2
_geom_angle_atom_site_label_3
_geom_angle
_geom_angle_site_symmetry_1
_geom_angle_site_symmetry_3
_geom_angle_publ_flag
N1 Zn1 O2 101.9(3) . . ?
N1 Zn1 N2 116.6(3) . . ?
N1 Zn1 O1 113.1(3) . . ?
O2 Zn1 N2 112.2(3) . . ?
O2 Zn1 O1 104.5(3) . . ?
O1 Zn1 N2 107.9(3) . . ?
N2 N1 Zn1 125.0(6) 14_654 . ?
C1 N1 Zn1 127.3(6) . . ?
C1 N1 N2 107.4(7) . 14_654 ?
C6 O2 Zn1 139.5(6) . . ?
N1 N2 Zn1 122.5(6) 9_565 . ?
C3 N2 Zn1 129.6(6) . . ?
C3 N2 N1 107.9(8) . 9_565 ?
C6 O1 Zn1 120.2(6) 14_654 . ?
C4 N3 C5 120.9(8) . . ?
O2 C6 C5 118.0(8) . . ?
O1 C6 O2 124.1(8) 9_565 . ?
O1 C6 C5 117.9(8) 9_565 . ?
N3 C4 C2 118.2(8) . . ?
O3 C4 N3 121.4(9) . . ?
O3 C4 C2 120.4(9) . . ?
N1 C1 C2 111.4(8) . 6_664 ?
N3 C5 C6 112.4(8) . . ?
C1 C2 C4 130.5(9) 6_665 . ?
C3 C2 C4 125.9(9) 16_544 . ?
C3 C2 C1 103.4(9) 16_544 6_665 ?
N2 C3 C2 109.8(9) . 10_554 ?
C7 C13 C14 120(3) . . ?
C8 C7 C13 120(3) . . ?
C8 C7 C12 120.0 . . ?
C12 C7 C13 120(3) . . ?
C9 C8 C7 120.0 . . ?
C10 C9 C8 120.0 . . ?
C9 C10 C11 120.0 . . ?
C10 C11 C12 120.0 . . ?
C11 C12 C7 120.0 . . ?
loop_
_geom_bond_atom_site_label_1
_geom_bond_atom_site_label_2
_geom_bond_distance
_geom_bond_site_symmetry_2
_geom_bond_publ_flag
Zn1 N1 1.961(7) . ?
Zn1 O2 1.967(6) . ?
Zn1 N2 1.993(8) . ?
Zn1 O1 1.970(7) . ?
N1 N2 1.368(10) 14_654 ?
N1 C1 1.302(12) . ?
O2 C6 1.285(11) . ?
N2 N1 1.368(10) 9_565 ?
N2 C3 1.332(13) . ?
O1 C6 1.242(11) 14_654 ?
N3 C4 1.343(13) . ?
N3 C5 1.434(12) . ?
C6 O1 1.242(11) 9_565 ?
C6 C5 1.509(13) . ?
O3 C4 1.244(11) . ?
C4 C2 1.482(14) . ?
C1 C2 1.385(13) 6_664 ?
C2 C1 1.385(13) 6_665 ?
C2 C3 1.378(14) 16_544 ?
C3 C2 1.378(14) 10_554 ?
C13 C7 1.44(5) . ?
C13 C14 1.57(5) . ?
C7 C8 1.3900 . ?
C7 C12 1.3900 . ?
C8 C9 1.3900 . ?
C9 C10 1.3900 . ?
C10 C11 1.3900 . ?
C11 C12 1.3900 . ?
