#------------------------------------------------------------------------------
#$Date: 2020-08-22 01:48:27 +0300 (Sat, 22 Aug 2020) $
#$Revision: 255520 $
#$URL: file:///home/coder/svn-repositories/cod/cif/4/13/51/4135167.cif $
#------------------------------------------------------------------------------
#
# This file is available in the Crystallography Open Database (COD),
# http://www.crystallography.net/
#
# All data on this site have been placed in the public domain by the
# contributors.
#
data_4135167
loop_
_publ_author_name
'Yan, Yong'
'Carrington, Elliot J.'
'P\'etuya, R\'emi'
'Whitehead, George F. S.'
'Verma, Ajay'
'Hylton, Rebecca K.'
'Tang, Chiu C.'
'Berry, Neil G.'
'Darling, George R.'
'Dyer, Matthew S.'
'Antypov, Dmytro'
'Katsoulidis, Alexandros P.'
'Rosseinsky, Matthew J.'
_publ_section_title
;
 Amino Acid Residues Determine the Response of Flexible Metal-Organic
 Frameworks to Guests.
;
_journal_name_full               'Journal of the American Chemical Society'
_journal_paper_doi               10.1021/jacs.0c03853
_journal_year                    2020
_chemical_absolute_configuration syn
_chemical_formula_moiety         'C7 H7 N3 O3 Zn'
_chemical_formula_sum            'C7 H7 N3 O3 Zn'
_chemical_formula_weight         246.53
_space_group_crystal_system      trigonal
_space_group_IT_number           146
_space_group_name_Hall           'R 3'
_space_group_name_H-M_alt        'R 3 :H'
_atom_sites_solution_hydrogens   geom
_atom_sites_solution_primary     dual
_audit_creation_date             2019-07-01
_audit_creation_method
;
Olex2 1.2
(compiled 2018.05.29 svn.r3508 for OlexSys, GUI svn.r5506)
;
_cell_angle_alpha                90
_cell_angle_beta                 90
_cell_angle_gamma                120
_cell_formula_units_Z            18
_cell_length_a                   28.2634(9)
_cell_length_b                   28.2634(9)
_cell_length_c                   10.1714(3)
_cell_measurement_reflns_used    9945
_cell_measurement_temperature    150
_cell_measurement_theta_max      25.044
_cell_measurement_theta_min      2.497
_cell_volume                     7036.6(4)
_computing_cell_refinement       'SAINT V8.38A (?, 2016)'
_computing_data_reduction        'SAINT V8.38A (?, 2016)'
_computing_molecular_graphics    'Olex2 (Dolomanov et al., 2009)'
_computing_publication_material  'Olex2 (Dolomanov et al., 2009)'
_computing_structure_refinement  'ShelXL (Sheldrick, 2015)'
_computing_structure_solution    'XT (Sheldrick, 2015)'
_diffrn_ambient_temperature      150.0
_diffrn_measured_fraction_theta_full 0.999
_diffrn_measured_fraction_theta_max 0.999
_diffrn_measurement_device_type  'Bruker APEX-II CCD'
_diffrn_measurement_method       '\f and \w scans'
_diffrn_radiation_type           MoK\a
_diffrn_radiation_wavelength     0.71073
_diffrn_reflns_av_R_equivalents  0.0319
_diffrn_reflns_av_unetI/netI     0.0283
_diffrn_reflns_Laue_measured_fraction_full 0.999
_diffrn_reflns_Laue_measured_fraction_max 0.999
_diffrn_reflns_limit_h_max       33
_diffrn_reflns_limit_h_min       -33
_diffrn_reflns_limit_k_max       33
_diffrn_reflns_limit_k_min       -33
_diffrn_reflns_limit_l_max       12
_diffrn_reflns_limit_l_min       -12
_diffrn_reflns_number            20868
_diffrn_reflns_point_group_measured_fraction_full 0.995
_diffrn_reflns_point_group_measured_fraction_max 0.995
_diffrn_reflns_theta_full        25.043
_diffrn_reflns_theta_max         25.043
_diffrn_reflns_theta_min         2.496
_diffrn_standards_number         0
_exptl_absorpt_coefficient_mu    1.561
_exptl_absorpt_correction_T_max  0.7452
_exptl_absorpt_correction_T_min  0.6608
_exptl_absorpt_correction_type   multi-scan
_exptl_absorpt_process_details
'SADABS-2016/2 (Bruker,2016/2) was used for absorption correction. wR2(int) was 0.0851 before and 0.0441 after correction. The Ratio of minimum to maximum transmission is 0.8867. The \l/2 correction factor is Not present.'
_exptl_crystal_colour            white
_exptl_crystal_colour_primary    white
_exptl_crystal_density_diffrn    1.047
_exptl_crystal_description       needle
_exptl_crystal_F_000             2232
_exptl_crystal_preparation       'Solvent Exchange in m-xylene'
_exptl_crystal_size_max          0.3
_exptl_crystal_size_mid          0.06
_exptl_crystal_size_min          0.03
_refine_diff_density_max         1.363
_refine_diff_density_min         -0.533
_refine_diff_density_rms         0.209
_refine_ls_abs_structure_details
;
 Flack x determined using 2389 quotients [(I+)-(I-)]/[(I+)+(I-)]
 (Parsons, Flack and Wagner, Acta Cryst. B69 (2013) 249-259).
;
_refine_ls_abs_structure_Flack   0.012(7)
_refine_ls_extinction_method     none
_refine_ls_goodness_of_fit_ref   1.099
_refine_ls_hydrogen_treatment    constr
_refine_ls_matrix_type           full
_refine_ls_number_parameters     255
_refine_ls_number_reflns         5504
_refine_ls_number_restraints     1
_refine_ls_restrained_S_all      1.099
_refine_ls_R_factor_all          0.0532
_refine_ls_R_factor_gt           0.0492
_refine_ls_shift/su_max          0.001
_refine_ls_shift/su_mean         0.000
_refine_ls_structure_factor_coef Fsqd
_refine_ls_weighting_details
'w=1/[\s^2^(Fo^2^)+(0.1121P)^2^+42.8567P] where P=(Fo^2^+2Fc^2^)/3'
_refine_ls_weighting_scheme      calc
_refine_ls_wR_factor_gt          0.1626
_refine_ls_wR_factor_ref         0.1664
_reflns_Friedel_coverage         0.991
_reflns_Friedel_fraction_full    0.990
_reflns_Friedel_fraction_max     0.990
_reflns_number_gt                5153
_reflns_number_total             5504
_reflns_threshold_expression     'I > 2\s(I)'
_cod_data_source_file            ZnAlaPyr_M-xylene_150K.cif
_cod_data_source_block           ZnAlaPyr_m-xylene_150K
_cod_original_cell_volume        7036.6(5)
_cod_original_sg_symbol_H-M      'R 3'
_cod_database_code               4135167
_shelx_shelxl_version_number     2014/7
_shelx_space_group_comment
;
The symmetry employed for this shelxl refinement is uniquely defined
by the following loop, which should always be used as a source of
symmetry information in preference to the above space-group names.
They are only intended as comments.
;
_olex2_refinement_description
;
1. Fixed Uiso
 At 1.2 times of:
  All C(H) groups, All N(H) groups
 At 1.5 times of:
  All C(H,H,H) groups
2.a Ternary CH refined with riding coordinates:
 C12(H12), C5(H5)
2.b Aromatic/amide H refined with riding coordinates:
 N6(H6), N3(H3), C9(H9), C1(H1), C2(H2), C8(H8)
2.c Idealised Me refined as rotating group:
 C14(H14A,H14B,H14C), C7(H7A,H7B,H7C)
;
_shelx_res_file
;
    mjr_yy_znalapyr_mxylene_0m.res created by SHELXL-2014/7

TITL mjr_yy_znalapyr_mxylene_0m_a.res in R3
REM Old TITL MJR_YY_ZnAlaPyr_mxylene_0m in R3
REM SHELXT solution in R3
REM R1 0.091, Rweak 0.022, Alpha 0.009, Orientation as input
REM Flack x = 0.036 ( 0.006 ) from Parsons' quotients
REM Formula found by SHELXT: C16 N5 O5 Zn2
CELL 0.71073 28.2634 28.2634 10.1714 90 90 120
ZERR 18 0.0009 0.0009 0.0003 0 0 0
LATT -3
SYMM -Y,+X-Y,+Z
SYMM +Y-X,-X,+Z
SFAC C H N O Zn
UNIT 126 126 54 54 18

L.S. 4
PLAN  20
TEMP -123.15
BOND $H
list 4
fmap 2
acta
REM <olex2.extras>
REM <HklSrc "%.\\MJR_YY_ZnAlaPyr_mxylene_0m.hkl">
REM </olex2.extras>

WGHT    0.112100   42.856701
FVAR       0.22044
ZN2   5    0.663194    0.642148    0.033340    11.00000    0.02102    0.02232 =
         0.00782    0.00065    0.00025    0.01117
ZN1   5    0.328230    0.352851   -0.134131    11.00000    0.02093    0.02058 =
         0.00871   -0.00032    0.00053    0.00873
O4    4    0.915842    0.635694    0.217083    11.00000    0.01770    0.02987 =
         0.01686    0.00668    0.00150    0.00823
O2    4    0.593098    0.664552    0.231857    11.00000    0.03344    0.03184 =
         0.01357   -0.00520   -0.00711    0.01991
O5    4    0.929889    0.596886    0.392531    11.00000    0.03189    0.02827 =
         0.01407   -0.00444   -0.00546    0.01720
O1    4    0.584708    0.614470    0.054493    11.00000    0.02023    0.03319 =
         0.01980   -0.00887   -0.00332    0.01036
O3    4    0.461452    0.545186    0.293806    11.00000    0.04763    0.03086 =
         0.01313   -0.00277   -0.01061    0.00146
N6    3    0.804681    0.566447    0.254212    11.00000    0.02316    0.03233 =
         0.00962    0.00023   -0.00237    0.01278
AFIX  43
H6    2    0.797100    0.568657    0.171300    11.00000   -1.20000
AFIX   0
O6    4    0.787263    0.574043    0.466921    11.00000    0.04894    0.07578 =
         0.01259    0.00066   -0.00295    0.04747
N3    3    0.471756    0.570811    0.081642    11.00000    0.02111    0.02450 =
         0.01442   -0.00309   -0.00016    0.00728
AFIX  43
H3    2    0.461495    0.560281    0.000092    11.00000   -1.20000
AFIX   0
N5    3    0.689250    0.635874    0.314800    11.00000    0.03202    0.03370 =
         0.00889   -0.00230    0.00061    0.01820
N4    3    0.695280    0.626221    0.186139    11.00000    0.02476    0.03452 =
         0.00768    0.00137    0.00208    0.01645
N2    3    0.358923    0.386545    0.144638    11.00000    0.02998    0.02773 =
         0.01213    0.00231    0.00216    0.01689
N1    3    0.361536    0.401744    0.017185    11.00000    0.02965    0.02458 =
         0.01172    0.00043    0.00130    0.01105
C3    1    0.413069    0.476457    0.134750    11.00000    0.01870    0.02598 =
         0.01200   -0.00112   -0.00023    0.00856
C4    1    0.450717    0.533212    0.176302    11.00000    0.02335    0.02645 =
         0.01493   -0.00167   -0.00148    0.01021
C10   1    0.743008    0.600327    0.306434    11.00000    0.02301    0.03137 =
         0.01382    0.00308   -0.00101    0.01341
C12   1    0.843194    0.548636    0.285622    11.00000    0.03039    0.02819 =
         0.01691    0.00460    0.00091    0.01326
AFIX  13
H12   2    0.832046    0.527358    0.369538    11.00000   -1.20000
AFIX   0
C9    1    0.717882    0.620460    0.386728    11.00000    0.03420    0.04123 =
         0.01062   -0.00517   -0.00391    0.02355
AFIX  43
H9    2    0.720785    0.622849    0.479829    11.00000   -1.20000
AFIX   0
C5    1    0.510887    0.628524    0.105452    11.00000    0.02269    0.02467 =
         0.02648   -0.00024    0.00407    0.00869
AFIX  13
H5    2    0.515265    0.646765    0.018473    11.00000   -1.20000
AFIX   0
C6    1    0.566829    0.635809    0.135915    11.00000    0.02042    0.02012 =
         0.01273    0.00365    0.00214    0.00760
C1    1    0.388982    0.430100    0.214813    11.00000    0.03310    0.02898 =
         0.00829    0.00025   -0.00263    0.01266
AFIX  43
H1    2    0.393812    0.430275    0.307276    11.00000   -1.20000
AFIX   0
C13   1    0.900465    0.598006    0.301137    11.00000    0.01964    0.02775 =
         0.01156   -0.00232    0.00053    0.01572
C11   1    0.780112    0.579751    0.349172    11.00000    0.02133    0.03645 =
         0.01379   -0.00123   -0.00408    0.01365
C2    1    0.394019    0.455944    0.011345    11.00000    0.02393    0.02491 =
         0.01605   -0.00019   -0.00197    0.00543
AFIX  43
H2    2    0.402669    0.477173   -0.066653    11.00000   -1.20000
AFIX   0
C8    1    0.726974    0.604394    0.180697    11.00000    0.03110    0.03962 =
         0.00927    0.00107   -0.00144    0.02441
AFIX  43
H8    2    0.737156    0.593242    0.102684    11.00000   -1.20000
AFIX   0
C14   1    0.844739    0.513138    0.176523    11.00000    0.03383    0.03155 =
         0.04026   -0.01153   -0.00773    0.01869
AFIX 137
H14A  2    0.807620    0.483254    0.158811    11.00000   -1.50000
H14B  2    0.867792    0.497986    0.203162    11.00000   -1.50000
H14C  2    0.859808    0.535156    0.096845    11.00000   -1.50000
AFIX   0
C7    1    0.490490    0.656171    0.196474    11.00000    0.04724    0.06191 =
         0.06411   -0.01628   -0.00462    0.03189
AFIX 137
H7A   2    0.456193    0.652014    0.162300    11.00000   -1.50000
H7B   2    0.517763    0.695092    0.202734    11.00000   -1.50000
H7C   2    0.484190    0.639466    0.283851    11.00000   -1.50000
AFIX   0
HKLF 4

REM  mjr_yy_znalapyr_mxylene_0m_a.res in R3
REM R1 =  0.0492 for    5153 Fo > 4sig(Fo)  and  0.0532 for all    5504 data
REM    255 parameters refined using      1 restraints

END

WGHT      0.1121     42.8693

REM Highest difference peak  1.363,  deepest hole -0.533,  1-sigma level  0.209
Q1    1   0.8937  0.4067  0.3029  11.00000  0.05    1.36
Q2    1   0.9408  0.4389  0.2891  11.00000  0.05    1.26
Q3    1   0.6014  0.8219  0.2516  11.00000  0.05    1.09
Q4    1   0.8510  0.3808  0.2033  11.00000  0.05    1.07
Q5    1   0.5107  0.7919  0.1986  11.00000  0.05    1.05
Q6    1   0.4663  0.7810  0.1315  11.00000  0.05    1.01
Q7    1   0.5618  0.8157  0.1431  11.00000  0.05    0.99
Q8    1   0.2558  0.4335  0.0189  11.00000  0.05    0.98
Q9    1   0.9247  0.4420  0.3856  11.00000  0.05    0.91
Q10   1   0.8025  0.4547  0.6510  11.00000  0.05    0.87
Q11   1   0.5120  0.6679  0.0159  11.00000  0.05    0.85
Q12   1   0.5391  0.7249 -0.2464  11.00000  0.05    0.82
Q13   1   0.6690  0.4449  0.3457  11.00000  0.05    0.79
Q14   1   0.8529  0.4760  0.5968  11.00000  0.05    0.77
Q15   1   0.4614  0.6820  0.5604  11.00000  0.05    0.75
Q16   1   0.5864  0.7936 -0.0917  11.00000  0.05    0.68
Q17   1   0.8654  0.7193  0.1458  11.00000  0.05    0.66
Q18   1   0.9074  0.4856  0.5804  11.00000  0.05    0.65
Q19   1   0.4752  0.6868 -0.2242  11.00000  0.05    0.60
Q20   1   0.6026  0.7730  0.0717  11.00000  0.05    0.58
;
_shelx_res_checksum              13388
_shelx_hkl_file
;
  -3   3   0 7386.96   91.39
   0   3   0 6185.58   76.99
   2  -4   0 4556.44   59.59
   2  -4   0 4653.73   60.29
  -4   2   0 4637.74   60.39
  -2   4   0 4618.74   60.29
  -2  -2   0 4659.13   59.59
   4  -2   0 4612.04   60.59
  -2   4   0 4585.04   59.39
   1   4   0 2635.64   38.20
  -5   1   0 2640.34   39.70
   4  -5   0 2614.34   38.50
   4  -5   0 2652.23   39.20
   1   4   0 2704.23   39.90
  -4   5   0 3075.59   43.50
  -4   5   0 3095.89   44.40
   5  -1   0 3134.39   45.40
  -5   4   0 3167.98   44.80
   1  -5   0 3196.48   45.50
   4   1   0 3206.68   46.30
  -5   4   0 3118.89   45.20
   1  -5   0 3113.09   44.30
   5  -4   0 2732.03   40.50
   5  -4   0 2777.92   40.30
  -1   5   0 2739.43   40.40
  -1   5   0 2745.23   39.20
  -4  -1   0 2727.13   41.10
   6   0   0 5337.17   75.59
   0  -6   0 5319.57   73.29
   0  -6   0 5320.27   74.49
  -6   6   0 5462.75   73.39
  -6   6   0 5743.93   86.79
   6  -6   0 4311.77   61.89
   0   6   0 4309.37   59.89
   6  -6   0 4357.96   61.79
   0   6   0 4324.27   61.99
  -6   0   0 4341.97   62.39
   5  -7   0 3690.83   54.19
   2   5   0 3676.33   52.59
  -7   2   0 3643.14   54.39
   5  -7   0 3623.14   52.99
   7  -2   0 3838.32   57.09
  -2  -5   0 3858.91   55.09
  -5   7   0 3819.42   57.19
  -5   7   0 3881.31   54.69
   5   2   0 4059.69   60.59
   2  -7   0 4113.69   58.29
   2  -7   0 4171.78   59.59
  -7   5   0 4162.98   59.19
  -2   7   0 3887.51   57.29
   7  -5   0 3975.00   57.49
  -2   7   0 3948.30   55.69
  -5  -2   0 3921.21   58.39
   7  -5   0 3966.00   57.89
   7  -8   0  962.40   22.60
   1   7   0  949.31   22.80
  -8   1   0  955.90   23.00
   7  -8   0  931.51   21.70
   1   7   0  994.00   21.40
  -1  -7   0  924.21   21.00
   8  -1   0  967.40   23.20
  -7   8   0  962.50   21.30
  -7   8   0  959.30   22.10
   4  -8   0 2985.80   45.80
  -8   4   0 2960.90   46.80
   4  -8   0 2965.40   46.70
  -4   8   0 2933.11   44.60
  -4  -4   0 3000.90   48.00
   8  -4   0 2982.00   47.30
  -4  -4   0 2990.90   45.40
  -4   8   0 2799.92   50.39
   1  -8   0 1068.99   24.10
  -8   7   0 1069.79   23.40
   1  -8   0 1055.09   22.70
  -8   7   0 1046.90   22.90
   7   1   0 1057.59   24.70
   8  -7   0  963.70   22.90
  -1   8   0 1013.70   21.60
  -7  -1   0  989.40   23.70
   8  -7   0  973.40   22.50
  -1   8   0  997.40   22.90
   6  -9   0 4900.31   71.79
   6  -9   0 4940.51   70.79
  -9   3   0 4920.71   72.09
   3   6   0 4873.61   69.89
  -6   9   0 5837.42   80.19
  -3  -6   0 5801.22   80.49
  -6   9   0 5734.73   81.59
   9  -3   0 5791.12   83.29
  -9   6   0 4449.85   64.29
   6   3   0 4210.08   65.59
   3  -9   0 4253.57   62.89
   3  -9   0 4257.57   64.19
   9  -6   0 3552.94   56.09
   9  -6   0 3514.35   55.69
  -3   9   0 3548.64   53.39
  -3   9   0 3597.74   55.49
  -9   9   0 2277.27   41.20
   9   0   0 2301.27   43.00
  -9   9   0 2279.07   39.90
   0  -9   0 2245.88   40.20
   9  -9   0 1893.21   37.00
  -9   0   0 1923.71   37.70
   9  -9   0 1870.91   36.10
   0   9   0 1852.71   36.80
   0   9   0 1864.41   34.40
   2   8   0 2141.09   38.00
   8 -10   0 2093.89   38.70
 -10   2   0 2074.49   40.10
   2   8   0 2125.39   40.50
   8 -10   0 2077.59   39.60
  -8  10   0 2374.36   42.30
  -2  -8   0 2354.96   41.40
  -8  10   0 2326.57   40.60
  10  -2   0 2343.87   43.80
   5 -10   0  533.55   16.70
 -10   5   0  548.45   17.60
   5 -10   0  559.54   17.90
  -5  10   0  500.35   15.60
  10  -5   0  526.35   17.70
  -5  10   0  526.65   17.00
  -5  -5   0  522.25   18.50
  -5  -5   0  527.15   16.20
   2 -10   0 2067.89   38.00
   2 -10   0 2117.79   39.70
   8   2   0 2042.90   40.40
 -10   8   0 2076.39   38.20
  10  -8   0 1838.42   36.40
  -2  10   0 1780.72   35.60
  -8  -2   0 1829.62   37.20
  10  -8   0 1798.62   35.90
  -2  10   0 1867.01   34.20
   1  10   0   40.40    8.10
  10 -11   0   31.60    8.10
   1  10   0   29.80    7.60
  10 -11   0   24.50    6.20
 -11   1   0   34.00    8.40
 -10  11   0   40.40    7.70
 -10  11   0   49.30    8.00
  -1 -10   0   42.40    7.60
  11  -1   0   39.00    7.90
   7 -11   0  308.87   15.20
 -11   4   0  317.47   15.00
   7 -11   0  302.27   13.70
  -4  -7   0  355.86   14.30
  -7  11   0  349.67   14.90
  11  -4   0  342.17   15.70
  -7  11   0  336.67   14.10
   4 -11   0  273.27   14.40
   4 -11   0  274.67   13.10
 -11   7   0  296.87   14.40
  -7  -4   0  248.68   12.50
  11  -7   0  252.37   14.00
  -4  11   0  240.08   12.30
  11  -7   0  243.28   13.30
  -4  11   0  241.88   13.00
  -7  -4   0  238.28   14.70
  10   1   0  148.19   13.20
 -11  10   0  144.09   11.60
 -11  10   0  142.09   12.00
   1 -11   0  174.98   13.80
   1 -11   0  116.79   11.10
  11 -10   0  132.79   12.70
 -10  -1   0  158.28   13.90
  11 -10   0  142.59   11.90
  -1  11   0  139.89   11.50
  -1  11   0  152.28   12.00
   3   9   0  392.26   16.60
   9 -12   0  388.06   16.90
 -12   3   0  413.66   18.90
   3   9   0  396.86   18.40
   9 -12   0  420.96   18.50
  -9  12   0  350.46   15.90
  -3  -9   0  366.96   16.20
  12  -3   0  351.46   17.50
  -9  12   0  373.46   16.70
   6 -12   0 3863.61   61.99
 -12   6   0 3889.61   63.09
   6 -12   0 3800.22   62.89
  -6  12   0 3837.92   60.49
  -6  12   0 3897.31   63.19
  -6  -6   0 3988.70   62.09
  -6  -6   0 3866.91   65.69
  12  -6   0 3818.72   64.29
 -12   9   0  598.44   20.50
   9   3   0  620.44   22.80
   3 -12   0  627.34   20.50
   3 -12   0  615.44   22.00
  12  -9   0  608.44   21.70
  12  -9   0  590.64   21.00
  -3  12   0  595.14   19.40
  -3  12   0  608.04   20.90
  -9  -3   0  648.64   23.20
 -12  12   0  275.77   15.40
   0 -12   0  251.67   15.30
 -12  12   0  283.37   15.30
  12   0   0  271.77   17.30
  12 -12   0  195.58   16.00
   0  12   0  211.28   15.10
 -12   0   0  189.68   15.80
  12 -12   0  186.58   13.70
   0  12   0  201.58   13.90
   2  11   0    9.50    6.90
   2  11   0   13.70    6.80
  11 -13   0   24.70    7.30
 -13   2   0   14.10    8.60
  11 -13   0   25.10    8.40
  -2 -11   0   10.20    6.50
 -11  13   0    7.50    6.40
  13  -2   0    5.10    7.50
 -11  13   0   14.10    6.80
   8 -13   0 3643.84   61.59
   8 -13   0 3737.33   63.29
 -13   5   0 3728.33   63.19
  -8  13   0 3540.55   57.89
  -5  -8   0 3530.15   59.09
  -8  13   0 3575.54   60.49
  13  -5   0 3544.85   62.49
   5 -13   0 3300.97   58.19
 -13   8   0 3294.37   57.29
   5 -13   0 3333.97   57.19
  13  -8   0 3364.56   59.69
  -8  -5   0 3257.67   60.29
  -5  13   0 3379.46   55.69
  13  -8   0 3408.66   60.19
  -8  -5   0 3356.96   56.39
  -5  13   0 3401.76   58.69
   2 -13   0    6.30    7.80
   2 -13   0   -4.70    5.10
 -13  11   0   -3.00    6.00
  11   2   0    0.20    7.60
  13 -11   0    6.70    7.20
  -2  13   0    3.20    5.90
 -11  -2   0    5.90    7.20
  13 -11   0    6.90    6.10
  -2  13   0   -0.70    6.00
 -14   1   0   19.30    8.10
   1  13   0   20.30    8.30
  13 -14   0   12.30    7.10
   1  13   0   23.20    8.30
  13 -14   0   20.40    8.60
  -1 -13   0   14.80    6.70
 -13  14   0   29.00    7.80
  14  -1   0   22.20    8.10
 -13  14   0   26.90    8.20
 -14   4   0  143.99   14.70
  10 -14   0  166.98   15.40
   4  10   0  134.29   14.10
  10 -14   0  161.48   13.70
 -10  14   0  128.39   12.90
  -4 -10   0  138.79   12.90
  14  -4   0  134.79   14.00
 -10  14   0  145.99   12.90
   7 -14   0  255.77   15.30
 -14   7   0  256.47   16.60
   7 -14   0  264.57   17.10
  -7  -7   0  257.77   18.50
  -7  14   0  255.47   14.80
  14  -7   0  254.87   17.00
  14  -7   0  267.77   16.70
  -7  14   0  267.77   15.80
  -7  -7   0  245.58   15.00
 -14  10   0  182.58   14.50
   4 -14   0  193.88   16.40
   4 -14   0  196.88   14.20
  14 -10   0  192.68   15.70
 -10  -4   0  214.58   14.30
  -4  14   0  186.88   14.90
 -10  -4   0  221.58   17.50
  -4  14   0  199.38   14.10
  14 -10   0  186.48   14.90
 -14  13   0  165.18   14.00
  13   1   0  182.48   16.60
 -14  13   0  189.28   14.90
   1 -14   0  172.58   14.30
  14 -13   0  117.09   14.90
  -1  14   0  148.99   13.50
  -1  14   0  156.98   14.80
 -13  -1   0  162.48   16.60
  14 -13   0  152.98   14.50
   3  12   0  177.88   14.70
  12 -15   0  195.28   17.10
  12 -15   0  200.18   15.30
   3  12   0  188.98   16.80
 -15   3   0  212.88   17.80
  -3 -12   0  204.78   15.30
 -12  15   0  239.58   16.40
 -12  15   0  178.38   14.50
  15  -3   0  205.68   17.00
   9 -15   0  867.91   26.50
   9 -15   0  857.91   28.20
 -15   6   0  846.82   27.60
  15  -6   0  910.71   29.20
  -9  15   0  928.41   28.00
  -6  -9   0  946.91   27.10
  -9  15   0  901.71   25.90
  -6  -9   0  927.31   30.90
   6 -15   0  788.62   26.90
 -15   9   0  836.72   26.60
   6 -15   0  823.52   25.80
  -9  -6   0  692.03   23.40
  15  -9   0  697.23   25.30
  -6  15   0  708.33   24.80
  15  -9   0  748.83   26.50
  -9  -6   0  736.93   27.40
  -6  15   0  734.43   23.20
  12   3   0  226.18   17.80
   3 -15   0  225.28   17.80
 -15  12   0  233.98   16.00
   3 -15   0  225.88   15.60
 -12  -3   0  219.38   18.30
  -3  15   0  238.88   15.50
  15 -12   0  239.48   16.60
  15 -12   0  244.48   18.20
  -3  15   0  237.58   16.80
 -15  15   0  738.93   25.40
 -15  15   0  696.53   25.90
  15   0   0  700.93   28.20
   0 -15   0  698.23   25.70
   0  15   0  682.93   24.30
  15 -15   0  617.44   25.00
 -15   0   0  661.93   27.40
   0  15   0  653.73   26.00
  15 -15   0  658.53   27.20
  14 -16   0  706.53   28.00
   2  14   0  716.93   27.80
 -16   2   0  681.43   28.10
   2  14   0  746.03   25.70
  14 -16   0  681.53   26.00
  16  -2   0  662.23   27.60
 -14  16   0  681.03   24.40
 -14  16   0  690.93   25.70
  -2 -14   0  667.63   25.10
 -16   5   0 1024.70   31.60
   5  11   0  982.20   31.70
  11 -16   0 1050.89   32.00
  11 -16   0 1001.80   30.10
  16  -5   0 1145.49   34.30
  -5 -11   0 1194.78   32.10
 -11  16   0 1150.08   30.40
 -11  16   0 1189.18   32.70
   8 -16   0   32.70    8.10
   8 -16   0   54.79   10.60
 -16   8   0   40.80    9.90
  -8  -8   0   40.50    7.80
  -8  16   0   67.19    9.40
  16  -8   0   64.19   11.30
  16  -8   0   52.69    9.30
  -8  16   0   60.79    9.70
  -8  -8   0   45.30   10.40
   5 -16   0 1028.10   31.40
 -16  11   0  977.90   29.50
   5 -16   0  971.70   29.50
  -5  16   0  887.11   26.40
  16 -11   0  873.41   29.90
 -11  -5   0  852.91   26.80
 -11  -5   0  868.61   30.90
  -5  16   0  847.12   28.10
  16 -11   0  856.11   28.90
 -16  14   0  626.84   24.30
   2 -16   0  639.54   26.70
   2 -16   0  604.94   24.20
  14   2   0  619.04   26.80
  -2  16   0  605.04   22.90
  16 -14   0  625.34   26.50
  16 -14   0  610.04   25.30
  -2  16   0  597.14   24.90
 -14  -2   0  594.04   26.40
  16 -17   0  529.35   26.80
   1  16   0  583.44   24.00
  16 -17   0  528.05   25.10
   1  16   0  519.05   25.20
 -17   1   0  545.45   27.20
  -1 -16   0  530.35   23.90
 -16  17   0  492.05   23.40
 -16  17   0  524.15   23.40
  17  -1   0  489.45   25.80
  13 -17   0  269.97   20.40
 -17   4   0  300.87   20.70
  13 -17   0  298.47   19.10
   4  13   0  264.47   20.00
 -13  17   0  303.37   17.90
  -4 -13   0  308.47   18.60
  17  -4   0  301.57   20.60
 -13  17   0  335.17   19.80
  10 -17   0  649.93   24.80
  10 -17   0  659.83   26.60
 -17   7   0  674.13   26.30
 -10  17   0  580.64   22.10
  17  -7   0  571.64   25.30
  -7 -10   0  598.14   27.40
 -10  17   0  571.24   23.60
  -7 -10   0  596.04   22.90
   7 -17   0  233.58   16.70
 -17  10   0  236.28   17.80
   7 -17   0  225.78   18.40
 -10  -7   0  262.37   16.70
 -10  -7   0  306.27   21.30
  -7  17   0  266.67   16.80
  17 -10   0  297.87   20.40
  -7  17   0  274.17   17.90
  17 -10   0  308.57   19.40
 -17  13   0  326.57   19.40
   4 -17   0  308.27   21.30
   4 -17   0  312.17   18.80
  13   4   0  300.17   20.80
 -13  -4   0  268.87   17.20
  -4  17   0  290.67   18.90
  17 -13   0  247.28   18.60
  17 -13   0  253.67   20.10
  -4  17   0  306.07   17.70
 -13  -4   0  245.48   20.40
 -17  16   0  399.06   21.50
  16   1   0  398.26   24.30
   1 -17   0  372.86   21.00
 -16  -1   0  421.16   25.30
  17 -16   0  413.26   24.90
  -1  17   0  448.16   21.70
  -1  17   0  372.36   22.50
  17 -16   0  424.36   23.20
 -18   3   0  715.33   30.10
   3  15   0  703.33   29.50
  15 -18   0  717.93   28.50
  15 -18   0  714.63   30.30
  18  -3   0  749.92   30.80
 -15  18   0  706.23   26.60
 -15  18   0  713.93   27.80
  -3 -15   0  724.93   27.90
  12 -18   0   42.90   10.50
  12 -18   0   57.29   12.60
   6  12   0   68.69   12.20
 -18   6   0   45.50   11.40
  -6 -12   0   43.50    9.60
 -12  18   0   51.79    9.80
  18  -6   0   44.20   11.30
 -12  18   0   59.49   10.90
 -18   9   0   60.39   11.50
   9 -18   0   73.09   11.30
   9 -18   0   77.59   12.20
  -9  18   0   52.49    9.30
  18  -9   0   73.69   12.90
  -9  -9   0   68.09   13.60
  18  -9   0   58.29   11.80
  -9  -9   0   48.30    9.00
   6 -18   0  117.99   15.30
 -18  12   0   87.99   12.40
   6 -18   0  103.89   14.50
 -12  -6   0   69.59   13.00
  18 -12   0   94.69   14.00
  -6  18   0   87.19   12.40
 -12  -6   0   98.79   12.50
  -6  18   0  101.99   12.90
  18 -12   0   92.29   13.70
   3 -18   0  605.74   28.30
   3 -18   0  542.55   24.90
  15   3   0  547.05   27.60
 -18  15   0  573.94   25.20
  18 -15   0  622.54   28.50
  18 -15   0  524.15   26.00
 -15  -3   0  601.34   28.60
  -3  18   0  600.54   24.30
  -3  18   0  594.94   26.60
   0 -18   0  389.56   23.70
 -18  18   0  391.76   22.80
 -18  18   0  390.46   23.00
  18   0   0  374.26   26.40
   0  18   0  438.36   25.70
 -18   0   0  422.06   26.90
   0  18   0  498.65   24.20
  18 -18   0  478.25   27.90
  18 -18   0  448.66   25.30
 -19   2   0   -9.40   10.40
   2  17   0   16.40    9.40
  17 -19   0   12.20   12.20
  17 -19   0   14.20    9.50
   2  17   0    5.40   10.50
  19  -2   0    1.50    9.90
  -2 -17   0   -1.50   15.80
 -17  19   0    7.20   10.10
 -17  19   0   -9.30    8.20
  14 -19   0  110.29   15.40
 -19   5   0  131.69   17.10
   5  14   0  154.48   18.60
  14 -19   0  138.29   16.00
  19  -5   0  135.39   18.10
  -5 -14   0   92.49   12.50
 -14  19   0  116.59   15.60
 -14  19   0  123.39   15.30
 -19   8   0  740.33   29.30
  11 -19   0  784.32   31.00
  11 -19   0  739.73   28.20
  -8 -11   0  673.13   26.10
 -11  19   0  686.83   25.60
  -8 -11   0  765.92   32.50
  19  -8   0  701.43   29.50
 -11  19   0  688.23   27.60
   8 -19   0  854.01   29.90
   8 -19   0  838.62   32.00
 -19  11   0  853.61   30.60
  19 -11   0  878.21   32.40
 -11  -8   0  892.61   29.40
 -11  -8   0  899.21   34.70
  19 -11   0  928.51   34.00
  -8  19   0  868.21   28.40
  -8  19   0  858.51   30.60
   5 -19   0  195.38   18.10
   5 -19   0  186.78   21.50
 -19  14   0  213.28   19.00
 -14  -5   0  205.48   22.10
 -14  -5   0  195.38   17.40
  -5  19   0  183.78   18.00
  -5  19   0  255.17   18.40
  19 -14   0  198.08   19.40
  19 -14   0  202.68   20.70
  17   2   0   20.90   14.00
   2 -19   0   13.80   10.60
 -19  17   0   16.50   10.30
  19 -17   0   30.10   12.80
  -2  19   0   11.10   10.10
  19 -17   0    9.50    9.70
 -17  -2   0   17.10   11.60
  -2  19   0   41.50   10.60
   1  19   0  302.47   24.80
  19 -20   0  341.27   24.00
  19 -20   0  300.17   27.60
 -20   1   0  300.97   27.40
   1  19   0  314.27   22.90
 -19  20   0  334.17   23.30
  -1 -19   0  365.66   24.20
  20  -1   0  335.07   26.50
 -19  20   0  349.47   23.60
   4  16   0  734.53   32.10
 -20   4   0  806.92   33.50
  16 -20   0  735.23   30.70
  16 -20   0  804.12   34.40
 -16  20   0  778.42   28.90
  20  -4   0  723.73   42.20
  -4 -16   0  677.83   35.50
 -16  20   0  782.82   30.70
   7  13   0 1283.07   41.00
  13 -20   0 1323.77   39.20
  13 -20   0 1297.57   41.00
 -20   7   0 1289.67   39.60
  -7 -13   0 1268.87   37.20
  20  -7   0 1302.17   41.00
 -13  20   0 1284.87   38.30
 -13  20   0 1315.57   35.90
  -7 -13   0 1267.57   42.70
  10 -20   0  328.87   24.30
 -20  10   0  302.97   22.10
  10 -20   0  298.07   20.90
 -10  20   0  304.67   19.30
 -10 -10   0  273.77   18.60
  20 -10   0  301.17   23.40
  20 -10   0  279.27   21.60
 -10  20   0  294.87   20.70
 -10 -10   0  337.07   25.80
   7 -20   0 1326.07   41.10
 -20  13   0 1307.77   38.60
   7 -20   0 1318.27   38.70
  -7  20   0 1333.07   36.50
  -7  20   0 1292.07   38.80
 -13  -7   0 1329.87   37.20
 -13  -7   0 1283.97   42.60
  20 -13   0 1336.57   42.30
  20 -13   0 1328.47   41.00
  16   4   0  512.25   36.10
   4 -20   0  605.74   31.00
   4 -20   0  515.85   37.30
 -20  16   0  630.14   28.00
 -16  -4   0  628.34   32.00
  -4  20   0  670.43   29.80
  20 -16   0  641.04   30.00
  -4  20   0  651.63   26.90
  20 -16   0  663.13   32.10
 -16  -4   0  533.65   29.70
   1 -20   0  115.19   16.00
 -20  19   0  122.49   16.70
  19   1   0  107.59   16.30
  -1  20   0  121.69   16.00
  20 -19   0  122.49   16.80
  20 -19   0  109.59   17.90
  -1  20   0  132.59   17.60
 -19  -1   0  129.09   19.50
   3  18   0  437.16   28.00
  18 -21   0  436.86   26.50
 -21   3   0  438.86   30.20
  18 -21   0  454.85   31.20
 -18  21   0  383.36   24.00
  21  -3   0  363.76   27.00
 -18  21   0  362.16   24.50
  -3 -18   0  360.76   24.30
   6  15   0  796.32   34.20
  15 -21   0  753.02   34.40
  15 -21   0  693.63   33.20
 -21   6   0  775.42   33.00
 -15  21   0  748.93   30.90
  -6 -15   0  738.53   30.20
 -15  21   0  695.13   27.90
  21  -6   0  623.44   37.60
  12 -21   0   56.39   12.30
 -21   9   0   54.39   13.50
  12 -21   0   44.00   13.90
  21  -9   0   64.69   14.00
  21  -9   0   63.79   13.20
 -12  21   0   60.29   11.80
  -9 -12   0   64.29   15.10
 -12  21   0   65.19   12.80
   9 -21   0  336.77   26.50
 -21  12   0  334.77   23.90
   9 -21   0  339.67   22.80
  -9  21   0  281.97   21.60
 -12  -9   0  274.97   25.70
  21 -12   0  273.97   24.30
  21 -12   0  276.37   22.80
  -9  21   0  293.17   20.10
   6 -21   0  974.20   37.80
 -21  15   0  938.31   33.90
   6 -21   0  924.31   40.30
  -6  21   0  973.30   32.50
  21 -15   0 1019.20   38.80
 -15  -6   0 1015.80   33.60
  -6  21   0 1005.90   35.90
 -15  -6   0  964.00   39.00
  21 -15   0  970.30   38.60
  18   3   0  543.45   31.00
   3 -21   0  588.14   29.00
 -21  18   0  626.34   29.20
 -18  -3   0  626.94   33.80
  21 -18   0  608.54   31.00
  21 -18   0  618.14   33.60
  -3  21   0  633.74   28.10
  -3  21   0  570.44   29.30
 -18  -3   0  623.24   27.50
 -21  21   0 1300.97   41.30
  21   0   0 1333.57   47.20
   0 -21   0 1332.37   43.50
  21 -21   0 1249.68   46.80
  21 -21   0 1290.97   44.60
   0  21   0 1265.37   43.90
   0  21   0 1315.47   41.30
 -21   0   0 1293.97   47.10
  20 -22   0   85.69   19.40
   2  20   0   77.29   18.70
 -22   2   0   85.39   23.50
  20 -22   0  117.19   18.50
 -20  22   0  114.49   17.50
  -2 -20   0   89.19   16.00
 -20  22   0  136.79   30.00
  22  -2   0   99.39   17.00
  17 -22   0  347.07   29.20
  17 -22   0  352.86   25.20
 -22   5   0  342.67   28.10
   5  17   0  343.67   26.70
 -17  22   0  329.67   23.40
  22  -5   0  377.06   27.70
 -17  22   0  364.86   24.60
  -5 -17   0  399.36   26.00
  14 -22   0  463.55   30.10
  14 -22   0  489.25   27.60
   8  14   0  511.55   29.40
 -22   8   0  528.55   29.20
 -14  22   0  542.05   27.60
 -14  22   0  542.95   26.20
  -8 -14   0  548.25   27.10
  22  -8   0  556.44   29.90
 -22  11   0   50.59   13.60
  11 -22   0   43.80   14.60
  11 -22   0   38.90   12.50
  22 -11   0   73.79   17.00
  22 -11   0   48.30   13.50
 -11 -11   0   75.59   16.80
 -11 -11   0   52.59   11.90
 -11  22   0   73.19   13.50
 -11  22   0   64.99   12.50
   8 -22   0  375.76   28.80
 -22  14   0  433.36   26.40
   8 -22   0  447.36   26.60
  22 -14   0  394.76   28.30
 -14  -8   0  362.06   22.40
 -14  -8   0  376.76   29.20
  22 -14   0  362.96   26.10
  -8  22   0  377.86   23.60
  -8  22   0  368.46   24.20
   5 -22   0  279.67   23.50
   5 -22   0  258.87   27.40
 -22  17   0  209.38   23.00
  22 -17   0  218.38   25.70
  -5  22   0  220.28   21.40
 -17  -5   0  208.98   20.00
  22 -17   0  209.68   23.40
  -5  22   0  200.28   21.50
   2 -22   0  139.39   17.60
 -22  20   0  135.79   18.90
  20   2   0  119.79   18.90
  -2  22   0  137.29   18.80
  22 -20   0  106.39   17.70
 -20  -2   0  127.09   21.30
  22 -20   0  114.89   21.00
 -20  -2   0  110.29   14.80
  -2  22   0  127.09   18.40
  22 -23   0  664.73   41.10
  22 -23   0  651.63   35.20
   1  22   0  664.93   35.10
 -23   1   0  569.54   37.70
 -22  23   0  614.14   32.60
  23  -1   0  566.14   35.40
   4  19   0 1033.70   43.10
  19 -23   0 1040.70   44.50
  19 -23   0 1042.30   40.00
 -23   4   0  928.71   49.99
  23  -4   0 1084.59   43.00
 -19  23   0 1063.19   37.30
 -19  23   0 1043.30   45.50
 -23   7   0 1522.35   47.20
  16 -23   0 1551.44   49.40
  16 -23   0 1462.35   45.50
   7  16   0 1209.28   60.39
 -16  23   0 1671.63   44.10
  -7 -16   0 1362.16   43.30
 -16  23   0 1681.63   47.20
  -7 -16   0 1633.14   53.09
  23  -7   0 1613.04   50.59
 -23  10   0  927.41   37.70
  13 -23   0  921.61   39.00
  10  13   0  883.11   39.50
  13 -23   0  915.11   35.60
  23 -10   0  808.62   39.00
 -13  23   0  768.12   32.40
  23 -10   0  859.11   36.60
 -10 -13   0  774.92   31.60
 -13  23   0  845.32   31.70
 -10 -13   0  757.72   39.10
  10 -23   0  659.53   31.50
 -23  13   0  666.43   32.00
  10 -23   0  677.03   35.30
 -10  23   0  709.13   29.50
  23 -13   0  709.43   34.10
  23 -13   0  664.03   51.69
 -10  23   0  720.43   31.90
 -13 -10   0  718.43   36.80
 -13 -10   0  697.33   29.50
   7 -23   0 1458.55   47.90
 -23  16   0 1435.26   43.80
   7 -23   0 1402.76   44.20
 -16  -7   0 1347.17   48.10
  -7  23   0 1345.97   39.90
 -16  -7   0 1308.67   40.00
  23 -16   0 1240.28   54.09
  -7  23   0 1320.67   42.50
  23 -16   0 1304.37   44.80
 -23  19   0 1010.40   38.40
   4 -23   0  952.50   38.10
 -19  -4   0  950.80   34.90
 -19  -4   0 1033.50   43.70
  -4  23   0  981.90   38.60
  23 -19   0 1053.69   41.60
  -4  23   0  863.31   42.10
   1 -23   0  256.67   25.70
  -1  23   0  445.56   30.40
  -1  23   0  418.56   28.10
  23 -22   0  422.66   36.00
 -22  -1   0  406.46   35.70
  23 -22   0  406.46   30.90
 -24   3   0 1033.50   44.80
   3  21   0 1024.80   42.60
  21 -24   0 1004.80   41.70
 -21  24   0  943.21   37.80
 -21  24   0 1010.80   39.10
  24  -3   0  969.30   43.60
  18 -24   0  384.76   33.10
  18 -24   0  396.56   28.00
 -24   6   0  384.96   31.30
   6  18   0  384.36   29.70
  24  -6   0  489.75   32.60
 -18  24   0  468.85   28.10
 -18  24   0  426.36   32.60
   9  15   0  415.56   30.30
  15 -24   0  469.95   33.10
 -24   9   0  392.56   30.50
  15 -24   0  445.66   28.80
  24  -9   0  368.56   31.80
  -9 -15   0  370.36   33.00
 -15  24   0  363.86   26.10
  24  -9   0  385.06   28.80
 -15  24   0  378.96   24.90
  12 -24   0  267.17   24.70
  12 -24   0  278.27   28.60
 -24  12   0  278.37   27.20
 -12  24   0  275.87   23.00
 -12 -12   0  298.77   29.80
  24 -12   0  311.17   26.80
 -12 -12   0  280.77   22.60
 -12  24   0  295.77   24.40
  24 -12   0  309.77   29.80
 -24  15   0  269.27   25.90
   9 -24   0  245.48   24.60
   9 -24   0  248.08   29.10
  24 -15   0  328.67   27.50
  -9  24   0  329.87   25.20
  -9  24   0  358.86   25.20
 -15  -9   0  315.07   31.00
  24 -15   0  261.27   28.50
 -15  -9   0  297.37   23.00
   6 -24   0  556.24   35.70
   6 -24   0  527.15   30.50
 -24  18   0  530.75   31.60
  -6  24   0  456.15   28.40
  24 -18   0  446.96   30.40
 -18  -6   0  437.46   33.80
 -18  -6   0  427.06   26.20
  -6  24   0  450.75   29.20
  24 -18   0  441.16   34.60
   3 -24   0  743.93   36.30
 -24  21   0  777.82   35.70
  -3  24   0  809.32   35.40
  24 -21   0  804.32   42.10
  -3  24   0  785.52   37.40
 -21  -3   0  880.01   43.10
  24 -21   0  877.81   40.50
 -21  -3   0  770.72   34.00
 -24  24   0  639.34   35.50
  24 -24   0  572.74   41.90
   0  24   0  582.44   36.20
  24 -24   0  612.34   37.00
 -24   0   0  626.04   41.00
   2  23   0  148.99   22.10
 -25   2   0  169.98   26.20
  23 -25   0  159.38   25.60
  23 -25   0  143.19   21.10
 -23  25   0  213.58   27.40
  25  -2   0  174.98   24.90
 -25   5   0  191.18   24.20
   5  20   0  194.18   23.20
  20 -25   0  202.48   23.50
  25  -5   0  225.78   28.40
 -20  25   0  236.38   24.00
 -20  25   0  242.18   30.50
  17 -25   0  163.98   24.60
  17 -25   0  151.98   21.30
 -25   8   0  134.69   22.10
   8  17   0  151.48   21.50
  25  -8   0  220.08   26.80
  -8 -17   0  171.38   23.60
 -17  25   0  186.58   24.20
  14 -25   0  322.27   31.70
  14 -25   0  332.47   26.80
  11  14   0  374.96   30.00
 -25  11   0  298.97   29.20
  25 -11   0  332.07   29.00
  25 -11   0  326.27   31.70
 -11 -14   0  379.66   33.70
 -14  25   0  361.86   25.50
 -14  25   0  318.47   25.60
  11 -25   0  231.88   30.80
  11 -25   0  315.47   27.00
 -25  14   0  283.47   27.70
 -11  25   0  316.77   25.70
  25 -14   0  251.77   29.90
 -11  25   0  306.97   26.00
  25 -14   0  293.57   27.80
 -14 -11   0  271.27   22.50
 -14 -11   0  284.77   31.80
   8 -25   0  188.78   24.80
 -25  17   0  184.48   22.30
   8 -25   0  257.27   26.20
  -8  25   0  172.78   19.40
 -17  -8   0  170.68   21.00
  25 -17   0  156.18   22.40
 -17  -8   0  154.78   22.60
  25 -17   0  139.19   19.90
  -8  25   0  180.98   24.00
   5 -25   0  121.49   18.40
 -25  20   0   94.29   22.30
 -20  -5   0   69.49   20.60
  -5  25   0   89.69   16.10
  25 -20   0   73.69   18.10
  -5  25   0   96.99   18.40
  25 -20   0  112.59   23.20
 -25  23   0   70.49   18.40
   2 -25   0   71.99   18.20
 -23  -2   0   50.49   21.10
  -2  25   0   46.30   15.80
  25 -23   0   56.39   17.90
  -2  25   0   70.19   17.60
  25 -23   0   75.39   22.70
 -26   1   0  202.58   30.80
  25 -26   0  220.38   29.60
   1  25   0  157.68   24.90
  25 -26   0  195.08   27.60
 -25  26   0  237.88   30.60
  26  -1   0  184.38   26.90
  -1 -25   0  223.18   26.70
   4  22   0  598.64   36.70
 -26   4   0  597.14   41.00
  22 -26   0  537.65   35.40
  22 -26   0  593.84   41.80
  26  -4   0  587.74   38.30
 -22  26   0  549.15   33.30
 -22  26   0  631.84   34.20
  19 -26   0  794.82   38.70
 -26   7   0  844.52   42.40
   7  19   0  925.51   42.20
  -7 -19   0  938.41   47.10
  26  -7   0  920.71   43.60
 -19  26   0 1001.70   39.90
 -19  26   0  865.41   41.80
  16 -26   0 1284.97   49.20
  16 -26   0 1222.08   45.20
  10  16   0 1155.88   47.10
 -26  10   0 1277.97   47.80
  26 -10   0 1318.47   51.59
  26 -10   0 1167.88   47.10
 -10 -16   0 1213.78   51.49
 -16  26   0 1182.28   45.60
  13 -26   0  971.90   40.80
  13 -26   0 1052.09   45.20
 -26  13   0  902.41   49.90
 -13 -13   0 1118.99   48.30
  26 -13   0 1025.70   43.80
 -13  26   0  875.91   43.30
  26 -13   0 1065.19   47.30
 -13  26   0  939.71   61.59
  10 -26   0  937.01   40.40
  10 -26   0  979.10   45.10
  26 -16   0  929.01   44.70
 -16 -10   0  977.50   45.70
 -10  26   0 1009.90   38.30
  26 -16   0 1017.10   43.40
   7 -26   0  599.34   34.50
 -26  19   0  552.64   41.70
   7 -26   0  597.14   39.50
  26 -19   0  593.04   41.00
  26 -19   0  529.65   35.30
  -7  26   0  617.44   34.30
  -7  26   0  638.24   33.40
 -19  -7   0  595.64   39.80
 -26  22   0  351.16   31.70
   4 -26   0  380.66   32.10
  -4  26   0  329.77   29.20
  26 -22   0  302.97   32.00
  -4  26   0  317.17   29.90
  26 -22   0  377.36   38.30
 -22  -4   0  318.37   36.50
  25   1   0  183.28   27.50
 -26  25   0  150.78   23.30
   1 -26   0  156.68   23.80
  26 -25   0  130.79   26.50
  -1  26   0  148.09   23.00
  26 -25   0  115.99   23.00
 -25  -1   0  126.39   19.50
 -25  -1   0  130.79   26.80
 -27   3   0  408.46   43.30
  24 -27   0  438.16   36.30
  24 -27   0  521.65   43.90
  27  -3   0  487.75   41.10
 -24  27   0  528.55   35.30
 -27   6   0  293.37   36.90
  21 -27   0  244.88   29.60
  21 -27   0  215.58   29.50
   6  21   0  255.37   30.70
 -21  27   0  208.68   28.10
  27  -6   0  241.08   29.10
 -21  27   0  192.88   25.60
  18 -27   0  481.85   40.30
 -27   9   0  424.46   37.80
  18 -27   0  497.05   33.80
   9  18   0  468.05   34.60
  27  -9   0  471.25   36.20
  -9 -18   0  528.55   42.20
 -18  27   0  516.95   31.50
  27  -9   0  495.45   39.10
 -18  27   0  531.65   33.00
  15 -27   0  135.79   24.00
  15 -27   0  113.69   19.10
  12  15   0  115.19   21.90
 -27  12   0   96.09   21.20
 -15  27   0  115.09   18.70
  27 -12   0  132.69   24.10
 -12 -15   0   86.79   23.50
 -15  27   0  160.48   20.50
  27 -12   0   90.59   18.90
  12 -27   0   79.99   21.40
 -27  15   0   70.29   18.50
  12 -27   0   78.59   17.20
  27 -15   0   68.49   18.90
  27 -15   0  101.39   21.60
 -12  27   0  101.69   18.10
 -12  27   0   81.09   17.80
 -15 -12   0   97.59   22.80
 -27  18   0  483.25   34.70
   9 -27   0  473.45   57.29
   9 -27   0  428.96   33.00
  -9  27   0  508.55   33.00
  27 -18   0  447.26   34.50
  27 -18   0  516.55   39.60
  -9  27   0  507.45   32.30
 -18  -9   0  439.76   38.60
   6 -27   0  197.68   25.80
 -27  21   0  204.28   24.10
  27 -21   0  178.38   28.00
 -21  -6   0  207.08   29.00
  -6  27   0  212.18   23.70
  27 -21   0  212.98   26.20
  -6  27   0  176.58   23.10
   3 -27   0  698.63   40.60
 -27  24   0  626.24   37.50
 -24  -3   0  592.44   33.80
  -3  27   0  521.75   36.30
  -3  27   0  605.24   37.30
 -24  -3   0  559.14   45.30
  27 -24   0  561.74   40.70
  27 -24   0  551.74   46.00
   0 -27   0  355.46   36.60
 -27  27   0  447.66   36.20
  27   0   0  253.57   31.40
  27 -27   0  292.07   33.00
 -27   0   0  310.77   31.60
  27 -27   0  343.77   43.90
 -27   0   0  353.86   47.30
 -28   2   0   94.09   19.00
  26 -28   0  104.19   28.70
  26 -28   0   91.89   23.50
 -28   2   0   77.29   26.60
 -26  28   0   97.99   22.00
  28  -2   0  111.09   24.30
  -2 -26   0   71.59   22.60
 -28   5   0  109.99   25.50
  23 -28   0  114.79   26.50
  23 -28   0  104.79   21.30
 -23  28   0   49.99   18.40
  28  -5   0   33.70   20.60
 -23  28   0   68.79   17.50
  20 -28   0  306.47   38.10
 -28   8   0  279.67   36.10
  20 -28   0  321.57   31.90
 -20  28   0  260.87   28.20
 -20  28   0  313.97   30.10
  28  -8   0  326.27   38.20
  28  -8   0  293.67   34.40
  -8 -20   0  269.67   32.50
  17 -28   0  405.36   37.00
 -28  11   0  339.67   35.90
  17 -28   0  384.06   33.20
  28 -11   0  443.46   40.40
  28 -11   0  293.77   33.40
 -11 -17   0  402.56   40.90
 -17  28   0  374.86   31.30
 -17  28   0  342.17   29.10
 -28  14   0  529.45   37.60
  14 -28   0  500.75   46.70
  14 -28   0  551.54   35.50
 -14  28   0  534.45   32.60
  28 -14   0  548.25   37.30
 -14  28   0  504.45   33.70
  28 -14   0  528.15   41.60
 -14 -14   0  540.45   42.90
  11 -28   0  386.06   33.10
  11 -28   0  399.26   38.60
 -28  17   0  418.06   35.10
  28 -17   0  428.36   37.70
 -11  28   0  400.96   31.00
 -17 -11   0  359.76   39.20
 -11  28   0  316.37   30.70
  28 -17   0  372.86   35.30
   8 -28   0  293.67   31.40
 -28  20   0  242.68   31.80
   8 -28   0  287.47   37.40
 -20  -8   0  278.57   26.50
  -8  28   0  264.87   30.00
 -20  -8   0  294.27   38.20
  -8  28   0  301.97   29.20
  28 -20   0  262.07   32.10
  28 -20   0  309.77   39.50
   5 -28   0   57.59   19.20
 -28  23   0   54.29   20.40
  -5  28   0   94.59   19.90
 -23  -5   0  105.99   25.90
  28 -23   0   94.29   27.10
 -23  -5   0   92.09   18.40
  28 -23   0  117.29   24.80
  -5  28   0   68.29   20.30
   2 -28   0   82.29   21.80
 -28  26   0   88.09   22.10
  28 -26   0   64.39   22.80
 -26  -2   0  138.49   31.20
 -26  -2   0   50.69   17.50
  -2  28   0    4.90   18.50
  28 -26   0  108.59   28.00
   1  28   0   37.00   24.10
 -29   1   0   23.40   18.70
 -29   1   0   26.40   28.70
  28 -29   0   18.10   21.80
  28 -29   0   42.00   27.70
  -1 -28   0   28.70   23.60
 -28  29   0   63.09   22.30
  29  -1   0    5.60   23.40
  25 -29   0   94.59   25.00
  25 -29   0  124.99   27.70
 -29   4   0   49.60   25.90
  29  -4   0   84.39   26.60
 -25  29   0   84.19   21.10
  -4 -25   0  115.09   23.80
 -29   7   0  446.66   41.40
  22 -29   0  310.37   40.40
  22 -29   0  316.57   35.70
  -7 -22   0  461.55   46.70
  -7 -22   0  292.67   34.90
  29  -7   0  340.87   37.70
 -22  29   0  368.06   33.00
  19 -29   0 1227.78   50.79
 -29  10   0 1307.97   53.39
  19 -29   0 1317.77   55.09
 -19  29   0 1275.57   46.10
  29 -10   0 1345.47   55.59
 -10 -19   0 1342.37   60.29
  29 -10   0 1241.68   57.59
 -19  29   0 1233.58   47.60
  16 -29   0  886.01   43.80
  16 -29   0  878.81   47.80
 -29  13   0  911.11   46.20
  29 -13   0  977.30   51.39
 -16  29   0  928.61   41.40
 -13 -16   0  846.12   50.69
 -16  29   0  886.01   39.60
  29 -13   0  854.21   45.40
  13 -29   0  677.93   39.20
 -29  16   0  674.23   41.30
  13 -29   0  697.83   45.10
 -13  29   0  667.83   37.60
  29 -16   0  671.43   45.30
 -16 -13   0  705.53   46.40
 -13  29   0  702.23   37.00
 -16 -13   0  662.93   35.10
  29 -16   0  676.93   42.90
  10 -29   0 1114.89   51.99
  10 -29   0 1111.09   48.70
 -29  19   0 1092.59   48.00
  29 -19   0 1140.99   55.09
  29 -19   0  998.00   48.40
 -19 -10   0 1098.29   42.70
 -19 -10   0 1106.99   53.89
 -10  29   0 1069.69   42.80
 -10  29   0 1109.09   46.40
 -29  22   0  262.27   34.50
   7 -29   0  306.47   34.50
  -7  29   0  236.08   31.20
  29 -22   0  214.18   32.30
  29 -22   0  235.98   30.90
 -22  -7   0  227.88   28.00
  -7  29   0  279.17   32.90
 -22  -7   0  254.67   33.90
 -29  25   0   85.29   22.00
   4 -29   0   63.19   21.40
  29 -25   0   50.79   22.30
  -4  29   0   33.00   18.80
  -4  29   0   -6.60   18.80
 -25  -4   0   44.30   29.70
 -25  -4   0   74.99   18.90
  29 -25   0  102.39   29.10
   1 -29   0   45.90   24.00
 -29  28   0   65.59   22.50
  28   1   0   12.30   24.40
  -1  29   0   49.99   25.00
  29 -28   0   89.19   30.20
 -28  -1   0    7.20   17.80
 -28  -1   0   -5.60   29.40
  29 -28   0   90.29   24.60
 -30   3   0  114.19   21.90
  27 -30   0  104.39   23.90
 -30   3   0  150.88   33.50
  27 -30   0  108.89   32.20
   3  27   0  174.88   28.70
  30  -3   0  116.59   27.60
 -27  30   0   91.09   23.80
  -3 -27   0  124.79   42.50
 -30   6   0  217.38   32.10
  24 -30   0  266.47   34.90
  24 -30   0  341.67   38.90
   6  24   0  247.38   30.50
 -24  30   0  243.38   27.10
  -6 -24   0  214.78   36.90
  -6 -24   0  183.18   26.40
  30  -6   0  209.48   28.40
  21 -30   0  262.77   35.50
   9  21   0  381.76   58.09
 -30   9   0  271.97   33.40
  21 -30   0  269.27   32.30
  30  -9   0  385.46   44.60
  -9 -21   0  387.66   47.80
  30  -9   0  319.47   38.10
  -9 -21   0  414.76   35.80
 -21  30   0  266.57   31.90
  18 -30   0  136.39   27.40
  18 -30   0  174.18   25.00
 -30  12   0  166.78   27.90
  12  18   0  166.08   31.20
 -12 -18   0  162.28   30.90
 -18  30   0  151.18   23.00
 -18  30   0  160.38   22.40
 -12 -18   0  226.28   30.40
  30 -12   0  135.49   24.60
  30 -12   0  186.38   30.50
  15  15   0   97.09   24.50
 -30  15   0  118.09   24.00
  15 -30   0   70.69   24.80
  15 -30   0  134.09   23.40
 -15  30   0  128.59   21.60
 -15 -15   0  152.68   29.50
  30 -15   0  156.18   27.50
 -15 -15   0  138.49   21.40
  30 -15   0   85.19   22.30
  12 -30   0  103.29   21.80
 -30  18   0  120.29   24.00
  12 -30   0  138.09   27.40
 -18 -12   0  108.99   18.30
  30 -18   0  104.59   25.70
 -18 -12   0  154.48   31.40
  30 -18   0  126.39   25.00
 -12  30   0   58.69   19.20
 -12  30   0  114.29   21.40
   9 -30   0  202.88   27.10
 -30  21   0  247.78   29.10
 -21  -9   0  258.67   29.40
  30 -21   0  296.27   37.10
  -9  30   0  315.97   32.80
 -21  -9   0  330.17   43.40
  -9  30   0  212.68   26.80
  30 -21   0  281.57   36.90
 -30  24   0  162.28   26.00
   6 -30   0  159.88   24.90
  30 -24   0  237.48   32.30
  30 -24   0  194.78   33.20
  -6  30   0  171.58   24.90
 -24  -6   0  186.48   24.00
 -24  -6   0  251.77   35.00
 -30  27   0  107.79   25.20
   3 -30   0  123.09   34.00
 -27  -3   0  100.99   21.20
  -3  30   0   42.00   40.30
 -27  -3   0  128.29   33.60
  30 -27   0   77.29   24.90
  30 -27   0  125.89   31.90
 -31   5   0   82.89   32.30
   5  26   0  154.38   30.30
  26 -31   0   69.79   32.10
  26 -31   0   86.29   21.30
 -26  31   0  112.79   24.10
   8  23   0  128.59   26.00
 -31   8   0   80.59   27.90
  23 -31   0   97.89   30.00
  23 -31   0   83.29   23.80
 -23  31   0   57.29   20.60
  -8 -23   0   81.29   30.40
  31  -8   0   49.90   23.80
  31  -8   0   52.89   28.60
  -8 -23   0   54.09   21.50
  20 -31   0  268.77   31.30
  20 -31   0  350.26   46.30
 -31  11   0  260.17   34.00
  11  20   0  366.46   39.20
 -11 -20   0  262.77   35.00
  31 -11   0  330.67   40.70
 -11 -20   0  377.76   49.70
 -20  31   0  261.77   32.80
  31 -11   0  270.07   33.90
  17 -31   0  317.47   35.70
  14  17   0  334.47   38.30
 -31  14   0  348.37   40.30
  17 -31   0  273.57   30.40
 -17  31   0  405.16   35.10
 -14 -17   0  388.26   35.70
  31 -14   0  316.27   43.50
 -14 -17   0  379.36   47.70
  31 -14   0  351.26   39.30
 -17  31   0  359.76   34.50
  14 -31   0  288.17   37.10
  14 -31   0  369.86   45.50
 -31  17   0  406.56   40.60
  17  14   0  392.26   41.70
  31 -17   0  403.76   41.90
 -14  31   0  412.56   35.80
 -17 -14   0  358.06   46.30
 -17 -14   0  339.17   32.40
  31 -17   0  316.97   37.30
 -14  31   0  338.77   33.50
  11 -31   0  194.28   28.70
 -31  20   0  201.88   28.30
  11 -31   0  222.28   32.60
 -20 -11   0  166.68   23.00
  31 -20   0  296.77   38.60
 -11  31   0  136.59   23.40
  31 -20   0  219.28   30.50
 -11  31   0  217.48   26.00
 -20 -11   0  236.38   33.50
   8 -31   0   39.00   22.40
 -31  23   0   62.39   23.00
 -23  -8   0   33.30   18.00
  31 -23   0    4.20   21.50
  -8  31   0   48.00   20.70
  31 -23   0   52.59   29.70
  -8  31   0   24.70   20.70
 -23  -8   0   24.70   29.00
 -31  26   0   73.59   24.30
 -26  -5   0   75.39   18.50
  -5  31   0   95.89   25.40
  31 -26   0   53.09   22.30
 -26  -5   0   48.10   33.30
  31 -26   0  114.49   32.30
 -32   7   0  206.88   34.90
  25 -32   0  191.08   32.60
  32  -7   0  116.39   31.90
  -7 -25   0   88.49   28.80
  22 -32   0  498.65   51.39
  10  22   0  473.25   46.40
  22 -32   0  349.57   42.20
 -32  10   0  365.66   49.10
 -10 -22   0  483.35   37.30
 -22  32   0  414.76   36.90
  32 -10   0  369.56   51.29
 -10 -22   0  343.77   42.50
  32 -10   0  431.36   41.20
 -32  13   0  818.92   50.89
  19 -32   0  653.33   45.60
  19 -32   0  792.32   54.89
  13  19   0  736.23   50.79
  32 -13   0  732.13   56.39
 -13 -19   0  634.54   42.40
 -13 -19   0  647.44   55.09
 -19  32   0  690.13   40.60
  32 -13   0  639.74   47.90
  16 -32   0 1075.49   57.79
  16 -32   0 1024.80   52.39
 -32  16   0  989.80   52.19
  16  16   0 1069.29   54.99
 -16 -16   0 1064.19   47.70
  32 -16   0 1135.79   55.59
 -16  32   0 1062.59   47.40
  32 -16   0 1019.90   59.49
 -16 -16   0  995.60   60.49
 -32  19   0  573.34   44.80
  13 -32   0  593.84   53.39
  13 -32   0  654.23   45.00
 -13  32   0  674.53   41.50
  32 -19   0  706.73   48.40
  32 -19   0  674.43   54.99
 -19 -13   0  519.55   37.70
 -19 -13   0  637.94   55.39
  10 -32   0  290.67   37.80
 -32  22   0  307.27   40.80
 -10  32   0  386.86   37.80
 -22 -10   0  299.47   38.40
 -22 -10   0  272.37   32.10
  32 -22   0  274.97   39.60
  32 -22   0  251.17   33.40
 -32  25   0   61.09   24.70
 -25  -7   0   39.40   34.20
  32 -25   0   98.29   28.30
  21 -33   0  152.88   35.30
  12  21   0  122.19   27.90
  21 -33   0   92.09   26.30
 -33  12   0  122.49   31.90
 -12 -21   0   78.29   34.90
 -21  33   0  140.49   25.30
 -21  33   0  159.48   38.50
  33 -12   0  168.88   34.90
  33 -12   0  153.38   38.60
  15  18   0   88.39   27.50
  18 -33   0   86.59   21.70
  18 -33   0   53.99   30.80
 -33  15   0  123.69   28.30
 -18  33   0  118.79   24.10
 -15 -18   0   64.59   30.90
  33 -15   0   39.80   22.80
  33 -15   0   37.70   27.60
 -15 -18   0   72.29   21.60
  15 -33   0  179.48   26.50
  15 -33   0  172.28   33.30
 -33  18   0  164.38   29.70
  18  15   0  147.69   30.00
  33 -18   0  132.49   25.70
  33 -18   0  146.89   34.60
 -18 -15   0   86.19   33.20
 -15  33   0  136.09   25.30
  12 -33   0  119.29   32.40
 -33  21   0  179.88   29.60
  12 -33   0   38.80   38.30
 -21 -12   0  194.48   38.20
 -21 -12   0  117.29   23.70
  33 -21   0  153.98   37.30
 -12  33   0  182.78   26.50
  33 -21   0   84.79   25.50
  -2  -1  -1 1499.25   23.10
   3  -2  -1 1496.75   19.50
  -1   3  -1 1480.35   23.00
  -1   3  -1 1483.15   25.10
   1  -3   1 1441.96   24.40
   2   1   1 1436.26   22.20
   1  -3   1 1433.36   22.30
  -2   2  -1   63.39    4.00
   2   0  -1   66.39    2.90
   2   0  -1   60.19    2.50
  -2   2  -1   66.89    4.50
  -2   0   1   60.79    2.30
   2  -2   1   48.10    4.10
   2  -2   1   60.99    3.80
  -2   5  -1 1135.99   21.10
   5  -3  -1 1144.79   19.00
  -2   5  -1 1105.89   23.10
  -3  -2  -1 1152.78   21.90
  -5   3   1 1069.19   17.20
   2  -5   1 1053.59   22.20
   2  -5   1 1063.19   20.40
   2  -3  -1  623.44   11.10
   1   2  -1  763.12   15.50
  -3   1  -1  728.83   14.20
   2  -3  -1  736.03   10.20
  -3   1  -1  705.43   14.10
   1   2  -1  711.33   12.70
   3  -1   1  732.23   14.30
  -1  -2   1  736.63   15.50
   3  -1   1  739.33   14.60
  -1  -2   1  731.83   13.00
  -3   4  -1  414.66   12.30
  -3   4  -1  421.06   11.30
   4  -1  -1  434.16    9.90
   3  -4   1  464.85   11.80
   3  -4   1  450.15   12.90
  -4   1   1  465.75    9.10
  -4   1   1  464.55    9.80
  -4  -3  -1 4390.96   63.79
  -3   7  -1 4353.96   65.19
  -3   7  -1 4423.86   62.59
   7  -4  -1 4317.07   60.49
  -7   4   1 4187.78   57.29
   3  -7   1 4183.88   63.19
   3  -7   1 4220.78   60.69
   0   4  -1  142.39    6.90
   4  -4  -1  147.79    5.70
   4  -4  -1  139.99    5.20
   0   4  -1  151.98    8.60
  -4   0  -1  156.18    8.00
  -4   4   1  139.39    4.60
   4   0   1  149.19    7.80
   0  -4   1  143.99    8.60
   0  -4   1  145.79    6.90
  -4   3  -1  333.27   10.40
   3   1  -1  342.07    8.60
   1  -4  -1  339.87    8.00
   3   1  -1  346.27    9.60
  -4   3  -1  346.87   10.90
   4  -3   1  295.37   10.30
  -3  -1   1  299.47    7.90
  -1   4   1  303.07    6.60
  -3  -1   1  305.87    8.90
   4  -3   1  319.57    9.90
  -4   6  -1  169.38    9.40
  -4   6  -1  177.38    8.90
   6  -2  -1  171.88    7.90
   4  -6   1  280.37   12.10
   4  -6   1  295.37   11.00
  -6   2   1  294.67    9.50
  -5  -4  -1 2655.73   46.30
  -4   9  -1 2619.74   44.10
  -4   9  -1 2647.14   47.20
   9  -5  -1 2712.23   43.80
   4  -9   1 2655.33   47.40
  -9   5   1 2709.73   42.30
   4  -9   1 2688.93   45.00
  -1   6  -1 7667.03  101.09
  -1   6  -1 7846.12  105.09
  -5  -1  -1 7808.72  103.49
   6  -5  -1 7879.61   99.09
   1  -6   1 7701.83  103.29
  -6   5   1 7523.35   95.49
   1  -6   1 7708.73  100.09
   5   1   1 7624.34  101.19
   2   3  -1  544.95   12.60
   3  -5  -1  541.25   10.60
  -5   2  -1  520.45   14.10
   3  -5  -1  530.55   10.80
   5  -2   1  470.85   13.40
  -3   5   1  487.05    9.60
   5  -2   1  508.05   13.60
  -2  -3   1  485.75   11.80
  -3   5   1  436.86   10.80
  -5   5  -1  212.18    9.60
   5   0  -1  222.58    9.00
   0  -5  -1  206.78    7.80
  -5   5  -1  209.68   10.10
   5  -5   1  208.58    9.50
   0   5   1  218.18    7.60
   5  -5   1  210.48   10.50
  -5   0   1  218.18    8.80
  -5   0   1  201.78    7.60
  -5   8  -1 2665.73   43.30
   8  -3  -1 2657.83   42.50
  -5   8  -1 2578.74   45.20
  -8   3   1 2579.34   40.30
   5  -8   1 2585.64   42.70
   5  -8   1 2507.35   44.50
  11  -6  -1 2402.26   43.40
  -5  11  -1 2371.86   46.20
  -6  -5  -1 2416.66   46.30
  -5  11  -1 2417.86   43.20
   5 -11   1 2695.83   47.90
   5 -11   1 2684.83   50.19
 -11   6   1 2733.63   45.30
  -6  -2  -1 3545.55   56.09
  -2   8  -1 3523.65   56.89
   8  -6  -1 3597.14   52.59
  -2   8  -1 3478.85   53.39
   6   2   1 3795.82   59.09
  -8   6   1 3800.42   53.89
   2  -8   1 3830.82   57.79
   2  -8   1 3916.71   60.99
  -6   1  -1 8945.00  117.29
   1   5  -1 8896.01  118.59
   5  -6  -1 8932.51  111.89
   1   5  -1 9065.89  114.69
   5  -6  -1 8980.40  112.19
  -5   6   1 8774.32  110.89
  -1  -5   1 9140.29  118.09
  -5   6   1 8839.02  109.79
   6  -1   1 8889.91  116.39
  -1  -5   1 8889.81  113.99
  -6   4  -1  222.88   10.10
   2  -6  -1  230.18    8.00
   2  -6  -1  220.08    7.50
   4   2  -1  216.08    8.80
   4   2  -1  233.88   12.00
   6  -4   1  331.27   12.50
  -2   6   1  350.76    9.50
   6  -4   1  371.96   12.40
  -2   6   1  355.46    9.10
  -4  -2   1  342.47   11.70
  -4  -2   1  361.26   12.40
  -6   7  -1 1230.68   25.40
   7  -1  -1 1204.88   24.50
  -6   7  -1 1207.18   26.50
  -1  -6  -1 1231.38   23.30
  -7   1   1 1384.96   26.10
   6  -7   1 1358.96   27.50
   6  -7   1 1373.06   29.00
  -6  10  -1   74.49    9.10
  -6  10  -1   72.69    9.20
  -4  -6  -1   73.09    8.00
  10  -4  -1   71.99    8.40
   6 -10   1   78.69   10.80
 -10   4   1   84.59    8.60
   6 -10   1   81.09    9.00
  13  -7  -1  360.56   17.20
  -7  -6  -1  359.66   20.10
  -6  13  -1  355.36   17.10
  -6  13  -1  367.76   18.70
   6 -13   1  324.47   16.80
 -13   7   1  331.67   15.80
   6 -13   1  348.77   19.20
  10  -7  -1 1185.88   26.70
  -7  -3  -1 1185.88   29.20
  -3  10  -1 1236.68   27.00
  -3  10  -1 1189.68   29.30
  10  -7  -1 1214.98   26.40
   3 -10   1 1206.18   27.40
 -10   7   1 1233.18   25.00
   3 -10   1 1254.27   30.30
   7   3   1 1204.88   28.80
  -7   0  -1  168.28   10.70
   0   7  -1  164.18    9.30
   7  -7  -1  173.68   12.80
   7  -7  -1  158.98    8.50
   0   7  -1  165.08   10.80
   0  -7   1  164.38    9.20
  -7   7   1  166.08    7.70
   7   0   1  166.18   10.40
   0  -7   1  177.28   11.40
  -7   3  -1 3669.13   55.49
   3   4  -1 3641.14   52.49
   4  -7  -1 3613.84   50.59
   4  -7  -1 3687.13   50.49
  -3  -4   1 3534.05   51.19
  -4   7   1 3471.95   48.00
   7  -3   1 3547.65   54.29
   7  -3   1 3543.15   54.09
  -4   7   1 3523.85   48.60
  -7   6  -1  485.25   15.50
  -7   6  -1  500.05   16.00
   6   1  -1  503.15   15.10
   1  -7  -1  489.35   13.20
  -6  -1   1  536.35   13.80
  -6  -1   1  534.85   15.30
   7  -6   1  565.04   16.50
  -1   7   1  541.05   13.50
   7  -6   1  526.15   17.00
  -1   7   1  551.04   13.70
  -7   9  -1 1396.96   31.00
  -7   9  -1 1380.46   29.30
  -2  -7  -1 1419.66   27.70
   9  -2  -1 1383.66   29.10
   7  -9   1 1381.06   29.60
  -9   2   1 1423.06   28.50
   7  -9   1 1349.47   31.10
  -7  12  -1  841.82   24.30
  -7  12  -1  841.72   25.80
  -5  -7  -1  851.71   23.40
  12  -5  -1  857.61   24.50
   7 -12   1 1091.29   30.30
 -12   5   1 1051.09   26.10
   7 -12   1 1031.70   27.40
  15  -8  -1 3354.36   61.99
  -8  -7  -1 3545.85   65.79
  -7  15  -1 3448.95   60.39
  -7  15  -1 3441.56   64.49
  -8  -7  -1 3414.06   59.79
 -15   8   1 3185.28   55.99
   7 -15   1 3155.28   61.59
   7 -15   1 3126.39   58.59
  -4  12  -1 6752.52   96.89
  -8  -4  -1 6920.51  101.69
  12  -8  -1 6785.82   97.39
  12  -8  -1 6657.53   97.39
  -4  12  -1 6708.83  101.39
 -12   8   1 6875.91   96.09
   4 -12   1 7066.09  103.89
   4 -12   1 6808.92   99.79
  -1   9  -1 2335.27   40.60
   9  -8  -1 2300.07   39.80
  -8  -1  -1 2330.27   43.50
   9  -8  -1 2339.47   39.50
  -1   9  -1 2297.47   44.00
   8   1   1 2603.64   46.80
  -9   8   1 2629.84   41.10
   1  -9   1 2576.44   44.50
   1  -9   1 2619.54   47.90
   6  -8  -1 2220.58   35.60
   2   6  -1 2226.28   41.10
   6  -8  -1 2222.98   35.60
   2   6  -1 2200.38   37.10
  -8   2  -1 2201.48   39.90
   8  -2   1 2549.15   43.70
  -6   8   1 2468.85   37.30
  -6   8   1 2487.65   38.40
  -2  -6   1 2483.65   40.80
   5   3  -1 2351.16   37.80
   3  -8  -1 2310.67   35.90
  -8   5  -1 2252.77   40.30
  -8   5  -1 2299.47   40.50
   3  -8  -1 2377.06   36.90
  -3   8   1 2192.08   34.60
  -5  -3   1 2283.17   36.40
  -5  -3   1 2203.78   38.50
  -3   8   1 2271.87   34.60
   8  -5   1 2160.08   39.70
  -8   8  -1   32.60    6.60
   0  -8  -1   46.40    6.00
   8   0  -1   36.90    6.00
  -8   8  -1   33.00    6.20
   8  -8   1   41.50    7.40
   0   8   1   43.50    9.00
   8  -8   1   44.90    6.90
  -8   0   1   36.90    6.00
  -3  -8  -1  511.65   17.40
  -8  11  -1  492.05   18.30
  11  -3  -1  504.25   18.40
  -8  11  -1  514.65   19.70
 -11   3   1  527.05   18.20
   8 -11   1  497.05   18.50
   8 -11   1  513.65   20.60
  -6  -8  -1 4305.07   68.89
  -8  14  -1 4286.07   73.59
  -6  -8  -1 4161.88   73.29
  -8  14  -1 4277.57   69.69
  14  -6  -1 4201.98   71.19
   8 -14   1 4250.47   73.99
   8 -14   1 4269.57   71.49
 -14   6   1 4309.07   69.09
  -8  17  -1 2748.93   53.49
  17  -9  -1 2677.73   55.59
  -8  17  -1 2722.83   57.69
  -9  -8  -1 2765.72   53.39
  -9  -8  -1 2678.03   58.39
 -17   9   1 2813.72   53.39
   8 -17   1 2694.23   58.59
   8 -17   1 2629.34   54.99
  -5  14  -1 4480.55   72.59
  14  -9  -1 4582.94   74.29
  -5  14  -1 4487.95   76.89
  14  -9  -1 4507.85   74.29
  -9  -5  -1 4569.04   77.59
 -14   9   1 4598.64   70.99
   5 -14   1 4554.34   77.89
   5 -14   1 4491.45   74.49
  -2  11  -1 3033.10   55.59
  11  -9  -1 3049.40   51.39
  -2  11  -1 3095.69   51.99
  11  -9  -1 3037.10   51.79
  -9  -2  -1 3018.00   55.09
 -11   9   1 3373.76   52.69
   9   2   1 3407.06   59.29
   2 -11   1 3385.26   59.89
   2 -11   1 3330.67   56.49
   1   8  -1 2898.31   51.89
   8  -9  -1 2903.01   46.30
   8  -9  -1 2923.11   46.80
   1   8  -1 2957.80   47.90
  -9   1  -1 2998.20   51.39
  -1  -8   1 3130.29   53.59
  -8   9   1 2990.60   45.70
   9  -1   1 3049.29   52.39
  -1  -8   1 3067.89   49.80
  -8   9   1 2995.90   47.10
  -9   4  -1 3238.58   53.79
   5  -9  -1 3302.17   49.10
   4   5  -1 3312.87   50.99
   5  -9  -1 3320.17   49.40
  -5   9   1 3373.76   48.90
  -4  -5   1 3373.66   54.59
  -5   9   1 3405.06   49.70
   9  -4   1 3400.16   55.39
  -4  -5   1 3326.77   51.49
   9  -4   1 3356.46   54.89
   2  -9  -1 1114.19   23.40
  -9   7  -1 1072.49   26.20
   2  -9  -1 1135.89   23.10
  -9   7  -1 1099.29   26.20
   7   2  -1 1090.89   25.80
  -7  -2   1 1072.29   25.20
   9  -7   1 1102.09   27.10
  -2   9   1 1070.69   22.20
  -7  -2   1 1071.29   23.00
   9  -7   1 1074.19   25.90
  -2   9   1 1109.19   23.60
  10  -1  -1   41.90    7.00
  -1  -9  -1   53.69    7.40
  -9  10  -1   47.90    8.00
  -9  10  -1   54.49    8.60
 -10   1   1   79.99   10.20
   1   9   1   90.99    9.30
   9 -10   1   87.09   11.40
   9 -10   1   77.99    9.60
  13  -4  -1  532.55   21.00
  -9  13  -1  591.74   22.70
  -9  13  -1  571.34   21.20
  -4  -9  -1  568.94   20.00
   9 -13   1  484.25   20.00
 -13   4   1  476.95   19.20
   9 -13   1  449.16   21.80
  -9  16  -1  811.02   28.70
  -7  -9  -1  828.92   30.70
  -9  16  -1  802.22   26.40
  16  -7  -1  779.82   27.50
  -7  -9  -1  824.32   26.00
 -16   7   1  778.42   25.90
   9 -16   1  776.82   29.80
   9 -16   1  775.12   26.90
 -10  -9  -1  502.35   28.40
 -10  -9  -1  539.25   23.70
  -9  19  -1  518.15   24.00
  -9  19  -1  506.25   25.80
  19 -10  -1  520.25   25.40
  19 -10  -1  500.95   26.50
 -19  10   1  535.35   23.80
   9 -19   1  549.95   28.00
   9 -19   1  515.35   24.80
  16 -10  -1  952.20   29.80
 -10  -6  -1  985.30   32.90
  -6  16  -1  992.00   32.10
  -6  16  -1  951.40   28.40
  16 -10  -1  967.40   30.70
   6 -16   1  979.20   33.10
   6 -16   1  959.30   30.10
 -16  10   1  995.10   28.00
  -3  13  -1  864.21   28.00
  -3  13  -1  855.41   25.10
 -10  -3  -1  841.22   28.00
  13 -10  -1  853.31   25.30
  13 -10  -1  850.51   25.90
   3 -13   1  862.91   28.90
   3 -13   1  878.61   26.30
  10   3   1  891.51   28.40
 -13  10   1  867.41   23.60
 -10   0  -1   50.79    9.00
  10 -10  -1   55.49    7.80
  10 -10  -1   49.70    7.50
   0  10  -1   57.19    9.50
   0  10  -1   65.69    8.80
 -10  10   1   44.90    6.60
   0 -10   1   36.30    6.80
  10   0   1   46.20    8.40
   0 -10   1   43.70    9.10
 -10   3  -1  600.14   20.40
   7 -10  -1  600.04   17.10
   3   7  -1  607.14   20.80
   7 -10  -1  611.84   17.30
   3   7  -1  608.34   18.10
  -7  10   1  653.33   17.20
  10  -3   1  633.24   20.60
  -7  10   1  633.54   16.20
  -3  -7   1  620.54   18.50
   4 -10  -1   36.50    5.50
   4 -10  -1   34.20    5.60
 -10   6  -1   23.60    6.10
  -6  -4   1   31.70    7.20
  10  -6   1   26.20    6.30
  -4  10   1   32.40    5.30
  -6  -4   1   35.50    5.80
  10  -6   1   24.30    6.50
   9   1  -1  260.87   14.10
 -10   9  -1  268.97   14.40
   1 -10  -1  251.57   12.40
 -10   9  -1  266.87   14.50
  -9  -1   1  342.27   13.60
  -1  10   1  358.66   14.00
  -9  -1   1  356.56   15.90
  10  -9   1  342.67   15.70
  -1  10   1  343.47   13.50
  10  -9   1  342.87   16.80
  -2 -10  -1  181.08   12.60
  12  -2  -1  212.38   14.70
 -10  12  -1  195.38   14.90
 -10  12  -1  198.38   14.40
  10 -12   1  123.29   14.40
 -12   2   1   98.99   12.40
  10 -12   1   97.09   11.60
   2  10   1  105.19   11.90
  15  -5  -1 2926.01   56.69
 -10  15  -1 2867.71   57.39
 -10  15  -1 2919.31   54.89
  -5 -10  -1 2904.11   53.59
  10 -15   1 2899.91   58.49
 -15   5   1 2825.22   53.59
  10 -15   1 2841.22   55.59
  -8 -10  -1 1973.60   44.30
 -10  18  -1 1942.31   48.00
  -8 -10  -1 1904.01   49.30
 -10  18  -1 1924.41   44.00
  18  -8  -1 1889.91   46.50
 -18   8   1 1863.01   43.00
  10 -18   1 1788.92   47.00
  10 -18   1 1766.92   44.20
  21 -11  -1  702.43   31.30
  21 -11  -1  744.83   33.40
 -10  21  -1  720.33   29.00
 -11 -10  -1  763.72   35.50
 -11 -10  -1  715.73   33.30
 -10  21  -1  711.93   31.70
 -21  11   1  733.93   29.10
  10 -21   1  730.83   34.40
  18 -11  -1 2815.02   58.89
  -7  18  -1 2907.51   61.29
 -11  -7  -1 2856.31   56.19
 -11  -7  -1 2888.41   62.49
  18 -11  -1 2943.31   60.09
  -7  18  -1 2847.71   56.39
   7 -18   1 2768.02   60.99
   7 -18   1 2833.32   58.49
 -18  11   1 2849.71   54.59
  -4  15  -1 2822.52   52.89
  15 -11  -1 2795.72   54.69
 -11  -4  -1 2892.11   58.39
  -4  15  -1 2763.12   57.09
  15 -11  -1 2792.02   54.09
 -15  11   1 2971.80   52.39
   4 -15   1 2921.71   56.19
   4 -15   1 2918.11   59.29
  12 -11  -1 5447.35   82.79
  12 -11  -1 5383.46   82.39
 -11  -1  -1 5350.86   86.69
  -1  12  -1 5464.75   82.09
  -1  12  -1 5539.85   88.19
  11   1   1 5335.77   87.19
   1 -12   1 5557.44   88.29
   1 -12   1 5468.65   84.19
 -12  11   1 5564.64   79.59
   9 -11  -1 3367.66   54.49
   2   9  -1 3413.56   60.59
 -11   2  -1 3429.46   59.59
   2   9  -1 3346.97   55.39
   9 -11  -1 3377.16   54.89
  -2  -9   1 3740.33   60.29
  11  -2   1 3727.53   63.79
  -9  11   1 3707.63   55.89
  -9  11   1 3697.23   57.79
   6 -11  -1 1764.12   33.40
   5   6  -1 1763.32   34.40
   6 -11  -1 1722.73   32.90
 -11   5  -1 1751.12   37.10
  11  -5   1 1891.11   39.50
  -6  11   1 1906.41   33.50
  -6  11   1 1912.61   34.50
  -5  -6   1 1874.71   38.80
  -5  -6   1 1902.71   36.20
  11  -5   1 1930.31   39.60
   8   3  -1  582.54   20.70
   3 -11  -1  591.04   18.10
 -11   8  -1  597.04   20.70
 -11   8  -1  613.64   21.00
   3 -11  -1  604.84   18.60
  -8  -3   1  596.84   18.30
  11  -8   1  594.74   20.60
  -3  11   1  590.74   17.70
  -3  11   1  609.94   17.50
  -8  -3   1  597.84   20.80
  11  -8   1  605.94   21.80
 -11  11  -1   15.30    7.10
 -11  11  -1   13.90    6.90
   0 -11  -1   16.00    6.30
  11   0  -1   16.50    7.00
 -11   0   1   21.70    7.80
   0  11   1   27.80    7.20
  11 -11   1   14.30    6.60
  11 -11   1   23.10    8.30
   0  11   1   25.20    6.80
 -11  14  -1  504.35   22.20
  14  -3  -1  456.05   20.90
  -3 -11  -1  489.35   19.60
 -11  14  -1  533.55   21.70
  11 -14   1  420.06   19.80
  11 -14   1  422.26   21.80
 -14   3   1  415.66   19.90
   3  11   1  413.56   19.30
  17  -6  -1 2928.71   59.79
 -11  17  -1 2962.00   57.19
 -11  17  -1 2906.91   60.29
  -6 -11  -1 2993.60   56.49
  11 -17   1 2699.43   58.79
 -17   6   1 2760.92   54.29
  11 -17   1 2661.53   55.89
  -9 -11  -1 1690.13   43.00
  -9 -11  -1 1773.52   50.19
 -11  20  -1 1805.32   44.20
  20  -9  -1 1744.73   47.00
 -11  20  -1 1763.72   47.30
  11 -20   1 1691.63   45.50
  11 -20   1 1758.12   48.60
 -20   9   1 1743.43   43.80
 -11  23  -1  822.32   32.90
  23 -12  -1  865.71   36.80
 -12 -11  -1  792.52   31.60
  23 -12  -1  848.02   37.30
 -12 -11  -1  806.72   39.20
 -11  23  -1  858.71   36.20
  11 -23   1  891.71   35.80
 -23  12   1  908.11   34.30
  11 -23   1  866.71   39.90
 -12  -8  -1 2510.95   53.89
  -8  20  -1 2525.25   54.29
  20 -12  -1 2596.44   58.69
 -12  -8  -1 2510.25   60.69
  -8  20  -1 2500.25   58.69
  20 -12  -1 2508.15   57.59
   8 -20   1 2551.54   60.99
   8 -20   1 2645.44   58.59
 -20  12   1 2602.24   53.89
  17 -12  -1 1651.83   41.30
  -5  17  -1 1630.84   43.60
  17 -12  -1 1668.83   42.10
  -5  17  -1 1607.04   39.20
 -12  -5  -1 1686.43   44.90
   5 -17   1 1706.93   45.20
   5 -17   1 1736.73   42.30
 -17  12   1 1749.22   39.20
  -2  14  -1 2612.74   49.60
  -2  14  -1 2647.83   54.59
  14 -12  -1 2540.45   50.29
  14 -12  -1 2626.44   51.09
 -12  -2  -1 2598.34   54.29
   2 -14   1 2492.65   53.09
   2 -14   1 2477.25   49.60
  12   2   1 2447.26   52.19
 -14  12   1 2441.86   45.10
 -12   1  -1 5942.31   92.59
  11 -12  -1 5892.61   87.69
  11 -12  -1 5882.11   87.29
   1  11  -1 5893.21   93.69
   1  11  -1 5863.61   87.49
  12  -1   1 6006.10   94.29
 -11  12   1 6005.80   87.99
 -11  12   1 6114.19   85.89
  -1 -11   1 5996.70   90.29
   4   8  -1 6172.88   95.99
   8 -12  -1 6165.38   88.99
   8 -12  -1 6119.09   88.69
 -12   4  -1 6343.37   94.49
   4   8  -1 6309.27   90.39
  -4  -8   1 6392.86   92.59
  -8  12   1 6504.65   90.09
  12  -4   1 6302.07   96.39
  -8  12   1 6283.97   87.89
   5 -12  -1  594.14   18.90
   5 -12  -1  630.54   19.40
 -12   7  -1  629.14   22.30
  12  -7   1  799.52   25.00
  -5  12   1  794.22   21.20
  -7  -5   1  804.62   22.20
  -5  12   1  814.42   20.90
  -7  -5   1  787.92   25.10
  12  -7   1  792.52   25.70
  10   2  -1   52.99    9.90
 -12  10  -1   50.39    8.70
   2 -12  -1   57.59    8.60
 -12  10  -1   46.60    9.10
   2 -12  -1   51.19    8.40
  -2  12   1   18.00    6.30
  12 -10   1   14.10    6.60
  12 -10   1   20.20    8.00
 -10  -2   1    9.20    5.90
 -10  -2   1   17.70    7.10
  -2  12   1   10.70    5.90
 -12  13  -1  552.74   22.70
  -1 -12  -1  553.54   20.60
  13  -1  -1  600.84   23.40
 -12  13  -1  575.74   22.20
  12 -13   1  568.84   24.30
   1  12   1  545.25   20.90
 -13   1   1  565.24   22.30
  12 -13   1  549.35   22.40
 -12  16  -1  225.28   17.10
  -4 -12  -1  206.68   15.00
  16  -4  -1  245.48   17.90
 -12  16  -1  220.38   17.40
  12 -16   1  236.38   20.60
  12 -16   1  245.58   17.60
 -16   4   1  232.38   17.40
   4  12   1  230.18   16.80
  -7 -12  -1  176.08   16.10
 -12  19  -1  171.98   17.90
  19  -7  -1  176.88   18.20
 -12  19  -1  199.18   17.70
  -7 -12  -1  199.78   22.20
 -19   7   1  207.28   18.70
  12 -19   1  197.88   22.00
  12 -19   1  211.78   19.00
 -12  22  -1  420.96   26.70
  22 -10  -1  417.26   28.90
 -12  22  -1  426.76   24.80
  22 -10  -1  458.75   30.00
 -10 -12  -1  417.96   23.50
  12 -22   1  405.26   30.20
  12 -22   1  409.06   25.80
 -22  10   1  418.46   25.70
 -12  25  -1   88.09   18.30
  25 -13  -1   65.39   18.10
 -13 -12  -1   35.00   18.50
 -12  25  -1   52.29   14.20
  25 -13  -1   48.90   15.60
  12 -25   1   90.29   20.60
  12 -25   1   95.09   17.20
 -25  13   1   71.29   16.30
  22 -13  -1  380.46   25.50
  22 -13  -1  367.46   27.10
 -13  -9  -1  377.56   23.10
  -9  22  -1  317.97   25.10
  -9  22  -1  362.26   23.40
   9 -22   1  382.96   29.70
   9 -22   1  355.46   24.40
 -22  13   1  334.17   23.50
  -6  19  -1  241.08   20.80
  -6  19  -1  207.58   18.20
  19 -13  -1  258.77   19.80
  19 -13  -1  206.58   20.20
 -13  -6  -1  247.78   22.90
 -19  13   1  274.17   18.90
   6 -19   1  269.87   20.20
   6 -19   1  265.87   23.50
  16 -13  -1   55.19   10.70
  -3  16  -1   87.19   12.60
  -3  16  -1   65.69   12.00
  16 -13  -1   84.99   12.10
 -13  -3  -1   90.99   13.90
  13   3   1   71.49   11.70
   3 -16   1   88.29   12.80
 -16  13   1   72.49   10.70
   3 -16   1   68.39   14.20
   0  13  -1   37.60   10.00
  13 -13  -1   31.70    8.60
  13 -13  -1   20.40    7.00
 -13   0  -1   14.70    9.20
   0  13  -1   22.50    8.20
  13   0   1   18.20    7.60
   0 -13   1   25.40   10.30
 -13  13   1   24.30    7.20
   0 -13   1   21.50    7.20
   3  10  -1  812.12   28.00
  10 -13  -1  846.42   24.50
 -13   3  -1  774.32   26.90
  10 -13  -1  790.52   23.50
   3  10  -1  804.82   24.30
 -10  13   1  798.82   21.70
  13  -3   1  838.72   27.50
 -10  13   1  843.92   23.40
   7 -13  -1  473.95   18.30
 -13   6  -1  482.75   21.00
   7 -13  -1  486.45   18.20
   6   7  -1  479.55   19.00
  -6  -7   1  493.45   21.60
  -7  13   1  469.75   17.10
  -7  13   1  473.95   16.60
  -6  -7   1  462.65   18.40
  13  -6   1  467.15   21.10
   4 -13  -1 1085.89   27.30
   4 -13  -1 1056.39   27.10
 -13   9  -1 1085.49   30.20
  13  -9   1  931.91   28.20
  -4  13   1  933.81   24.70
  -9  -4   1  969.60   28.70
  -9  -4   1  970.80   25.40
  -4  13   1  968.60   24.00
  13  -9   1  920.61   29.00
  12   1  -1  720.83   25.90
   1 -13  -1  721.23   23.20
 -13  12  -1  770.22   25.40
 -13  12  -1  711.73   25.30
  -1  13   1  687.03   21.80
  13 -12   1  683.13   24.90
  13 -12   1  685.43   26.30
 -12  -1   1  698.43   21.70
  -1  13   1  664.73   22.30
 -12  -1   1  681.23   24.70
 -13  15  -1  466.35   22.30
  15  -2  -1  420.86   21.60
 -13  15  -1  443.56   21.10
  -2 -13  -1  415.36   19.60
  13 -15   1  405.96   23.00
  13 -15   1  392.36   20.30
   2  13   1  382.76   19.60
 -15   2   1  387.26   20.80
 -13  18  -1 1517.05   41.90
  18  -5  -1 1536.45   42.10
 -13  18  -1 1568.44   40.10
  -5 -13  -1 1405.56   37.50
  13 -18   1 1480.55   40.90
  13 -18   1 1544.55   43.70
   5  13   1 1444.46   39.90
 -18   5   1 1483.25   39.60
  -8 -13  -1  447.96   24.60
  -8 -13  -1  517.55   31.70
 -13  21  -1  464.25   26.50
 -13  21  -1  455.55   24.70
  21  -8  -1  463.65   26.70
  13 -21   1  433.06   35.10
  13 -21   1  480.45   30.10
 -21   8   1  464.55   26.10
  24 -11  -1  182.18   24.20
 -11 -13  -1  182.48   24.00
  24 -11  -1  204.08   27.90
  13 -24   1  201.98   23.90
 -24  11   1  210.38   24.80
  13 -24   1  229.68   30.30
  27 -14  -1   66.69   19.60
 -14 -13  -1   19.00   19.00
 -13  27  -1   36.10   15.30
  27 -14  -1   54.69   19.10
 -13  27  -1   35.40   15.60
  13 -27   1   65.39   17.70
 -27  14   1   40.50   17.20
  13 -27   1   70.79   23.40
 -10  24  -1  534.95   51.49
 -14 -10  -1  668.53   37.50
  24 -14  -1  654.53   41.20
  24 -14  -1  691.03   34.30
 -10  24  -1  614.54   31.60
 -24  14   1  729.13   32.50
  10 -24   1  737.73   40.10
  10 -24   1  655.63   33.10
  -7  21  -1 1158.38   40.30
  21 -14  -1 1151.88   38.70
  21 -14  -1 1182.78   40.00
 -14  -7  -1 1171.68   36.60
  -7  21  -1 1179.08   36.50
 -14  -7  -1 1259.17   43.40
 -21  14   1 1284.97   37.30
   7 -21   1 1336.97   41.30
   7 -21   1 1264.77   43.80
  18 -14  -1 1522.65   41.40
  -4  18  -1 1463.65   42.50
  -4  18  -1 1506.15   39.00
  18 -14  -1 1527.15   41.00
 -14  -4  -1 1537.75   44.20
   4 -18   1 1458.25   43.10
 -18  14   1 1382.26   35.40
  14   4   1 1415.46   42.10
   4 -18   1 1474.35   40.20
  -1  15  -1 2795.32   53.29
  15 -14  -1 2727.23   54.49
  15 -14  -1 2674.63   53.59
 -14  -1  -1 2705.23   57.79
  -1  15  -1 2691.33   57.89
 -15  14   1 2691.13   49.40
   1 -15   1 2756.82   54.39
  14   1   1 2556.94   56.39
   1 -15   1 2645.24   57.09
  12 -14  -1 2143.69   44.20
   2  12  -1 2173.68   49.30
   2  12  -1 2271.97   45.10
 -14   2  -1 2199.28   48.80
  12 -14  -1 2183.38   44.90
  -2 -12   1 2106.29   44.40
 -12  14   1 2106.59   40.00
 -12  14   1 2098.49   42.00
  14  -2   1 2128.69   48.00
 -14   5  -1 3463.75   63.79
   9 -14  -1 3469.05   59.39
   9 -14  -1 3601.24   59.99
   5   9  -1 3553.54   60.39
   5   9  -1 3500.45   65.69
  14  -5   1 3543.55   65.59
  -9  14   1 3592.44   57.29
  -9  14   1 3626.14   59.49
  -5  -9   1 3639.54   61.69
   6 -14  -1 3280.17   56.59
   6 -14  -1 3264.97   56.29
 -14   8  -1 3375.46   61.19
  -8  -6   1 3349.76   62.09
  -6  14   1 3433.66   57.19
  -8  -6   1 3419.26   57.99
  -6  14   1 3399.66   55.29
  14  -8   1 3330.97   62.49
  14  -8   1 3491.55   63.89
 -14  11  -1  306.97   18.40
   3 -14  -1  320.97   16.60
   3 -14  -1  320.67   17.30
  11   3  -1  332.57   19.50
 -14  11  -1  301.57   17.60
 -11  -3   1  282.57   15.40
  14 -11   1  293.07   18.10
 -11  -3   1  305.17   18.80
  14 -11   1  301.77   19.20
  -3  14   1  278.07   15.00
  -3  14   1  290.17   15.80
   0 -14  -1   21.10    7.70
 -14  14  -1   16.20    8.40
 -14  14  -1   17.00    8.80
  14   0  -1   28.40    8.70
   0  14   1   26.10    7.30
  14 -14   1   21.50    7.50
 -14   0   1   21.30    9.10
   0  14   1   18.10    7.60
  14 -14   1   21.40    9.70
 -14  17  -1  680.43   26.60
  -3 -14  -1  648.54   25.40
 -14  17  -1  650.83   27.60
  17  -3  -1  674.73   28.10
  14 -17   1  645.94   26.90
   3  14   1  651.13   26.20
  14 -17   1  636.44   29.00
 -17   3   1  604.34   26.30
  -6 -14  -1  437.36   22.80
  20  -6  -1  458.65   25.90
 -14  20  -1  448.16   24.10
 -14  20  -1  487.85   26.00
  14 -20   1  367.36   23.50
 -20   6   1  376.06   23.50
  14 -20   1  357.76   26.90
   6  14   1  353.16   23.40
 -14  23  -1  537.75   29.80
  -9 -14  -1  523.65   34.70
  -9 -14  -1  495.45   26.20
 -14  23  -1  519.75   28.20
  23  -9  -1  490.75   30.00
 -23   9   1  492.75   29.60
  14 -23   1  519.25   34.00
   9  14   1  494.35   29.30
  14 -23   1  469.65   28.70
  26 -12  -1  275.37   31.90
 -12 -14  -1  289.77   34.90
  26 -12  -1  284.07   28.10
 -14  26  -1  263.87   25.60
 -14  26  -1  291.27   27.20
 -26  12   1  292.27   28.90
  14 -26   1  258.77   33.70
  14 -26   1  321.27   28.50
 -14  29  -1    8.40   16.80
 -15 -14  -1   32.00   22.10
 -14  29  -1   32.20   16.90
  29 -15  -1   29.70   19.70
  29 -15  -1   18.60   20.70
 -29  15   1    1.70   16.40
  14 -29   1  -15.90   21.70
  14 -29   1   -6.40   17.50
 -11  26  -1  610.34   32.20
 -15 -11  -1  663.13   40.70
  26 -15  -1  611.84   36.10
 -11  26  -1  614.64   35.00
  26 -15  -1  585.14   37.60
 -26  15   1  686.33   34.40
  11 -26   1  622.84   34.10
  11 -26   1  659.83   43.30
 -15  -8  -1 1082.39   43.60
 -15  -8  -1 1087.69   36.80
  23 -15  -1 1079.09   40.20
  -8  23  -1 1026.30   40.50
  23 -15  -1 1069.59   41.10
  -8  23  -1 1080.69   54.19
 -23  15   1 1263.27   39.20
   8 -23   1 1278.47   43.00
   8 -23   1 1284.67   47.60
  20 -15  -1 1177.78   38.50
  -5  20  -1 1251.97   37.30
  -5  20  -1 1240.98   41.00
  20 -15  -1 1196.48   39.60
 -15  -5  -1 1265.97   43.40
   5 -20   1 1309.77   43.70
 -20  15   1 1278.97   36.00
  -2  17  -1 2102.59   52.19
 -15  -2  -1 2239.08   53.79
  -2  17  -1 2208.28   48.10
  17 -15  -1 2232.18   50.09
  17 -15  -1 2180.38   49.99
  15   2   1 1822.42   48.30
   2 -17   1 1981.00   49.80
   2 -17   1 1946.31   46.30
 -17  15   1 1939.01   41.80
   1  14  -1 2237.38   51.59
 -15   1  -1 2179.78   50.69
  14 -15  -1 2201.68   47.40
   1  14  -1 2314.57   46.90
  14 -15  -1 2164.38   46.50
 -14  15   1 2107.29   44.20
 -14  15   1 2156.88   42.60
  -1 -14   1 2167.48   47.00
  15  -1   1 2161.08   50.39
   4  11  -1 1954.20   42.20
  11 -15  -1 1931.51   41.60
  11 -15  -1 2014.90   42.40
 -15   4  -1 1997.20   46.10
   4  11  -1 1965.90   47.10
  15  -4   1 2002.00   46.90
 -11  15   1 2076.59   42.00
  -4 -11   1 2070.19   43.90
 -11  15   1 2085.99   39.90
   8 -15  -1 3485.35   60.99
   8 -15  -1 3624.14   61.39
 -15   7  -1 3632.74   65.89
  -8  15   1 3281.77   56.79
  -7  -8   1 3234.28   62.49
  -7  -8   1 3387.86   58.99
  -8  15   1 3303.47   55.09
  15  -7   1 3476.85   64.49
  15  -7   1 3237.18   62.79
   5 -15  -1 1959.40   41.20
   5 -15  -1 1915.31   40.80
 -15  10  -1 1927.71   43.90
  15 -10   1 1910.81   44.20
 -10  -5   1 1888.61   39.60
  -5  15   1 1866.71   37.80
  -5  15   1 1847.72   39.20
 -10  -5   1 1883.71   43.80
  15 -10   1 1789.52   43.90
 -15  13  -1  712.23   26.50
  13   2  -1  742.23   27.90
   2 -15  -1  715.33   24.50
 -15  13  -1  749.82   26.90
 -13  -2   1  706.83   26.40
  15 -13   1  672.23   26.30
 -13  -2   1  704.83   23.20
  -2  15   1  691.53   23.10
  -2  15   1  647.64   23.30
  15 -13   1  727.73   28.70
  -1 -15  -1  370.06   19.70
 -15  16  -1  341.87   20.70
 -15  16  -1  404.56   22.00
  16  -1  -1  375.96   22.10
  15 -16   1  399.06   22.20
  15 -16   1  418.96   24.40
 -16   1   1  400.36   22.60
   1  15   1  388.26   20.70
  19  -4  -1  116.89   16.60
  -4 -15  -1   93.19   12.90
 -15  19  -1   91.69   13.60
 -15  19  -1  100.39   14.00
   4  15   1  139.29   18.00
  15 -19   1  118.29   14.90
  15 -19   1  104.39   17.10
 -19   4   1  137.59   16.60
  22  -7  -1   45.20   13.40
 -15  22  -1   24.40   11.80
  -7 -15  -1   23.60   15.00
 -15  22  -1   36.30   12.70
  -7 -15  -1   32.50   11.10
 -22   7   1   43.10   13.90
  15 -22   1   45.00   12.40
  15 -22   1   54.29   17.00
   7  15   1   61.19   14.80
 -15  25  -1  174.78   23.00
  25 -10  -1  136.79   20.20
 -15  25  -1  122.99   19.00
 -10 -15  -1  139.39   23.50
  15 -25   1  134.69   26.10
  15 -25   1  123.29   19.30
  10  15   1  104.69   17.60
 -25  10   1  134.59   20.30
  28 -13  -1  272.17   31.30
 -15  28  -1  246.68   28.70
 -13 -15  -1  226.48   30.10
  28 -13  -1  310.37   37.60
 -15  28  -1  213.58   29.00
  15 -28   1  243.18   29.90
  13  15   1  161.08   23.40
 -28  13   1  218.48   30.10
  15 -28   1  235.98   29.50
  31 -16  -1    1.20   19.10
  31 -16  -1   -2.70   23.00
 -16 -15  -1   -6.80   15.90
 -16 -15  -1   40.60   26.10
 -15  31  -1   -1.40   18.70
  15 -31   1   -1.70   23.90
 -31  16   1   36.30   20.20
  15 -31   1    5.10   19.30
 -16 -12  -1   16.70   21.00
  28 -16  -1   41.00   18.20
  28 -16  -1   17.20   19.70
 -12  28  -1    6.70   15.70
 -12  28  -1   29.40   16.40
  12 -28   1    1.20   15.10
  12 -28   1   44.00   21.60
 -28  16   1   22.80   17.80
  25 -16  -1  230.18   30.10
  -9  25  -1  230.78   26.00
  25 -16  -1  225.88   25.70
 -16  -9  -1  209.18   27.00
  -9  25  -1  244.88   25.30
 -25  16   1  236.88   25.30
   9 -25   1  259.77   33.30
 -16  -6  -1   34.20   11.60
  -6  22  -1   27.50   13.10
  22 -16  -1   56.09   15.30
  -6  22  -1   37.10   14.40
 -16  -6  -1   27.40   14.90
   6 -22   1   45.20   12.70
   6 -22   1   33.90   16.70
 -22  16   1   21.20   12.40
  19 -16  -1   18.10    9.90
 -16  -3  -1   29.90   11.90
  19 -16  -1   27.50   11.90
  -3  19  -1   40.20   11.30
  -3  19  -1   14.30   11.30
   3 -19   1   25.60   12.80
   3 -19   1   20.60   10.10
  16   3   1   36.50   12.50
 -19  16   1   14.40   10.00
 -16   0  -1   31.40   11.70
   0  16  -1   38.10   11.80
  16 -16  -1   24.00    9.10
  16 -16  -1   35.40   10.80
   0  16  -1   36.10    9.50
   0 -16   1   59.49   11.40
 -16  16   1   38.30    9.00
  16   0   1   27.30   10.50
  13 -16  -1   35.60    9.80
  13 -16  -1   28.40    8.90
   3  13  -1   33.60    9.20
 -16   3  -1   33.70   10.70
   3  13  -1   33.10   10.20
 -13  16   1   35.20    7.90
  16  -3   1   22.40    9.60
  -3 -13   1   30.00    9.20
 -13  16   1   29.00    8.30
  10 -16  -1  932.21   27.90
   6  10  -1  900.71   31.60
  10 -16  -1  959.50   29.00
   6  10  -1  931.31   28.20
 -16   6  -1  938.81   31.10
  16  -6   1  981.20   32.00
 -10  16   1  968.80   27.40
  -6 -10   1 1008.80   33.20
  16  -6   1  998.50   33.20
  -6 -10   1  968.30   29.00
 -10  16   1  992.60   26.20
 -16   9  -1  637.74   25.70
   7 -16  -1  638.54   23.60
   7 -16  -1  583.34   22.50
  16  -9   1  561.64   24.70
  -7  16   1  564.44   21.00
  -9  -7   1  556.14   25.40
  -9  -7   1  568.24   21.50
  16  -9   1  571.64   25.60
  -7  16   1  599.94   20.70
  12   4  -1  264.37   19.10
   4 -16  -1  256.07   17.90
 -16  12  -1  239.08   18.00
   4 -16  -1  265.97   16.70
 -12  -4   1  271.07   19.80
  16 -12   1  255.17   18.50
 -12  -4   1  270.37   16.00
  -4  16   1  262.57   16.40
  16 -12   1  283.37   20.30
  -4  16   1  267.27   15.80
  15   1  -1  270.37   19.80
 -16  15  -1  263.57   18.30
 -16  15  -1  263.97   19.50
   1 -16  -1  256.27   17.30
  -1  16   1  280.77   17.20
  -1  16   1  261.67   17.50
  16 -15   1  278.37   21.90
 -15  -1   1  282.57   20.50
 -15  -1   1  276.57   16.80
  16 -15   1  289.07   19.90
  18  -2  -1  224.78   20.40
  -2 -16  -1  222.48   18.20
 -16  18  -1  222.78   20.00
 -16  18  -1  219.18   19.50
 -18   2   1  226.68   21.10
   2  16   1  264.37   19.50
  16 -18   1  245.98   23.40
  16 -18   1  233.88   19.90
 -16  21  -1   30.10   12.20
 -16  21  -1    8.10   10.90
  -5 -16  -1   -0.60    9.30
   5  16   1   37.70   12.30
  16 -21   1   26.20   14.70
  16 -21   1    6.90   10.50
 -21   5   1   11.10   11.80
 -16  24  -1   50.79   14.50
  -8 -16  -1   30.40   17.60
  -8 -16  -1   37.90   13.10
  24  -8  -1   28.50   13.90
 -24   8   1   54.39   16.90
  16 -24   1   49.50   13.90
  16 -24   1   49.60   19.40
   8  16   1   58.89   24.00
  27 -11  -1   40.50   19.80
 -11 -16  -1   32.80   19.70
 -16  27  -1   31.50   15.50
  27 -11  -1    3.90   14.30
 -16  27  -1   41.10   15.90
  16 -27   1   37.30   15.90
  11  16   1   11.20   14.60
 -27  11   1   47.20   24.80
  16 -27   1   33.00   20.70
 -14 -16  -1    9.40   25.10
 -16  30  -1   41.90   18.40
  30 -14  -1   48.30   19.30
  30 -14  -1   49.70   23.30
 -14 -16  -1   62.49   29.70
 -30  14   1   51.09   20.70
  16 -30   1   78.09   22.30
  16 -30   1   46.00   24.00
 -17 -16  -1   -1.50   32.50
 -16  33  -1   50.09   23.70
  33 -17  -1   22.50   29.80
 -16  33  -1   41.00   22.90
  33 -17  -1   83.29   25.40
  17  16   1   27.20   25.20
 -33  17   1  -10.70   21.80
  16 -33   1   31.90   30.20
  16 -33   1  -19.60   25.90
  30 -17  -1   24.50   19.90
 -13  30  -1   11.90   17.70
 -13  30  -1   29.50   19.30
 -17 -13  -1   30.50   25.50
 -17 -13  -1   27.60   16.40
  30 -17  -1   23.70   24.20
  13 -30   1   53.99   25.70
 -30  17   1   67.69   20.50
  13 -30   1   27.00   18.10
 -10  27  -1  395.96   31.40
  27 -17  -1  350.76   31.30
 -10  27  -1  346.67   29.90
 -17 -10  -1  346.97   38.40
  27 -17  -1  305.87   34.50
  10 -27   1  292.07   29.80
 -27  17   1  409.76   31.30
  10 -27   1  452.55   39.40
 -17  -7  -1  238.58   30.90
  -7  24  -1  219.98   25.90
  -7  24  -1  268.07   24.80
  24 -17  -1  217.18   24.40
 -24  17   1  265.87   24.40
   7 -24   1  276.27   32.60
  -4  21  -1 1632.74   44.00
  21 -17  -1 1606.14   48.10
  21 -17  -1 1564.14   46.30
  -4  21  -1 1535.65   47.80
   4 -21   1 1563.44   49.70
 -21  17   1 1540.35   41.20
   4 -21   1 1566.64   45.70
 -17  -1  -1 1395.06   44.20
  -1  18  -1 1464.95   43.80
  -1  18  -1 1435.56   39.20
  18 -17  -1 1458.25   42.30
  18 -17  -1 1396.46   40.30
  17   1   1 1411.86   43.90
 -18  17   1 1422.86   36.30
   1 -18   1 1452.45   41.00
   2  15  -1 1535.85   39.10
  15 -17  -1 1555.64   40.60
  15 -17  -1 1442.16   38.70
   2  15  -1 1509.75   43.70
 -17   2  -1 1530.55   43.80
 -15  17   1 1278.27   34.40
  -2 -15   1 1306.37   36.80
 -15  17   1 1311.07   32.60
  17  -2   1 1309.47   39.90
   5  12  -1 1332.27   39.90
  12 -17  -1 1363.86   36.40
   5  12  -1 1362.66   35.60
 -17   5  -1 1353.56   39.30
  12 -17  -1 1332.57   35.30
 -12  17   1 1319.97   33.50
 -12  17   1 1319.47   31.60
  17  -5   1 1287.47   38.30
  -5 -12   1 1245.88   34.90
   9 -17  -1 2856.01   54.89
 -17   8  -1 2844.12   58.69
   9 -17  -1 2834.92   54.99
  -8  -9   1 2921.81   55.89
  -8  -9   1 2886.21   60.39
  17  -8   1 2991.60   62.09
  -9  17   1 2898.61   51.99
  17  -8   1 2882.21   60.49
  -9  17   1 2882.41   54.19
   6 -17  -1 2350.56   49.20
 -17  11  -1 2435.16   52.79
   6 -17  -1 2446.46   49.80
  -6  17   1 2215.78   43.50
 -11  -6   1 2146.19   45.10
  17 -11   1 2117.99   50.79
  -6  17   1 2114.69   44.80
 -11  -6   1 2154.78   50.09
  17 -11   1 2126.59   50.19
  14   3  -1  577.44   26.90
 -17  14  -1  623.24   26.30
   3 -17  -1  589.34   24.00
  -3  17   1  548.25   22.90
  -3  17   1  575.74   22.40
  17 -14   1  553.74   25.90
 -14  -3   1  587.04   22.60
  17 -14   1  576.14   27.80
 -14  -3   1  572.84   26.30
   0 -17  -1   12.70    8.20
  17   0  -1   -6.30    8.80
 -17  17  -1   -2.80    7.80
 -17  17  -1   18.60    9.80
   0  17   1    8.00    8.40
  17 -17   1   -3.50   10.40
  17 -17   1   -3.20    8.80
 -17   0   1    0.00    7.10
 -17   0   1    5.20    9.80
 -17  20  -1  265.47   22.80
  20  -3  -1  211.08   32.90
  -3 -17  -1  278.67   21.70
 -17  20  -1  277.27   22.10
   3  17   1  226.88   21.30
 -20   3   1  236.68   23.60
  17 -20   1  233.88   25.20
  17 -20   1  253.77   21.80
 -17  23  -1   69.39   17.90
  23  -6  -1   70.69   16.10
  -6 -17  -1   89.79   15.40
 -17  23  -1  109.99   17.30
 -23   6   1  120.09   18.90
  17 -23   1   77.09   19.20
  17 -23   1  139.09   18.00
   6  17   1  125.69   18.60
 -17  26  -1   21.30   14.80
 -17  26  -1   28.40   15.00
  -9 -17  -1   39.80   20.00
  26  -9  -1   39.20   16.50
  17 -26   1   -1.80   14.20
 -26   9   1   15.40   16.30
  17 -26   1   13.50   18.50
   9  17   1   34.00   15.60
 -12 -17  -1  340.27   43.20
 -17  29  -1  281.07   31.30
  29 -12  -1  298.07   38.80
  29 -12  -1  297.77   34.10
 -17  29  -1  304.57   32.00
  17 -29   1  222.08   30.60
  17 -29   1  249.88   31.70
 -29  12   1  249.97   33.80
 -15 -17  -1   96.59   29.90
 -17  32  -1   96.79   24.60
 -15 -17  -1   81.99   19.80
  32 -15  -1  138.09   26.30
 -17  32  -1   79.79   40.10
  32 -15  -1  157.48   32.80
  15  17   1   44.80   23.60
 -32  15   1  111.59   25.20
  17 -32   1  136.29   31.70
  17 -32   1  128.59   24.90
  32 -18  -1   30.70   27.10
  32 -18  -1   90.09   25.90
 -18 -14  -1   38.70   18.20
 -14  32  -1   98.79   24.60
 -18 -14  -1   56.99   28.80
  14 -32   1   50.29   21.50
 -32  18   1   59.49   22.70
  14 -32   1   69.69   30.20
 -18 -11  -1  146.69   30.30
 -11  29  -1  127.79   22.00
 -11  29  -1  152.98   24.10
  29 -18  -1  135.59   25.50
  29 -18  -1  136.89   26.00
  11 -29   1  154.78   27.80
 -29  18   1  167.48   23.40
  11 -29   1  150.68   24.00
  26 -18  -1   38.50   19.20
  -8  26  -1   58.29   15.50
 -18  -8  -1   33.80   19.00
  -8  26  -1   39.30   15.40
  26 -18  -1   42.40   16.10
 -26  18   1   71.39   16.80
   8 -26   1   88.99   23.40
  -5  23  -1 1093.79   38.40
 -18  -5  -1 1039.60   44.00
  23 -18  -1 1019.50   40.30
  23 -18  -1 1013.00   42.20
  -5  23  -1  935.61   48.30
 -18  -5  -1 1013.40   36.20
 -23  18   1  992.90   35.00
   5 -23   1 1044.50   44.60
  -2  20  -1 2651.03   57.59
 -18  -2  -1 2607.24   64.29
  -2  20  -1 2523.65   62.29
  20 -18  -1 2573.64   59.89
  20 -18  -1 2495.85   60.09
   2 -20   1 2483.55   58.19
  18   2   1 2411.16   61.69
 -20  18   1 2477.35   52.39
   1  17  -1 1110.69   34.40
  17 -18  -1 1086.39   35.00
   1  17  -1 1076.69   37.90
  17 -18  -1 1133.79   37.10
 -18   1  -1 1066.19   38.90
 -17  18   1 1071.29   31.30
  18  -1   1 1060.59   37.80
  -1 -17   1 1101.99   35.50
  14 -18  -1 1755.22   44.10
  14 -18  -1 1757.22   43.20
   4  14  -1 1754.62   47.80
   4  14  -1 1756.92   42.60
 -18   4  -1 1829.72   47.90
 -14  18   1 1607.24   36.80
 -14  18   1 1594.04   39.10
  -4 -14   1 1625.34   41.70
  18  -4   1 1587.44   45.00
 -18   7  -1 1593.44   43.20
  11 -18  -1 1592.24   39.60
   7  11  -1 1593.24   44.50
  11 -18  -1 1565.24   40.00
  18  -7   1 1550.94   43.30
  -7 -11   1 1566.24   39.60
  -7 -11   1 1557.74   44.00
 -11  18   1 1550.84   37.80
  18  -7   1 1668.63   45.40
 -11  18   1 1586.74   36.10
   8 -18  -1 2110.29   46.80
   8 -18  -1 2066.89   46.60
 -18  10  -1 2179.08   50.59
 -10  -8   1 1989.50   49.20
  18 -10   1 1967.40   49.60
  18 -10   1 2007.90   49.50
  -8  18   1 1979.80   43.60
  -8  18   1 1992.20   41.60
 -10  -8   1 1926.61   43.80
 -18  13  -1 1280.97   37.60
   5 -18  -1 1248.68   35.40
   5 -18  -1 1260.47   36.00
  -5  18   1 1283.27   32.90
 -13  -5   1 1221.28   33.50
  -5  18   1 1266.97   34.30
 -13  -5   1 1237.58   38.40
  18 -13   1 1239.98   39.50
  18 -13   1 1265.17   38.70
  16   2  -1   52.99   12.00
   2 -18  -1   49.99   10.40
 -18  16  -1   49.70   11.40
 -18  16  -1   68.79   12.90
  18 -16   1   72.89   16.30
  -2  18   1   85.99   12.30
  -2  18   1   93.69   12.30
 -16  -2   1  114.09   13.50
 -16  -2   1   77.09   14.00
  18 -16   1   89.19   14.70
 -18  19  -1  160.98   20.20
 -18  19  -1  137.09   17.70
 -19   1   1  164.58   19.50
   1  18   1  136.29   16.80
  18 -19   1  146.59   23.20
  18 -19   1  146.99   20.30
  -4 -18  -1  342.67   24.80
 -18  22  -1  303.27   25.50
  22  -4  -1  334.27   27.20
 -18  22  -1  344.47   34.20
 -22   4   1  310.27   27.20
  18 -22   1  267.87   30.20
   4  18   1  279.67   24.70
  18 -22   1  316.87   25.00
  -7 -18  -1  338.47   35.90
 -18  25  -1  267.27   26.00
 -18  25  -1  305.97   28.00
  25  -7  -1  312.07   29.70
   7  18   1  291.97   28.00
  18 -25   1  233.28   26.60
 -25   7   1  274.37   29.20
  18 -25   1  273.17   34.40
 -10 -18  -1  164.68   28.60
 -18  28  -1  179.08   23.60
  28 -10  -1  167.88   27.60
 -18  28  -1  150.98   22.00
  28 -10  -1  242.38   32.30
  18 -28   1  153.18   24.40
  10  18   1  169.18   23.30
  18 -28   1  161.18   28.50
 -28  10   1  133.29   24.00
 -18  31  -1   79.99   21.70
 -13 -18  -1  103.79   31.80
  31 -13  -1   58.29   23.30
  31 -13  -1  139.79   30.70
 -13 -18  -1   75.49   20.10
  13  18   1   65.39   21.30
 -31  13   1   56.79   23.00
  18 -31   1   42.00   27.00
  18 -31   1   56.19   21.50
  31 -19  -1  105.09   25.60
  31 -19  -1  127.69   28.80
 -12  31  -1  106.59   22.30
 -19 -12  -1   92.09   29.40
 -19 -12  -1   89.39   19.70
  12 -31   1  156.48   30.60
 -31  19   1  139.79   24.20
  12 -31   1   82.79   23.10
  -9  28  -1  281.87   29.70
  28 -19  -1  287.57   37.50
 -19  -9  -1  288.87   33.40
  -9  28  -1  295.27   31.30
  28 -19  -1  238.48   31.30
   9 -28   1  329.47   40.00
 -28  19   1  289.07   30.30
   9 -28   1  259.77   31.80
  25 -19  -1    0.00   12.80
  -6  25  -1   10.70   13.90
  -6  25  -1    7.70   13.30
 -19  -6  -1   27.00   16.60
  25 -19  -1   12.30   16.60
   6 -25   1    7.00   17.90
 -25  19   1    8.20   14.50
  22 -19  -1  101.79   16.80
  -3  22  -1  107.69   16.40
  22 -19  -1   89.99   18.30
 -19  -3  -1  115.69   21.00
  19   3   1   49.60   14.70
   0  19  -1   -6.30    8.80
  19 -19  -1   18.30   11.50
  19 -19  -1   -4.10   11.50
   0  19  -1  -16.40   10.80
 -19   0  -1    1.80   12.50
 -19  19   1    3.20    9.90
  19   0   1   12.30   11.50
   0 -19   1   -6.40    9.60
  16 -19  -1  161.88   20.10
   3  16  -1  132.89   17.40
  16 -19  -1  145.39   17.20
 -19   3  -1  111.79   17.30
   3  16  -1  106.89   15.80
  -3 -16   1  129.59   16.10
  19  -3   1   81.69   14.80
 -16  19   1   94.09   12.80
 -16  19   1   92.59   12.90
 -19   6  -1  230.98   21.50
  13 -19  -1  202.68   17.70
   6  13  -1  179.38   20.30
  13 -19  -1  202.78   20.40
 -13  19   1  221.08   17.00
  -6 -13   1  226.18   18.40
 -13  19   1  231.28   16.60
  19  -6   1  222.68   20.20
 -19   9  -1  521.45   26.60
  10 -19  -1  486.25   24.80
  10 -19  -1  483.35   23.30
  19  -9   1  492.95   26.10
  19  -9   1  530.65   28.00
 -10  19   1  522.35   22.80
 -10  19   1  490.15   20.80
  -9 -10   1  489.15   27.60
  -9 -10   1  503.85   23.00
   7 -19  -1  381.86   21.60
   7 -19  -1  391.16   23.30
 -19  12  -1  378.46   23.50
  -7  19   1  404.06   20.10
 -12  -7   1  365.76   24.30
 -12  -7   1  394.76   20.40
  -7  19   1  375.16   20.20
  19 -12   1  393.56   25.00
  19 -12   1  408.86   23.90
  15   4  -1   43.90   11.60
 -19  15  -1   40.20   11.40
   4 -19  -1   30.80    9.90
  19 -15   1   34.40   11.10
 -15  -4   1   52.99   10.10
  19 -15   1   45.30   13.70
 -15  -4   1   44.80   12.90
  -4  19   1   33.30   10.10
  -4  19   1   36.90    9.90
 -19  18  -1  220.78   20.80
 -19  18  -1  218.88   21.40
 -18  -1   1  173.38   21.80
  19 -18   1  197.68   26.00
 -18  -1   1  187.68   17.70
  -1  19   1  162.68   18.60
  19 -18   1  179.78   24.20
 -19  21  -1  348.37   30.00
 -19  21  -1  403.96   26.70
  -2 -19  -1  426.76   25.90
  21  -2  -1  393.16   28.40
 -21   2   1  417.76   29.60
   2  19   1  373.46   25.20
  19 -21   1  390.06   31.10
  19 -21   1  317.67   25.40
  24  -5  -1  289.97   28.70
 -19  24  -1  353.46   28.40
  -5 -19  -1  315.17   25.90
 -19  24  -1  311.07   26.60
  19 -24   1  346.07   34.40
  19 -24   1  305.97   27.00
 -24   5   1  305.27   30.40
  -8 -19  -1  338.57   37.90
 -19  27  -1  353.16   30.40
  27  -8  -1  290.97   32.90
 -19  27  -1  352.36   31.00
   8  19   1  269.47   31.20
  19 -27   1  316.57   31.30
  19 -27   1  330.87   39.30
 -27   8   1  308.27   34.90
 -11 -19  -1   78.79   26.90
 -11 -19  -1   57.59   18.30
  30 -11  -1   75.49   23.10
  30 -11  -1   48.10   24.40
 -19  30  -1   56.89   19.70
  19 -30   1   55.39   25.90
 -30  11   1   76.49   23.30
  19 -30   1   76.09   21.20
  33 -14  -1   93.89   25.00
  33 -14  -1  192.58   38.50
 -14 -19  -1  156.48   35.60
 -19  33  -1  164.98   27.40
 -19  33  -1  122.89   26.00
 -33  14   1  193.48   28.50
  14  19   1  152.98   30.20
  19 -33   1  156.18   35.60
  19 -33   1  106.79   38.40
  33 -20  -1   -2.50   29.60
  33 -20  -1   -5.60   23.40
 -13  33  -1   27.30   22.20
 -20 -13  -1   11.10   30.30
 -13  33  -1   41.30   24.90
  13 -33   1   -9.50   30.10
 -33  20   1   47.70   21.60
  30 -20  -1   29.80   20.30
 -20 -10  -1   62.59   26.30
  30 -20  -1   35.70   25.20
 -10  30  -1   28.90   19.90
 -20 -10  -1    7.50   16.20
 -30  20   1   14.30   18.50
  10 -30   1   34.70   21.50
  10 -30   1   11.90   24.40
  27 -20  -1  258.87   35.90
 -20  -7  -1  218.48   33.00
 -20  -7  -1  304.37   36.40
  27 -20  -1  238.58   29.20
  -7  27  -1  247.48   28.50
  -7  27  -1  234.28   26.30
   7 -27   1  265.27   31.70
 -27  20   1  231.38   28.00
  24 -20  -1  381.06   40.10
 -20  -4  -1  363.96   34.80
  -4  24  -1  407.46   28.60
  24 -20  -1  368.36   29.10
  -4  24  -1  386.06   30.20
 -24  20   1  351.86   26.50
  -1  21  -1 1154.28   58.89
  -1  21  -1 1422.76   42.60
  21 -20  -1 1363.66   45.70
  21 -20  -1 1406.36   45.00
 -20  -1  -1 1374.96   48.10
  20   1   1  456.45   29.20
  18 -20  -1 2065.89   52.19
  18 -20  -1 2177.28   54.09
   2  18  -1 2100.39   50.89
 -20   2  -1 2098.29   56.89
   2  18  -1 2019.80   55.89
  -2 -18   1 2028.60   51.49
 -18  20   1 2001.60   45.50
  20  -2   1 1999.70   55.29
   5  15  -1 1441.56   40.30
  15 -20  -1 1468.65   42.50
   5  15  -1 1437.06   45.60
 -20   5  -1 1450.85   45.30
  15 -20  -1 1432.96   40.80
 -15  20   1 1464.65   37.00
 -15  20   1 1486.05   39.40
  12 -20  -1 1653.83   43.50
 -20   8  -1 1678.33   46.50
   8  12  -1 1640.24   47.90
  12 -20  -1 1578.74   42.30
 -12  20   1 1756.22   42.40
  20  -8   1 1721.13   48.50
  -8 -12   1 1792.52   50.09
  20  -8   1 1767.22   49.80
 -12  20   1 1744.13   40.00
  -8 -12   1 1780.22   44.70
   9 -20  -1 1263.77   36.80
   9 -20  -1 1297.57   38.30
 -20  11  -1 1238.18   39.50
  -9  20   1 1270.77   33.50
 -11  -9   1 1269.47   41.20
  -9  20   1 1208.58   35.00
  20 -11   1 1233.08   41.10
  20 -11   1 1274.27   40.90
 -11  -9   1 1174.38   34.90
   6 -20  -1  357.46   22.10
 -20  14  -1  348.47   23.90
   6 -20  -1  360.06   24.00
 -14  -6   1  259.47   24.00
  -6  20   1  296.87   18.80
  20 -14   1  280.87   22.60
  -6  20   1  265.37   18.80
  20 -14   1  273.37   24.80
 -14  -6   1  292.57   18.90
 -20  17  -1   84.89   14.90
  17   3  -1   63.39   15.10
  20 -17   1   82.79   15.50
  -3  20   1   80.79   13.30
 -17  -3   1   75.09   12.50
  -3  20   1   78.99   13.40
 -17  -3   1   75.29   15.40
  20 -17   1   82.79   17.20
 -20  20  -1   13.40   12.70
   0 -20  -1   20.20   11.60
 -20  20  -1   12.30   11.10
  20   0  -1   32.10   14.10
 -20   0   1   29.00   15.50
 -20   0   1   44.60   10.60
  20 -20   1   31.10   15.50
  20 -20   1   33.20   12.90
   0  20   1   28.30   11.50
 -20  23  -1   -0.80   12.40
  -3 -20  -1    7.10   11.20
 -20  23  -1   12.60   14.30
  23  -3  -1   -1.30   14.20
 -23   3   1   14.30   16.40
   3  20   1   10.30   12.20
  20 -23   1    0.30   11.30
  20 -23   1    8.50   17.30
  26  -6  -1  284.87   31.30
 -20  26  -1  373.36   29.70
 -20  26  -1  350.96   30.80
  -6 -20  -1  271.57   27.00
 -26   6   1  327.07   32.70
   6  20   1  365.16   31.20
  20 -26   1  378.86   38.80
  20 -26   1  343.27   30.20
  -9 -20  -1  296.07   34.90
  29  -9  -1  372.66   37.00
 -20  29  -1  303.77   32.90
  -9 -20  -1  336.37   32.00
  20 -29   1  378.26   43.10
 -29   9   1  343.37   38.10
  20 -29   1  335.97   36.60
  32 -12  -1   41.20   26.50
  32 -12  -1   84.69   30.30
 -12 -20  -1   94.09   19.80
 -20  32  -1   51.19   22.60
 -20  32  -1   59.99   23.10
 -12 -20  -1   43.60   32.10
  12  20   1   84.59   25.20
 -32  12   1  103.19   25.50
  20 -32   1   38.60   21.80
  20 -32   1   60.19   28.70
 -21 -11  -1   75.19   17.80
  32 -21  -1   91.69   25.60
 -21 -11  -1   42.20   29.30
  32 -21  -1   97.29   31.40
 -11  32  -1   74.09   24.00
 -11  32  -1  101.69   24.70
  11 -32   1   89.99   31.50
 -32  21   1  117.59   22.90
  11 -32   1   63.09   20.90
  29 -21  -1   22.30   19.50
  -8  29  -1   43.80   18.60
 -21  -8  -1   54.79   23.60
  29 -21  -1    0.60   22.30
  -8  29  -1   -7.30   16.60
 -21  -8  -1   12.40   14.50
 -29  21   1    8.90   18.00
   8 -29   1   17.20   17.20
   8 -29   1    9.40   22.90
  26 -21  -1  125.79   23.10
 -21  -5  -1  143.99   24.80
  -5  26  -1  135.89   19.90
  -5  26  -1  125.09   20.20
  26 -21  -1  122.19   24.30
 -26  21   1  126.69   19.30
  23 -21  -1  664.13   37.70
  23 -21  -1  661.43   34.50
  -2  23  -1  707.03   37.20
  -2  23  -1  682.13   32.80
 -21  -2  -1  661.43   39.10
 -23  21   1  637.84   30.60
   1  20  -1 1359.46   42.30
  20 -21  -1 1382.16   44.00
 -21   1  -1 1343.37   48.30
   1  20  -1 1400.86   48.20
  20 -21  -1 1387.46   45.60
 -20  21   1 1193.28   36.10
  17 -21  -1 1116.09   39.70
 -21   4  -1 1173.58   42.80
   4  17  -1 1107.49   42.90
  17 -21  -1 1105.09   37.60
  21  -4   1 1093.19   41.00
 -17  21   1 1077.39   34.60
 -17  21   1 1076.39   33.10
  -4 -17   1 1140.79   38.00
 -21   7  -1  737.23   33.50
   7  14  -1  708.43   33.70
  14 -21  -1  710.03   29.70
  14 -21  -1  752.22   32.00
  21  -7   1  801.12   34.30
  21  -7   1  838.52   37.00
  -7 -14   1  773.32   31.20
  -7 -14   1  838.02   36.90
 -14  21   1  743.73   28.60
 -14  21   1  765.12   27.30
  11 -21  -1  568.24   26.90
 -21  10  -1  576.44   30.20
  10  11  -1  565.14   30.60
  11 -21  -1  532.15   28.00
 -10 -11   1  581.24   31.50
  21 -10   1  598.94   31.50
 -11  21   1  550.04   23.70
 -11  21   1  564.04   24.90
   8 -21  -1  205.18   19.70
   8 -21  -1  175.08   21.80
 -21  13  -1  233.68   23.00
  -8  21   1  183.58   17.50
 -13  -8   1  172.68   23.00
  -8  21   1  198.38   17.90
 -13  -8   1  185.68   18.60
  21 -13   1  178.48   31.80
  21 -13   1  180.98   23.00
 -21  16  -1   12.20   11.50
   5 -21  -1   32.20   17.80
 -16  -5   1   25.60   17.60
  21 -16   1   43.10   14.00
 -16  -5   1   44.10   14.80
  21 -16   1   30.30   11.40
  -5  21   1   37.30   11.00
  -5  21   1   27.30   10.30
   2 -21  -1  447.46   26.60
 -21  19  -1  393.86   27.30
  19   2  -1  431.06   29.30
  -2  21   1  383.36   24.40
 -19  -2   1  349.47   28.80
 -19  -2   1  386.96   23.10
  21 -19   1  388.46   27.90
  21 -19   1  402.56   30.90
  -2  21   1  385.26   24.60
  -1 -21  -1  913.21   37.00
  22  -1  -1  961.80   41.80
 -21  22  -1  815.42   48.30
 -21  22  -1  905.71   38.50
  21 -22   1  838.02   38.30
 -22   1   1  833.62   32.20
   1  21   1  829.22   35.70
  21 -22   1  827.92   43.30
 -22   1   1  801.92   40.80
 -21  25  -1  717.13   36.20
  25  -4  -1  693.13   39.20
 -21  25  -1  730.03   37.70
  -4 -21  -1  709.03   35.50
   4  21   1  695.03   36.50
 -25   4   1  758.02   40.90
  21 -25   1  757.92   44.90
  21 -25   1  740.73   37.50
  -7 -21  -1  479.65   35.30
  -7 -21  -1  476.15   44.20
  28  -7  -1  367.36   36.90
 -21  28  -1  432.26   34.00
 -28   7   1  523.75   40.00
  21 -28   1  574.14   39.00
   7  21   1  500.25   36.30
  21 -28   1  497.85   45.20
 -21  31  -1  216.08   34.90
  31 -10  -1  208.18   29.00
 -10 -21  -1  219.58   26.90
 -21  31  -1  293.67   36.30
 -10 -21  -1  190.38   34.60
  31 -10  -1  209.78   34.40
  10  21   1  253.67   33.40
 -31  10   1  191.08   29.20
  21 -31   1  201.58   28.00
  21 -31   1  260.67   35.70
 -22  -9  -1   58.19   19.70
  31 -22  -1   75.69   23.60
  31 -22  -1   75.89   27.50
 -22  -9  -1   48.00   29.50
  -9  31  -1   73.29   22.30
   9 -31   1   51.29   27.70
   9 -31   1   -8.40   22.20
 -31  22   1   99.39   21.70
 -22  -6  -1  146.89   29.50
  28 -22  -1   85.49   21.00
  28 -22  -1   87.79   24.60
 -22  -6  -1  120.79   19.80
  -6  28  -1  112.49   21.00
   6 -28   1  116.89   23.10
  -3  25  -1  223.28   27.70
  25 -22  -1  215.68   25.50
  25 -22  -1  165.58   25.10
 -22  -3  -1  171.88   25.90
  -3  25  -1  177.28   22.20
 -25  22   1  172.28   20.70
   0  22  -1   15.80   13.80
   0  22  -1   24.30   14.50
 -22   0  -1   22.80   17.70
  22 -22  -1   43.60   17.40
  22 -22  -1   34.10   14.30
 -22  22   1   26.30   13.40
   3  19  -1   78.89   14.80
  19 -22  -1   77.79   15.40
   3  19  -1  104.29   19.10
 -22   3  -1   47.50   17.50
  19 -22  -1   79.69   17.70
  -3 -19   1   44.70   12.30
  22  -3   1   27.60   12.20
 -19  22   1   71.99   13.50
 -22   6  -1   74.79   17.40
   6  16  -1   88.79   18.30
  16 -22  -1  103.99   17.30
  -6 -16   1  108.89   16.20
  22  -6   1   87.59   16.20
 -16  22   1   92.89   13.40
 -16  22   1  103.39   13.90
  13 -22  -1  242.68   21.00
  13 -22  -1  269.37   23.70
   9  13  -1  212.68   24.20
 -22   9  -1  211.58   23.90
  22  -9   1  247.28   23.30
  -9 -13   1  280.47   21.90
 -13  22   1  237.08   19.30
  -9 -13   1  242.48   27.30
 -13  22   1  250.17   19.60
  10 -22  -1  432.26   27.50
  10 -22  -1  409.76   28.50
 -22  12  -1  450.55   28.40
  22 -12   1  422.56   29.10
 -10  22   1  454.15   23.80
 -10  22   1  453.45   23.20
 -12 -10   1  443.46   30.40
  22 -12   1  473.45   28.30
 -12 -10   1  454.75   24.50
 -22  15  -1   13.60   12.80
   7 -22  -1   21.90   10.80
   7 -22  -1   -2.30   12.50
  22 -15   1   29.50   12.20
  22 -15   1   20.20   14.60
 -15  -7   1   12.50    9.70
  -7  22   1   28.10   10.60
 -15  -7   1   25.30   13.90
  -7  22   1   18.30   10.20
 -22  18  -1  228.38   25.10
   4 -22  -1  220.68   22.60
 -18  -4   1  228.18   26.30
  22 -18   1  177.98   41.10
  22 -18   1  227.98   24.20
 -18  -4   1  159.98   18.90
  -4  22   1  219.38   20.70
  -4  22   1  181.38   20.20
  21   1  -1  854.21   40.10
   1 -22  -1  831.72   35.60
  -1  22   1  712.03   32.90
  22 -21   1  663.63   35.20
  22 -21   1  721.63   40.00
 -21  -1   1  676.73   30.00
  24  -2  -1  839.62   42.30
 -22  24  -1  780.72   38.40
 -22  24  -1  795.32   38.50
  -2 -22  -1  801.02   37.10
   2  22   1  776.92   37.50
  22 -24   1  774.72   38.90
 -24   2   1  825.32   33.40
  22 -24   1  827.62   45.80
 -24   2   1  822.62   42.90
  27  -5  -1  558.64   40.10
 -22  27  -1  652.23   38.00
  -5 -22  -1  632.64   36.80
   5  22   1  623.34   37.60
  22 -27   1  646.04   46.70
  22 -27   1  536.05   37.30
 -27   5   1  585.24   40.90
 -22  30  -1  374.96   37.30
  30  -8  -1  323.47   39.60
  -8 -22  -1  321.87   35.40
  -8 -22  -1  363.36   49.50
 -30   8   1  435.96   43.10
  22 -30   1  440.56   39.10
  22 -30   1  512.25   48.20
  30 -23  -1   20.40   26.30
 -23  -7  -1   77.09   29.90
  30 -23  -1   57.79   22.40
  -7  30  -1   95.39   22.00
 -23  -7  -1   31.80   17.40
 -30  23   1   67.29   20.10
   7 -30   1   67.49   20.80
  27 -23  -1  263.97   31.50
  27 -23  -1  292.77   31.50
 -23  -4  -1  284.27   33.80
 -23  -4  -1  271.57   29.00
  -4  27  -1  306.67   30.10
 -27  23   1  282.87   29.00
  24 -23  -1  551.74   34.60
  -1  24  -1  548.45   33.20
  24 -23  -1  553.54   38.90
  -1  24  -1  584.24   36.50
 -23  -1  -1  577.94   41.00
 -24  23   1  509.05   30.40
   2  21  -1  724.33   33.60
  21 -23  -1  728.53   34.50
  21 -23  -1  721.53   39.20
   2  21  -1  719.93   38.20
 -23   2  -1  759.62   41.50
 -21  23   1  717.33   31.00
   5  18  -1  852.61   39.50
 -23   5  -1  857.11   40.10
  18 -23  -1  821.62   35.20
  18 -23  -1  846.22   38.30
 -18  23   1  849.02   30.80
 -18  23   1  791.82   31.30
  -5 -18   1  770.02   33.80
 -23   8  -1  761.72   43.20
  15 -23  -1  775.42   33.10
   8  15  -1  774.62   37.90
  15 -23  -1  765.12   35.10
  -8 -15   1  902.61   35.20
 -15  23   1  840.62   30.50
  -8 -15   1  862.21   40.90
  23  -8   1  878.11   41.60
  23  -8   1  907.61   38.60
 -15  23   1  889.01   32.90
 -23  11  -1 1069.99   40.90
  11  12  -1 1017.00   41.20
  12 -23  -1 1047.30   39.00
  12 -23  -1  994.30   36.70
  23 -11   1 1049.99   42.80
 -12  23   1 1035.50   33.40
  23 -11   1 1018.40   40.30
 -11 -12   1 1061.39   36.50
 -12  23   1 1048.40   34.90
 -23  14  -1  370.56   27.80
   9 -23  -1  352.36   28.20
   9 -23  -1  342.17   24.70
  23 -14   1  308.07   26.10
  -9  23   1  331.77   22.70
  -9  23   1  359.26   22.80
  23 -14   1  332.17   29.00
 -14  -9   1  324.67   22.60
   6 -23  -1   12.50   12.40
 -23  17  -1    4.30   13.00
  23 -17   1   27.20   12.40
  23 -17   1   38.30   16.60
  -6  23   1   26.90   12.00
  -6  23   1   12.20   11.50
 -17  -6   1   34.00   10.80
  20   3  -1    0.20   13.30
 -23  20  -1   21.00   14.90
   3 -23  -1   -0.30   11.90
  23 -20   1  -10.10   15.50
 -20  -3   1   -4.10   10.70
  -3  23   1   -0.40   11.70
  23 -20   1   -9.80   13.60
 -20  -3   1   21.50   16.60
  -3  23   1   -4.90   11.70
  23   0  -1  -13.20   13.60
   0 -23  -1   31.20   14.00
 -23  23  -1  -13.20   15.40
   0  23   1   10.30   24.20
  23 -23   1   10.40   14.80
 -23   0   1   -0.20   17.30
  23 -23   1   31.40   20.90
 -23   0   1   12.90   11.90
  -3 -23  -1  131.19   20.90
  26  -3  -1  118.99   22.80
 -23  26  -1  137.79   22.40
  23 -26   1  128.29   25.80
 -26   3   1   93.39   23.10
   3  23   1  130.09   20.30
  23 -26   1   95.69   21.00
  -6 -23  -1   90.19   20.20
  -6 -23  -1  231.38   36.30
 -23  29  -1  151.28   24.30
  29  -6  -1  159.28   26.80
  23 -29   1  147.29   30.40
  23 -29   1  144.59   25.30
 -29   6   1  131.69   27.50
 -23  32  -1  295.07   39.10
  32  -9  -1  230.98   28.10
 -23  32  -1  205.28   28.20
  32  -9  -1  245.18   39.10
  -9 -23  -1  242.28   40.20
 -32   9   1  342.87   45.60
   9  23   1  293.97   34.30
  23 -32   1  158.88   28.20
  23 -32   1  230.28   36.40
  -8  32  -1   59.69   24.70
  32 -24  -1   47.50   30.00
  32 -24  -1   73.39   24.30
  -8  32  -1   96.99   24.80
 -24  -8  -1   53.29   33.50
 -24  -8  -1   90.39   39.20
 -32  24   1   61.79   21.90
 -24  -5  -1    4.90   24.80
  -5  29  -1   17.80   18.00
 -24  -5  -1   -6.60   15.50
  29 -24  -1  -38.80   20.90
  29 -24  -1    5.30   20.10
 -29  24   1   29.20   17.30
   5 -29   1   -0.90   19.50
 -24  -2  -1  125.09   27.40
  26 -24  -1  178.08   25.00
  -2  26  -1  217.48   25.00
  26 -24  -1  164.78   26.70
 -26  24   1  178.28   22.00
   1  23  -1  576.44   32.60
   1  23  -1  554.74   35.80
  23 -24  -1  571.74   34.00
 -24   1  -1  612.44   41.10
  23 -24  -1  426.16   43.90
 -23  24   1  529.75   30.20
 -24   4  -1  516.45   36.20
  20 -24  -1  469.55   30.30
   4  20  -1  477.35   33.50
  20 -24  -1  447.56   34.40
 -20  24   1  454.85   26.40
  17 -24  -1  181.78   21.50
  17 -24  -1  173.48   22.00
 -24   7  -1  171.88   21.80
   7  17  -1  136.49   21.30
 -17  24   1  206.58   20.70
  24  -7   1  144.39   21.20
  24  -7   1  232.28   30.30
 -17  24   1  206.78   20.60
  -7 -17   1  224.08   23.70
  -7 -17   1  260.97   30.90
  14 -24  -1  611.74   33.40
  14 -24  -1  593.04   30.50
 -24  10  -1  548.95   35.00
  10  14  -1  555.64   34.20
 -14  24   1  604.64   27.50
 -10 -14   1  609.54   30.00
  24 -10   1  601.44   37.00
 -10 -14   1  668.93   38.30
  24 -10   1  548.75   32.50
 -14  24   1  590.44   28.70
  11 -24  -1  183.18   21.40
  11 -24  -1  196.48   22.80
 -13 -11   1  195.28   20.70
 -11  24   1  178.58   20.50
 -13 -11   1  186.58   23.40
 -11  24   1  175.58   20.30
  24 -13   1  141.09   20.20
  24 -13   1  195.18   24.20
   8 -24  -1   73.39   16.80
   8 -24  -1   48.80   13.30
  24 -16   1   35.40   17.10
  -8  24   1   46.70   12.90
  24 -16   1   39.20   15.90
 -16  -8   1   53.69   12.80
  -8  24   1   65.19   13.80
 -16  -8   1   72.69   18.70
 -24  19  -1  412.06   31.10
   5 -24  -1  393.06   28.50
 -19  -5   1  416.06   25.70
  24 -19   1  457.35   35.80
  -5  24   1  383.76   26.50
  -5  24   1  417.06   26.70
 -19  -5   1  411.06   33.40
  24 -19   1  385.86   30.30
   2 -24  -1  904.81   39.40
  22   2  -1  921.91   43.70
 -24  22  -1  903.91   40.80
  -2  24   1  869.61   38.00
  24 -22   1  808.62   44.60
 -22  -2   1  819.12   43.40
  24 -22   1  809.32   40.50
 -22  -2   1  799.62   33.80
  25  -1  -1  669.23   42.40
  -1 -24  -1  639.34   37.00
 -24  25  -1  625.64   38.40
 -25   1   1  602.94   42.00
  24 -25   1  586.34   39.60
  24 -25   1  551.24   44.50
   1  24   1  546.35   34.60
  28  -4  -1  568.04   44.10
  -4 -24  -1  590.64   38.70
 -24  28  -1  535.55   38.90
  24 -28   1  639.24   42.60
   4  24   1  558.34   39.50
 -28   4   1  543.85   44.20
  24 -28   1  597.04   50.29
 -24  31  -1  142.59   24.50
  -7 -24  -1  125.89   33.30
  -7 -24  -1   91.59   20.40
  31  -7  -1   75.59   26.20
 -24  31  -1  124.29   24.70
   7  24   1  152.38   28.30
  24 -31   1  104.09   21.40
  24 -31   1  107.59   32.20
 -31   7   1  156.68   30.50
 -25  -6  -1  211.28   38.00
  -6  31  -1  195.18   28.80
  -6  31  -1  194.98   29.40
  31 -25  -1  200.48   32.10
 -25  -6  -1  152.38   21.20
   6 -31   1   98.79   28.30
 -31  25   1  189.68   25.40
  28 -25  -1  121.29   25.00
 -25  -3  -1   81.39   18.80
  28 -25  -1   76.79   26.00
 -25  -3  -1   25.40   27.10
  -3  28  -1   56.69   19.30
   3 -28   1   50.79   21.00
 -28  25   1   78.29   19.40
   0  25  -1  -15.90   15.80
  25 -25  -1  -20.70   15.40
 -25   0  -1  -25.90   19.70
   0  25  -1   20.50   16.10
  25 -25  -1  -19.80   19.20
 -25  25   1    0.40   14.10
  22 -25  -1  139.59   35.10
   3  22  -1  127.59   21.30
  22 -25  -1  109.69   18.40
 -25   3  -1  112.89   22.90
 -22  25   1  111.09   18.00
  19 -25  -1   11.50   16.30
 -25   6  -1   -6.40   16.50
  19 -25  -1   -2.00   12.30
   6  19  -1   18.80   15.20
 -19  25   1    1.30   11.60
 -19  25   1   -8.80   10.50
  16 -25  -1  102.79   19.40
   9  16  -1   83.39   18.70
 -25   9  -1   67.39   17.90
  16 -25  -1  113.49   19.10
  25  -9   1  101.09   22.20
 -16  25   1  103.49   15.60
  -9 -16   1   58.19   19.50
  25  -9   1   72.39   16.40
 -16  25   1   80.19   14.80
  -9 -16   1  123.79   19.10
  13 -25  -1  120.89   17.70
 -25  12  -1  125.59   19.90
  12  13  -1  124.09   21.10
  13 -25  -1  146.09   20.50
 -12 -13   1  191.28   22.00
  25 -12   1  151.18   22.10
 -13  25   1  151.48   17.90
  25 -12   1  182.68   23.50
 -13  25   1  186.08   21.50
 -12 -13   1  142.89   22.20
  10 -25  -1  213.68   27.20
  10 -25  -1  198.18   23.90
 -25  15  -1  157.58   20.60
 -15 -10   1  175.38   19.70
 -10  25   1  176.38   21.90
 -10  25   1  161.18   18.70
 -15 -10   1  173.88   24.00
  25 -15   1  166.28   21.70
  25 -15   1  157.28   22.60
 -25  18  -1  398.06   31.30
   7 -25  -1  406.16   29.00
 -18  -7   1  353.16   33.30
  -7  25   1  249.97   24.10
  25 -18   1  257.57   28.00
  -7  25   1  355.06   26.70
  25 -18   1  401.56   35.10
 -18  -7   1  298.57   23.70
 -25  21  -1  958.20   42.30
   4 -25  -1  901.71   39.50
 -21  -4   1  874.91   43.90
  25 -21   1  900.91   46.90
  -4  25   1  844.32   36.90
 -21  -4   1  796.82   33.80
  25 -21   1  895.31   41.60
  -4  25   1  872.21   36.40
   1 -25  -1  714.63   38.90
 -25  24  -1  654.63   39.00
  24   1  -1  670.23   42.20
  -1  25   1  717.53   37.70
 -24  -1   1  671.73   44.30
  25 -24   1  649.83   46.30
  25 -24   1  627.64   40.80
  27  -2  -1  644.24   45.20
 -25  27  -1  660.33   41.60
  -2 -25  -1  688.43   40.40
  25 -27   1  692.43   51.49
 -27   2   1  724.43   48.00
  25 -27   1  715.33   44.70
   2  25   1  696.83   40.40
  30  -5  -1  329.57   43.80
 -25  30  -1  236.98   29.30
  -5 -25  -1  162.88   24.20
 -25  30  -1  278.07   35.40
 -30   5   1  209.68   31.60
 -30   5   1  223.98   29.80
  25 -30   1  258.47   38.00
  25 -30   1  190.78   29.10
  30 -26  -1   81.19   29.20
 -26  -4  -1   87.59   19.30
  -4  30  -1  146.99   27.40
  -4  30  -1   77.49   25.60
  30 -26  -1  127.49   27.20
 -26  -4  -1   59.59   32.90
   4 -30   1   81.49   22.10
 -30  26   1  157.08   23.70
  -1  27  -1  185.88   25.90
 -26  -1  -1  172.98   32.00
  27 -26  -1  183.08   26.40
  27 -26  -1  168.08   28.30
  26   1   1  165.48   26.30
 -27  26   1  207.98   23.60
   1 -27   1  275.67   34.60
 -26   2  -1   66.99   24.50
  24 -26  -1   58.39   21.90
  24 -26  -1   73.69   20.50
 -24  26   1   73.19   17.90
 -26   5  -1   76.49   21.60
  21 -26  -1   93.39   19.00
  21 -26  -1   89.89   21.90
   5  21  -1   55.79   18.90
 -21  26   1   78.89   16.40
  18 -26  -1  169.78   23.10
  18 -26  -1  139.29   20.30
   8  18  -1  122.99   20.50
 -26   8  -1   95.29   20.30
 -18  26   1  171.78   19.20
  -8 -18   1  140.39   24.20
 -18  26   1  167.98   19.70
  26  -8   1  205.78   27.00
  11  15  -1  667.93   38.20
  15 -26  -1  562.34   35.10
 -26  11  -1  612.34   37.40
  15 -26  -1  648.24   33.80
  26 -11   1  593.24   36.20
 -15  26   1  626.94   30.50
 -11 -15   1  622.74   40.30
 -15  26   1  688.83   31.90
  26 -11   1  639.74   39.90
  12 -26  -1  257.27   26.10
  12 -26  -1  236.08   28.30
 -26  14  -1  199.48   24.10
  26 -14   1  262.37   28.30
 -14 -12   1  215.58   22.70
  26 -14   1  261.87   32.20
 -12  26   1  273.47   24.00
 -14 -12   1  266.87   32.40
 -12  26   1  234.28   23.80
   9 -26  -1   77.19   18.80
 -26  17  -1  103.99   20.40
   9 -26  -1   92.29   18.00
  -9  26   1   62.39   15.00
  -9  26   1   67.09   15.80
  26 -17   1   48.20   20.60
 -17  -9   1   23.40   11.50
  26 -17   1   49.40   16.90
 -17  -9   1   41.00   20.50
 -26  20  -1  195.98   24.50
   6 -26  -1  174.58   22.00
  26 -20   1  165.98   26.00
  -6  26   1  160.48   21.00
 -20  -6   1  237.48   28.50
  -6  26   1  188.68   25.00
  26 -20   1  160.88   21.60
 -26  23  -1    3.80   17.40
   3 -26  -1   22.20   16.90
  26 -23   1   18.10   21.90
  -3  26   1   23.90   15.60
  26 -23   1   11.50   17.40
 -23  -3   1   16.50   22.50
   0 -26  -1  -21.00   17.10
 -26  26  -1   33.10   19.80
  26   0  -1   47.80   20.70
   0  26   1  -18.70   16.90
 -26   0   1   21.70   23.80
  26 -26   1   -1.30   20.00
  26 -26   1   21.10   25.30
  29  -3  -1   68.79   26.30
 -26  29  -1   77.89   23.60
  -3 -26  -1   11.80   19.20
  26 -29   1   36.90   23.20
 -29   3   1   10.40   15.90
  26 -29   1   14.00   27.30
 -29   3   1   45.50   26.10
   3  26   1  -16.80   21.50
  29 -27  -1  114.69   29.50
  -2  29  -1   88.49   25.30
  29 -27  -1   59.79   23.20
 -27  -2  -1   59.69   29.30
  -2  29  -1  108.99   25.80
 -27  -2  -1   54.59   19.50
 -29  27   1   74.59   20.30
   2 -29   1   44.70   20.00
  26 -27  -1  197.18   29.70
  26 -27  -1  218.48   27.70
 -27   1  -1  200.38   31.70
  27  -1   1  184.08   28.80
  -1 -26   1  153.98   25.80
 -26  27   1  164.38   22.40
  23 -27  -1  258.27   31.00
 -27   4  -1  195.98   28.30
  23 -27  -1  262.47   36.60
 -23  27   1  207.88   26.10
 -27   7  -1  186.88   25.80
  20 -27  -1  187.18   26.10
  20 -27  -1  178.18   23.40
  -7 -20   1  201.88   29.20
 -20  27   1  137.09   18.80
  27  -7   1  191.98   28.40
 -20  27   1  180.88   20.30
  17 -27  -1  326.27   29.00
  17 -27  -1  349.77   33.20
 -27  10  -1  309.27   34.70
  27 -10   1  396.66   39.00
 -10 -17   1  343.37   38.90
 -17  27   1  397.56   28.00
  27 -10   1  283.77   31.60
 -17  27   1  355.56   27.00
  14 -27  -1  118.19   21.70
 -27  13  -1  101.59   20.80
  14 -27  -1   98.49   18.20
 -14  27   1  101.69   17.00
 -13 -14   1  112.29   23.80
  27 -13   1   92.19   20.40
 -14  27   1  108.29   17.30
  27 -13   1  103.49   20.10
 -27  16  -1  233.98   30.60
  11 -27  -1  178.48   23.00
  11 -27  -1  183.88   23.60
  27 -16   1  255.17   29.80
 -16 -11   1  229.28   28.10
 -11  27   1  233.38   24.90
  27 -16   1  170.38   24.70
 -27  19  -1  412.96   35.60
   8 -27  -1  380.16   31.80
  -8  27   1  448.96   30.80
  27 -19   1  486.05   40.70
  -8  27   1  442.56   31.40
  27 -19   1  382.66   33.80
 -19  -8   1  479.55   38.70
 -27  22  -1  757.02   41.50
   5 -27  -1  744.83   40.10
 -22  -5   1  750.52   46.50
  27 -22   1  674.43   41.50
  27 -22   1  676.03   47.30
  -5  27   1  736.63   38.10
  -5  27   1  687.53   36.00
   2 -27  -1  717.33   41.70
 -27  25  -1  626.14   41.90
  25   2  -1  552.64   43.90
  27 -25   1  791.32   53.09
  27 -25   1  811.92   46.90
  -2  27   1  777.42   41.50
 -25  -2   1  716.03   36.50
 -25  -2   1  712.93   47.70
 -27  28  -1  440.76   41.10
  -1 -27  -1  440.46   39.50
  28  -1  -1  389.56   44.00
 -28   1   1  391.56   31.90
 -28   1   1  489.25   48.90
  27 -28   1  530.75   53.29
  27 -28   1  475.15   43.90
 -28   0  -1   37.70   29.80
  28 -28  -1  -26.50   25.30
  28 -28  -1   -7.00   21.00
   0  28  -1   30.00   22.90
 -28  28   1   -9.30   17.30
  28   0   1   17.70   22.00
   0 -28   1   40.60   19.00
   3  25  -1   76.99   28.20
  25 -28  -1  101.19   26.80
  25 -28  -1   95.69   21.60
 -28   3  -1   55.39   26.30
  28  -3   1   99.49   24.90
  -3 -25   1   97.89   22.80
 -25  28   1   83.29   18.80
 -28   6  -1  212.18   29.80
  22 -28  -1  197.28   27.80
  22 -28  -1  206.78   26.90
  28  -6   1  235.38   30.60
  -6 -22   1  242.08   31.70
  28  -6   1  241.58   32.80
  -6 -22   1  153.68   29.00
  19 -28  -1  146.69   26.50
 -28   9  -1  137.79   24.20
  19 -28  -1  110.39   20.70
  28  -9   1  146.79   25.30
  -9 -19   1  183.08   24.50
  -9 -19   1  158.78   26.40
  28  -9   1  165.88   28.00
 -19  28   1  169.28   21.60
 -19  28   1  148.39   19.80
  16 -28  -1   -1.90   15.30
 -28  12  -1  -20.70   19.00
  16 -28  -1    8.90   17.60
  28 -12   1   15.10   19.60
  28 -12   1    0.20   14.80
 -16  28   1  -10.10   15.40
 -12 -16   1   -2.50   19.90
 -28  15  -1  309.77   35.20
  13 -28  -1  239.08   27.40
  13 -28  -1  290.57   30.10
 -13  28   1  254.37   28.00
  28 -15   1  245.28   29.40
 -13  28   1  244.58   30.20
  28 -15   1  236.98   32.40
 -15 -13   1  195.18   28.20
  10 -28  -1  325.97   31.10
  10 -28  -1  372.86   35.30
 -28  18  -1  314.47   35.30
  28 -18   1  339.57   34.10
 -18 -10   1  326.17   38.10
 -10  28   1  389.56   29.20
  28 -18   1  381.86   39.30
   7 -28  -1  446.46   35.30
 -28  21  -1  447.66   38.20
  28 -21   1  442.26   37.50
  -7  28   1  398.06   32.40
  -7  28   1  489.45   32.50
 -21  -7   1  479.65   41.80
 -21  -7   1  460.25   40.30
  28 -21   1  440.56   44.30
   4 -28  -1  670.23   41.30
 -28  24  -1  623.44   41.90
  -4  28   1  613.84   37.50
 -24  -4   1  571.44   47.50
  28 -24   1  575.04   42.50
  28 -24   1  572.44   50.69
 -24  -4   1  566.44   32.90
 -28  27  -1  458.55   42.40
  27   1  -1  275.37   32.70
   1 -28  -1  424.06   39.90
  28 -27   1  403.56   43.00
 -27  -1   1  426.76   49.10
 -27  -1   1  375.46   31.30
  -1  28   1  315.07   36.80
  28 -27   1  505.15   53.29
 -30   2   1  249.68   36.40
  27 -29  -1   65.29   29.50
 -29   2  -1   33.80   29.10
  27 -29  -1   73.29   22.50
   2  27  -1   67.89   26.20
  29  -2   1   57.49   22.50
 -27  29   1   51.69   19.30
  -2 -27   1   23.20   19.60
  24 -29  -1   29.80   18.80
 -29   5  -1   26.80   26.60
   5  24  -1    6.80   21.10
  24 -29  -1   29.50   24.70
  -5 -24   1   12.30   20.20
  29  -5   1   38.10   23.40
 -24  29   1   26.00   16.60
   8  21  -1   30.20   24.10
 -29   8  -1   29.00   22.80
  21 -29  -1   40.40   22.90
  21 -29  -1    6.20   18.40
  -8 -21   1   46.10   24.80
 -21  29   1   63.69   17.40
  -8 -21   1   71.39   19.20
 -21  29   1   41.50   16.90
  29  -8   1   41.60   23.60
  29  -8   1   55.79   19.60
  18 -29  -1  196.58   24.20
 -29  11  -1  178.28   28.50
 -11 -18   1  226.68   32.40
 -18  29   1  232.98   27.00
  29 -11   1  208.28   31.30
  29 -11   1  187.38   27.50
 -18  29   1  204.88   26.60
 -11 -18   1  248.38   30.40
 -29  14  -1   46.60   22.60
  14  15  -1   28.00   21.00
  15 -29  -1   74.09   21.10
  15 -29  -1   87.89   23.60
 -15  29   1   56.19   16.00
  29 -14   1   37.60   22.00
 -14 -15   1   41.90   16.30
 -14 -15   1   70.69   24.30
  29 -14   1   47.50   20.00
 -15  29   1   66.29   17.20
  12 -29  -1  332.47   33.00
 -29  17  -1  354.56   37.30
  12 -29  -1  289.07   37.50
 -17 -12   1  251.27   30.90
 -17 -12   1  248.68   28.60
  29 -17   1  225.38   29.70
 -12  29   1  293.17   28.20
 -12  29   1  241.18   28.30
  29 -17   1  257.57   35.10
 -29  20  -1  209.78   27.90
   9 -29  -1  190.08   24.40
  -9  29   1  228.48   29.50
  29 -20   1  328.07   42.30
  -9  29   1  235.78   28.90
  29 -20   1  229.38   30.50
 -20  -9   1  250.47   32.30
 -20  -9   1  229.88   27.30
   6 -29  -1  135.39   24.30
 -29  23  -1  146.29   25.40
  29 -23   1  105.19   26.10
  29 -23   1  102.59   29.70
  -6  29   1  133.09   21.60
 -23  -6   1   73.39   17.10
 -23  -6   1   84.19   28.10
 -29  26  -1  -35.30   20.60
   3 -29  -1   -0.50   20.20
  -3  29   1   -4.30   18.50
 -26  -3   1   12.20   16.00
  29 -26   1    4.30   19.90
 -26  -3   1   -8.20   25.90
  29 -26   1    4.10   27.20
 -29  29  -1    1.20   24.10
 -29   0   1   -5.20   28.90
  29 -29   1  111.49   33.00
 -29   0   1    0.80   17.60
  26 -30  -1  165.58   32.70
  26 -30  -1  162.38   26.60
 -30   4  -1  175.08   35.60
   4  26  -1  140.29   29.30
  30  -4   1  117.59   25.70
 -26  30   1  178.98   22.90
  -4 -26   1   96.69   21.70
  23 -30  -1  117.79   23.70
   7  23  -1   72.49   26.10
 -30   7  -1   22.10   25.70
  23 -30  -1   46.10   27.40
  -7 -23   1   42.80   27.00
 -23  30   1   95.59   19.00
  30  -7   1   19.40   21.20
  30  -7   1   34.60   26.60
  -7 -23   1   91.09   23.10
  20 -30  -1   56.59   24.40
 -30  10  -1    5.10   24.10
  10  20  -1   56.79   22.50
  20 -30  -1   49.00   20.80
 -20  30   1   61.79   17.60
  30 -10   1   57.09   19.40
  30 -10   1   88.79   29.90
 -10 -20   1   35.00   26.20
 -20  30   1   85.09   19.10
 -10 -20   1   59.69   19.30
  17 -30  -1  107.89   26.70
 -30  13  -1   83.29   24.90
  17 -30  -1  113.29   22.60
  13  17  -1  126.49   25.00
 -13 -17   1  101.29   20.00
 -17  30   1  107.49   19.30
 -17  30   1  118.49   19.00
  30 -13   1   81.39   25.90
  30 -13   1   72.59   23.70
 -13 -17   1   83.79   25.90
 -30  16  -1  162.78   25.90
  14 -30  -1  167.48   24.10
  16  14  -1   95.69   23.30
 -16 -14   1  129.99   22.70
  30 -16   1  107.79   25.10
 -14  30   1  137.89   21.30
  30 -16   1  139.19   23.30
 -16 -14   1  148.89   29.00
 -14  30   1  114.59   19.60
  11 -30  -1  145.99   27.60
 -30  19  -1  119.29   25.00
  11 -30  -1  166.08   24.70
 -19 -11   1  171.28   23.30
  30 -19   1  189.08   32.30
 -11  30   1  150.98   22.10
 -19 -11   1  136.49   27.10
 -11  30   1  154.18   21.50
  30 -19   1  156.28   27.80
   8 -30  -1  517.05   40.40
 -30  22  -1  547.25   43.90
  -8  30   1  552.24   37.60
 -22  -8   1  548.55   35.00
  30 -22   1  617.54   51.99
 -22  -8   1  595.64   50.09
  -8  30   1  527.45   36.20
  30 -22   1  531.85   42.20
   5 -30  -1  173.88   26.60
 -30  25  -1  316.87   40.30
  30 -25   1  362.66   42.80
  30 -25   1  154.68   26.60
 -25  -5   1  228.28   29.30
  -5  30   1  270.47   29.00
 -25  -5   1  200.98   36.20
 -28  -2   1  256.77   40.00
 -31   6  -1  134.39   32.10
  25 -31  -1  106.99   31.10
  25 -31  -1  161.88   28.00
   6  25  -1  177.38   29.90
 -25  31   1  132.29   21.50
  -6 -25   1   88.49   27.50
  31  -6   1  138.69   32.10
  31  -6   1  114.19   28.80
  -6 -25   1  116.89   31.40
   9  22  -1   65.39   24.20
  22 -31  -1   25.00   21.40
  22 -31  -1   48.50   26.10
 -31   9  -1   37.70   26.30
  -9 -22   1   61.49   21.70
  31  -9   1   61.89   25.20
  31  -9   1   55.59   29.40
 -22  31   1   36.10   18.10
  -9 -22   1   24.40   30.10
 -22  31   1   43.80   18.40
  19 -31  -1   91.59   26.70
  12  19  -1  112.49   26.90
 -31  12  -1   35.50   26.30
  19 -31  -1   55.89   21.80
 -19  31   1  102.19   19.80
  31 -12   1   87.69   26.60
  31 -12   1   87.79   24.00
 -19  31   1  128.59   19.90
 -12 -19   1   90.19   20.90
 -12 -19   1   83.39   30.00
  15  16  -1   49.70   22.80
 -31  15  -1   50.29   24.90
  16 -31  -1   76.99   21.10
  16 -31  -1   30.20   23.00
  31 -15   1   28.80   20.60
 -15 -16   1   85.89   21.30
 -15 -16   1   40.40   25.30
 -16  31   1   48.80   17.40
  31 -15   1   36.10   27.50
 -16  31   1   14.30   16.90
  13 -31  -1  233.88   30.40
  18  13  -1  143.59   26.90
 -31  18  -1  186.98   28.70
  13 -31  -1  201.18   27.40
 -18 -13   1  243.08   28.10
 -13  31   1  184.68   22.70
 -18 -13   1  209.48   33.30
 -13  31   1  152.48   22.90
  31 -18   1  170.98   29.70
  31 -18   1  175.38   26.60
  10 -31  -1  449.86   41.30
 -31  21  -1  375.36   43.10
  31 -21   1  364.66   41.80
 -21 -10   1  354.26   33.80
 -10  31   1  391.36   35.40
  31 -21   1  363.96   42.20
 -21 -10   1  438.46   49.30
 -10  31   1  408.66   33.50
 -31  24  -1  368.46   44.10
   7 -31  -1  220.48   28.20
 -24  -7   1  262.97   31.60
  31 -24   1  339.77   39.90
  31 -24   1  326.67   39.60
 -24  -7   1  328.87   39.30
  -7  31   1  374.16   37.60
   8  24  -1  155.28   29.50
 -32   8  -1  100.89   32.00
  24 -32  -1  110.69   32.20
  24 -32  -1   80.49   23.80
  32  -8   1   91.89   29.50
  -8 -24   1  106.29   35.70
 -24  32   1   91.49   21.10
 -32  11  -1   48.10   30.00
  11  21  -1   86.09   26.80
  21 -32  -1   74.79   24.10
  21 -32  -1  109.29   30.00
 -11 -21   1   60.49   20.00
  32 -11   1   97.59   22.70
  32 -11   1   79.39   31.60
 -21  32   1  102.49   19.70
 -21  32   1  128.09   21.40
 -11 -21   1  124.69   33.20
  18 -32  -1  110.39   26.00
 -32  14  -1   91.79   28.20
  18 -32  -1  155.08   30.20
  14  18  -1  102.49   28.40
 -18  32   1  114.69   20.60
 -14 -18   1  112.09   24.30
 -14 -18   1   84.89   30.10
 -18  32   1   86.39   19.80
  32 -14   1   65.79   28.80
 -32  17  -1  161.98   30.50
  17  15  -1  124.59   28.10
  15 -32  -1  135.09   24.30
  15 -32  -1  158.38   29.10
 -17 -15   1  116.29   23.80
  32 -17   1  153.18   32.90
  32 -17   1  118.49   28.00
 -15  32   1  169.58   23.00
 -15  32   1  154.08   23.00
 -17 -15   1  119.09   31.40
  12 -32  -1   93.39   28.10
 -32  20  -1  105.59   27.40
  12 -32  -1  110.59   25.70
  32 -20   1   95.79   24.60
 -12  32   1  127.29   22.90
 -20 -12   1   48.80   31.90
 -12  32   1  114.39   22.20
 -20 -12   1   97.99   21.40
  32 -20   1  160.48   35.00
 -32  23  -1  117.79   29.40
   9 -32  -1  115.49   23.00
 -23  -9   1   91.89   21.00
  -9  32   1  172.38   25.30
  32 -23   1  124.09   25.60
  32 -23   1  176.58   37.10
 -23  -9   1  148.59   36.20
  -9  32   1  138.89   24.40
  13  20  -1   44.20   25.20
 -33  13  -1  150.38   33.10
  20 -33  -1   75.49   30.70
  20 -33  -1   62.39   23.20
 -13 -20   1  101.69   31.30
  33 -13   1   14.00   27.40
 -20  33   1  -14.40   16.40
 -13 -20   1   -2.00   32.00
  17 -33  -1   61.79   24.10
  17 -33  -1  112.09   31.20
  16  17  -1   59.09   27.50
 -33  16  -1   47.80   27.80
 -16 -17   1  123.59   34.90
 -17  33   1   85.09   21.30
  33 -16   1   -7.00   30.90
  33 -16   1   -4.30   26.10
 -17  33   1   80.09   20.60
 -16 -17   1   73.19   20.60
  14 -33  -1  243.28   29.50
  19  14  -1  208.18   30.20
  14 -33  -1  370.66   48.40
 -33  19  -1  234.38   34.20
 -14  33   1  257.77   33.00
  33 -19   1  269.67   41.30
 -19 -14   1  262.67   40.60
 -19 -14   1  164.38   22.20
 -14  33   1  280.97   35.00
  33 -19   1  146.29   34.40
   1   0  -2 2258.47   34.00
   0  -1  -2 2265.17   31.90
  -1   1  -2 2258.57   34.80
  -1   1  -2 2263.47   31.40
  -1   0   2 2262.37   33.90
   1  -1   2 2280.17   34.90
   0   1   2 2244.68   32.00
   0   2  -2 2227.68   36.10
  -2   0  -2 2239.48   33.50
   2  -2  -2 2159.08   31.50
  -2   0  -2 2241.68   32.20
   0   2  -2 2266.67   31.80
   0  -2   2 2398.76   32.50
   0  -2   2 2342.87   37.60
   2   0   2 2357.26   35.30
   2   0   2 2340.77   32.60
   3  -1  -2 2700.03   40.30
  -2   3  -2 2733.53   40.20
  -2   3  -2 2855.61   48.10
   1   2   2 2588.54   35.80
   2  -3   2 2654.83   42.00
   2  -3   2 2617.44   38.00
  -1   4  -2  279.67   12.00
  -3  -1  -2  284.07   10.00
  -1   4  -2  286.67    9.70
   1  -4   2  249.68    9.00
   3   1   2  251.77    9.10
   1  -4   2  257.37   11.80
   3   1   2  253.77    8.80
  -3   2  -2 1226.38   23.70
   1  -3  -2 1238.48   16.60
   2   1  -2 1279.07   24.20
   2   1  -2 1211.68   18.80
  -3   2  -2 1230.48   22.10
   3  -2   2 1166.58   23.20
   3  -2   2 1170.08   20.90
  -2  -1   2 1168.78   22.90
  -2  -1   2 1198.08   17.00
   5  -2  -2 2454.35   37.70
   5  -2  -2 2741.23   35.10
  -3   5  -2 2678.53   45.10
  -3   5  -2 2830.12   42.20
   3  -5   2 3065.99   49.80
   3  -5   2 3041.40   46.00
  -4  -2  -2 1802.52   32.40
  -2   6  -2 1826.52   32.10
   6  -4  -2 1879.71   26.60
  -2   6  -2 1861.01   36.10
   2  -6   2 1806.12   35.70
   2  -6   2 1811.22   31.70
  -4   1  -2    2.90    3.20
  -4   1  -2    9.20    3.60
   1   3  -2    7.60    3.00
   1   3  -2    7.90    3.90
  -1  -3   2   18.00    4.80
   4  -1   2   19.40    4.50
   4  -1   2   11.90    3.60
  -1  -3   2   17.20    3.30
  -4   4  -2  407.36   12.80
  -4   4  -2  391.06   13.80
   4   0  -2  399.96    9.10
   4   0  -2  403.86   10.00
   4  -4   2  512.55   14.90
  -4   0   2  526.25    9.80
  -4   0   2  503.85    9.50
   4  -4   2  521.55   16.20
  -4   7  -2 1040.00   23.60
   7  -3  -2 1077.39   20.00
  -4   7  -2 1106.09   26.70
  -7   3   2  813.62   13.90
  -7   3   2  814.52   13.40
   4  -7   2  809.22   20.00
   4  -7   2  826.12   23.10
  -3   8  -2  968.10   22.90
   8  -5  -2  938.21   18.90
  -3   8  -2  952.30   25.70
  -5  -3  -2  935.71   23.40
   3  -8   2 1034.00   23.60
   3  -8   2  973.90   26.60
  -8   5   2  992.90   16.20
  -5   0  -2 3372.36   52.09
   0   5  -2 3379.26   50.49
   5  -5  -2 3674.63   46.60
   0   5  -2 3427.56   55.59
   5   0   2 3353.26   49.90
   5   0   2 3297.07   49.90
   0  -5   2 3280.07   53.49
   0  -5   2 3274.27   48.40
   3   2  -2 3341.57   52.69
  -5   3  -2 3417.56   51.99
   3   2  -2 3334.87   46.50
  -5   3  -2 3413.06   50.99
  -3  -2   2 3534.45   49.10
   5  -3   2 3591.74   54.69
  -3  -2   2 3558.34   48.20
   5  -3   2 3585.94   52.89
  -5   6  -2  721.93   20.50
   6  -1  -2  702.83   14.50
   6  -1  -2  729.73   15.80
  -5   6  -2  739.53   19.10
  -6   1   2  596.14   11.60
  -6   1   2  598.54   12.40
   5  -6   2  611.24   16.90
   5  -6   2  563.44   18.60
  -4  -5  -2  367.96   15.60
  -5   9  -2  385.56   15.60
  -5   9  -2  390.66   17.00
   9  -4  -2  390.96   13.10
   5  -9   2  310.27   13.70
  -9   4   2  307.07    9.10
  -9   4   2  305.07   10.00
   5  -9   2  287.07   16.30
  -6  -4  -2 1183.38   29.20
  10  -6  -2 1171.18   24.60
  -4  10  -2 1158.88   30.90
  -4  10  -2 1163.78   28.10
   4 -10   2 1051.89   29.60
 -10   6   2  991.30   19.40
   4 -10   2 1025.60   25.80
  -1   7  -2  431.96   14.30
  -6  -1  -2  439.86   15.70
   7  -6  -2  417.06   10.60
  -1   7  -2  433.96   16.80
   1  -7   2  472.65   17.90
   6   1   2  450.95   15.20
   1  -7   2  443.06   14.40
  -6   2  -2 2221.38   37.80
   2   4  -2 2167.48   34.40
   2   4  -2 2198.58   39.90
  -6   2  -2 2058.29   36.70
   4  -6  -2 2105.79   29.30
   4  -6  -2 2157.88   28.80
   6  -2   2 2123.29   37.40
   6  -2   2 2152.58   36.70
  -2  -4   2 2053.99   38.60
  -2  -4   2 2139.79   34.00
   5   1  -2  430.26   12.70
   5   1  -2  420.06   11.30
  -6   5  -2  427.56   14.70
  -6   5  -2  415.66   15.10
   6  -5   2  358.76   13.10
  -5  -1   2  348.97   10.70
   6  -5   2  328.57   14.20
  -5  -1   2  338.17    9.50
  -6   8  -2 3390.26   58.09
  -6   8  -2 3502.25   55.69
   8  -2  -2 3436.56   52.09
   6  -8   2 3295.47   53.19
  -8   2   2 3151.98   44.70
   6  -8   2 3196.08   55.99
  -8   2   2 3246.18   46.50
  -6  11  -2 2222.88   46.80
  -6  11  -2 2239.18   43.20
  -5  -6  -2 2291.27   44.70
  11  -5  -2 2214.28   40.40
   6 -11   2 2180.88   46.70
 -11   5   2 2256.37   36.90
   6 -11   2 2219.48   43.30
  12  -7  -2  290.37   14.30
  -5  12  -2  307.27   16.30
  -7  -5  -2  282.17   18.00
  -5  12  -2  284.97   17.80
   5 -12   2  259.17   15.20
 -12   7   2  252.37   11.50
   5 -12   2  270.17   18.50
  -2   9  -2 1264.87   28.00
   9  -7  -2 1235.68   28.00
  -7  -2  -2 1261.17   29.80
  -2   9  -2 1272.37   31.80
   2  -9   2 1298.27   28.50
   2  -9   2 1297.77   32.50
   7   2   2 1261.37   29.00
  -9   7   2 1268.27   20.90
   6  -7  -2  466.65   11.30
   6  -7  -2  478.65   11.10
  -7   1  -2  468.85   16.40
   1   6  -2  449.76   17.50
   1   6  -2  482.55   14.60
   7  -1   2  536.15   16.90
  -1  -6   2  514.75   15.10
   7  -1   2  517.95   16.80
  -1  -6   2  572.04   19.20
   3  -7  -2 2107.09   31.60
  -7   4  -2 2152.58   38.80
   4   3  -2 2164.48   40.40
   3  -7  -2 2204.38   28.80
  -7   4  -2 2126.79   39.10
   4   3  -2 2188.08   34.80
  -4  -3   2 1882.91   30.60
   7  -4   2 1766.42   35.40
  -3   7   2 1879.81   25.10
   7  -4   2 1852.41   34.60
  -4  -3   2 1859.61   32.00
   7   0  -2 2101.29   35.90
  -7   7  -2 1984.10   39.90
  -7   7  -2 2090.99   38.70
  -7   0   2 1879.31   31.50
  -7   0   2 1783.82   32.00
   7  -7   2 1893.11   38.30
   7  -7   2 1858.41   35.80
  -7  10  -2 3332.87   59.29
  10  -3  -2 3255.47   52.79
  -7  10  -2 3256.77   55.49
   7 -10   2 3332.77   56.79
 -10   3   2 3341.07   48.60
   7 -10   2 3459.35   61.09
 -10   3   2 3296.87   50.49
  -7  13  -2 2297.17   46.30
  -6  -7  -2 2347.07   48.60
  13  -6  -2 2304.87   44.30
  -7  13  -2 2324.77   50.29
   7 -13   2 2342.17   50.89
   7 -13   2 2291.17   46.80
 -13   6   2 2325.77   40.60
  -6  14  -2  288.67   17.10
  14  -8  -2  308.97   15.90
  -8  -6  -2  320.27   20.00
  -6  14  -2  290.07   19.30
   6 -14   2  265.77   20.00
 -14   8   2  269.97   13.40
   6 -14   2  282.57   17.00
  -3  11  -2 2103.29   45.80
  -3  11  -2 2110.79   41.20
  -8  -3  -2 2093.19   43.80
  11  -8  -2 2169.18   38.50
   8   3   2 2113.89   42.90
   3 -11   2 2132.89   41.80
   3 -11   2 2102.69   45.80
 -11   8   2 2078.79   33.50
   8  -8  -2 5002.70   70.59
   0   8  -2 4855.11   71.39
   8  -8  -2 4758.42   67.09
   0   8  -2 4893.41   77.69
  -8   0  -2 4825.72   74.59
   0  -8   2 5241.28   81.19
   0  -8   2 5072.69   74.79
   8   0   2 5184.58   77.49
  -8   8   2 5087.99   65.29
   3   5  -2  424.86   17.30
   3   5  -2  419.46   13.70
   5  -8  -2  423.76   10.30
  -8   3  -2  421.86   16.40
   5  -8  -2  424.66   11.10
  -5   8   2  548.35   11.20
  -3  -5   2  537.95   15.30
   8  -3   2  559.34   18.30
   8  -3   2  531.25   17.40
   2  -8  -2 2568.94   38.80
   6   2  -2 2524.35   42.80
  -8   6  -2 2563.84   45.30
   6   2  -2 2552.14   40.40
  -8   6  -2 2447.56   45.60
   8  -6   2 2429.06   43.40
  -6  -2   2 2329.17   39.30
  -2   8   2 2366.66   33.90
   8  -6   2 2356.36   44.60
  -6  -2   2 2417.66   37.80
  -8   9  -2  797.82   24.60
  -8   9  -2  782.52   23.00
   9  -1  -2  776.02   21.10
  -1  -8  -2  771.02   19.30
  -9   1   2  904.51   19.30
  -9   1   2  903.81   21.30
   8  -9   2  917.01   27.50
   8  -9   2  906.61   24.80
  12  -4  -2  423.66   17.50
  -8  12  -2  401.06   18.90
  -8  12  -2  406.06   20.10
 -12   4   2  446.16   16.10
   8 -12   2  487.95   22.80
   8 -12   2  457.85   19.40
  -7  -8  -2  128.19   16.60
  -8  15  -2  152.08   15.90
  15  -7  -2  126.09   13.30
  -8  15  -2  108.49   14.50
 -15   7   2  185.68   13.20
   8 -15   2  201.28   19.10
   8 -15   2  196.48   15.80
  -7  16  -2 1395.26   36.10
  -7  16  -2 1406.06   40.10
  -9  -7  -2 1369.86   39.50
  16  -9  -2 1329.27   34.70
 -16   9   2 1228.38   28.80
   7 -16   2 1167.98   37.70
   7 -16   2 1175.48   34.00
  13  -9  -2 1652.73   35.10
  -9  -4  -2 1723.23   40.90
  -4  13  -2 1684.93   37.40
  -4  13  -2 1639.04   41.50
   4 -13   2 1483.25   39.40
 -13   9   2 1478.95   28.60
   4 -13   2 1518.95   35.90
  -1  10  -2 1000.00   29.60
  -1  10  -2 1010.10   26.00
  -9  -1  -2  990.00   28.20
  10  -9  -2 1010.60   22.80
  10  -9  -2 1018.90   23.50
 -10   9   2 1016.90   19.50
   1 -10   2 1066.79   31.10
   1 -10   2 1051.29   26.50
   9   1   2 1012.70   27.80
   7  -9  -2 1042.30   20.60
   2   7  -2 1062.09   29.00
  -9   2  -2 1096.69   27.70
   7  -9  -2  998.80   23.70
   2   7  -2 1085.69   24.70
   9  -2   2 1053.39   26.70
  -7   9   2 1019.10   17.60
  -2  -7   2 1108.89   29.30
   9  -2   2  997.30   26.30
  -2  -7   2 1033.80   24.00
  -9   5  -2  584.54   19.30
   5   4  -2  624.94   21.20
  -9   5  -2  594.84   20.00
   4  -9  -2  594.14   13.10
   5   4  -2  621.84   17.00
   4  -9  -2  603.94   15.00
  -4   9   2  504.45   11.40
   9  -5   2  476.05   18.60
  -5  -4   2  497.75   14.90
   9  -5   2  525.15   18.20
  -5  -4   2  524.25   17.00
  -9   8  -2  809.22   23.70
  -9   8  -2  790.42   24.30
   1  -9  -2  773.22   19.00
   8   1  -2  773.82   21.60
  -8  -1   2  854.81   19.50
   9  -8   2  842.82   23.90
  -1   9   2  824.02   18.00
   9  -8   2  854.51   25.90
  -8  -1   2  832.62   21.30
  11  -2  -2  951.00   25.50
  -9  11  -2  972.10   27.40
  -9  11  -2  947.81   29.10
  -2  -9  -2  962.10   24.10
   9 -11   2  830.42   25.60
 -11   2   2  838.52   22.20
   9 -11   2  857.01   28.70
 -11   2   2  894.81   20.70
  -9  14  -2 3008.90   56.19
  14  -5  -2 2931.81   54.49
  -5  -9  -2 2891.91   52.49
  -9  14  -2 2966.70   59.69
   9 -14   2 2692.83   56.99
   9 -14   2 2642.64   52.99
 -14   5   2 2710.53   47.60
  -8  -9  -2 1107.19   31.30
  17  -8  -2 1085.09   32.30
  -9  17  -2 1094.99   33.10
  -8  -9  -2 1109.49   36.50
  -9  17  -2 1060.19   35.50
   9 -17   2 1081.09   37.20
 -17   8   2 1080.59   28.80
   9 -17   2 1080.19   33.70
  -8  18  -2  888.21   30.30
  -8  18  -2  844.12   33.10
 -10  -8  -2  892.31   34.00
  18 -10  -2  834.82   29.40
   8 -18   2  720.83   28.50
 -18  10   2  771.42   24.50
   8 -18   2  779.22   33.20
  -5  15  -2 1482.55   40.70
  15 -10  -2 1539.85   35.90
  15 -10  -2 1524.15   36.50
  -5  15  -2 1510.15   37.20
 -10  -5  -2 1556.64   41.10
   5 -15   2 1512.55   37.80
 -15  10   2 1484.95   30.90
   5 -15   2 1496.55   41.70
  12 -10  -2  147.19   11.20
  12 -10  -2  163.38   12.60
  -2  12  -2  165.58   13.90
 -10  -2  -2  155.48   16.00
  -2  12  -2  156.38   16.10
   2 -12   2  158.08   13.30
 -12  10   2  162.08    9.70
   2 -12   2  160.88   17.30
  10   2   2  171.58   15.00
 -10   1  -2  635.24   22.80
   1   9  -2  616.54   20.00
   9 -10  -2  604.94   17.00
   9 -10  -2  621.84   17.30
   1   9  -2  643.74   24.00
  10  -1   2  707.73   23.40
  -1  -9   2  743.43   26.00
  -1  -9   2  679.63   21.00
  -9  10   2  686.43   15.20
 -10   4  -2 2296.67   44.60
   6 -10  -2 2259.37   36.90
   6 -10  -2 2278.87   35.60
   4   6  -2 2306.27   46.50
   4   6  -2 2284.47   40.30
  10  -4   2 2109.59   42.20
  -4  -6   2 2094.39   37.60
  10  -4   2 2060.19   41.50
  -6  10   2 2048.50   32.00
  -6  10   2 2022.20   31.40
   7   3  -2 3300.87   51.79
 -10   7  -2 3321.67   56.99
   3 -10  -2 3288.17   50.09
 -10   7  -2 3162.78   57.09
   7   3  -2 3245.28   55.09
  -3  10   2 3432.26   49.20
  10  -7   2 3520.45   61.09
  10  -7   2 3426.76   58.89
  -7  -3   2 3450.35   55.89
  -7  -3   2 3443.76   53.19
 -10  10  -2 3783.32   66.49
   0 -10  -2 3822.12   59.09
 -10  10  -2 3798.82   64.19
  10   0  -2 3763.22   62.29
 -10   0   2 3932.11   58.89
  10 -10   2 4064.59   69.99
   0  10   2 3918.31   58.89
  10 -10   2 3935.61   66.59
 -10   0   2 3900.21   61.79
  -3 -10  -2 5763.62   85.59
 -10  13  -2 5701.13   93.29
  13  -3  -2 5641.84   87.99
 -10  13  -2 5770.92   89.69
  10 -13   2 5561.64   88.49
 -13   3   2 5542.35   82.19
  10 -13   2 5391.56   91.49
 -13   3   2 5544.45   78.59
  16  -6  -2 3478.95   64.39
  -6 -10  -2 3462.25   61.69
 -10  16  -2 3517.85   64.99
 -10  16  -2 3522.85   68.99
  -6 -10  -2 3435.66   67.39
 -16   6   2 3547.55   60.69
  10 -16   2 3593.74   67.49
  10 -16   2 3609.04   71.29
 -10  19  -2 1428.16   39.60
  19  -9  -2 1427.36   40.20
  -9 -10  -2 1429.46   38.30
  -9 -10  -2 1408.56   44.10
 -10  19  -2 1423.76   43.70
  10 -19   2 1434.06   44.80
 -19   9   2 1425.86   35.60
  10 -19   2 1418.76   41.00
 -11  -9  -2  231.98   19.00
 -11  -9  -2  247.48   25.20
  20 -11  -2  207.48   19.50
  -9  20  -2  216.28   22.00
  -9  20  -2  204.08   19.60
 -20  11   2  229.38   18.30
   9 -20   2  257.67   25.80
   9 -20   2  204.38   30.30
  -6  17  -2  128.49   16.70
  17 -11  -2  111.79   15.60
  17 -11  -2  139.39   14.40
  -6  17  -2  127.99   15.50
 -11  -6  -2   93.99   14.10
   6 -17   2   71.79   14.00
 -17  11   2   92.69   10.80
   6 -17   2  100.49   13.80
 -11  -3  -2  345.77   21.30
  14 -11  -2  332.37   17.50
  14 -11  -2  323.27   16.00
  -3  14  -2  324.07   17.80
  -3  14  -2  350.26   20.70
 -14  11   2  371.76   14.40
   3 -14   2  364.16   18.80
   3 -14   2  370.86   22.40
  11   3   2  387.56   20.50
  11 -11  -2  127.49   11.20
   0  11  -2  138.99   15.00
  11 -11  -2  133.89   10.60
   0  11  -2  138.99   13.10
 -11   0  -2  144.99   15.50
   0 -11   2  176.58   17.10
   0 -11   2  187.08   13.90
 -11  11   2  186.98    9.70
  11   0   2  168.58   15.10
   3   8  -2 3370.96   62.09
   8 -11  -2 3277.07   50.39
 -11   3  -2 3330.27   59.59
   3   8  -2 3340.97   54.99
   8 -11  -2 3265.37   51.19
  -8  11   2 3132.49   57.69
  -3  -8   2 3196.58   53.49
  11  -3   2 3193.08   57.29
  -8  11   2 3189.28   45.80
  11  -3   2 3191.08   57.29
   6   5  -2 1622.14   32.80
   5 -11  -2 1615.84   28.30
   5 -11  -2 1604.94   30.40
 -11   6  -2 1569.64   36.20
  -6  -5   2 1635.84   32.60
  -6  -5   2 1610.14   34.80
  -5  11   2 1652.93   28.10
  11  -6   2 1606.04   36.80
  -5  11   2 1643.14   28.00
  11  -6   2 1555.74   37.00
 -11   9  -2 1846.02   41.10
   2 -11  -2 1813.32   34.70
   9   2  -2 1816.02   38.70
 -11   9  -2 1853.01   40.40
  11  -9   2 1706.93   38.70
  11  -9   2 1737.33   41.10
  -2  11   2 1819.52   40.80
  -9  -2   2 1723.73   33.20
  -9  -2   2 1710.83   35.80
 -11  12  -2 1580.44   39.70
 -11  12  -2 1563.04   37.70
  -1 -11  -2 1577.44   33.80
  12  -1  -2 1579.24   36.80
 -12   1   2 1626.44   35.30
  11 -12   2 1611.24   38.80
  11 -12   2 1671.73   41.90
 -12   1   2 1626.94   32.20
   1  11   2 1575.14   33.10
  15  -4  -2  849.12   27.70
 -11  15  -2  823.42   28.40
  -4 -11  -2  833.72   25.80
 -11  15  -2  861.81   30.40
 -15   4   2  930.81   26.90
  11 -15   2  929.71   30.20
  11 -15   2  961.10   33.60
  -7 -11  -2 1309.87   40.90
 -11  18  -2 1256.87   37.10
 -11  18  -2 1282.17   40.20
  -7 -11  -2 1268.17   34.80
  18  -7  -2 1244.38   36.60
  11 -18   2 1283.87   38.20
  11 -18   2 1343.17   42.80
 -18   7   2 1304.47   34.00
 -11  21  -2  603.64   28.60
  21 -10  -2  686.63   30.30
 -10 -11  -2  687.43   28.50
 -11  21  -2  664.73   32.20
 -10 -11  -2  685.13   35.30
  11 -21   2  664.93   30.40
  11 -21   2  659.53   34.70
 -21  10   2  667.13   26.60
 -12 -10  -2  452.85   25.40
  22 -12  -2  517.35   27.80
 -10  22  -2  454.05   32.10
  22 -12  -2  500.45   29.70
 -12 -10  -2  473.65   33.10
 -22  12   2  522.95   24.70
  10 -22   2  562.84   34.40
  10 -22   2  539.65   29.20
  19 -12  -2  692.63   27.80
 -12  -7  -2  709.23   33.20
  19 -12  -2  767.22   30.00
  -7  19  -2  719.23   28.50
  -7  19  -2  763.32   32.60
   7 -19   2  643.94   32.80
   7 -19   2  669.13   28.60
 -19  12   2  658.93   23.70
  16 -12  -2  305.97   17.50
  -4  16  -2  286.57   18.60
  16 -12  -2  312.07   18.80
  -4  16  -2  312.77   21.30
 -12  -4  -2  295.17   22.30
   4 -16   2  253.47   17.80
 -16  12   2  258.87   14.00
   4 -16   2  254.67   21.70
  13 -12  -2   12.00    6.90
  -1  13  -2    4.50    7.80
 -12  -1  -2   13.60    8.10
  13 -12  -2   13.90    6.10
  -1  13  -2    9.40    6.50
  12   1   2   24.20    8.50
   1 -13   2   25.30   11.00
 -13  12   2   20.60    5.90
   1 -13   2   34.90    8.40
 -12   2  -2  169.18   16.00
  10 -12  -2  179.38   11.50
  10 -12  -2  165.28   11.80
   2  10  -2  178.98   14.10
   2  10  -2  177.28   16.20
  12  -2   2  195.08   15.50
  -2 -10   2  187.98   13.50
 -10  12   2  179.88    9.80
   5   7  -2  228.38   17.10
   7 -12  -2  242.48   12.30
 -12   5  -2  227.68   16.10
   7 -12  -2  233.38   11.90
   5   7  -2  236.88   14.20
  12  -5   2  206.38   15.40
  -5  -7   2  204.08   15.30
  -5  -7   2  190.98   12.80
  -7  12   2  224.18   16.30
  12  -5   2  214.38   16.40
  -7  12   2  184.58    9.70
 -12   8  -2  291.07   16.90
   4 -12  -2  291.47   12.80
   8   4  -2  295.07   15.10
 -12   8  -2  312.97   18.10
   4 -12  -2  269.67   13.30
  12  -8   2  372.96   20.10
  -4  12   2  398.86   15.90
  -8  -4   2  379.56   15.60
  -8  -4   2  372.96   17.90
  12  -8   2  334.87   18.00
  11   1  -2 1997.20   43.00
 -12  11  -2 2056.39   44.30
   1 -12  -2 1983.10   38.90
 -12  11  -2 2011.70   45.40
  -1  12   2 1993.80   37.30
 -11  -1   2 2090.19   41.70
  12 -11   2 2038.10   44.80
 -11  -1   2 2029.70   38.10
  12 -11   2 2017.80   46.70
 -12  14  -2 1409.96   38.90
 -12  14  -2 1412.86   36.80
  14  -2  -2 1378.06   35.90
  -2 -12  -2 1393.46   33.20
  12 -14   2 1415.56   40.40
   2  12   2 1357.06   32.50
  12 -14   2 1380.46   37.10
 -14   2   2 1444.46   34.40
 -14   2   2 1407.86   30.70
 -12  17  -2  513.75   25.90
 -12  17  -2  507.35   24.20
  17  -5  -2  479.35   23.10
  -5 -12  -2  496.75   21.60
 -17   5   2  395.36   20.00
  12 -17   2  457.15   26.70
  12 -17   2  384.96   21.90
  -8 -12  -2  600.64   32.20
 -12  20  -2  626.04   28.00
  -8 -12  -2  622.94   26.20
 -12  20  -2  581.04   30.30
  20  -8  -2  584.84   27.80
 -20   8   2  566.94   25.10
  12 -20   2  620.54   32.60
 -11 -12  -2  552.64   36.40
 -11 -12  -2  494.85   26.90
 -12  23  -2  578.94   32.40
 -12  23  -2  536.55   29.40
 -23  11   2  561.94   26.40
  12 -23   2  563.44   36.50
  12 -23   2  422.46   27.90
 -13 -11  -2  597.74   29.20
 -11  24  -2  550.54   33.60
 -13 -11  -2  651.63   39.70
 -11  24  -2  613.04   31.10
  24 -13  -2  666.63   33.70
  11 -24   2  476.85   43.20
 -24  13   2  545.45   27.30
  21 -13  -2 1983.80   50.79
  -8  21  -2 2023.50   55.49
 -13  -8  -2 2028.10   57.59
  -8  21  -2 2054.09   50.49
  21 -13  -2 2063.29   52.59
   8 -21   2 1993.90   51.59
   8 -21   2 1995.40   56.59
 -21  13   2 1976.00   43.80
 -13  -5  -2  429.76   26.80
  -5  18  -2  381.76   21.70
  18 -13  -2  390.56   22.70
  -5  18  -2  352.66   23.50
  18 -13  -2  399.76   21.70
 -18  13   2  412.66   18.40
   5 -18   2  422.76   27.10
   5 -18   2  405.46   22.80
  -2  15  -2  347.57   19.20
  15 -13  -2  352.86   18.70
 -13  -2  -2  360.86   22.60
  15 -13  -2  357.26   17.70
  -2  15  -2  337.47   22.10
 -15  13   2  354.96   14.90
   2 -15   2  318.27   22.60
   2 -15   2  353.66   19.40
  13   2   2  330.47   20.70
  12 -13  -2   41.60    8.30
  12 -13  -2   37.10    7.40
 -13   1  -2   24.00    8.90
   1  12  -2   46.90    9.20
   1  12  -2   37.20    9.60
  -1 -12   2   17.10    7.20
  -1 -12   2   21.40    9.90
 -12  13   2   20.50    5.60
  13  -1   2   22.30    9.20
 -13   4  -2 3087.19   58.99
   9 -13  -2 3016.40   50.89
   9 -13  -2 3014.00   49.90
   4   9  -2 3066.59   60.99
   4   9  -2 3049.50   53.79
  -9  13   2 2916.41   44.90
  13  -4   2 2877.71   56.39
  -4  -9   2 2851.11   51.99
  -9  13   2 2856.01   46.50
  13  -4   2 2973.50   57.09
   7   6  -2 3007.00   52.29
 -13   7  -2 2961.20   56.79
   6 -13  -2 2960.40   49.80
   6 -13  -2 2951.30   47.40
  13  -7   2 3020.00   57.49
  -7  -6   2 2954.30   54.69
  -7  -6   2 2967.90   51.69
  -6  13   2 2938.41   46.90
  -6  13   2 2979.60   46.50
  13  -7   2 2929.41   57.59
   3 -13  -2 7074.29  100.69
  10   3  -2 7057.49  106.29
 -13  10  -2 7309.57  108.19
 -13  10  -2 6836.32  107.89
 -10  -3   2 6849.21   97.29
 -10  -3   2 6993.10  101.69
  -3  13   2 6747.22   94.29
  13 -10   2 6802.52  107.19
  13 -10   2 6811.42  105.19
 -13  13  -2 6770.42  106.79
  13   0  -2 6609.54  102.99
 -13  13  -2 6702.63  103.89
   0 -13  -2 6639.44   98.19
   0  13   2 6816.22   99.49
 -13   0   2 6967.90  103.19
 -13   0   2 6950.80   98.69
  13 -13   2 6987.80  111.29
  13 -13   2 6909.91  107.99
 -13  16  -2 3534.25   67.09
  16  -3  -2 3598.24   67.89
  -3 -13  -2 3513.65   63.19
 -13  16  -2 3621.54   70.79
  13 -16   2 3551.24   72.09
  13 -16   2 3532.85   68.79
 -16   3   2 3614.04   59.49
 -16   3   2 3601.04   63.79
   3  13   2 3510.35   63.29
  19  -6  -2 3016.50   64.59
 -13  19  -2 3176.08   68.89
 -13  19  -2 3264.27   65.39
  -6 -13  -2 3183.08   61.99
 -19   6   2 3102.29   59.49
  13 -19   2 3125.59   70.09
  13 -19   2 3001.40   64.59
  -9 -13  -2 1002.40   42.20
 -13  22  -2  952.10   37.20
  22  -9  -2  919.41   36.10
  -9 -13  -2  947.51   33.60
  13 -22   2 1057.09   42.50
 -22   9   2 1081.99   34.90
  13 -22   2 1034.00   38.70
  25 -12  -2  156.78   21.40
 -13  25  -2  140.19   20.20
 -12 -13  -2  122.79   22.10
 -12 -13  -2  106.09   14.90
  25 -12  -2  112.29   20.40
 -13  25  -2  136.89   21.40
 -25  12   2  186.98   22.80
  13 -25   2  128.69   23.50
  26 -14  -2    0.50   16.30
 -12  26  -2   -4.40   13.60
  26 -14  -2   16.80   14.50
 -14 -12  -2   16.10   16.60
 -12  26  -2   -6.30   14.80
 -26  14   2   23.20   13.80
  12 -26   2   19.60   20.00
 -14  -9  -2  281.27   22.80
  -9  23  -2  231.08   23.50
  23 -14  -2  242.78   26.20
  -9  23  -2  250.97   25.80
 -14  -9  -2  246.68   29.20
   9 -23   2  183.98   23.90
 -23  14   2  183.88   19.60
  -6  20  -2  364.56   23.00
  20 -14  -2  305.87   21.70
  -6  20  -2  322.07   25.30
 -14  -6  -2  343.97   27.50
  20 -14  -2  310.57   23.90
   6 -20   2  332.57   27.50
   6 -20   2  333.87   23.70
 -20  14   2  308.17   18.50
  -3  17  -2  249.58   20.80
  -3  17  -2  207.48   17.90
 -14  -3  -2  212.88   20.90
  17 -14  -2  235.48   18.70
  17 -14  -2  199.18   16.20
   3 -17   2  274.87   19.30
 -17  14   2  274.97   15.20
   3 -17   2  258.57   23.60
  14   3   2  271.37   20.60
 -14   0  -2   52.29   11.20
   0  14  -2   54.79   11.50
   0  14  -2   54.69    9.40
  14 -14  -2   74.69   10.70
  14 -14  -2   63.89    9.70
 -14  14   2   84.79   10.00
   0 -14   2   69.59   13.40
   0 -14   2   71.59   10.60
  14   0   2   74.49   11.60
   3  11  -2  481.65   20.50
  11 -14  -2  492.95   18.40
  11 -14  -2  474.35   18.50
   3  11  -2  463.25   23.50
 -14   3  -2  469.05   23.40
  14  -3   2  583.84   24.60
  -3 -11   2  570.04   21.80
  14  -3   2  565.24   24.70
 -11  14   2  547.65   16.60
   8 -14  -2  362.66   15.70
   6   8  -2  395.76   22.10
   6   8  -2  386.96   17.90
 -14   6  -2  389.66   20.80
   8 -14  -2  369.66   16.00
  -8  14   2  373.66   14.40
  -6  -8   2  377.16   17.50
  14  -6   2  368.96   21.00
  -8  14   2  366.36   13.90
  -6  -8   2  367.36   20.30
  14  -6   2  368.36   20.10
 -14   9  -2 2613.74   53.59
   5 -14  -2 2482.75   46.40
   5 -14  -2 2589.04   44.30
  -9  -5   2 2312.77   47.50
  -5  14   2 2385.66   40.70
  -5  14   2 2341.37   40.70
  14  -9   2 2208.68   50.59
  14  -9   2 2275.17   49.80
  -9  -5   2 2285.67   43.70
  12   2  -2 1329.57   36.30
 -14  12  -2 1354.66   37.80
 -14  12  -2 1395.86   37.40
   2 -14  -2 1444.56   33.60
 -12  -2   2 1319.77   34.30
  14 -12   2 1411.86   39.80
  -2  14   2 1375.16   30.60
  14 -12   2 1264.67   36.40
 -12  -2   2 1366.36   31.30
 -14  15  -2 1316.37   37.50
  -1 -14  -2 1297.47   33.40
  15  -1  -2 1289.97   36.70
 -14  15  -2 1336.37   39.00
 -15   1   2 1375.86   32.00
 -15   1   2 1394.96   35.90
   1  14   2 1331.47   33.20
  14 -15   2 1315.47   38.30
  14 -15   2 1311.57   40.80
  18  -4  -2  931.81   33.60
  -4 -14  -2  982.90   31.20
 -14  18  -2  953.30   33.60
 -14  18  -2 1066.39   36.70
   4  14   2  978.00   31.40
  14 -18   2 1014.90   38.30
 -18   4   2 1003.40   31.60
  14 -18   2  944.31   34.00
 -14  21  -2  646.84   32.10
  -7 -14  -2  662.23   34.40
  21  -7  -2  599.04   29.80
 -14  21  -2  662.73   30.60
  -7 -14  -2  632.34   27.50
 -21   7   2  636.24   28.50
   7  14   2  677.03   29.50
  14 -21   2  618.74   30.00
  14 -21   2  628.54   35.00
 -10 -14  -2  463.35   36.30
  24 -10  -2  398.36   28.60
 -10 -14  -2  447.46   26.30
 -14  24  -2  466.75   29.20
 -14  24  -2  454.95   30.90
  14 -24   2  513.75   37.10
 -24  10   2  487.85   28.10
  27 -13  -2   25.20   15.90
 -13 -14  -2   34.10   22.70
 -14  27  -2   53.89   17.00
 -14  27  -2   37.30   16.70
 -13 -14  -2  -24.00   15.80
  27 -13  -2   32.70   19.70
  14 -27   2   24.80   22.10
 -27  13   2   23.90   14.50
 -13  28  -2   86.09   19.40
  28 -15  -2  119.29   21.30
 -15 -13  -2   99.89   25.20
  28 -15  -2  145.39   25.60
 -28  15   2   51.39   17.10
  13 -28   2   69.19   26.30
 -10  25  -2  111.69   18.70
  25 -15  -2  114.89   20.50
 -15 -10  -2  105.09   20.90
  25 -15  -2  117.59   18.60
 -10  25  -2   91.19   19.20
 -25  15   2   98.99   15.90
  10 -25   2   90.79   23.70
  -7  22  -2  628.84   30.40
  22 -15  -2  624.34   30.20
  -7  22  -2  568.74   35.30
  22 -15  -2  572.84   31.50
 -15  -7  -2  617.74   35.90
 -22  15   2  617.64   25.50
   7 -22   2  615.84   30.80
   7 -22   2  635.64   36.20
  19 -15  -2   91.49   14.50
  -4  19  -2   88.99   13.30
  -4  19  -2  113.69   16.40
  19 -15  -2  120.39   15.00
 -15  -4  -2   92.29   15.70
   4 -19   2   90.49   16.60
 -19  15   2   86.89   11.50
   4 -19   2   99.39   18.30
  16 -15  -2   11.10    9.00
  -1  16  -2    4.40    9.30
  -1  16  -2   21.90    9.10
 -15  -1  -2   14.80   10.30
  16 -15  -2   11.80    7.40
   1 -16   2   -1.90   10.90
 -16  15   2   -1.70    5.80
   1 -16   2    6.30    7.40
  15   1   2   12.90    8.60
  13 -15  -2  801.82   25.50
  13 -15  -2  769.12   24.60
   2  13  -2  790.02   30.70
 -15   2  -2  776.52   30.30
   2  13  -2  817.22   27.10
  -2 -13   2  876.21   28.10
 -13  15   2  833.92   21.60
  15  -2   2  804.02   30.00
   5  10  -2 1238.68   32.30
   5  10  -2 1226.78   37.80
 -15   5  -2 1224.48   35.90
  10 -15  -2 1203.08   29.50
  10 -15  -2 1226.48   30.10
  15  -5   2 1139.29   34.60
 -10  15   2 1142.49   25.40
  15  -5   2 1177.08   35.50
 -10  15   2 1160.68   26.80
  -5 -10   2 1186.68   31.40
   7 -15  -2  705.23   21.50
   8   7  -2  706.83   23.80
   7 -15  -2  693.33   22.30
 -15   8  -2  681.03   26.80
  -7  15   2  816.52   21.70
  -8  -7   2  856.41   28.70
  15  -8   2  795.52   29.50
  -7  15   2  818.12   21.40
  -8  -7   2  780.52   24.80
  15  -8   2  832.42   29.30
 -15  11  -2  656.73   26.70
 -15  11  -2  658.73   26.00
   4 -15  -2  630.04   22.00
  15 -11   2  753.12   30.10
 -11  -4   2  771.22   23.60
  -4  15   2  750.22   21.90
  15 -11   2  754.22   28.10
 -11  -4   2  742.43   26.70
 -15  14  -2 1383.16   39.30
  14   1  -2 1319.77   37.30
 -15  14  -2 1306.97   37.70
   1 -15  -2 1345.27   34.30
  15 -14   2 1288.37   39.90
 -14  -1   2 1331.87   35.70
 -14  -1   2 1316.67   31.80
  -1  15   2 1282.67   31.80
  15 -14   2 1327.77   38.50
  17  -2  -2 1283.97   38.50
 -15  17  -2 1282.07   38.60
  -2 -15  -2 1242.18   34.70
 -15  17  -2 1227.08   39.70
 -17   2   2 1167.38   30.80
  15 -17   2 1190.48   38.00
 -17   2   2 1232.88   35.40
   2  15   2 1169.58   33.40
  15 -17   2 1203.68   41.10
 -15  20  -2  623.24   31.20
  20  -5  -2  624.94   30.00
  -5 -15  -2  600.24   34.60
 -15  20  -2  637.64   29.70
   5  15   2  673.33   28.30
  15 -20   2  627.84   30.30
  15 -20   2  652.13   34.50
 -20   5   2  674.63   28.50
 -15  23  -2   23.90   13.20
 -15  23  -2    9.00   13.80
  23  -8  -2   26.70   12.80
  -8 -15  -2   13.10   16.20
  -8 -15  -2   23.20   11.00
  15 -23   2    0.50   27.80
  15 -23   2   29.10   12.70
   8  15   2   45.40   13.00
 -23   8   2   52.99   14.20
 -11 -15  -2  179.28   23.00
  26 -11  -2  202.48   25.00
 -11 -15  -2  187.68   28.70
 -15  26  -2  218.38   26.20
 -15  26  -2  180.48   23.10
 -26  11   2  185.68   25.00
  15 -26   2  187.78   28.00
  29 -14  -2   23.80   22.10
 -14 -15  -2   33.30   15.20
 -14 -15  -2   15.30   22.30
  29 -14  -2    1.60   16.90
 -15  29  -2    3.10   17.20
  15 -29   2   18.00   24.70
 -29  14   2   18.50   16.60
 -16 -14  -2   18.10   25.00
  30 -16  -2   52.19   26.40
 -16 -14  -2   77.69   17.90
  30 -16  -2  108.69   23.40
 -14  30  -2   91.49   22.10
 -30  16   2   64.29   18.90
  14 -30   2   30.50   18.90
  14 -30   2   47.50   27.30
  27 -16  -2  190.88   26.40
 -11  27  -2  263.27   27.90
 -11  27  -2  227.78   28.70
 -16 -11  -2  224.88   29.10
  27 -16  -2  243.78   28.70
  11 -27   2  236.48   30.60
 -27  16   2  231.88   25.90
 -16  -8  -2  167.28   22.90
  -8  24  -2  169.38   21.50
  24 -16  -2  191.58   22.30
  -8  24  -2  199.78   23.80
  24 -16  -2  175.78   23.60
 -24  16   2  278.27   22.20
   8 -24   2  245.48   32.20
 -16  -5  -2 1106.49   44.60
  -5  21  -2  867.01   59.89
  21 -16  -2 1114.59   37.30
  21 -16  -2 1108.19   38.80
   5 -21   2 1006.60   37.20
   5 -21   2 1005.50   42.00
 -21  16   2  979.90   30.00
  -2  18  -2  611.64   31.10
 -16  -2  -2  659.03   32.00
  18 -16  -2  597.64   27.20
  -2  18  -2  611.14   27.10
  18 -16  -2  586.24   25.50
   2 -18   2  662.33   32.40
 -18  16   2  615.44   22.30
  16   2   2  615.64   30.10
   2 -18   2  642.74   27.90
  15 -16  -2   16.40    7.60
   1  15  -2    2.70    9.20
  15 -16  -2    4.20    8.50
   1  15  -2   12.20    8.30
 -16   1  -2   34.00   12.10
  -1 -15   2    4.70    7.10
  16  -1   2  -11.90    8.00
 -15  16   2   15.80    6.40
   4  12  -2  584.14   27.40
   4  12  -2  568.84   23.40
  12 -16  -2  602.44   22.40
 -16   4  -2  560.54   26.90
  12 -16  -2  565.34   21.30
 -12  16   2  497.35   18.40
  16  -4   2  541.75   26.10
 -12  16   2  525.55   17.60
  16  -4   2  524.15   25.20
  -4 -12   2  531.15   22.70
   7   9  -2 1517.45   36.70
   9 -16  -2 1518.55   35.20
   9 -16  -2 1513.85   33.80
   7   9  -2 1516.55   43.10
 -16   7  -2 1533.95   41.20
  -9  16   2 1333.67   28.50
  -7  -9   2 1294.07   36.80
  16  -7   2 1274.07   38.40
  16  -7   2 1308.97   37.90
  -7  -9   2 1317.07   33.80
  -9  16   2 1305.57   29.50
   6 -16  -2 3832.52   65.59
   6 -16  -2 3933.51   63.39
 -16  10  -2 3919.81   72.59
  -6  16   2 3975.70   63.69
  16 -10   2 4057.39   76.29
  -6  16   2 4036.90   63.09
 -10  -6   2 4043.50   71.89
  16 -10   2 4020.00   74.69
 -10  -6   2 3893.21   66.79
 -16  13  -2 3271.07   65.99
   3 -16  -2 3210.38   59.49
 -16  13  -2 3358.16   65.39
  13   3  -2 3235.18   64.89
 -13  -3   2 3217.58   61.89
  16 -13   2 3271.47   66.29
 -13  -3   2 3259.17   57.89
  16 -13   2 3310.77   68.29
  -3  16   2 3172.48   56.19
 -16  16  -2 6247.08  106.59
  16   0  -2 6204.78  104.49
 -16  16  -2 6338.27  103.79
   0 -16  -2 6365.26   99.49
   0  16   2 5875.51   93.59
  16 -16   2 5964.20  105.29
 -16   0   2 6105.89   97.89
  16 -16   2 6104.69  103.09
 -16   0   2 6097.39   92.49
 -16  19  -2 2703.73   60.29
  -3 -16  -2 2658.83   56.79
 -16  19  -2 2680.73   62.99
  19  -3  -2 2715.03   61.59
 -19   3   2 2768.42   52.69
  16 -19   2 2802.92   66.39
   3  16   2 2705.13   56.89
 -19   3   2 2757.72   57.79
  16 -19   2 2336.47   70.49
  -6 -16  -2  850.01   32.60
  22  -6  -2  838.42   36.90
 -16  22  -2  909.21   37.90
  16 -22   2  935.81   37.80
  16 -22   2  941.01   42.90
   6  16   2  967.50   35.40
 -22   6   2  964.20   35.30
 -16  25  -2  264.07   29.00
  25  -9  -2  288.27   27.40
 -16  25  -2  285.67   26.90
  -9 -16  -2  290.37   34.10
  -9 -16  -2  252.17   23.40
   9  16   2  306.87   27.40
  16 -25   2  306.77   36.20
 -25   9   2  348.67   28.00
  28 -12  -2   45.90   22.50
 -12 -16  -2   29.60   15.10
  28 -12  -2   20.60   16.40
 -12 -16  -2   22.60   24.20
 -16  28  -2    5.80   16.20
 -28  12   2   49.10   17.00
  16 -28   2  -26.40   20.60
  12  16   2   11.20   15.90
 -16  31  -2  423.16   39.70
  31 -15  -2  375.06   40.00
 -15 -16  -2  421.96   49.20
  31 -15  -2  502.45   50.49
 -16  31  -2  436.86   39.10
 -15 -16  -2  396.06   33.70
  15  16   2  406.26   40.20
  16 -31   2  513.15   51.59
  16 -31   2  395.26   38.90
 -17 -15  -2   90.59   32.20
 -17 -15  -2   22.90   17.00
  32 -17  -2   71.69   25.00
 -15  32  -2   59.19   23.30
  32 -17  -2   88.79   29.90
 -15  32  -2   55.39   24.50
 -32  17   2   80.89   22.60
  15 -32   2   40.60   21.10
  15 -32   2  104.19   31.40
  29 -17  -2  281.87   39.30
 -17 -12  -2  397.56   43.00
  29 -17  -2  321.07   35.60
 -12  29  -2  339.77   32.30
 -29  17   2  383.46   30.40
  12 -29   2  380.96   45.50
  -9  26  -2  574.34   36.40
  26 -17  -2  571.84   33.80
  -9  26  -2  563.74   32.90
  26 -17  -2  537.45   37.30
 -17  -9  -2  549.25   40.90
   9 -26   2  684.13   44.10
 -26  17   2  692.93   30.70
 -17  -6  -2   77.99   17.90
  -6  23  -2   77.79   17.00
  23 -17  -2  108.39   18.90
  -6  23  -2   78.79   15.20
  23 -17  -2   88.29   16.40
 -23  17   2  153.28   18.90
   6 -23   2  117.99   27.20
  20 -17  -2   88.59   14.60
  -3  20  -2   73.89   17.00
  20 -17  -2  105.49   16.70
  -3  20  -2  110.39   18.10
  17   3   2   52.09   14.30
   3 -20   2   38.80   15.20
   3 -20   2   43.50   12.40
 -20  17   2   47.40   10.70
  17 -17  -2  444.36   22.40
   0  17  -2  462.95   27.90
  17 -17  -2  415.26   23.90
 -17   0  -2  459.85   28.40
   0  17  -2  455.95   24.20
  17   0   2  430.46   25.90
 -17  17   2  406.16   18.50
   0 -17   2  407.46   23.30
  14 -17  -2  161.38   16.30
   3  14  -2  151.98   19.00
  14 -17  -2  149.99   14.60
 -17   3  -2  152.18   19.70
   3  14  -2  163.08   16.40
  -3 -14   2  201.38   17.50
  17  -3   2  170.68   18.80
 -14  17   2  199.38   13.40
   6  11  -2  291.77   21.70
  11 -17  -2  258.27   16.30
 -17   6  -2  273.37   21.20
  11 -17  -2  261.37   17.50
   6  11  -2  218.28   17.60
  -6 -11   2  207.98   16.20
  17  -6   2  182.68   19.80
  -6 -11   2  175.98   19.20
 -11  17   2  183.48   12.70
  17  -6   2  181.58   17.70
 -11  17   2  174.88   12.80
   8 -17  -2  995.20   27.70
   8 -17  -2  959.60   28.30
   9   8  -2  944.51   34.80
 -17   9  -2  990.90   34.20
  -9  -8   2  958.50   29.00
  -9  -8   2  967.50   32.60
  17  -9   2  940.21   34.10
  -8  17   2  949.21   24.80
  17  -9   2  913.41   32.90
  -8  17   2  939.41   25.40
 -17  12  -2  706.93   29.50
   5 -17  -2  698.03   24.70
   5 -17  -2  710.33   24.10
  -5  17   2  623.74   21.40
 -12  -5   2  596.94   22.70
 -12  -5   2  615.44   26.70
  17 -12   2  617.94   29.50
  17 -12   2  620.64   27.80
  -5  17   2  645.04   21.70
   2 -17  -2 1358.06   36.70
  15   2  -2 1340.57   40.30
 -17  15  -2 1314.97   40.00
 -17  15  -2 1327.97   39.90
  17 -15   2 1236.28   39.70
  17 -15   2 1294.27   41.90
  -2  17   2 1287.57   33.20
 -15  -2   2 1297.27   37.90
 -15  -2   2 1313.17   33.40
 -17  18  -2  864.51   33.90
  18  -1  -2  876.21   34.10
  -1 -17  -2  880.41   31.20
 -17  18  -2  881.81   35.00
   1  17   2  816.52   29.00
 -18   1   2  840.02   32.00
 -18   1   2  793.72   27.00
  17 -18   2  854.11   37.10
 -17  21  -2  471.45   29.60
  21  -4  -2  370.86   33.20
  -4 -17  -2  408.36   24.80
 -17  21  -2  448.76   28.40
  17 -21   2  452.95   33.00
 -21   4   2  481.45   28.10
 -21   4   2  472.95   22.20
   4  17   2  448.46   25.40
  17 -21   2  490.95   28.80
 -17  24  -2  218.88   25.40
  -7 -17  -2  172.48   20.90
  24  -7  -2  166.08   22.30
 -17  24  -2  202.68   26.20
  -7 -17  -2  147.09   22.90
  17 -24   2  206.78   27.10
   7  17   2  195.78   23.60
 -24   7   2  229.78   26.20
 -10 -17  -2  287.87   26.30
 -17  27  -2  255.67   28.70
 -10 -17  -2  314.17   40.00
  27 -10  -2  291.17   31.20
 -17  27  -2  283.67   29.20
  10  17   2  232.38   28.30
 -27  10   2  274.87   29.80
  17 -27   2  202.58   28.20
  30 -13  -2   68.49   25.70
 -17  30  -2   77.89   21.10
 -13 -17  -2   94.29   19.60
 -13 -17  -2   24.60   26.20
  30 -13  -2   63.69   21.20
  17 -30   2   33.40   26.50
  17 -30   2   72.39   21.20
  33 -16  -2  125.69   27.20
 -16 -17  -2   84.59   28.80
 -17  33  -2   61.69   27.30
 -17  33  -2  103.89   26.20
  33 -16  -2  129.49   34.40
  16  17   2  163.98   28.90
  17 -33   2   80.99   34.00
 -33  16   2   79.79   22.70
 -18 -13  -2  271.07   38.20
 -18 -13  -2  269.37   31.40
 -13  31  -2  318.77   38.50
  31 -18  -2  310.67   39.80
  31 -18  -2  345.07   46.90
 -13  31  -2  302.47   38.00
 -31  18   2  317.67   31.60
  13 -31   2  334.57   38.50
  13 -31   2  318.57   39.10
 -10  28  -2  152.18   23.10
  28 -18  -2  111.09   22.00
 -18 -10  -2  159.98   28.40
  28 -18  -2  113.09   24.30
  10 -28   2  131.49   27.60
 -28  18   2  132.99   18.90
 -18  -7  -2   45.70   20.70
  25 -18  -2   44.60   18.60
  -7  25  -2   53.99   17.70
  -7  25  -2   39.20   15.50
  25 -18  -2   43.30   14.70
 -25  18   2   54.69   14.10
   7 -25   2   56.29   21.40
  -4  22  -2  182.48   24.30
  22 -18  -2  145.19   29.40
  -4  22  -2  209.38   23.50
 -18  -4  -2  175.08   22.80
  22 -18  -2  184.98   25.30
 -22  18   2  234.28   18.90
   4 -22   2  183.98   21.80
  19 -18  -2   37.40   10.70
  -1  19  -2   30.20   13.30
  19 -18  -2   22.20   11.90
 -18  -1  -2   21.70   15.60
  -1  19  -2   41.70   13.00
   1 -19   2   23.90   11.10
  18   1   2   10.00   10.50
 -19  18   2   10.30    8.10
  16 -18  -2  914.81   31.50
  16 -18  -2  947.01   31.10
 -18   2  -2  935.41   36.90
   2  16  -2  910.61   36.30
   2  16  -2  971.40   32.70
  -2 -16   2  942.41   32.80
  18  -2   2  964.50   36.00
 -16  18   2  954.40   26.20
 -18   5  -2  418.26   25.60
   5  13  -2  432.56   22.40
  13 -18  -2  384.26   21.00
  13 -18  -2  362.76   19.50
   5  13  -2  376.56   24.70
  18  -5   2  354.06   23.40
  -5 -13   2  392.96   21.30
  18  -5   2  453.35   26.10
 -13  18   2  375.16   16.80
 -13  18   2  353.96   16.90
   8  10  -2  778.72   28.00
  10 -18  -2  817.12   26.60
   8  10  -2  809.52   32.90
  10 -18  -2  817.02   27.00
 -18   8  -2  776.62   31.50
  -8 -10   2  681.83   26.10
  -8 -10   2  697.63   29.70
 -10  18   2  704.73   22.40
 -10  18   2  729.23   22.00
  18  -8   2  691.33   30.50
  18  -8   2  685.93   29.70
   7 -18  -2 1269.07   34.20
   7 -18  -2 1343.67   33.70
 -18  11  -2 1275.87   39.50
  18 -11   2 1373.66   41.20
  -7  18   2 1397.56   32.40
  18 -11   2 1373.86   42.60
 -11  -7   2 1379.16   35.50
  -7  18   2 1356.96   32.50
 -11  -7   2 1312.67   39.10
 -18  14  -2  753.72   31.50
   4 -18  -2  753.22   27.30
  18 -14   2  762.22   33.90
 -14  -4   2  785.42   26.30
  18 -14   2  749.13   31.60
 -14  -4   2  782.12   30.60
  -4  18   2  742.93   24.90
   1 -18  -2  827.32   30.10
 -18  17  -2  811.62   33.10
  17   1  -2  793.22   33.20
 -18  17  -2  818.42   33.70
  18 -17   2  841.52   36.70
 -17  -1   2  773.42   31.40
  -1  18   2  775.22   27.50
 -17  -1   2  817.62   27.40
  20  -2  -2  467.25   43.10
 -18  20  -2  545.65   30.00
 -18  20  -2  480.35   29.00
  -2 -18  -2  507.35   26.30
 -20   2   2  496.95   28.50
 -20   2   2  474.85   22.70
   2  18   2  477.55   25.10
  18 -20   2  476.65   33.30
  18 -20   2  466.85   28.60
 -18  23  -2  252.77   26.60
 -18  23  -2  212.28   26.00
  -5 -18  -2  262.97   24.00
  23  -5  -2  232.48   25.70
 -23   5   2  189.58   18.60
  18 -23   2  170.48   23.50
 -23   5   2  186.58   24.10
   5  18   2  182.28   23.00
  -8 -18  -2  269.07   32.10
 -18  26  -2  252.87   28.20
 -18  26  -2  272.67   31.20
  26  -8  -2  292.27   30.20
  -8 -18  -2  269.07   25.70
   8  18   2  286.07   27.90
 -26   8   2  291.07   30.00
  18 -26   2  290.97   38.10
 -11 -18  -2   82.49   18.40
 -18  29  -2   81.19   20.10
 -11 -18  -2   97.09   30.30
  29 -11  -2   99.09   21.90
  18 -29   2   76.99   28.60
  18 -29   2   37.50   20.00
 -29  11   2   92.99   23.00
  11  18   2   66.39   20.20
 -14 -18  -2   43.80   32.60
 -18  32  -2   38.70   22.80
  32 -14  -2   30.30   24.10
  32 -14  -2   55.59   30.30
 -14 -18  -2   18.40   16.50
 -18  32  -2   56.39   24.60
 -32  14   2   48.40   20.90
  14  18   2    5.00   22.40
  18 -32   2   28.20   19.90
  18 -32   2   42.10   30.10
  33 -19  -2   94.59   27.30
  33 -19  -2  102.79   33.90
 -14  33  -2  125.19   28.10
 -19 -14  -2   59.99   29.60
 -14  33  -2  107.79   26.60
  14 -33   2  146.29   36.00
 -33  19   2  150.58   23.20
 -11  30  -2   41.50   19.90
 -19 -11  -2   42.30   16.30
  30 -19  -2   54.79   20.80
  30 -19  -2   73.59   25.80
 -19 -11  -2   21.90   26.00
  11 -30   2   73.39   29.30
  11 -30   2   98.29   21.70
 -30  19   2   77.09   19.00
  27 -19  -2  151.28   25.10
 -19  -8  -2  178.98   29.20
  27 -19  -2  145.09   21.90
  -8  27  -2  158.38   22.70
 -27  19   2  199.38   24.50
   8 -27   2  137.99   27.20
 -19  -5  -2  939.01   44.70
  24 -19  -2  876.41   38.10
  24 -19  -2  874.31   40.70
  -5  24  -2  882.21   37.40
  -5  24  -2  861.91   40.60
 -24  19   2  950.40   32.10
   5 -24   2  924.91   46.10
  -2  21  -2   39.50   14.80
  21 -19  -2   42.70   15.10
  -2  21  -2   49.90   14.10
 -19  -2  -2   23.60   14.90
  21 -19  -2   57.19   13.00
 -21  19   2   83.59   12.80
  19   2   2  104.99   18.30
   2 -21   2   77.79   14.30
  18 -19  -2   13.70    9.90
   1  18  -2    6.80   11.80
 -19   1  -2    1.80   13.80
   1  18  -2    8.60   20.50
  18 -19  -2   13.10   11.60
  -1 -18   2   15.10    9.80
  19  -1   2   27.90   12.80
 -18  19   2   14.80    8.30
 -19   4  -2  334.57   26.70
   4  15  -2  356.06   25.70
  15 -19  -2  337.77   20.70
  15 -19  -2  323.97   22.00
   4  15  -2  318.97   21.40
  19  -4   2  294.97   25.30
  19  -4   2  270.07   26.80
  -4 -15   2  287.07   20.70
 -15  19   2  292.77   16.50
  12 -19  -2 1122.59   32.70
   7  12  -2 1092.09   34.10
   7  12  -2 1148.19   40.40
  12 -19  -2 1101.69   32.90
 -19   7  -2 1082.29   38.10
  19  -7   2 1013.40   36.60
  -7 -12   2 1008.20   32.50
  19  -7   2 1009.30   38.20
 -12  19   2 1030.00   27.30
  -7 -12   2  964.70   36.40
 -12  19   2 1004.20   28.20
 -19  10  -2 1873.91   49.90
   9 -19  -2 1946.51   44.90
  10   9  -2 1865.81   51.79
   9 -19  -2 1917.91   42.80
  -9  19   2 1847.62   39.00
 -10  -9   2 1920.31   49.10
  19 -10   2 1828.82   50.99
  -9  19   2 1877.71   40.30
  19 -10   2 1875.21   49.90
 -10  -9   2 1972.60   45.20
   6 -19  -2 3528.05   66.79
 -19  13  -2 3678.53   73.39
   6 -19  -2 3644.14   64.29
 -13  -6   2 3472.95   64.69
  -6  19   2 3461.85   62.09
 -13  -6   2 3595.14   70.79
  -6  19   2 3552.34   61.49
  19 -13   2 3445.36   72.69
  19 -13   2 3587.44   75.49
   3 -19  -2 3370.76   65.59
 -19  16  -2 3212.98   72.89
  16   3  -2 3301.57   70.59
 -19  16  -2 3361.66   69.79
 -16  -3   2 3343.77   67.79
  19 -16   2 2798.22   81.89
 -16  -3   2 3393.86   61.99
  19 -16   2 3363.16   73.59
  -3  19   2 3297.67   61.49
  19   0  -2 1442.36   47.80
 -19  19  -2 1482.15   46.30
 -19  19  -2 1544.85   46.10
   0 -19  -2 1524.35   44.00
 -19   0   2 1418.26   43.50
   0  19   2 1382.46   39.30
 -19   0   2 1413.26   37.70
  19 -19   2 1420.66   45.90
  19 -19   2 1485.85   49.70
  22  -3  -2 1285.37   45.50
  -3 -19  -2 1371.36   42.70
 -19  22  -2 1297.87   45.70
 -19  22  -2 1343.57   44.60
 -22   3   2 1297.07   37.10
 -22   3   2 1365.06   44.00
   3  19   2 1398.86   43.00
  19 -22   2 1376.96   50.89
  25  -6  -2  119.29   21.00
  -6 -19  -2  148.59   19.60
 -19  25  -2  106.89   20.20
 -19  25  -2   95.89   19.60
  19 -25   2  121.09   25.30
 -25   6   2  137.99   20.90
 -25   6   2  120.29   15.70
  -9 -19  -2  179.18   30.60
  -9 -19  -2  145.89   22.00
  28  -9  -2  165.68   26.50
 -19  28  -2  162.58   24.10
  19 -28   2  132.69   27.80
  19 -28   2  153.78   24.30
 -28   9   2  115.39   22.10
   9  19   2  131.29   21.60
  31 -12  -2  246.48   35.00
 -19  31  -2  282.87   37.70
 -12 -19  -2  191.88   36.60
 -19  31  -2  189.58   28.70
  31 -12  -2  255.57   32.30
 -12 -19  -2  241.88   32.40
 -31  12   2  299.27   34.20
  19 -31   2  318.57   40.00
  19 -31   2  201.88   30.00
  32 -20  -2  354.46   45.80
 -12  32  -2  395.06   42.10
  32 -20  -2  350.56   43.50
 -20 -12  -2  248.28   39.50
 -12  32  -2  298.77   33.40
  12 -32   2  182.48   27.80
  12 -32   2  383.76   52.69
 -32  20   2  303.37   37.00
 -20  -9  -2  346.07   38.90
 -20  -9  -2  449.46   45.80
  29 -20  -2  399.16   41.20
  29 -20  -2  410.26   36.20
  -9  29  -2  464.75   36.20
 -29  20   2  346.27   29.10
   9 -29   2  357.66   44.30
   9 -29   2  408.26   47.00
 -20  -6  -2  747.53   45.10
  -6  26  -2  733.83   40.90
  26 -20  -2  797.52   39.30
  -6  26  -2  838.82   39.00
  26 -20  -2  765.62   42.80
 -26  20   2  769.22   31.60
   6 -26   2  792.12   46.60
  23 -20  -2  846.42   36.90
  23 -20  -2  888.31   39.80
  -3  23  -2  859.21   41.70
 -20  -3  -2  946.41   45.30
  -3  23  -2  899.51   37.40
  20   3   2  879.21   40.80
 -23  20   2  903.31   31.10
  20 -20  -2  374.86   27.30
   0  20  -2  385.06   28.70
   0  20  -2  369.36   26.20
 -20   0  -2  342.37   30.50
  20 -20  -2  411.56   25.60
 -20  20   2  465.85   21.90
  20   0   2  479.85   30.80
   0 -20   2  493.55   28.70
 -20   3  -2  100.59   19.30
  17 -20  -2  132.09   16.90
   3  17  -2  112.99   20.00
  17 -20  -2  106.39   15.00
  -3 -17   2   58.39   13.90
  20  -3   2   43.40   13.90
 -17  20   2   82.29   11.50
   6  14  -2  378.66   23.20
   6  14  -2  406.06   28.60
  14 -20  -2  315.87   20.80
  14 -20  -2  409.36   23.90
 -20   6  -2  342.37   26.50
 -14  20   2  352.96   18.30
  20  -6   2  375.56   27.50
  20  -6   2  296.77   25.20
 -14  20   2  356.46   18.30
  -6 -14   2  298.67   22.20
   9  11  -2  236.18   23.30
 -20   9  -2  257.67   23.40
  11 -20  -2  250.57   19.30
  11 -20  -2  238.38   19.70
 -11  20   2  282.57   17.30
  -9 -11   2  296.37   24.60
  20  -9   2  271.17   24.60
  -9 -11   2  297.77   20.50
 -11  20   2  279.57   17.10
  20  -9   2  206.78   27.10
   8 -20  -2  768.42   28.30
   8 -20  -2  802.62   29.30
 -20  12  -2  790.72   34.10
 -12  -8   2  772.42   28.70
  20 -12   2  774.92   35.10
  -8  20   2  771.92   25.70
  -8  20   2  750.92   25.40
 -12  -8   2  788.42   33.10
  20 -12   2  604.34   47.90
   5 -20  -2  571.14   26.20
 -20  15  -2  567.74   30.30
  20 -15   2  563.94   29.60
 -15  -5   2  566.24   24.70
  20 -15   2  585.24   32.20
 -15  -5   2  588.44   30.00
  -5  20   2  597.74   24.20
  18   2  -2  740.93   34.20
 -20  18  -2  683.33   33.30
   2 -20  -2  648.74   35.50
 -20  18  -2  704.53   32.60
 -18  -2   2  711.53   32.60
 -18  -2   2  677.73   26.70
  20 -18   2  680.43   37.60
  20 -18   2  670.13   33.30
  -2  20   2  713.93   28.10
 -20  21  -2  196.88   25.10
  21  -1  -2  234.88   25.60
  -1 -20  -2  230.78   23.10
 -20  21  -2  171.18   22.40
   1  20   2  251.47   22.00
 -21   1   2  279.17   27.30
  20 -21   2  178.18   21.80
  20 -21   2  281.37   30.20
 -21   1   2  224.18   23.00
 -20  24  -2   20.30   15.30
  -4 -20  -2   17.30   13.30
  24  -4  -2   16.00   14.00
 -20  24  -2   12.10   14.80
  20 -24   2   47.20   19.30
 -24   4   2   48.10   11.70
   4  20   2   30.60   13.40
 -24   4   2   26.80   16.10
 -20  27  -2  103.29   19.90
  -7 -20  -2   83.89   23.70
  -7 -20  -2  105.29   18.50
  27  -7  -2   91.19   19.90
  20 -27   2   82.19   26.10
 -27   7   2   93.69   24.00
 -27   7   2   95.99   15.30
  20 -27   2  100.39   27.70
   7  20   2   75.29   18.60
 -20  30  -2   70.09   22.20
 -10 -20  -2  115.79   22.50
  30 -10  -2  108.29   23.00
 -20  30  -2   98.09   23.80
 -10 -20  -2  116.99   32.00
  20 -30   2   68.59   21.50
 -30  10   2   95.29   22.70
  20 -30   2  102.59   29.90
 -10  31  -2  253.67   30.80
 -21 -10  -2  178.18   24.60
 -10  31  -2  362.66   38.70
  31 -21  -2  236.38   33.40
 -21 -10  -2  272.07   38.90
  31 -21  -2  242.58   32.70
 -31  21   2  268.87   30.00
  10 -31   2  166.58   25.70
  10 -31   2  232.28   36.50
  28 -21  -2   69.79   19.40
 -21  -7  -2  111.69   26.50
  -7  28  -2  127.69   21.70
  28 -21  -2  103.19   23.70
 -28  21   2  118.19   17.90
   7 -28   2   89.29   27.20
  25 -21  -2   16.50   17.30
  -4  25  -2   35.50   17.00
  -4  25  -2   48.50   16.60
 -21  -4  -2   25.10   20.10
  25 -21  -2   -1.00   14.60
 -25  21   2   12.90   12.70
  22 -21  -2  205.78   26.60
  22 -21  -2  207.68   23.30
  -1  22  -2  292.87   25.80
  -1  22  -2  178.78   22.80
 -21  -1  -2  224.18   27.20
 -22  21   2  218.08   20.10
  21   1   2  198.28   23.30
   2  19  -2   99.89   16.40
  19 -21  -2   83.09   15.00
   2  19  -2   85.29   18.40
 -21   2  -2   64.49   16.80
  19 -21  -2   76.89   16.10
 -19  21   2  118.39   15.90
  -2 -19   2   91.69   15.20
  21  -2   2   81.29   16.50
   5  16  -2 1219.98   40.40
  16 -21  -2 1192.68   37.90
  16 -21  -2 1222.38   38.70
   5  16  -2 1204.08   44.30
  -5 -16   2 1028.70   36.60
  21  -5   2 1066.59   46.50
 -16  21   2 1012.90   31.30
 -16  21   2 1051.29   29.60
  21  -5   2 1015.80   40.20
   8  13  -2 2171.58   59.69
  13 -21  -2 2167.78   50.79
 -21   8  -2 2162.48   56.49
  13 -21  -2 2168.88   49.50
 -13  21   2 2117.09   43.10
  -8 -13   2 1973.70   60.09
  -8 -13   2 2160.28   56.49
 -13  21   2 2073.99   45.40
  21  -8   2 2185.28   60.69
  21  -8   2 2080.79   56.09
  10 -21  -2  747.93   29.20
  10 -21  -2  748.83   29.20
  11  10  -2  751.82   35.60
 -21  11  -2  766.92   34.70
 -11 -10   2  809.72   35.20
  21 -11   2  801.12   34.50
 -11 -10   2  764.52   29.80
 -10  21   2  765.82   25.90
  21 -11   2  800.42   37.00
 -10  21   2  757.82   26.20
 -21  14  -2  699.23   33.20
   7 -21  -2  652.13   27.90
   7 -21  -2  700.73   29.30
  -7  21   2  662.53   25.40
 -14  -7   2  662.63   32.70
  21 -14   2  628.74   34.70
  21 -14   2  679.43   32.70
  -7  21   2  697.33   26.00
 -14  -7   2  686.33   27.80
   4 -21  -2  354.66   25.90
 -21  17  -2  385.76   28.60
  21 -17   2  334.97   41.00
  -4  21   2  394.56   21.90
  21 -17   2  401.26   28.10
 -17  -4   2  410.36   22.30
 -17  -4   2  400.06   27.90
   1 -21  -2  164.88   21.10
  20   1  -2  134.29   19.00
 -21  20  -2  208.18   23.70
 -21  20  -2  171.18   21.80
  -1  21   2  180.88   19.90
  21 -20   2  150.88   22.20
  21 -20   2  126.19   18.80
 -20  -1   2  202.68   23.10
 -20  -1   2  175.98   22.40
  -2 -21  -2  288.87   25.70
  23  -2  -2  253.97   28.60
 -21  23  -2  268.07   26.50
 -21  23  -2  307.67   29.30
 -23   2   2  241.88   29.50
  21 -23   2  229.48   28.30
   2  21   2  273.07   24.60
 -23   2   2  242.58   21.10
  26  -5  -2   61.59   18.80
 -21  26  -2   47.70   19.10
  -5 -21  -2   31.70   14.90
  21 -26   2   34.50   22.40
  21 -26   2    7.00   25.90
 -26   5   2   24.30   11.90
 -26   5   2   21.10   31.80
   5  21   2   38.80   16.20
  -8 -21  -2  163.48   33.60
  -8 -21  -2  142.59   21.60
 -21  29  -2   96.79   22.90
 -21  29  -2  178.58   29.20
  29  -8  -2   96.49   22.80
 -29   8   2  136.59   24.50
  21 -29   2  109.89   21.50
  21 -29   2  148.19   31.10
   8  21   2  110.49   22.00
 -29   8   2  110.29   17.50
 -11 -21  -2   44.50   33.10
  32 -11  -2   70.69   34.00
 -11 -21  -2   66.99   24.30
  32 -11  -2   77.99   25.90
 -21  32  -2  112.89   25.90
 -21  32  -2   65.89   24.70
  21 -32   2   39.60   30.90
  11  21   2   21.20   23.30
  21 -32   2   10.00   26.10
 -32  11   2   99.89   24.30
  30 -22  -2  133.59   26.50
  -8  30  -2  202.58   26.80
  -8  30  -2  193.18   29.10
 -22  -8  -2  148.39   32.00
 -22  -8  -2  128.99   21.40
  30 -22  -2  189.78   30.20
 -30  22   2  281.97   28.50
   8 -30   2  246.68   36.00
   8 -30   2  176.88   26.60
  27 -22  -2  490.75   36.70
  -5  27  -2  536.75   35.70
  27 -22  -2  461.95   38.70
 -22  -5  -2  585.04   45.40
 -27  22   2  510.95   29.80
  24 -22  -2  191.58   24.60
  -2  24  -2  289.97   28.00
  -2  24  -2  192.38   24.20
 -22  -2  -2  246.68   33.10
  24 -22  -2  271.27   27.40
 -24  22   2  214.78   21.80
 -22   1  -2  215.38   26.80
   1  21  -2  201.18   24.10
   1  21  -2  228.28   24.20
  21 -22  -2  251.37   26.80
  21 -22  -2  234.18   22.80
  -1 -21   2  232.08   24.30
 -21  22   2  199.48   19.20
   4  18  -2  236.88   27.70
   4  18  -2  195.38   22.50
  18 -22  -2  172.98   29.70
 -22   4  -2  189.68   23.20
  18 -22  -2  244.68   24.80
  22  -4   2  240.98   24.70
  22  -4   2  251.67   29.60
 -18  22   2  263.17   18.80
  -4 -18   2  241.58   23.50
  15 -22  -2  803.62   32.50
  15 -22  -2  751.52   30.90
   7  15  -2  787.42   37.70
   7  15  -2  759.02   32.20
 -22   7  -2  763.12   38.20
  22  -7   2  757.52   36.00
 -15  22   2  753.72   27.30
  22  -7   2  828.82   39.50
 -15  22   2  784.22   26.40
  -7 -15   2  775.02   32.30
  -7 -15   2  796.22   44.80
  10  12  -2  576.14   33.00
  12 -22  -2  614.44   28.20
  12 -22  -2  552.14   27.70
 -22  10  -2  576.94   39.60
 -10 -12   2  657.83   29.70
  22 -10   2  692.53   33.60
 -12  22   2  663.13   26.00
 -12  22   2  668.23   24.60
  22 -10   2  697.33   36.60
 -10 -12   2  669.43   34.80
   9 -22  -2 1237.08   39.00
 -22  13  -2 1205.18   45.20
   9 -22  -2 1255.07   37.70
 -13  -9   2 1322.67   39.20
  22 -13   2 1339.07   47.10
  -9  22   2 1274.17   35.80
  -9  22   2 1333.47   35.30
 -13  -9   2 1277.07   44.00
  22 -13   2 1267.67   44.70
   6 -22  -2  923.81   34.60
 -16  -6   2  955.80   32.90
  22 -16   2  995.70   42.60
  22 -16   2 1015.80   40.10
 -16  -6   2  995.40   39.40
  -6  22   2  969.00   31.80
  -6  22   2  961.40   32.00
  19   3  -2 1396.96   48.00
   3 -22  -2 1473.35   44.20
 -22  19  -2 1433.66   47.30
  -3  22   2 1360.06   40.10
 -19  -3   2 1339.67   39.00
  22 -19   2 1401.36   51.99
 -19  -3   2 1415.66   46.80
   0 -22  -2  517.15   30.50
 -22  22  -2  546.75   33.20
  22   0  -2  579.94   35.00
 -22  22  -2  529.25   33.60
  22 -22   2  602.44   40.80
   0  22   2  613.04   30.30
 -22   0   2  723.03   38.00
 -22   0   2  593.94   27.20
  25  -3  -2  252.17   29.00
  -3 -22  -2  211.18   27.10
 -22  25  -2  186.98   22.70
 -25   3   2   97.09   38.90
 -25   3   2  166.38   21.20
  22 -25   2   77.79   23.90
  22 -25   2  135.89   26.50
  -6 -22  -2  139.39   30.80
  -6 -22  -2  124.79   21.70
 -22  28  -2  115.39   23.30
  28  -6  -2  126.79   23.40
   6  22   2  135.39   22.50
  22 -28   2  117.49   28.90
 -28   6   2  139.59   17.60
  22 -28   2  117.09   23.60
 -28   6   2   93.39   22.00
 -22  31  -2    5.60   21.90
  31  -9  -2    7.10   22.50
  -9 -22  -2   57.59   31.80
 -22  31  -2   21.20   21.00
  -9 -22  -2   22.90   19.10
  22 -31   2   25.20   20.00
  22 -31   2   11.30   30.00
 -31   9   2   23.40   21.20
 -31   9   2   21.50   18.30
  32 -23  -2  184.88   30.30
  -9  32  -2  206.28   30.50
 -23  -9  -2  209.38   36.30
  32 -23  -2  261.67   35.20
  -9  32  -2  253.87   34.00
 -32  23   2  199.38   25.60
   9 -32   2  200.98   36.50
 -23  -6  -2  797.42   41.40
  29 -23  -2  805.12   46.30
  -6  29  -2  755.52   46.80
  -6  29  -2  887.71   45.20
  29 -23  -2  858.51   49.70
 -23  -6  -2  745.93   54.69
   6 -29   2  817.52   46.30
 -29  23   2  785.52   36.10
  26 -23  -2  866.21   45.20
 -23  -3  -2  918.71   50.29
  26 -23  -2  857.71   42.50
  -3  26  -2  891.11   41.60
 -26  23   2  793.72   32.90
  23 -23  -2  533.65   32.10
   0  23  -2  537.55   37.20
  23 -23  -2  550.74   34.50
   0  23  -2  552.94   32.70
 -23   0  -2  531.25   40.20
 -23  23   2  477.65   25.60
  20 -23  -2  750.02   34.10
  20 -23  -2  722.03   35.70
   3  20  -2  718.23   39.50
 -23   3  -2  705.83   41.10
   3  20  -2  722.63   34.70
  -3 -20   2  778.82   35.20
 -20  23   2  756.62   28.30
  17 -23  -2   21.80   13.40
  17 -23  -2   37.70   12.70
   6  17  -2   15.20   13.20
   6  17  -2   19.40   12.00
 -23   6  -2   -1.70   14.80
  23  -6   2   65.39   17.90
 -17  23   2   52.59   11.40
 -17  23   2   49.40   11.20
  -6 -17   2   43.00   14.70
  14 -23  -2   82.69   15.10
   9  14  -2   93.39   18.60
 -23   9  -2   76.29   17.80
  -9 -14   2   65.69   13.70
  -9 -14   2   53.29   21.50
  23  -9   2   59.69   17.10
 -14  23   2   70.99   12.10
 -14  23   2   59.69   11.40
  23  -9   2   17.80   12.50
  12  11  -2  737.73   37.20
 -23  12  -2  713.93   36.50
  11 -23  -2  744.73   30.80
  23 -12   2  787.62   39.60
 -12 -11   2  830.52   38.20
 -12 -11   2  754.52   31.70
  23 -12   2  695.13   34.60
 -11  23   2  768.02   28.50
 -11  23   2  763.52   27.30
 -23  15  -2   41.00   14.70
   8 -23  -2   68.69   14.20
   8 -23  -2   87.19   15.20
  -8  23   2   88.89   13.70
 -15  -8   2   84.09   13.80
  23 -15   2   41.70   13.60
  -8  23   2   72.79   12.70
 -15  -8   2   86.59   18.00
  23 -15   2   66.89   17.40
   5 -23  -2  320.07   25.60
 -23  18  -2  366.76   29.80
 -18  -5   2  340.67   29.80
  23 -18   2  290.87   32.00
 -18  -5   2  321.97   22.70
  -5  23   2  335.87   22.80
 -23  21  -2  294.97   29.90
   2 -23  -2  251.47   24.90
  21   2  -2  238.08   28.30
  -2  23   2  263.47   23.50
 -21  -2   2  239.88   21.10
 -21  -2   2  256.87   31.90
  23 -21   2  276.47   33.30
  24  -1  -2  119.39   22.40
 -23  24  -2  120.69   21.80
  -1 -23  -2  108.69   19.80
   1  23   2  127.39   19.10
  23 -24   2  102.19   24.30
  23 -24   2   34.80   22.80
 -24   1   2  108.59   15.10
 -24   1   2  131.39   22.40
  27  -4  -2   83.69   21.60
  -4 -23  -2  122.99   22.00
 -23  27  -2   53.69   21.10
 -27   4   2   53.69   21.30
  23 -27   2   59.09   25.60
   4  23   2   90.59   19.20
 -27   4   2   76.39   15.30
  23 -27   2  121.69   23.80
  30  -7  -2   79.99   23.60
  -7 -23  -2   64.79   21.60
  -7 -23  -2   96.99   30.50
 -23  30  -2  105.89   24.60
 -23  30  -2   98.49   23.60
  23 -30   2   24.20   19.10
 -30   7   2    9.80   17.20
   7  23   2   -4.00   18.50
 -30   7   2   78.69   24.00
  23 -30   2   23.80   31.10
  -7  31  -2   23.10   24.80
  31 -24  -2   82.49   29.70
  31 -24  -2   59.49   24.50
 -24  -7  -2   71.59   23.10
 -24  -7  -2   54.49   32.00
  -7  31  -2   88.49   24.30
   7 -31   2   24.20   27.20
 -31  24   2   49.40   18.50
 -24  -4  -2  166.18   30.50
  28 -24  -2  237.98   28.10
  -4  28  -2  259.17   33.50
  -4  28  -2  166.58   27.50
  28 -24  -2  140.29   26.30
   4 -28   2  176.58   27.00
 -28  24   2  139.29   18.50
  -1  25  -2  218.58   29.00
  25 -24  -2  169.68   24.90
 -24  -1  -2  196.58   29.70
  25 -24  -2  141.29   21.30
  24   1   2  171.28   27.70
 -25  24   2  178.48   19.30
   2  22  -2  253.57   27.80
  22 -24  -2  303.47   31.60
 -24   2  -2  288.77   36.30
  22 -24  -2  326.67   27.50
   2  22  -2  216.48   29.40
 -22  24   2  290.27   22.20
   5  19  -2  951.00   38.00
  19 -24  -2  995.60   39.80
  19 -24  -2  911.21   37.50
 -24   5  -2 1007.70   45.80
   5  19  -2  993.30   44.60
 -19  24   2 1057.89   32.50
  24  -5   2 1149.19   47.90
  -5 -19   2  870.41   37.70
   8  16  -2  114.89   18.80
 -24   8  -2  109.49   20.00
  16 -24  -2  164.88   21.80
  16 -24  -2  131.29   18.60
  -8 -16   2  227.48   23.30
 -16  24   2  186.18   18.90
  24  -8   2  222.48   30.60
  -8 -16   2  161.78   22.90
 -16  24   2  204.68   18.80
  13 -24  -2  757.82   33.10
  13 -24  -2  733.73   32.40
 -24  11  -2  691.73   37.80
  11  13  -2  724.53   38.20
 -13  24   2  681.43   28.00
 -13  24   2  646.34   26.70
 -11 -13   2  647.94   31.30
  24 -11   2  659.13   38.70
 -11 -13   2  683.73   38.70
  10 -24  -2  471.35   27.70
  10 -24  -2  468.15   28.40
 -24  14  -2  455.15   32.60
 -10  24   2  480.55   24.70
 -10  24   2  520.15   25.40
 -14 -10   2  475.25   27.40
 -14 -10   2  437.36   33.70
  24 -14   2  441.96   33.60
 -24  17  -2  257.97   28.50
   7 -24  -2  216.68   23.30
  24 -17   2  253.57   30.70
  -7  24   2  233.98   22.10
  -7  24   2  255.07   21.30
 -17  -7   2  249.38   22.50
 -17  -7   2  216.48   29.30
   4 -24  -2   67.79   15.50
 -24  20  -2   69.19   18.10
  -4  24   2  111.09   15.70
 -20  -4   2  101.09   15.70
  24 -20   2  105.09   22.10
 -20  -4   2   72.79   20.60
 -24  23  -2  116.39   20.60
  23   1  -2  131.09   21.90
   1 -24  -2  115.89   18.30
 -23  -1   2  114.69   23.60
 -23  -1   2  123.69   16.30
  24 -23   2   74.89   24.20
  -1  24   2  145.69   19.30
  24 -23   2  153.18   25.90
 -24  26  -2   57.39   20.10
  -2 -24  -2   56.09   19.40
  26  -2  -2   47.10   21.20
  24 -26   2   12.30   18.40
  24 -26   2   69.39   25.90
 -26   2   2   35.80   13.00
 -26   2   2   44.30   21.40
   2  24   2   86.49   18.90
 -24  29  -2  120.69   22.60
 -24  29  -2  111.79   24.70
  -5 -24  -2  122.19   22.40
  29  -5  -2  102.29   25.20
   5  24   2  116.89   23.00
  24 -29   2  107.69   32.70
  24 -29   2  118.29   24.60
 -29   5   2  126.09   25.90
 -25  -5  -2  128.39   31.40
 -25  -5  -2  161.18   21.60
  -5  30  -2  155.08   25.80
  30 -25  -2  117.59   30.10
  -5  30  -2  193.98   28.30
  30 -25  -2  162.88   28.20
   5 -30   2  131.49   22.40
 -30  25   2  183.08   21.40
  27 -25  -2  381.06   36.20
 -25  -2  -2  339.27   45.60
  -2  27  -2  342.27   34.80
  27 -25  -2  360.96   39.80
  -2  27  -2  294.57   38.10
   2 -27   2  354.46   35.40
 -27  25   2  312.77   26.90
  24 -25  -2  197.28   24.60
   1  24  -2  198.68   23.80
  24 -25  -2  171.58   44.00
 -25   1  -2  225.58   30.30
 -24  25   2  254.47   23.70
  -1 -24   2  191.78   24.30
   4  21  -2   37.60   14.60
 -25   4  -2   30.30   19.90
  21 -25  -2    6.60   14.40
  21 -25  -2   24.30   17.50
   4  21  -2   17.10   15.10
  25  -4   2   41.90   21.50
 -21  25   2   29.40   12.30
  18 -25  -2   85.29   16.30
  18 -25  -2   86.89   18.40
 -25   7  -2   50.79   18.10
   7  18  -2   87.39   19.50
 -18  25   2   92.89   14.60
  25  -7   2  103.39   20.60
 -18  25   2   59.29   13.20
  -7 -18   2  113.89   23.20
 -25  10  -2  164.18   24.10
  15 -25  -2  129.89   17.80
  15 -25  -2  165.48   20.40
  10  15  -2  142.49   22.60
  25 -10   2  209.08   28.10
 -15  25   2  183.98   19.60
 -15  25   2  172.78   19.40
 -10 -15   2  242.98   24.30
 -10 -15   2  178.68   24.70
 -25  13  -2  122.69   20.50
  12 -25  -2  118.19   18.20
  13  12  -2  154.98   24.10
  12 -25  -2  100.59   16.80
 -12  25   2  142.69   15.80
 -13 -12   2  136.09   17.50
 -12  25   2  146.99   18.90
  25 -13   2   87.99   19.90
 -13 -12   2  141.59   22.70
   9 -25  -2  575.94   31.90
   9 -25  -2  566.94   31.10
 -25  16  -2  589.04   35.30
  -9  25   2  571.64   28.00
  -9  25   2  603.94   28.10
 -16  -9   2  604.84   30.50
 -16  -9   2  612.74   37.60
  25 -16   2  588.04   39.30
 -25  19  -2  157.68   22.20
   6 -25  -2  179.48   21.90
 -19  -6   2  198.38   25.60
 -19  -6   2  201.28   21.90
  -6  25   2  225.08   22.90
  25 -19   2  248.88   34.80
   3 -25  -2  222.98   27.40
 -25  22  -2  264.87   31.30
  25 -22   2  193.58   26.20
 -22  -3   2  206.48   26.60
  -3  25   2  173.18   23.70
 -22  -3   2  185.98   21.60
 -25  25  -2  561.64   39.40
  25   0  -2  537.45   40.70
   0 -25  -2  593.84   37.00
 -25   0   2  550.54   42.40
  25 -25   2  411.16   38.10
  25 -25   2  457.65   46.10
   0  25   2  522.25   33.50
  -3 -25  -2  210.38   26.20
 -25  28  -2  187.48   25.30
 -25  28  -2  248.88   30.70
  28  -3  -2  191.48   29.10
  25 -28   2  229.58   36.20
   3  25   2  188.88   25.60
  25 -28   2  169.38   26.90
 -28   3   2  286.57   38.30
  -6 -25  -2   39.00   36.90
 -25  31  -2    5.40   21.90
  31  -6  -2   46.80   23.30
  -6 -25  -2   54.39   31.20
 -25  31  -2   19.40   23.90
 -31   6   2   76.79   18.40
 -31   6   2   38.90   26.40
  25 -31   2   29.90   33.50
  -3  29  -2  652.83   43.30
  29 -26  -2  660.23   47.00
  29 -26  -2  741.83   52.89
 -26  -3  -2  781.02   57.99
  -3  29  -2  725.63   47.70
 -29  26   2  577.74   33.00
   3 -29   2  522.85   41.20
   0  26  -2  948.91   45.20
   0  26  -2  988.70   50.99
  26 -26  -2  998.60   51.29
 -26   0  -2  981.70   56.09
  26 -26  -2  978.40   46.00
  26   0   2  919.51   50.19
   0 -26   2  934.51   46.10
 -26  26   2  960.80   35.60
  23 -26  -2  848.22   40.50
   3  23  -2  759.92   38.80
  23 -26  -2  835.02   43.60
 -26   3  -2  767.92   47.90
 -23  26   2  725.63   30.90
  -3 -23   2  712.93   38.80
  20 -26  -2  646.34   37.10
  20 -26  -2  606.24   34.80
 -26   6  -2  533.45   39.70
 -20  26   2  633.44   28.10
  26  -6   2  590.64   43.30
  -6 -20   2  674.43   44.10
 -26   9  -2  238.88   31.90
  17 -26  -2  255.77   26.00
  17 -26  -2  240.08   27.80
 -17  26   2  225.28   21.20
 -17  26   2  291.17   22.40
  -9 -17   2  288.67   34.70
  26  -9   2  289.57   32.80
  14 -26  -2  -17.30   11.80
  12  14  -2   27.00   15.80
 -26  12  -2   14.90   17.80
  14 -26  -2   -8.30   14.20
 -14  26   2   20.30   11.60
  26 -12   2    5.80   18.40
 -12 -14   2   -0.60   11.90
 -12 -14   2  -23.80   16.00
 -14  26   2    6.80   11.40
 -26  15  -2  273.47   31.20
  11 -26  -2  248.88   26.20
  11 -26  -2  252.67   27.00
 -15 -11   2  254.67   25.10
 -11  26   2  236.68   22.10
 -15 -11   2  212.28   25.50
  26 -15   2  275.37   33.10
 -11  26   2  224.98   22.60
   8 -26  -2  343.27   29.10
 -26  18  -2  342.77   32.80
 -18  -8   2  418.36   36.80
  -8  26   2  401.86   26.00
 -18  -8   2  361.36   26.20
  26 -18   2  353.06   37.70
 -26  21  -2   30.30   18.50
   5 -26  -2   49.40   17.20
  26 -21   2   46.80   24.60
  26 -21   2   34.30   21.90
 -21  -5   2   25.80   12.10
 -21  -5   2   23.70   20.30
  -5  26   2   44.30   14.00
   2 -26  -2   58.49   18.70
  24   2  -2   20.60   19.40
 -26  24  -2   15.70   19.30
  26 -24   2   12.70   23.60
 -24  -2   2   21.60   21.50
  26 -24   2   15.40   16.50
 -26  27  -2   73.59   22.80
  -1 -26  -2   97.89   21.60
  27  -1  -2   70.69   24.00
   1  26   2   68.39   18.80
  26 -27   2   48.00   23.80
 -27   1   2   57.79   24.10
  26 -27   2   91.09   31.10
  30  -4  -2   26.30   24.00
  -4 -26  -2   67.99   21.70
 -26  30  -2  101.09   23.60
 -26  30  -2   26.90   23.50
 -30   4   2   38.60   16.30
  26 -30   2  -43.80   28.40
  26 -30   2    7.20   27.10
 -30   4   2   23.90   24.80
   4  26   2    1.00   20.40
  -1  28  -2  148.89   24.00
 -27  -1  -2  157.28   31.40
  28 -27  -2  138.09   31.00
  28 -27  -2  112.59   26.10
  -1  28  -2   98.69   25.80
   1 -28   2   74.39   21.30
 -28  27   2  137.09   19.20
  27   1   2   58.89   25.30
 -27   2  -2  541.45   48.10
  25 -27  -2  476.45   42.60
   2  25  -2  474.55   41.10
  25 -27  -2  446.56   36.20
   2  25  -2  466.75   36.70
  27  -2   2  523.95   42.20
  -2 -25   2  455.75   37.50
 -25  27   2  457.15   28.00
  22 -27  -2  484.95   39.50
 -27   5  -2  497.95   43.00
  22 -27  -2  476.55   34.70
 -22  27   2  541.55   28.60
  -5 -22   2  549.45   36.50
  27  -5   2  626.94   46.20
 -27   8  -2  155.88   24.50
  19 -27  -2  201.68   24.60
 -19  27   2  215.38   23.40
 -19  27   2  204.78   22.40
  27  -8   2  220.28   30.90
  -8 -19   2  187.18   27.50
  16 -27  -2  208.98   24.60
  16 -27  -2  203.38   26.30
 -27  11  -2  241.98   28.70
 -16  27   2  251.57   22.90
 -11 -16   2  309.37   37.00
  27 -11   2  200.08   27.70
 -16  27   2  256.77   23.00
 -27  14  -2   -4.80   16.90
  13 -27  -2    5.30   13.70
  13 -27  -2   -8.00   15.70
 -13  27   2   11.50   12.10
 -13  27   2   11.90   12.10
  27 -14   2    5.00   16.70
 -14 -13   2   12.10   18.60
 -14 -13   2   19.10   12.40
 -27  17  -2  215.28   26.00
  10 -27  -2  223.18   29.60
  10 -27  -2  168.18   21.10
 -17 -10   2  148.79   24.70
 -10  27   2  163.78   18.90
 -10  27   2  178.78   19.70
  27 -17   2  151.68   26.20
 -27  20  -2   85.39   21.90
   7 -27  -2  100.09   18.50
  -7  27   2   56.69   15.00
  27 -20   2   48.20   22.40
 -20  -7   2    5.20   12.60
 -20  -7   2   28.30   21.30
  27 -20   2   41.80   20.00
   4 -27  -2   72.79   20.20
 -27  23  -2   85.59   22.40
  27 -23   2   50.59   23.90
  27 -23   2   44.50   18.50
  -4  27   2   84.49   18.50
 -23  -4   2   41.60   23.80
 -27  26  -2   95.59   25.70
  26   1  -2  161.38   29.00
  27 -26   2  121.19   33.80
  -1  27   2  121.79   21.20
  27 -26   2   95.39   23.80
 -26  -1   2  139.79   28.50
  29  -2  -2    1.70   24.90
 -27  29  -2   80.39   27.50
  -2 -27  -2   46.10   19.60
  27 -29   2   71.19   33.70
  27 -29   2   78.79   24.20
 -29   2   2   33.00   16.40
   2  27   2   56.49   21.00
 -29   2   2   28.10   25.60
  27 -28  -2   75.09   27.50
  27 -28  -2   87.39   23.60
 -28   1  -2  110.99   31.70
   1  27  -2   63.49   22.20
   1  27  -2   89.89   26.30
  28  -1   2   44.80   25.20
 -27  28   2   97.19   17.70
  -1 -27   2   59.39   21.70
  24 -28  -2  160.08   26.80
   4  24  -2  109.89   25.60
 -28   4  -2  121.29   27.60
  24 -28  -2  122.59   22.50
  28  -4   2  118.39   27.50
  28  -4   2  181.18   33.60
  -4 -24   2   93.89   20.40
 -24  28   2  103.39   17.10
   7  21  -2   99.69   24.10
 -28   7  -2   93.09   25.50
  21 -28  -2   41.60   22.80
  21 -28  -2   90.19   19.60
  -7 -21   2   99.59   21.50
 -21  28   2   95.69   16.30
  28  -7   2  144.19   27.40
  -7 -21   2  134.69   27.50
  10  18  -2   96.59   40.40
  18 -28  -2   71.59   21.10
  18 -28  -2   83.59   19.10
 -28  10  -2   56.79   21.60
 -10 -18   2   77.19   24.70
 -18  28   2   53.29   13.70
 -18  28   2   70.89   15.30
 -10 -18   2   40.10   16.70
  28 -10   2   58.89   23.30
  15 -28  -2   95.49   21.20
  15 -28  -2  113.99   20.50
 -28  13  -2   83.19   21.70
  13  15  -2  106.39   36.10
 -13 -15   2  116.49   24.60
  28 -13   2   66.09   21.60
 -15  28   2   90.49   16.00
 -15  28   2  116.79   17.00
  16  12  -2   15.60   17.50
  12 -28  -2   27.70   18.30
 -28  16  -2   49.20   19.60
  12 -28  -2   41.10   16.50
 -12  28   2   36.10   14.70
 -12  28   2   34.10   14.40
  28 -16   2   54.39   21.40
 -16 -12   2   43.70   23.20
   9 -28  -2   84.79   19.10
 -28  19  -2   57.69   22.60
  28 -19   2   17.00   16.70
 -19  -9   2   51.49   23.40
  28 -19   2   54.49   23.50
  -9  28   2   31.70   15.20
   6 -28  -2  119.69   21.20
 -28  22  -2  186.68   28.50
  28 -22   2  119.19   27.30
 -22  -6   2  147.89   27.70
  28 -22   2  166.48   27.10
   3 -28  -2  217.78   27.90
 -28  25  -2  229.08   29.30
  28 -25   2  214.38   35.10
 -25  -3   2  274.17   27.20
 -25  -3   2  237.28   31.90
  -3  28   2  233.28   30.10
  28 -25   2  215.88   29.70
 -28  28  -2  104.29   26.80
   0 -28  -2   81.59   22.50
  28 -28   2   39.80   32.20
  28 -28   2   97.19   23.90
 -28   0   2   22.30   16.50
 -28   0   2   18.40   27.70
   0  28   2   78.39   22.50
  26 -29  -2  747.23   51.59
 -29   3  -2  721.43   55.79
  26 -29  -2  682.73   44.00
   3  26  -2  578.04   46.00
  -3 -26   2  578.54   41.30
 -26  29   2  583.24   31.70
  29  -3   2  556.04   43.50
  29  -3   2  533.55   54.89
 -29   6  -2  704.73   50.39
   6  23  -2  631.94   47.80
  23 -29  -2  593.24   41.20
  23 -29  -2  649.93   45.80
  -6 -23   2  640.44   51.89
 -23  29   2  596.04   31.10
  29  -6   2  585.24   45.30
  29  -6   2  762.82   53.49
  -6 -23   2  599.84   40.70
 -29   9  -2  305.67   39.50
  20 -29  -2  287.17   36.40
   9  20  -2  281.77   37.80
  20 -29  -2  275.47   32.90
  -9 -20   2  274.37   33.40
  29  -9   2  340.47   42.60
  29  -9   2  233.88   37.50
  -9 -20   2  371.66   35.80
 -20  29   2  322.37   26.30
  12  17  -2  151.98   24.50
  17 -29  -2  147.49   24.30
  17 -29  -2  193.48   24.00
 -29  12  -2  117.79   26.00
 -12 -17   2  179.38   28.90
 -17  29   2  187.88   23.60
 -12 -17   2  179.68   23.90
 -17  29   2  171.58   23.20
  29 -12   2  108.49   25.60
  14 -29  -2    4.30   17.60
  15  14  -2  -17.10   19.50
 -29  15  -2  -11.20   19.40
  14 -29  -2   10.10   19.00
 -15 -14   2   -8.50   14.50
 -15 -14   2   22.50   22.70
  29 -15   2   -5.70   19.50
 -14  29   2   -6.80   12.90
 -14  29   2   12.80   13.60
  11 -29  -2  128.09   22.40
 -29  18  -2   88.29   23.30
  18  11  -2   79.79   23.10
  29 -18   2   59.39   21.90
 -18 -11   2   82.19   25.40
 -11  29   2   92.29   26.70
 -11  29   2   87.49   16.60
  29 -18   2   68.69   24.80
 -18 -11   2   68.39   18.80
   8 -29  -2  161.58   26.10
 -29  21  -2  121.29   27.90
  29 -21   2  131.89   23.60
  29 -21   2   85.99   26.40
 -21  -8   2   94.89   18.70
  -8  29   2   87.69   18.40
 -21  -8   2   72.99   25.10
   5 -29  -2   92.99   22.00
 -29  24  -2  127.39   25.60
  29 -24   2   87.79   29.80
  29 -24   2   64.69   24.50
 -24  -5   2   95.59   29.20
  -5  29   2  125.69   20.90
 -24  -5   2   53.79   16.80
   2 -29  -2   20.90   22.30
 -29  27  -2   44.80   26.50
  -2  29   2   38.00   19.50
 -27  -2   2   37.30   17.50
  29 -27   2   29.80   30.90
  29 -27   2   17.60   21.00
 -27  -2   2   30.10   28.80
  25 -30  -2  169.48   30.70
   5  25  -2  140.99   27.90
 -30   5  -2  163.88   33.50
  25 -30  -2  135.49   26.40
 -25  30   2  140.99   20.10
  30  -5   2  194.08   35.00
  -5 -25   2  147.89   22.70
  -5 -25   2  128.59   33.20
  30  -5   2  146.29   27.00
   8  22  -2  175.48   28.40
  22 -30  -2  197.98   29.60
  22 -30  -2  229.18   28.60
 -30   8  -2  224.88   33.60
  30  -8   2  246.38   38.50
  -8 -22   2  312.47   39.10
 -22  30   2  259.47   26.50
  -8 -22   2  292.27   36.10
  30  -8   2  178.38   27.40
  19 -30  -2   18.90   19.70
  11  19  -2   62.59   24.20
 -30  11  -2   58.89   24.90
  19 -30  -2   45.60   22.60
  30 -11   2  114.29   27.50
  30 -11   2   84.19   30.00
 -11 -19   2   97.59   21.10
 -19  30   2   49.60   15.90
 -19  30   2   68.39   16.20
 -11 -19   2   95.29   29.40
  16 -30  -2   88.59   23.50
  16 -30  -2   66.79   21.00
  14  16  -2   98.49   25.90
 -30  14  -2  143.49   27.70
  30 -14   2   90.99   28.00
 -14 -16   2   62.29   25.90
 -16  30   2   84.29   16.60
  30 -14   2   71.09   20.60
 -16  30   2   57.79   16.50
 -14 -16   2   41.50   17.70
  13 -30  -2   92.19   21.50
  17  13  -2   62.59   22.30
 -30  17  -2   89.59   25.00
  13 -30  -2   97.39   22.60
  30 -17   2  110.99   28.20
 -13  30   2   98.69   17.90
  30 -17   2   85.69   21.90
 -17 -13   2   93.39   29.30
 -17 -13   2  105.39   20.40
  10 -30  -2   56.59   21.30
 -30  20  -2   17.20   23.50
 -20 -10   2   64.99   18.30
  30 -20   2   98.79   24.80
  30 -20   2   24.40   24.90
 -20 -10   2   87.09   26.00
 -30  23  -2   78.29   26.20
   7 -30  -2   24.80   22.40
  30 -23   2  121.49   30.50
 -23  -7   2   25.00   27.20
  30 -23   2   31.00   21.90
 -23  -7   2   43.70   17.50
  -7  30   2   56.19   19.00
 -30  26  -2   79.79   27.20
   4 -30  -2   13.00   21.80
 -26  -4   2   33.80   17.40
 -26  -4   2   25.30   28.00
  30 -26   2   52.49   28.10
  30 -26   2   59.89   32.30
  -4  30   2   81.09   20.70
 -31   7  -2  119.49   31.80
   7  24  -2  136.29   30.50
  24 -31  -2   88.59   25.50
  24 -31  -2  143.89   31.30
 -24  31   2  137.89   19.50
  -7 -24   2  114.69   35.00
  31  -7   2   50.99   27.80
  -7 -24   2  108.19   22.90
  31  -7   2  117.69   33.30
  21 -31  -2  126.89   25.20
 -31  10  -2   58.19   28.30
  10  21  -2   92.39   27.00
  21 -31  -2  127.99   28.90
 -10 -21   2  109.29   24.10
  31 -10   2  140.79   34.20
  31 -10   2   52.69   25.50
 -21  31   2   90.09   17.60
 -10 -21   2  116.29   32.10
 -31  13  -2  290.37   35.00
  18 -31  -2  343.67   37.50
  18 -31  -2  295.77   40.80
  13  18  -2  253.47   33.30
 -13 -18   2  290.17   30.60
  31 -13   2  277.27   36.10
 -18  31   2  268.97   26.80
 -18  31   2  198.38   27.50
 -13 -18   2  295.87   38.20
  31 -13   2  236.78   31.20
  15 -31  -2  231.18   29.60
 -31  16  -2  203.88   31.60
  16  15  -2  162.08   29.50
  15 -31  -2  210.08   26.90
 -15  31   2  158.78   27.00
 -15  31   2  250.37   33.90
  31 -16   2  172.38   29.20
 -16 -15   2  212.58   27.00
 -16 -15   2  185.98   33.40
  31 -16   2  201.98   33.30
  19  12  -2  134.19   26.60
 -31  19  -2  172.98   29.90
 -19 -12   2  168.48   30.80
  31 -19   2  266.97   37.50
 -12  31   2  191.28   22.70
 -19 -12   2  235.98   31.40
  31 -19   2  183.38   30.50
 -12  31   2  172.28   21.50
   9 -31  -2   18.00   21.40
 -31  22  -2   60.49   26.50
  31 -22   2   24.20   20.90
  -9  31   2   18.10   18.10
 -22  -9   2   17.70   28.00
 -22  -9   2   22.20   17.70
  31 -22   2    7.20   27.40
 -31  25  -2  145.59   30.00
   6 -31  -2   96.49   23.80
 -25  -6   2   76.89   32.10
 -25  -6   2   85.49   20.30
  31 -25   2  119.69   35.60
  -6  31   2   87.49   23.00
 -32   9  -2  185.78   35.40
   9  23  -2   83.19   27.00
  23 -32  -2  185.38   32.20
  23 -32  -2   78.49   26.00
  -9 -23   2  105.19   35.40
 -23  32   2  141.09   23.50
  -9 -23   2  108.89   28.80
  32  -9   2   98.59   28.20
 -32  12  -2  114.19   32.40
  20 -32  -2  191.28   30.50
  12  20  -2   83.89   28.30
  20 -32  -2  115.09   26.00
 -20  32   2  109.79   19.80
 -12 -20   2  122.49   23.60
  32 -12   2   75.79   25.80
  32 -12   2  116.29   34.30
 -12 -20   2  119.69   33.70
  17 -32  -2   25.80   22.00
 -32  15  -2   45.80   27.40
  15  17  -2   31.50   24.60
 -15 -17   2   -0.50   19.40
 -15 -17   2   52.39   31.00
  32 -15   2   45.10   26.50
 -17  32   2   23.80   17.10
 -17  32   2   25.20   16.40
  32 -15   2   32.10   21.00
  18  14  -2   48.80   26.00
 -32  18  -2    9.70   24.80
  14 -32  -2   25.00   28.20
  14 -32  -2    4.00   21.70
 -14  32   2   23.90   17.00
 -18 -14   2   71.49   21.40
  32 -18   2   13.30   28.80
  32 -18   2  -15.50   18.90
 -18 -14   2   52.59   29.80
 -14  32   2    4.90   16.20
 -32  21  -2   85.69   29.40
  11 -32  -2  119.79   24.80
 -21 -11   2   49.99   19.30
  32 -21   2   53.79   31.50
 -21 -11   2   64.79   30.70
  32 -21   2   36.60   24.90
 -11  32   2   77.09   19.20
 -33  14  -2  117.29   32.90
  19 -33  -2   97.69   27.00
  19 -33  -2   85.89   28.90
  14  19  -2   34.40   25.40
 -14 -19   2  120.69   36.60
 -14 -19   2  110.19   21.80
 -19  33   2   72.59   19.30
  33 -14   2   35.80   27.70
 -19  33   2  144.59   20.10
  16 -33  -2  128.39   26.50
  17  16  -2   62.79   32.20
 -33  17  -2  157.28   31.70
  16 -33  -2   78.69   27.90
 -16  33   2   97.69   20.50
 -16  33   2  138.39   20.40
 -17 -16   2   87.29   34.40
  33 -17   2  123.39   33.40
 -17 -16   2   97.19   22.40
   0   0  -3  296.87   10.70
   0   0  -3  277.67    6.80
   0   0   3  282.87   10.70
  -1   2  -3 7743.83  103.99
  -1   2  -3 7664.43   97.69
   2  -1  -3 7686.13  100.19
  -1  -1  -3 7680.83   95.19
  -1  -1  -3 7663.53   98.79
  -2   1   3 7600.34   99.49
   1  -2   3 7566.14   94.49
   1   1   3 7781.42   99.39
   1  -2   3 7771.22  103.79
   1  -2  -3 7160.38   91.39
   1   1  -3 7242.38   97.29
  -2   1  -3 6959.30  101.39
   1   1  -3 7323.87   88.99
  -2   1  -3 7174.08   91.99
   2  -1   3 7258.07   95.99
   2  -1   3 7028.90   87.89
  -1   2   3 7064.49   90.59
  -1  -1   3 7099.79   95.89
  -2   4  -3 6358.66   83.49
   4  -2  -3 6137.89   83.09
  -2   4  -3 6269.37   89.29
  -2  -2  -3 6199.88   80.79
  -2  -2  -3 5945.91   80.19
   2   2   3 5965.00   79.69
   2  -4   3 6036.60   87.19
   2  -4   3 6123.19   82.29
   0   3  -3   36.10    4.70
  -3   0  -3   45.60    9.20
   0   3  -3   37.20    6.40
  -3   0  -3   35.40    5.00
   3  -3  -3   40.50    4.70
   0  -3   3   35.30    4.30
   0  -3   3   32.50    6.10
   3   0   3   44.50    4.70
   3   0   3   26.50    4.90
   3   0  -3   88.39    5.20
   0  -3  -3   73.39    4.60
   3   0  -3   75.59    7.70
  -3   3  -3   84.29    7.10
  -3   3  -3   71.79    8.00
   3   0  -3   75.39    4.00
   3  -3   3   80.89    9.00
   3  -3   3   72.79    6.00
   0   3   3   78.09    5.20
   6  -3  -3  379.66    7.30
  -3  -3  -3  396.36   13.50
   6  -3  -3  395.96    7.70
  -3   6  -3  383.06   14.20
  -3   6  -3  389.56   16.60
   3  -6   3  391.36   13.60
   3   3   3  385.06   12.00
   3  -6   3  379.26   17.10
  -1   5  -3 2764.92   49.40
  -1   5  -3 2800.12   43.70
  -4  -1  -3 2730.23   43.80
   1  -5   3 2661.83   41.40
   1  -5   3 2711.43   48.40
   4   1   3 2602.24   42.40
   2   2  -3 5151.48   67.89
   2   2  -3 5160.18   76.09
  -4   2  -3 5201.08   72.39
  -4   2  -3 5234.18   74.79
  -2  -2   3 4739.23   60.89
  -2  -2   3 4761.82   60.79
   4  -2   3 4813.12   71.19
   4  -2   3 5127.29   70.19
  -2  -2   3 4894.51   71.89
   5  -1  -3 6730.03   93.29
  -4   5  -3 7033.60   93.39
   5  -1  -3 6526.85   83.29
  -4   5  -3 6800.72   97.49
   5  -1  -3 6769.52   84.59
   1   4   3 6429.86   82.49
   4  -5   3 6580.14   94.69
   4  -5   3 6483.15   88.49
   8  -4  -3 3607.84   50.29
  -4   8  -3 3629.44   63.89
  -4  -4  -3 3666.43   57.79
  -4   8  -3 3682.93   58.59
   4  -8   3 3474.65   56.29
   4  -8   3 3515.75   62.19
  -2   7  -3 5798.52   89.49
  -5  -2  -3 5912.51   83.59
  -2   7  -3 5789.22   82.79
   2  -7   3 5767.02   88.19
   5   2   3 5765.32   80.39
   2  -7   3 5626.14   80.69
  -5   1  -3 2536.35   42.30
  -5   1  -3 2534.85   41.90
   1   4  -3 2414.46   45.40
   1   4  -3 2555.24   39.40
   4  -5  -3 2484.15   34.90
   5  -1   3 2568.44   44.10
  -1  -4   3 2573.94   46.90
  -1  -4   3 2685.83   41.20
   5  -1   3 2623.34   41.50
  -5   4  -3 7493.65  104.89
  -5   4  -3 7584.04  101.89
   4   1  -3 7290.87   94.39
   4   1  -3 7591.74  104.39
   4   1  -3 7537.25   96.29
   5  -4   3 7250.27  102.69
   5  -4   3 7266.87   97.79
   7  -2  -3 6127.19   79.29
  -5   7  -3 6354.96   89.19
  -5   7  -3 6287.27   93.89
   7  -2  -3 6139.49   81.09
   5  -7   3 6086.69   91.09
   2   5   3 5833.62   77.69
   5  -7   3 5902.11   84.89
  -5  10  -3 2162.28   42.40
  -5  -5  -3 2153.88   42.40
  10  -5  -3 2025.90   37.60
  -5  10  -3 2160.98   47.10
   5 -10   3 2016.60   40.60
   5 -10   3 2087.99   46.30
  -6  -3  -3 1029.10   27.10
   9  -6  -3 1034.50   19.90
  -3   9  -3 1000.60   25.90
  -3   9  -3 1027.90   30.30
   3  -9   3 1017.10   30.40
   3  -9   3  976.00   25.20
   0   6  -3  105.99    9.00
  -6   0  -3   93.79    9.70
   0   6  -3  113.79   11.20
   0  -6   3  104.69    8.20
   0  -6   3  108.99   12.20
   6   0   3   99.29    8.70
   6   0   3  106.09    9.70
  -6   3  -3  384.96   15.10
   3   3  -3  393.26   16.40
  -6   3  -3  364.66   14.60
   3   3  -3  391.06   11.90
  -3  -3   3  384.16   11.50
   6  -3   3  380.46   15.60
  -3  -3   3  401.16   10.80
  -3  -3   3  398.36   16.50
   6  -3   3  389.06   13.90
  -6   6  -3  118.09   11.40
   6   0  -3  117.69    7.00
   6   0  -3  125.09    7.70
  -6   6  -3   99.09   10.20
   6  -6   3  104.69   11.50
   6  -6   3  120.79    9.60
  -6   0   3  108.89    4.40
   0   6   3  114.09    5.20
  -6   0   3  118.89    4.80
   9  -3  -3  107.09   13.10
  -6   9  -3   91.39   12.20
  -6   9  -3   86.69   11.50
   6  -9   3  102.89   10.80
   6  -9   3   76.99   10.90
  -6  12  -3  170.68   15.00
  12  -6  -3  164.88   11.40
  -6  12  -3  180.58   16.50
  -6  -6  -3  194.88   16.40
   6 -12   3  165.88   18.10
 -12   6   3  145.09    6.70
 -12   6   3  148.39    6.30
   6 -12   3  138.89   13.20
  -7  -4  -3  501.55   21.20
  -4  11  -3  485.55   22.70
  11  -7  -3  476.75   15.10
  -4  11  -3  483.45   20.00
   4 -11   3  554.94   20.40
   4 -11   3  536.05   24.70
  -1   8  -3 1346.97   29.50
   8  -7  -3 1298.17   21.60
  -7  -1  -3 1327.37   31.00
  -1   8  -3 1315.07   34.10
   1  -8   3 1101.49   25.90
   7   1   3 1116.49   26.60
   1  -8   3 1191.58   32.50
   7   1   3 1130.79   27.10
   5  -7  -3 5430.66   67.79
  -7   2  -3 5609.84   81.49
   2   5  -3 5459.65   76.59
   2   5  -3 5575.14   85.49
  -7   2  -3 5512.15   80.99
  -2  -5   3 5725.83   86.39
   7  -2   3 5656.43   81.09
  -2  -5   3 5582.84   76.89
   7  -2   3 5508.85   82.79
   5   2  -3 7338.87  105.39
  -7   5  -3 7367.16  105.09
   5   2  -3 7218.68   95.29
  -7   5  -3 7309.27  102.59
   7  -5   3 7158.68   99.29
   7  -5   3 7177.08  103.19
  -5  -2   3 7052.49   91.49
  -5  -2   3 6951.50   90.29
   8  -1  -3 3149.39   49.00
  -7   8  -3 3179.58   54.59
   8  -1  -3 3153.18   46.60
  -7   8  -3 3128.39   57.79
  -8   1   3 2931.91   40.40
   7  -8   3 3073.79   52.39
   7  -8   3 3036.30   56.89
  -8   1   3 2945.51   41.20
  -7  11  -3  729.43   26.90
  11  -4  -3  793.42   21.20
  -7  11  -3  789.82   25.40
 -11   4   3  698.93   14.00
   7 -11   3  726.73   28.10
   7 -11   3  707.13   23.60
 -11   4   3  696.93   14.50
  -7  14  -3 2195.48   47.30
  -7  -7  -3 2203.98   48.90
  -7  14  -3 2143.39   51.69
  14  -7  -3 2255.17   43.30
   7 -14   3 2286.67   48.50
   7 -14   3 2214.48   52.99
 -14   7   3 2325.97   35.10
 -14   7   3 2233.18   35.60
  -8  -5  -3 1742.53   41.70
  -5  13  -3 1766.42   40.40
  13  -8  -3 1754.62   35.20
  -5  13  -3 1773.22   45.20
 -13   8   3 1785.42   26.80
   5 -13   3 1849.81   41.30
 -13   8   3 1813.02   27.20
   5 -13   3 1894.51   47.00
  -2  10  -3 1468.95   38.40
  -2  10  -3 1499.15   33.60
  -8  -2  -3 1527.65   35.90
   2 -10   3 1704.53   41.80
   8   2   3 1711.73   36.50
   2 -10   3 1655.83   35.60
   7  -8  -3 1416.06   23.50
   1   7  -3 1438.76   35.80
  -8   1  -3 1454.45   33.00
   1   7  -3 1448.26   29.90
   7  -8  -3 1411.56   22.60
   8  -1   3 1233.38   28.90
   8  -1   3 1212.78   29.60
  -1  -7   3 1267.47   26.90
  -1  -7   3 1247.78   33.20
   4   4  -3 3866.21   57.09
  -8   4  -3 3819.62   62.59
   4  -8  -3 3858.61   51.49
  -8   4  -3 3820.92   63.19
   4   4  -3 3893.61   65.99
  -4  -4   3 3687.73   54.59
  -4  -4   3 3782.52   56.19
   8  -4   3 3826.72   63.49
   8  -4   3 3790.42   60.79
   7   1  -3 3559.54   55.99
   7   1  -3 3619.34   53.29
  -8   7  -3 3638.64   63.09
  -8   7  -3 3721.43   61.09
   8  -7   3 3506.45   57.49
  -1   8   3 3021.70   45.50
   8  -7   3 3418.56   60.69
  -7  -1   3 3442.96   49.00
  -8  10  -3 1719.13   41.20
  10  -2  -3 1696.73   33.50
  -8  10  -3 1693.43   38.00
 -10   2   3 1760.62   28.90
 -10   2   3 1693.73   28.70
   8 -10   3 1733.23   38.30
   8 -10   3 1736.83   42.50
  -8  13  -3  302.07   18.60
  -8  13  -3  348.27   20.70
  -5  -8  -3  332.87   19.60
  13  -5  -3  317.77   15.50
   8 -13   3  317.17   21.80
   8 -13   3  342.97   18.40
 -13   5   3  338.07   11.90
 -13   5   3  342.77   11.00
  16  -8  -3   46.70    8.90
  -8  16  -3   37.10   10.10
  -8  16  -3   36.80   11.40
  -8  -8  -3   44.40   11.70
 -16   8   3   30.80    5.50
   8 -16   3   25.50    8.80
 -16   8   3   32.50    6.70
   8 -16   3   28.20   11.40
  -6  15  -3  440.36   24.20
  -9  -6  -3  464.65   24.00
  15  -9  -3  437.56   18.40
  -6  15  -3  451.75   21.90
 -15   9   3  415.86   13.00
   6 -15   3  423.76   21.20
 -15   9   3  416.66   12.10
   6 -15   3  423.56   24.90
  -9  -3  -3  843.32   28.10
  12  -9  -3  826.72   21.20
  -3  12  -3  841.62   30.20
  -3  12  -3  837.82   25.80
   3 -12   3  744.33   24.30
   3 -12   3  742.53   29.20
   0   9  -3   39.00    8.30
   9  -9  -3   28.90    5.50
   9  -9  -3   30.00    5.00
   0   9  -3   21.40    8.80
  -9   0  -3   31.40    8.40
   9   0   3   42.00    8.80
   0  -9   3   29.70   10.30
   9   0   3   27.10    7.30
   0  -9   3   51.29    8.30
   3   6  -3 1477.15   30.40
   6  -9  -3 1499.75   22.50
  -9   3  -3 1470.95   34.30
   3   6  -3 1525.25   37.50
   6  -9  -3 1519.75   24.80
   9  -3   3 1432.26   32.60
   9  -3   3 1453.55   34.10
  -3  -6   3 1456.35   29.20
   3  -9  -3  203.08   10.50
   6   3  -3  203.18   15.30
  -9   6  -3  190.58   14.10
   6   3  -3  212.88   11.40
  -9   6  -3  205.98   14.40
  -6  -3   3  194.38   11.30
   9  -6   3  189.48   15.40
   9  -6   3  203.88   13.50
  -6  -3   3  195.28    9.80
   9   0  -3    3.90    5.50
  -9   9  -3    4.40    6.70
  -9   9  -3    9.50    6.80
   9   0  -3    4.30    5.00
   9  -9   3   12.90    9.00
   0   9   3    3.40    3.80
   9  -9   3    5.40    6.60
  -9   0   3    0.60    3.70
  -9   0   3    0.70    4.60
  -9  12  -3  152.48   15.70
  12  -3  -3  122.39   11.60
  -9  12  -3  153.08   15.20
   9 -12   3  137.39   17.30
 -12   3   3  146.89    9.60
   9 -12   3  144.39   13.80
 -12   3   3  124.39    8.30
  -9  15  -3  811.02   28.50
  -6  -9  -3  822.62   30.10
  -9  15  -3  789.52   31.10
  15  -6  -3  810.82   25.50
   9 -15   3  904.11   34.30
 -15   6   3  881.01   20.00
 -15   6   3  880.31   21.50
   9 -15   3  904.31   29.70
  18  -9  -3  722.93   27.20
  -9  18  -3  738.03   32.40
  -9  18  -3  682.43   29.00
  -9  -9  -3  785.42   33.10
 -18   9   3  772.72   19.90
   9 -18   3  758.92   30.00
   9 -18   3  758.92   35.00
 -18   9   3  773.72   21.90
  -7  17  -3  185.18   17.70
 -10  -7  -3  161.88   20.00
  17 -10  -3  171.58   15.00
  -7  17  -3  200.08   20.10
   7 -17   3  168.68   21.20
 -17  10   3  169.58   11.20
   7 -17   3  190.48   17.50
  14 -10  -3 1401.86   31.50
 -10  -4  -3 1377.76   38.30
  -4  14  -3 1382.46   35.70
  -4  14  -3 1361.66   40.30
   4 -14   3 1342.87   41.00
 -14  10   3 1327.07   22.40
   4 -14   3 1392.66   35.70
 -10  -1  -3  868.91   28.20
  -1  11  -3  861.21   25.70
  11 -10  -3  844.42   21.70
  -1  11  -3  905.11   30.80
  11 -10  -3  857.91   20.70
   1 -11   3  894.71   26.10
   1 -11   3  913.41   31.90
  10   1   3  882.21   27.10
   8 -10  -3 1349.86   24.10
 -10   2  -3 1391.36   34.50
   2   8  -3 1350.16   36.70
   2   8  -3 1352.26   30.50
  -2  -8   3 1592.94   33.30
  10  -2   3 1595.34   36.50
  10  -2   3 1573.24   37.00
  -2  -8   3 1625.04   40.20
   5   5  -3 2369.56   49.30
   5   5  -3 2294.47   40.70
 -10   5  -3 2252.67   46.00
 -10   5  -3 2294.97   45.90
   5 -10  -3 2226.98   36.50
  10  -5   3 2341.37   46.00
  10  -5   3 2291.27   47.60
  -5  -5   3 2337.47   42.10
  -5  -5   3 2343.57   40.30
   8   2  -3 1735.23   33.00
   8   2  -3 1690.23   35.70
 -10   8  -3 1695.93   38.80
   2 -10  -3 1728.43   31.40
 -10   8  -3 1719.53   40.20
  10  -8   3 1597.04   39.50
  -8  -2   3 1633.14   29.80
  -8  -2   3 1590.24   31.40
  10  -8   3 1577.84   36.50
  -2  10   3 1585.84   24.70
 -10  11  -3 1204.08   35.00
  11  -1  -3 1187.88   29.50
 -10  11  -3 1224.38   33.20
  -1 -10  -3 1224.28   27.60
 -11   1   3 1205.48   24.20
 -11   1   3 1226.18   26.10
  10 -11   3 1203.08   32.50
  10 -11   3 1190.88   35.80
 -10  14  -3  668.93   28.00
  14  -4  -3  625.14   22.30
 -10  14  -3  669.93   25.90
  10 -14   3  762.02   31.60
  10 -14   3  770.32   27.50
 -14   4   3  751.52   18.70
 -14   4   3  805.42   21.00
 -10  17  -3  435.56   25.50
 -10  17  -3  489.25   24.50
  -7 -10  -3  484.85   26.60
  17  -7  -3  435.86   21.00
  10 -17   3  439.36   27.40
  10 -17   3  465.75   23.30
 -17   7   3  449.95   15.20
 -17   7   3  438.06   17.30
 -10  20  -3   36.30   20.70
 -10  20  -3   62.39   13.40
 -10 -10  -3   32.40   14.90
  20 -10  -3   58.49   11.80
  10 -20   3   60.99   13.90
  10 -20   3   59.69   16.20
 -20  10   3   53.59    9.80
  -8  19  -3  480.65   25.40
 -11  -8  -3  463.65   28.60
  19 -11  -3  433.36   22.70
  -8  19  -3  468.05   27.90
   8 -19   3  454.25   25.40
   8 -19   3  480.45   30.60
 -19  11   3  464.75   17.70
 -11  -5  -3   70.79   13.70
  16 -11  -3   56.49    9.50
  -5  16  -3   32.80   11.60
  -5  16  -3   40.20   10.30
 -16  11   3   41.60    6.40
   5 -16   3   31.50   11.40
   5 -16   3   29.60    9.10
 -11  -2  -3  277.97   19.40
  13 -11  -3  286.87   15.10
  -2  13  -3  248.78   20.00
  13 -11  -3  276.97   13.60
  -2  13  -3  280.17   17.40
   2 -13   3  255.57   21.60
   2 -13   3  277.87   16.60
  11   2   3  283.87   18.10
   1  10  -3  861.91   25.20
   1  10  -3  851.01   30.20
 -11   1  -3  842.62   28.10
  10 -11  -3  860.11   20.60
  10 -11  -3  864.21   20.40
  11  -1   3  845.92   27.10
  -1 -10   3  855.51   30.60
  -1 -10   3  859.01   25.00
  11  -1   3  889.11   28.00
 -11   4  -3  503.45   22.10
   4   7  -3  497.45   18.30
   7 -11  -3  488.05   12.50
   7 -11  -3  504.15   14.60
   4   7  -3  486.95   22.80
  -4  -7   3  634.54   19.80
  11  -4   3  584.44   23.40
  -4  -7   3  608.84   21.60
  11  -4   3  619.04   22.70
   7   4  -3 1124.69   32.90
   4 -11  -3 1077.09   23.20
 -11   7  -3 1077.69   30.90
 -11   7  -3 1092.39   31.00
   7   4  -3 1104.39   26.20
  -7  -4   3 1028.90   24.00
  -4  11   3 1023.00   17.20
  11  -7   3 1049.49   29.50
  11  -7   3 1018.90   31.40
  -7  -4   3 1075.49   26.50
  10   1  -3 1010.00   27.60
 -11  10  -3 1054.49   32.20
   1 -11  -3 1008.50   24.30
 -11  10  -3  989.50   30.10
  -1  11   3  923.61   19.80
 -10  -1   3  946.21   22.00
  11 -10   3  945.61   31.50
  11 -10   3  937.81   28.80
 -10  -1   3  933.41   23.70
  13  -2  -3   87.79   12.00
  -2 -11  -3   83.59   11.00
 -11  13  -3  112.29   14.10
 -11  13  -3   70.19   11.40
 -13   2   3  111.59   11.20
 -13   2   3  108.19    9.20
  11 -13   3  133.09   18.10
  11 -13   3  112.69   14.00
 -11  16  -3  380.76   22.50
  -5 -11  -3  392.76   19.00
  16  -5  -3  392.46   19.80
 -11  16  -3  370.56   23.60
 -16   5   3  372.86   16.80
  11 -16   3  426.56   22.30
 -16   5   3  388.26   14.30
  11 -16   3  370.76   25.90
  -8 -11  -3  545.35   30.50
 -11  19  -3  534.25   29.40
 -11  19  -3  524.45   27.40
  -8 -11  -3  590.14   25.30
  19  -8  -3  553.44   25.60
  11 -19   3  623.04   33.10
 -19   8   3  634.44   21.90
  11 -19   3  606.14   29.40
 -19   8   3  589.04   19.10
 -11 -11  -3 1162.98   44.90
 -11 -11  -3 1197.08   38.10
 -11  22  -3 1185.28   44.70
  22 -11  -3 1162.98   39.40
 -11  22  -3 1173.38   40.00
  11 -22   3 1201.38   41.40
 -22  11   3 1164.18   31.60
  11 -22   3 1146.69   55.19
  -9  21  -3  606.84   33.60
  -9  21  -3  633.54   32.70
  21 -12  -3  652.33   28.50
   9 -21   3  673.73   36.80
 -21  12   3  626.64   22.10
   9 -21   3  607.74   30.30
 -12  -6  -3 1075.09   38.50
  18 -12  -3 1035.90   31.70
  -6  18  -3 1023.30   33.90
  18 -12  -3 1084.19   33.60
  -6  18  -3 1015.30   38.10
   6 -18   3 1033.70   34.30
   6 -18   3 1002.30   39.60
 -18  12   3  998.30   23.30
  15 -12  -3  215.38   14.30
  -3  15  -3  265.87   20.70
 -12  -3  -3  240.68   20.50
  -3  15  -3  234.58   18.00
  15 -12  -3  228.58   16.40
   3 -15   3  201.68   21.30
   3 -15   3  209.78   16.50
 -15  12   3  196.58    9.40
  12   3   3  192.68   17.40
  12 -12  -3   70.09    9.30
  12 -12  -3   70.79    9.00
   0  12  -3   74.49   11.10
   0  12  -3   56.39   12.20
 -12   0  -3   76.79   12.30
  12   0   3   83.89   12.10
   0 -12   3   83.29   11.20
  12   0   3   62.39   11.00
   0 -12   3   62.19   12.90
   9 -12  -3  577.84   16.00
   3   9  -3  592.14   25.70
 -12   3  -3  599.04   24.40
   9 -12  -3  590.54   17.10
   3   9  -3  540.65   20.30
  12  -3   3  524.95   22.90
  -3  -9   3  537.75   19.70
  12  -3   3  517.95   22.00
   6   6  -3   93.39   11.30
   6 -12  -3   88.49    7.10
 -12   6  -3   72.89   10.80
   6   6  -3   78.99   11.80
   6 -12  -3   84.89    8.60
  -6  -6   3  123.79   13.10
  -6  -6   3  101.29   10.70
  12  -6   3  121.99   13.60
  12  -6   3  117.59   15.00
  -6  12   3  101.79    5.80
   3 -12  -3   10.50    5.20
   9   3  -3   12.70    6.90
   9   3  -3   12.90    6.90
 -12   9  -3   12.60    7.00
 -12   9  -3    8.00    8.10
  12  -9   3   16.90   10.10
  -9  -3   3   19.20    7.20
  12  -9   3   23.10    7.60
  -9  -3   3   12.60    5.70
  -3  12   3   21.20    4.20
  12   0  -3   28.70    7.80
 -12  12  -3   21.70    9.00
   0 -12  -3   31.80    7.20
 -12  12  -3   22.60    8.80
  12 -12   3   12.20    9.70
  12 -12   3   17.40    7.50
   0  12   3   22.70    5.80
 -12   0   3   26.20    7.20
 -12   0   3   23.20    5.80
  15  -3  -3  282.37   18.00
 -12  15  -3  296.67   21.10
  -3 -12  -3  285.77   16.60
 -12  15  -3  274.17   20.10
 -15   3   3  322.37   16.20
  12 -15   3  333.67   20.30
 -15   3   3  311.17   13.70
  12 -15   3  329.17   24.10
 -12  18  -3 1050.89   38.30
  -6 -12  -3 1060.49   38.00
  18  -6  -3 1008.70   32.80
  -6 -12  -3 1024.50   31.50
 -12  18  -3 1110.89   36.20
 -18   6   3 1099.19   26.20
  12 -18   3 1078.59   40.70
 -18   6   3 1086.89   28.80
  12 -18   3 1138.09   37.00
 -12  21  -3 1171.78   43.30
  -9 -12  -3 1137.59   36.10
 -12  21  -3 1060.69   46.50
  -9 -12  -3 1157.28   63.09
  21  -9  -3 1139.89   38.00
 -21   9   3 1207.28   29.20
  12 -21   3 1262.67   41.60
 -21   9   3 1196.18   32.30
  12 -21   3 1238.38   46.70
 -12 -12  -3  398.36   26.60
 -12  24  -3  443.16   29.80
 -12 -12  -3  386.76   35.10
 -12  24  -3  434.46   32.30
  24 -12  -3  389.46   28.60
 -24  12   3  423.06   23.10
  12 -24   3  362.86   35.70
 -13 -10  -3  155.98   20.70
  23 -13  -3  135.29   18.20
 -13 -10  -3  146.69   23.00
 -10  23  -3  134.59   20.00
  23 -13  -3  194.98   22.30
 -10  23  -3  145.49   18.90
  10 -23   3  146.09   23.10
  10 -23   3  154.48   20.50
 -23  13   3  132.29   16.50
  20 -13  -3  283.77   20.50
  20 -13  -3  308.57   23.80
 -13  -7  -3  333.17   27.70
  -7  20  -3  315.57   23.60
   7 -20   3  339.17   29.60
   7 -20   3  335.97   23.70
 -20  13   3  279.57   15.70
  -4  17  -3  188.08   20.10
  17 -13  -3  215.18   18.30
  -4  17  -3  176.18   17.80
  17 -13  -3  191.18   15.30
 -13  -4  -3  185.58   21.60
 -17  13   3  224.68   11.40
   4 -17   3  243.48   23.50
   4 -17   3  217.18   18.30
  14 -13  -3  669.33   21.40
 -13  -1  -3  674.53   28.70
  -1  14  -3  707.23   26.00
  -1  14  -3  679.93   29.60
  14 -13  -3  679.43   22.60
 -14  13   3  650.83   14.50
  13   1   3  620.34   25.70
   1 -14   3  701.53   31.10
   1 -14   3  681.93   25.30
   2  11  -3  177.18   17.50
 -13   2  -3  166.38   17.30
  11 -13  -3  189.98   12.50
   2  11  -3  179.38   14.70
  11 -13  -3  167.68   11.40
  -2 -11   3  168.98   13.80
 -11  13   3  175.88    6.60
  -2 -11   3  176.58   19.60
  13  -2   3  178.38   16.70
  13  -2   3  188.98   16.10
   8 -13  -3 1805.62   34.10
 -13   5  -3 1848.22   44.00
   5   8  -3 1847.92   38.50
   8 -13  -3 1797.02   30.90
   5   8  -3 1782.22   45.80
  -5  -8   3 1868.01   38.60
  13  -5   3 1796.02   43.80
  -5  -8   3 1889.61   41.50
  13  -5   3 1839.02   43.00
 -13   8  -3  451.65   22.40
   8   5  -3  473.55   23.50
   8   5  -3  491.25   19.10
 -13   8  -3  455.95   21.50
   5 -13  -3  466.15   16.50
  -5  13   3  510.65   13.00
  -8  -5   3  513.45   20.40
  13  -8   3  507.35   22.30
  -8  -5   3  520.05   18.30
  13  -8   3  536.95   24.80
 -13  11  -3   92.39   12.30
 -13  11  -3  138.79   15.20
   2 -13  -3  129.69   10.90
  11   2  -3  105.09   13.50
  13 -11   3  158.68   15.20
 -11  -2   3  155.98   11.40
  13 -11   3  170.38   17.70
 -11  -2   3  158.88   13.40
  14  -1  -3  182.18   15.40
 -13  14  -3  207.78   18.80
  -1 -13  -3  188.78   13.80
 -13  14  -3  195.58   18.40
   1  13   3  216.38   13.30
 -14   1   3  217.58   15.00
 -14   1   3  211.88   12.40
  13 -14   3  237.58   18.30
  13 -14   3  221.58   21.80
 -13  17  -3  496.85   27.10
  17  -4  -3  473.85   23.50
  -4 -13  -3  449.06   21.30
 -13  17  -3  473.85   25.60
  13 -17   3  530.85   29.60
 -17   4   3  491.65   20.80
  13 -17   3  513.75   25.80
 -17   4   3  470.85   17.40
  20  -7  -3   22.20   10.40
  -7 -13  -3   15.30    9.90
  -7 -13  -3   24.30   13.90
 -13  20  -3   12.70   11.80
 -13  20  -3   17.50   14.00
 -20   7   3   16.40    6.90
 -20   7   3   26.70    9.90
  13 -20   3   -7.80   13.50
  13 -20   3   48.80   12.40
 -10 -13  -3  122.89   17.70
  23 -10  -3  121.29   21.50
 -13  23  -3   99.49   18.50
 -10 -13  -3  132.49   22.40
 -13  23  -3  113.09   18.60
  13 -23   3  120.39   20.90
  13 -23   3  114.69   17.50
 -23  10   3  134.59   17.90
 -23  10   3  117.89   14.10
 -13 -13  -3   88.19   22.60
  26 -13  -3  109.29   18.60
  26 -13  -3  110.29   23.20
 -13  26  -3  138.59   21.80
 -13 -13  -3   86.39   15.60
 -26  13   3  161.78   20.90
  13 -26   3  142.29   27.40
 -11  25  -3 1070.89   46.30
 -14 -11  -3 1101.49   40.60
  25 -14  -3 1169.98   43.70
 -11  25  -3 1130.69   42.60
 -14 -11  -3 1150.28   49.70
  25 -14  -3 1205.08   46.40
  11 -25   3 1199.08   53.19
 -25  14   3 1176.78   33.70
 -14  -8  -3  817.92   40.00
  22 -14  -3  853.81   35.80
  -8  22  -3  856.91   34.80
  -8  22  -3  801.42   38.50
  22 -14  -3  831.52   33.50
   8 -22   3  774.52   34.40
   8 -22   3  719.83   41.30
 -22  14   3  748.63   24.30
  -5  19  -3  976.10   40.20
  -5  19  -3  987.60   34.50
  19 -14  -3 1024.90   34.00
  19 -14  -3  971.60   31.90
 -14  -5  -3  973.80   39.20
   5 -19   3  692.23   47.20
 -19  14   3  944.11   23.30
   5 -19   3  949.40   40.00
  -2  16  -3  198.08   20.90
  16 -14  -3  152.38   15.90
 -14  -2  -3  204.48   21.00
  16 -14  -3  197.98   14.70
  -2  16  -3  195.48   17.90
   2 -16   3  172.98   17.00
   2 -16   3  160.68   21.10
 -16  14   3  169.38    9.70
  14   2   3  161.98   18.50
   1  13  -3  668.13   29.90
   1  13  -3  676.83   25.20
 -14   1  -3  714.83   29.30
  13 -14  -3  679.43   21.90
  13 -14  -3  675.63   21.60
  -1 -13   3  662.63   30.60
  14  -1   3  658.73   26.80
  14  -1   3  672.73   27.70
 -13  14   3  630.64   14.20
  -1 -13   3  667.13   24.60
  10 -14  -3 1318.37   27.70
   4  10  -3 1373.46   33.70
 -14   4  -3 1299.27   38.00
  10 -14  -3 1300.57   29.00
   4  10  -3 1331.17   40.10
  14  -4   3 1306.07   36.80
  -4 -10   3 1326.77   33.20
  14  -4   3 1336.27   38.00
   7 -14  -3 2860.91   43.70
 -14   7  -3 2907.21   58.79
   7   7  -3 2851.51   52.29
   7   7  -3 2867.91   61.29
   7 -14  -3 2853.91   48.60
  14  -7   3 2960.20   61.09
  14  -7   3 3069.89   60.29
  -7  -7   3 2992.00   56.29
  -7  -7   3 3025.00   53.39
  -7  14   3 2966.80   44.00
   4 -14  -3 1058.99   26.60
  10   4  -3 1059.49   28.50
 -14  10  -3 1035.70   32.80
 -14  10  -3 1026.90   32.90
  14 -10   3 1215.08   35.40
 -10  -4   3 1225.48   31.80
  -4  14   3 1212.58   24.10
 -10  -4   3 1280.87   29.70
  14 -10   3 1208.38   37.90
  13   1  -3  253.37   17.80
 -14  13  -3  300.47   20.80
   1 -14  -3  269.77   15.10
 -14  13  -3  313.97   20.80
  14 -13   3  336.37   23.60
  14 -13   3  347.27   20.90
  -1  14   3  343.87   14.30
 -13  -1   3  360.06   15.80
 -13  -1   3  350.26   18.40
  16  -2  -3  824.52   29.70
  -2 -14  -3  834.62   26.80
 -14  16  -3  857.21   33.70
 -14  16  -3  815.52   31.40
 -16   2   3  868.11   27.40
   2  14   3  876.51   25.90
 -16   2   3  880.41   23.90
  14 -16   3  910.11   32.80
  14 -16   3  889.01   36.10
  -5 -14  -3  410.46   22.10
 -14  19  -3  470.85   27.40
 -14  19  -3  442.56   43.60
  19  -5  -3  481.05   25.40
   5  14   3  456.85   22.30
  14 -19   3  482.75   26.90
 -19   5   3  450.45   21.90
  14 -19   3  438.76   30.30
 -19   5   3  461.45   18.20
  22  -8  -3 1235.48   41.20
 -14  22  -3 1273.17   45.80
  -8 -14  -3 1197.38   38.50
  -8 -14  -3 1203.28   46.60
 -14  22  -3 1238.68   42.50
 -22   8   3 1298.67   35.80
 -22   8   3 1263.37   31.70
  14 -22   3 1297.87   44.60
  14 -22   3 1269.57   49.00
  25 -11  -3  686.93   35.30
 -14  25  -3  739.83   36.20
 -14  25  -3  709.63   39.60
 -11 -14  -3  677.93   32.50
 -11 -14  -3  710.73   43.00
  14 -25   3  797.42   45.40
 -25  11   3  758.62   25.90
 -25  11   3  731.53   29.50
  28 -14  -3  663.53   44.00
 -14  28  -3  595.24   37.00
  28 -14  -3  514.25   37.70
 -14 -14  -3  499.75   32.70
 -14 -14  -3  597.04   46.10
  14 -28   3  526.65   47.70
 -28  14   3  556.54   28.90
 -12  27  -3  612.54   36.30
 -15 -12  -3  608.34   33.70
 -15 -12  -3  705.33   45.50
  27 -15  -3  660.13   38.00
  27 -15  -3  602.84   40.70
 -27  15   3  519.15   26.40
  12 -27   3  550.74   46.60
  24 -15  -3  975.90   41.40
  24 -15  -3  979.80   39.30
  -9  24  -3  958.30   39.30
  -9  24  -3  963.70   43.40
 -15  -9  -3 1052.29   46.40
   9 -24   3  745.23   53.99
   9 -24   3  961.60   47.10
 -24  15   3  960.30   28.80
  21 -15  -3  643.54   29.30
  -6  21  -3  666.43   35.60
  -6  21  -3  709.93   31.90
 -15  -6  -3  642.44   36.50
  21 -15  -3  675.73   31.40
   6 -21   3  646.04   30.90
 -21  15   3  634.64   21.60
  -3  18  -3  601.44   31.70
  18 -15  -3  577.34   24.50
  18 -15  -3  583.84   25.80
 -15  -3  -3  611.94   31.80
  -3  18  -3  574.64   27.10
   3 -18   3  603.54   27.70
  15   3   3  599.04   29.20
   3 -18   3  596.44   32.90
 -18  15   3  555.04   17.50
  15 -15  -3    3.50    6.50
  15 -15  -3    5.60    7.80
   0  15  -3   12.10   10.40
   0  15  -3   14.20    9.40
 -15   0  -3    0.10   10.90
   0 -15   3   17.20    8.30
   0 -15   3   26.40   13.70
  15   0   3   -4.60    8.50
  12 -15  -3  538.75   19.30
   3  12  -3  592.64   23.80
 -15   3  -3  570.44   27.60
  12 -15  -3  530.45   19.30
   3  12  -3  578.34   27.80
  -3 -12   3  520.05   22.30
  15  -3   3  536.35   26.10
 -12  15   3  512.15   13.30
  15  -3   3  530.65   24.90
 -15   6  -3  458.75   24.50
   6   9  -3  491.15   25.80
   6   9  -3  469.95   20.30
   9 -15  -3  471.95   16.20
   9 -15  -3  472.05   17.70
  -6  -9   3  408.76   19.10
  -6  -9   3  419.76   22.00
  15  -6   3  433.36   22.30
  15  -6   3  423.46   23.60
   9   6  -3  688.43   23.90
   9   6  -3  659.63   28.90
 -15   9  -3  693.03   28.20
   6 -15  -3  675.33   21.20
  -6  15   3  744.33   19.30
  15  -9   3  709.63   29.90
  -9  -6   3  733.03   23.50
  15  -9   3  787.92   28.90
  -9  -6   3  707.13   25.90
   3 -15  -3  214.58   14.30
 -15  12  -3  180.08   18.90
 -15  12  -3  181.58   17.60
  12   3  -3  194.38   16.80
  15 -12   3  228.78   18.20
 -12  -3   3  222.78   14.00
  -3  15   3  229.88   12.00
  15 -12   3  223.88   21.10
 -12  -3   3  218.08   16.40
  15   0  -3   -0.40    8.50
   0 -15  -3   14.90    7.20
 -15  15  -3    6.30    9.70
 -15  15  -3    2.80   10.50
 -15   0   3    5.80    6.60
   0  15   3    3.30    6.00
 -15   0   3    0.80    8.40
  15 -15   3    2.20    7.70
  15 -15   3   -2.70   10.60
 -15  18  -3  532.85   29.60
  18  -3  -3  488.55   25.50
  -3 -15  -3  512.55   23.00
 -15  18  -3  525.15   28.10
   3  15   3  507.75   22.00
 -18   3   3  516.45   19.50
 -18   3   3  546.15   23.80
  15 -18   3  554.54   31.90
  21  -6  -3  431.46   26.60
 -15  21  -3  392.86   29.20
 -15  21  -3  396.26   27.40
  -6 -15  -3  391.86   23.50
 -21   6   3  376.56   18.40
   6  15   3  380.96   23.00
  15 -21   3  361.46   26.70
 -21   6   3  383.16   23.00
  15 -21   3  385.16   50.39
  -9 -15  -3  875.21   44.90
 -15  24  -3  942.71   39.90
  -9 -15  -3  885.81   35.20
  24  -9  -3  912.61   38.40
 -15  24  -3  922.81   42.50
 -24   9   3  848.72   31.60
  15 -24   3  864.21   44.80
 -24   9   3  831.32   26.80
 -12 -15  -3 1050.09   51.79
 -15  27  -3  985.60   43.40
 -12 -15  -3  963.20   40.30
  27 -12  -3  936.91   43.00
  15 -27   3  963.40   52.49
 -27  12   3 1032.60   31.20
 -27  12   3  975.70   35.20
 -15  30  -3  515.55   40.10
 -15  30  -3  564.34   44.00
  30 -15  -3  663.83   49.50
  30 -15  -3  550.44   41.20
 -15 -15  -3  506.85   34.80
 -15 -15  -3  472.05   50.29
 -30  15   3  677.13   32.40
  15 -30   3  641.94   54.49
  15 -30   3  594.44   43.20
 -13  29  -3  122.39   22.70
 -16 -13  -3  213.28   32.70
 -16 -13  -3  160.08   21.30
  29 -16  -3  192.18   29.30
  29 -16  -3  195.38   27.00
 -13  29  -3  154.68   25.10
 -29  16   3  197.58   23.20
  13 -29   3  107.89   31.10
  13 -29   3  176.88   26.30
 -10  26  -3  505.45   33.40
  26 -16  -3  476.95   33.00
 -16 -10  -3  503.25   31.50
 -16 -10  -3  491.25   40.90
  26 -16  -3  518.85   36.90
 -26  16   3  534.55   25.10
  10 -26   3  477.85   41.40
  -7  23  -3   13.60   12.60
  23 -16  -3   23.90   12.40
  23 -16  -3  -10.70   13.20
 -16  -7  -3  -25.90   15.30
  -7  23  -3  -16.70   13.20
 -23  16   3   27.40    9.50
   7 -23   3   13.10   17.50
   7 -23   3   41.40   13.50
  -4  20  -3  278.27   25.80
  20 -16  -3  265.17   20.50
 -16  -4  -3  273.97   28.00
  20 -16  -3  257.87   22.70
  -4  20  -3  284.77   23.20
   4 -20   3  199.98   26.30
 -20  16   3  195.88   14.00
   4 -20   3  224.48   21.30
  17 -16  -3  661.53   26.40
  -1  17  -3  654.73   32.70
  17 -16  -3  626.04   24.70
 -16  -1  -3  626.54   32.60
  -1  17  -3  663.33   28.20
   1 -17   3  645.14   28.00
  16   1   3  691.23   30.70
 -17  16   3  641.84   18.00
   1 -17   3  629.24   33.20
   2  14  -3  316.47   20.30
 -16   2  -3  347.57   24.90
   2  14  -3  365.26   24.20
  14 -16  -3  343.17   18.20
  14 -16  -3  342.47   17.60
  -2 -14   3  365.06   20.50
  16  -2   3  371.26   24.50
  16  -2   3  304.27   21.80
 -14  16   3  339.17   12.10
   5  11  -3  129.99   18.20
   5  11  -3  109.89   14.30
  11 -16  -3   99.19   11.70
 -16   5  -3   84.49   13.50
  11 -16  -3  120.09   12.70
  -5 -11   3   91.49   11.70
  16  -5   3   84.49   14.30
  16  -5   3   84.59   13.60
 -11  16   3   80.49    8.30
   8 -16  -3    1.20    5.80
   8   8  -3    7.20    9.60
   8   8  -3    8.30    8.10
 -16   8  -3    7.60    9.50
   8 -16  -3    2.80    5.70
  -8  -8   3   -8.20    8.10
  -8  -8   3   13.80    7.20
  16  -8   3   -0.70    7.70
  16  -8   3    7.70    9.20
  -8  16   3    0.10    4.10
 -16  11  -3  261.17   19.50
   5 -16  -3  245.38   15.10
 -16  11  -3  218.38   20.20
 -11  -5   3  271.87   15.90
  16 -11   3  247.58   19.10
  16 -11   3  287.47   22.10
  -5  16   3  254.97   12.10
 -11  -5   3  249.18   18.20
  14   2  -3  626.64   27.10
 -16  14  -3  623.94   28.60
 -16  14  -3  609.64   28.40
   2 -16  -3  604.64   23.00
  16 -14   3  636.44   31.60
 -14  -2   3  684.63   22.60
  -2  16   3  675.23   20.80
 -14  -2   3  673.53   25.80
  16 -14   3  676.73   29.10
  17  -1  -3  522.35   26.20
  -1 -16  -3  521.15   23.10
 -16  17  -3  486.75   27.60
 -16  17  -3  560.54   29.60
 -17   1   3  588.24   25.60
 -17   1   3  562.14   20.70
  16 -17   3  543.05   33.60
   1  16   3  536.25   21.60
  16 -17   3  564.04   32.00
  -4 -16  -3   49.60   17.20
 -16  20  -3    7.50   11.60
  20  -4  -3   33.70   12.40
 -16  20  -3   12.90   15.10
 -20   4   3   21.60    7.90
 -20   4   3    9.30   10.70
  16 -20   3   33.50   27.60
  16 -20   3   17.80   10.90
   4  16   3   21.30    9.70
  -7 -16  -3    0.70   10.10
  23  -7  -3   17.50   12.80
  -7 -16  -3    2.70   16.90
 -16  23  -3  -16.40   13.00
 -16  23  -3    5.30   14.80
 -23   7   3   13.60    8.00
   7  16   3   -9.20   10.50
 -23   7   3   -3.10   11.20
  16 -23   3    2.50   16.30
 -16  26  -3   -7.60   14.10
  26 -10  -3   22.10   15.10
 -16  26  -3    1.40   15.10
 -10 -16  -3    6.60   12.50
 -10 -16  -3   33.70   20.60
 -26  10   3    8.50   12.20
  10  16   3   -1.80   13.30
 -26  10   3  -11.30    9.20
  16 -26   3    9.00   19.50
 -16  29  -3   -9.10   19.20
 -16  29  -3    1.00   17.70
 -13 -16  -3   47.80   25.60
 -13 -16  -3   22.40   15.10
  29 -13  -3   -1.70   18.50
  29 -13  -3   15.50   22.70
 -29  13   3  -17.30   10.70
 -29  13   3   -9.10   13.60
  16 -29   3   25.00   27.20
  16 -29   3   -5.10   20.10
  32 -16  -3  -27.30   22.90
 -16 -16  -3   61.99   34.40
 -16 -16  -3    3.90   26.30
  32 -16  -3   58.89   29.00
 -16  32  -3   63.09   25.60
 -16  32  -3   20.60   22.70
 -32  16   3   14.40   16.10
  16 -32   3   51.49   33.30
 -32  16   3   17.90   13.90
  16 -32   3    6.20   31.50
 -14  31  -3  495.45   45.40
 -17 -14  -3  441.26   54.29
  31 -17  -3  606.44   44.90
  31 -17  -3  526.85   47.90
 -17 -14  -3  411.66   34.40
 -14  31  -3  457.25   40.20
 -31  17   3  510.95   30.30
  14 -31   3  507.25   55.49
  14 -31   3  464.55   40.80
 -11  28  -3  412.66   33.80
  28 -17  -3  471.35   36.20
  28 -17  -3  415.26   38.90
 -17 -11  -3  405.46   31.70
 -17 -11  -3  398.36   46.20
 -28  17   3  499.05   26.30
  11 -28   3  469.65   48.60
 -17  -8  -3  557.14   43.40
  -8  25  -3  538.25   36.90
  25 -17  -3  576.64   33.20
  -8  25  -3  589.34   33.60
 -25  17   3  530.75   23.50
   8 -25   3  513.85   40.80
 -17  -5  -3  398.36   33.60
  -5  22  -3  340.77   29.90
  -5  22  -3  339.67   25.90
  22 -17  -3  326.37   25.10
  22 -17  -3  313.07   26.70
 -22  17   3  277.57   16.80
   5 -22   3  245.78   24.20
   5 -22   3  339.87   33.80
  19 -17  -3  899.31   32.60
  -2  19  -3  724.83   37.10
 -17  -2  -3  704.03   44.90
  19 -17  -3  837.62   30.30
  -2  19  -3  899.81   39.00
   2 -19   3  796.02   32.70
 -19  17   3  760.62   21.30
   2 -19   3  822.62   39.30
  17   2   3  814.32   35.00
  16 -17  -3  800.72   27.70
  16 -17  -3  793.42   27.00
   1  16  -3  818.82   31.00
   1  16  -3  779.32   35.60
 -17   1  -3  797.92   35.30
  17  -1   3  825.52   34.30
  -1 -16   3  782.92   29.90
 -16  17   3  777.42   19.70
  17  -1   3  790.22   33.20
  13 -17  -3  193.28   15.80
   4  13  -3  195.78   21.10
 -17   4  -3  220.48   22.50
   4  13  -3  211.78   18.20
  13 -17  -3  194.48   14.50
  17  -4   3  231.98   20.30
  17  -4   3  248.78   22.20
 -13  17   3  214.98   11.00
  -4 -13   3  204.98   17.20
  10 -17  -3  223.18   14.40
   7  10  -3  216.88   21.40
   7  10  -3  217.68   17.40
  10 -17  -3  209.08   14.90
 -17   7  -3  200.48   20.30
  17  -7   3  229.58   21.00
  17  -7   3  217.28   19.00
  -7 -10   3  217.18   16.60
 -10  17   3  192.38   10.90
 -10  17   3  202.88   11.50
  -7 -10   3  234.18   19.90
  10   7  -3  259.47   18.30
 -17  10  -3  294.17   23.00
   7 -17  -3  297.57   16.50
  10   7  -3  268.37   22.10
   7 -17  -3  289.67   14.60
 -10  -7   3  252.27   19.50
 -10  -7   3  252.97   16.60
  17 -10   3  228.38   22.60
  -7  17   3  270.17   12.50
  17 -10   3  270.87   20.50
 -17  13  -3  572.34   28.30
 -17  13  -3  526.95   26.40
   4 -17  -3  546.05   22.10
 -13  -4   3  535.75   24.40
 -13  -4   3  521.95   21.30
  -4  17   3  546.65   18.50
  17 -13   3  518.05   30.00
  17 -13   3  518.55   26.40
 -17  16  -3  714.33   33.30
   1 -17  -3  792.82   27.60
  16   1  -3  759.32   31.10
 -17  16  -3  753.72   32.30
 -16  -1   3  830.82   26.10
  17 -16   3  849.12   37.20
  17 -16   3  887.51   40.80
 -16  -1   3  824.72   30.20
  -1  17   3  831.12   25.50
 -17  19  -3  551.54   30.40
  -2 -17  -3  544.15   25.40
  19  -2  -3  525.35   28.30
 -19   2   3  517.15   25.50
   2  17   3  503.85   23.50
  17 -19   3  548.85   39.30
  17 -19   3  551.44   29.40
 -19   2   3  550.74   21.50
 -17  22  -3  479.35   32.30
  22  -5  -3  454.45   28.70
  -5 -17  -3  442.56   25.50
 -17  22  -3  493.75   30.90
  17 -22   3  500.55   37.30
   5  17   3  452.85   25.90
 -22   5   3  494.95   21.50
 -22   5   3  482.75   26.70
 -17  25  -3  811.52   39.00
  25  -8  -3  789.92   39.30
  -8 -17  -3  743.43   33.90
  -8 -17  -3  787.52   45.20
 -25   8   3  705.43   26.40
 -25   8   3  735.13   32.30
  17 -25   3  686.33   43.30
   8  17   3  733.73   34.80
  28 -11  -3  869.71   43.70
 -11 -17  -3  880.01   52.39
 -11 -17  -3  794.62   38.90
 -17  28  -3  889.81   43.30
  17 -28   3  890.51   54.49
  11  17   3  895.21   41.80
 -28  11   3  819.52   30.10
 -28  11   3  852.51   35.60
  31 -14  -3  631.94   52.59
 -17  31  -3  592.24   43.00
  31 -14  -3  508.45   43.30
 -14 -17  -3  585.74   54.89
 -17  31  -3  507.35   45.10
 -14 -17  -3  472.15   35.50
 -31  14   3  561.44   33.60
 -31  14   3  510.45   27.90
  17 -31   3  570.44   55.99
  17 -31   3  479.75   42.60
 -12  30  -3  618.34   45.30
 -18 -12  -3  580.14   54.29
 -18 -12  -3  599.64   38.20
  30 -18  -3  573.74   46.10
  30 -18  -3  656.53   43.20
 -12  30  -3  720.63   43.60
  12 -30   3  552.54   42.50
  12 -30   3  595.74   54.99
 -30  18   3  625.74   30.10
 -18  -9  -3  383.26   31.00
  27 -18  -3  411.36   36.50
  -9  27  -3  384.36   32.70
 -18  -9  -3  402.96   42.50
  27 -18  -3  360.66   31.70
   9 -27   3  450.45   44.40
 -27  18   3  406.96   23.40
 -18  -6  -3  298.47   34.70
  -6  24  -3  292.17   26.70
  -6  24  -3  320.77   31.50
  24 -18  -3  283.07   29.70
  24 -18  -3  296.37   26.90
   6 -24   3  296.17   36.10
 -24  18   3  273.87   18.60
  21 -18  -3  166.08   19.90
  -3  21  -3  165.08   23.20
 -18  -3  -3  144.69   22.70
  -3  21  -3  147.79   18.20
  21 -18  -3  157.78   19.10
   3 -21   3  219.58   22.80
 -21  18   3  185.98   14.70
   3 -21   3  162.28   22.00
  18 -18  -3   -4.60    8.20
  18 -18  -3    7.20   10.60
 -18   0  -3    5.20   20.10
   0  18  -3   -6.20   12.50
   0  18  -3    1.30   20.70
   0 -18   3   16.00   10.80
  18   0   3    5.30   11.30
 -18  18   3    1.40    6.60
  15 -18  -3  853.51   28.40
 -18   3  -3  893.21   36.70
   3  15  -3  835.22   40.80
  15 -18  -3  855.41   28.40
   3  15  -3  900.21   32.00
 -15  18   3  802.32   20.30
  18  -3   3  831.62   34.00
  18  -3   3  868.31   35.40
  -3 -15   3  854.61   31.30
   6  12  -3 1262.57   35.90
 -18   6  -3 1179.58   40.10
  12 -18  -3 1200.28   32.50
  12 -18  -3 1261.47   31.10
   6  12  -3 1198.78   42.20
  18  -6   3 1210.48   41.10
  -6 -12   3 1243.48   39.20
  18  -6   3 1261.77   40.30
 -12  18   3 1194.88   25.60
  -6 -12   3 1220.78   35.50
   9   9  -3  852.01   35.30
 -18   9  -3  886.61   34.70
   9 -18  -3  853.51   27.10
   9 -18  -3  854.21   24.20
   9   9  -3  879.71   29.80
  -9  18   3  861.41   22.10
  18  -9   3  829.72   33.00
  -9  -9   3  850.11   28.50
  -9  -9   3  822.22   31.40
  18  -9   3  841.42   34.90
   6 -18  -3  964.70   29.40
 -18  12  -3  985.30   36.40
 -12  -6   3 1078.99   31.10
  18 -12   3 1009.70   36.30
  18 -12   3 1071.89   39.30
  -6  18   3 1002.60   25.40
 -12  -6   3 1067.89   34.40
 -18  15  -3  218.48   22.50
  15   3  -3  217.78   20.50
   3 -18  -3  184.08   16.80
 -15  -3   3  180.68   19.80
  18 -15   3  216.68   24.80
  -3  18   3  199.18   14.40
 -15  -3   3  205.18   16.50
 -18  18  -3    1.40   12.90
  18   0  -3    0.20   10.70
   0 -18  -3    8.60    9.70
 -18  18  -3   17.60   12.20
 -18   0   3   -8.90    6.70
  18 -18   3   17.60   11.60
   0  18   3   16.30    8.30
 -18   0   3    6.10   11.30
  18 -18   3   -6.40   14.30
 -18  21  -3  193.28   24.50
  21  -3  -3  223.88   24.10
 -18  21  -3  172.68   20.90
  -3 -18  -3  215.68   20.40
   3  18   3  188.78   19.20
  18 -21   3  143.29   22.40
 -21   3   3  144.69   17.40
 -21   3   3  166.58   16.20
 -18  24  -3  767.52   38.50
  24  -6  -3  784.12   37.70
  -6 -18  -3  812.22   44.30
 -18  24  -3  794.92   40.70
  -6 -18  -3  769.42   33.80
 -24   6   3  724.73   26.80
 -24   6   3  744.33   32.80
  18 -24   3  729.43   44.30
   6  18   3  705.93   32.80
  -9 -18  -3  493.45   31.60
  27  -9  -3  532.75   37.90
  -9 -18  -3  491.75   44.60
 -18  27  -3  558.54   37.30
  18 -27   3  551.74   45.30
 -27   9   3  558.14   25.80
   9  18   3  538.75   34.30
 -27   9   3  553.94   31.80
 -12 -18  -3  732.03   55.39
 -18  30  -3  681.53   45.20
  30 -12  -3  586.34   44.60
 -18  30  -3  646.14   43.70
 -12 -18  -3  617.94   37.10
  18 -30   3  618.94   55.89
 -30  12   3  690.93   35.40
  18 -30   3  575.24   43.10
 -30  12   3  596.64   28.50
 -19 -13  -3  129.79   33.30
  32 -19  -3  139.19   31.40
 -13  32  -3   89.19   25.00
  32 -19  -3   96.89   26.00
 -13  32  -3  112.49   27.00
 -32  19   3  137.39   18.60
  13 -32   3  190.58   38.50
 -10  29  -3  156.18   26.40
  29 -19  -3  104.79   24.80
 -10  29  -3  105.19   22.50
 -19 -10  -3  118.09   20.90
  29 -19  -3  107.39   22.60
 -19 -10  -3  161.88   29.00
  10 -29   3  139.29   26.00
  10 -29   3  175.88   32.70
 -29  19   3  153.98   17.00
  -7  26  -3  124.09   19.60
  26 -19  -3  122.79   20.90
 -19  -7  -3  123.89   25.00
  26 -19  -3  162.98   22.40
   7 -26   3  121.19   27.40
   7 -26   3  158.28   29.50
 -26  19   3  140.49   15.40
  -4  23  -3  175.28   24.10
  23 -19  -3  183.28   21.70
  23 -19  -3  186.18   23.70
 -19  -4  -3  164.18   23.00
  -4  23  -3  204.28   25.70
 -23  19   3  196.98   16.70
   4 -23   3  226.58   31.80
   4 -23   3  167.78   21.70
  20 -19  -3   22.90   11.10
  -1  20  -3   18.20   12.40
  20 -19  -3    8.10   11.10
  -1  20  -3    8.60   14.50
 -19  -1  -3   16.20   14.80
 -20  19   3   32.40    8.40
   1 -20   3   25.20   12.50
  19   1   3   -3.50   13.00
  17 -19  -3  897.21   30.50
  17 -19  -3  871.11   30.50
   2  17  -3  722.93   41.90
 -19   2  -3  751.22   44.10
   2  17  -3  883.01   38.70
 -17  19   3  771.22   21.30
  -2 -17   3  782.82   32.10
  19  -2   3  804.12   37.20
  19  -2   3  811.82   35.00
  14 -19  -3  999.40   29.80
  14 -19  -3  974.60   30.20
   5  14  -3 1056.09   34.30
   5  14  -3  797.62   45.60
 -19   5  -3  963.90   38.50
  -5 -14   3  997.10   33.70
  19  -5   3 1008.90   39.40
 -14  19   3  960.70   23.30
  11 -19  -3  630.84   24.50
 -19   8  -3  631.14   31.60
  11 -19  -3  637.14   22.80
   8  11  -3  585.14   37.60
   8  11  -3  623.14   26.60
 -11  19   3  614.74   19.50
  19  -8   3  622.94   30.10
 -11  19   3  613.84   19.10
  -8 -11   3  606.14   29.90
  19  -8   3  656.13   32.10
  -8 -11   3  610.44   25.90
   8 -19  -3  551.24   20.70
 -19  11  -3  519.45   29.80
   8 -19  -3  547.15   23.30
  11   8  -3  494.55   37.00
 -11  -8   3  600.74   28.20
  19 -11   3  595.64   30.50
  -8  19   3  602.24   19.50
  19 -11   3  610.34   32.10
 -11  -8   3  604.24   24.90
 -19  14  -3  310.17   25.40
   5 -19  -3  320.17   19.60
  19 -14   3  353.56   25.40
 -14  -5   3  390.46   24.20
  -5  19   3  347.17   16.80
  19 -14   3  387.16   29.50
 -14  -5   3  349.96   20.00
  17   2  -3  569.34   29.90
   2 -19  -3  547.75   25.70
 -19  17  -3  525.45   29.20
  -2  19   3  589.44   23.20
 -17  -2   3  579.64   23.70
 -17  -2   3  545.05   28.40
  19 -17   3  599.84   30.70
 -19  20  -3  210.28   24.90
  20  -1  -3  192.38   23.80
  -1 -19  -3  207.88   21.10
 -19  20  -3  161.98   20.40
  19 -20   3  112.79   21.80
 -20   1   3  165.78   16.00
   1  19   3  164.78   17.50
 -20   1   3  192.38   22.30
  -4 -19  -3   51.69   13.70
 -19  23  -3   92.09   19.30
 -19  23  -3   67.09   18.20
  23  -4  -3   91.09   18.20
   4  19   3   42.40   13.10
 -23   4   3   63.69   15.90
  19 -23   3   67.59   22.00
 -23   4   3   51.39   11.20
  26  -7  -3  235.88   30.00
 -19  26  -3  277.47   31.90
  -7 -19  -3  229.28   30.40
  -7 -19  -3  261.97   26.60
 -26   7   3  216.28   19.70
 -26   7   3  286.37   28.60
  19 -26   3  213.68   30.60
  29 -10  -3  177.38   26.20
 -19  29  -3  170.18   25.80
 -10 -19  -3  136.09   21.50
 -10 -19  -3  213.58   32.80
 -19  29  -3  159.58   25.20
 -29  10   3  174.38   21.40
  10  19   3  182.88   23.80
  19 -29   3  178.58   26.10
 -29  10   3  141.29   17.10
  19 -29   3  212.08   33.10
 -13 -19  -3   44.50   28.80
  32 -13  -3   15.90   24.40
 -19  32  -3   22.80   25.10
 -19  32  -3  -52.89   20.80
  32 -13  -3   42.50   30.40
 -13 -19  -3   -6.30   28.30
  19 -32   3  -44.60   31.10
 -32  13   3   -2.00   13.80
 -32  13   3   29.20   19.00
  13  19   3  -20.00   26.60
 -20 -11  -3  168.08   22.30
  31 -20  -3  250.17   32.50
  31 -20  -3  269.97   33.20
 -11  31  -3  278.07   32.50
 -20 -11  -3  166.28   35.00
 -11  31  -3  321.97   42.30
  11 -31   3  198.28   26.50
  11 -31   3  321.47   42.90
 -31  20   3  293.17   25.50
  28 -20  -3  634.14   39.80
  -8  28  -3  725.53   41.40
  -8  28  -3  698.43   44.10
 -20  -8  -3  639.14   48.70
  28 -20  -3  692.63   43.00
 -20  -8  -3  662.33   37.70
   8 -28   3  723.63   42.20
 -28  20   3  699.23   28.20
   8 -28   3  767.42   53.89
  25 -20  -3  558.64   33.70
  -5  25  -3  585.74   35.00
  25 -20  -3  569.54   37.20
 -20  -5  -3  601.54   42.80
 -25  20   3  550.04   23.20
   5 -25   3  635.14   45.00
  -2  22  -3  428.16   33.90
  -2  22  -3  415.26   29.00
 -20  -2  -3  376.56   34.50
  22 -20  -3  389.86   28.50
  20   2   3  475.25   32.10
   2 -22   3  476.05   37.70
   2 -22   3  506.65   31.00
 -22  20   3  457.95   19.60
   1  19  -3   31.70   12.50
   1  19  -3   32.10   15.10
 -20   1  -3   20.30   14.90
  19 -20  -3   12.00   12.10
  19 -20  -3    3.50   10.10
  20  -1   3   49.70   15.10
 -19  20   3   42.20    8.70
  -1 -19   3   39.70   13.10
 -20   4  -3   86.09   18.60
  16 -20  -3   89.79   13.80
   4  16  -3   63.19   15.80
   4  16  -3   70.39   14.30
  16 -20  -3   81.49   13.50
  20  -4   3   81.99   16.50
  -4 -16   3   81.99   14.40
 -16  20   3   64.99    9.00
   7  13  -3  132.89   15.80
 -20   7  -3  133.29   18.20
   7  13  -3  109.09   16.60
  13 -20  -3  133.49   16.60
  13 -20  -3  135.19   15.90
  -7 -13   3  164.08   20.50
 -13  20   3  139.09   12.50
  -7 -13   3  150.38   17.20
  20  -7   3  160.58   21.00
  20  -7   3  129.99   18.30
  10 -20  -3  182.68   17.10
  10 -20  -3  153.08   16.00
  10  10  -3  161.58   20.80
 -20  10  -3  118.99   18.20
 -10 -10   3  147.19   18.40
 -10  20   3  154.08   12.60
  20 -10   3  152.28   20.60
  20 -10   3  155.28   21.50
 -10 -10   3  127.89   17.10
   7 -20  -3   75.39   12.10
 -20  13  -3   87.49   17.00
  -7  20   3   75.89    9.90
  20 -13   3   86.79   16.70
 -13  -7   3  101.29   14.10
  20 -13   3   84.49   18.70
 -13  -7   3   81.09   15.10
 -20  16  -3   59.39   20.90
   4 -20  -3   36.70   10.80
 -20  16  -3   17.70   11.90
  20 -16   3   42.10   12.80
  -4  20   3   37.50    9.10
 -16  -4   3   66.59   11.70
  20 -16   3   55.29   18.40
 -16  -4   3   56.79   14.60
 -20  19  -3  213.88   22.90
  19   1  -3  209.88   25.10
 -20  19  -3  244.68   26.90
   1 -20  -3  251.87   21.50
 -19  -1   3  211.08   24.10
 -19  -1   3  187.78   17.50
  -1  20   3  243.78   18.30
  20 -19   3  169.78   22.50
  20 -19   3  159.68   21.20
 -20  22  -3  392.76   31.30
  22  -2  -3  377.16   30.50
 -20  22  -3  385.06   30.70
  -2 -20  -3  385.66   26.80
   2  20   3  307.07   23.30
  20 -22   3  295.77   34.20
 -22   2   3  337.57   27.80
 -22   2   3  278.57   19.70
  25  -5  -3  567.64   36.50
 -20  25  -3  596.74   37.40
  -5 -20  -3  623.04   33.00
 -25   5   3  533.55   32.40
   5  20   3  533.25   31.50
  20 -25   3  589.14   44.90
 -25   5   3  500.85   28.20
 -20  28  -3  441.26   37.50
  -8 -20  -3  472.25   33.80
  28  -8  -3  475.85   39.50
  -8 -20  -3  538.85   49.00
 -20  28  -3  472.25   41.90
 -28   8   3  341.77   23.80
   8  20   3  368.86   33.00
 -28   8   3  445.26   33.20
  20 -28   3  397.66   47.50
 -11 -20  -3  351.16   35.30
  31 -11  -3  365.26   43.70
 -11 -20  -3  334.67   43.60
 -20  31  -3  373.56   44.00
 -20  31  -3  315.17   40.70
  20 -31   3  274.97   36.50
  20 -31   3  419.76   56.89
 -31  11   3  362.06   26.20
 -31  11   3  399.86   33.10
  30 -21  -3  516.35   41.10
  -9  30  -3  493.75   44.00
  30 -21  -3  512.15   45.80
 -21  -9  -3  573.24   52.89
  -9  30  -3  519.25   41.80
 -21  -9  -3  427.86   37.30
   9 -30   3  554.04   56.39
   9 -30   3  498.75   42.40
 -30  21   3  570.34   28.00
  27 -21  -3  235.08   27.30
  27 -21  -3  247.28   30.40
  -6  27  -3  252.27   32.10
 -21  -6  -3  232.58   31.80
   6 -27   3  294.77   32.70
 -27  21   3  263.97   20.40
   6 -27   3  316.57   44.20
  -3  24  -3   33.50   15.90
  24 -21  -3   13.40   14.40
 -21  -3  -3    6.40   20.20
  24 -21  -3   36.50   16.60
  -3  24  -3  -17.10   14.20
 -24  21   3   36.60   10.40
  21 -21  -3   -1.30   12.60
   0  21  -3   19.10   13.50
 -21   0  -3  -23.30   15.80
   0  21  -3   22.90   15.80
  21   0   3   17.00   14.40
 -21  21   3   13.60    8.40
   0 -21   3    2.30   11.80
  18 -21  -3  336.77   24.10
  18 -21  -3  317.27   22.70
   3  18  -3  317.07   29.00
 -21   3  -3  306.67   31.40
   3  18  -3  334.47   26.30
  21  -3   3  356.86   27.90
  21  -3   3  311.07   31.00
 -18  21   3  337.07   16.60
  -3 -18   3  315.47   25.10
   6  15  -3  684.23   36.90
  15 -21  -3  685.03   28.20
   6  15  -3  716.53   31.40
  15 -21  -3  710.93   27.90
 -21   6  -3  626.84   34.70
 -15  21   3  689.83   21.30
  -6 -15   3  716.43   30.90
  -6 -15   3  711.53   35.60
  21  -6   3  663.63   33.80
  21  -6   3  706.03   36.80
   9  12  -3  894.41   40.50
  12 -21  -3  910.31   28.80
  12 -21  -3  910.91   31.30
 -21   9  -3  881.31   41.60
 -12  21   3  839.22   24.60
  21  -9   3  849.52   40.10
  21  -9   3  887.51   37.10
  -9 -12   3  880.21   36.50
  -9 -12   3  816.22   36.60
 -12  21   3  879.91   24.30
   9 -21  -3  699.23   25.20
 -21  12  -3  651.73   42.70
  12   9  -3  658.43   34.60
   9 -21  -3  705.83   28.10
 -12  -9   3  814.72   34.80
  -9  21   3  772.02   24.00
 -12  -9   3  832.92   30.50
  21 -12   3  725.33   34.20
  21 -12   3  741.13   38.20
   6 -21  -3  544.65   26.20
 -21  15  -3  552.44   31.80
  21 -15   3  535.75   35.30
  21 -15   3  519.55   30.50
  -6  21   3  504.95   21.30
 -15  -6   3  472.35   29.20
 -15  -6   3  524.25   25.10
  18   3  -3   23.90   14.20
 -21  18  -3   27.20   13.20
   3 -21  -3   16.00   10.70
 -21  18  -3   39.60   16.30
  21 -18   3   21.80   16.10
 -18  -3   3   12.60   13.10
  21 -18   3  -14.00   11.10
  -3  21   3   28.10    9.00
 -18  -3   3   17.10    9.40
 -21  21  -3    3.40   15.10
 -21  21  -3    2.70   12.40
   0 -21  -3  -11.60   10.70
  21   0  -3    5.20   13.10
   0  21   3    0.10   10.00
  21 -21   3   16.90   17.20
 -21   0   3    1.40   14.80
 -21   0   3   -7.50    8.60
  -3 -21  -3  286.47   27.20
 -21  24  -3  287.67   31.50
  24  -3  -3  293.87   30.50
  21 -24   3  277.37   37.00
 -24   3   3  283.07   28.90
   3  21   3  270.57   25.40
  -6 -21  -3  338.37   30.60
  -6 -21  -3  249.48   31.60
 -21  27  -3  343.67   35.30
 -21  27  -3  258.17   28.00
  27  -6  -3  252.07   29.10
  21 -27   3  239.18   35.10
 -27   6   3  210.28   24.30
 -27   6   3  234.88   21.50
   6  21   3  214.18   29.10
 -21  30  -3  719.63   46.20
  -9 -21  -3  766.22   42.70
  -9 -21  -3  760.22   58.49
 -21  30  -3  816.62   49.30
  30  -9  -3  665.43   46.60
 -30   9   3  826.52   40.50
 -30   9   3  667.93   30.60
   9  21   3  728.03   43.50
  21 -30   3  635.04   44.20
  21 -30   3  787.02   58.99
  -7  29  -3  164.48   27.00
 -22  -7  -3  245.28   34.10
 -22  -7  -3  285.27   33.50
  29 -22  -3  207.58   28.50
  -7  29  -3  241.98   28.40
  29 -22  -3  209.68   29.40
   7 -29   3  238.68   38.40
 -29  22   3  199.58   21.70
   7 -29   3  172.58   25.60
  -4  26  -3  260.67   31.10
  26 -22  -3  255.17   32.60
  26 -22  -3  194.98   24.30
 -22  -4  -3  166.48   28.10
 -26  22   3  182.08   18.30
   4 -26   3  181.98   24.40
  -1  23  -3  482.85   32.50
 -22  -1  -3  390.06   38.20
  23 -22  -3  438.96   31.80
  23 -22  -3  420.36   29.50
 -23  22   3  421.16   20.50
   2  20  -3  368.16   31.60
   2  20  -3  383.96   28.20
  20 -22  -3  338.47   26.80
 -22   2  -3  381.26   34.30
  22  -2   3  391.46   33.60
 -20  22   3  416.56   18.60
  -2 -20   3  382.36   27.30
  22  -2   3  391.76   31.00
 -22   5  -3  418.86   32.70
  17 -22  -3  378.36   24.70
   5  17  -3  407.86   31.50
   5  17  -3  471.85   28.70
  17 -22  -3  386.86   25.10
  22  -5   3  390.96   33.20
 -17  22   3  296.07   16.60
  22  -5   3  291.57   27.00
  -5 -17   3  312.27   24.80
  14 -22  -3  979.80   31.40
 -22   8  -3  909.81   40.50
  14 -22  -3  920.71   33.40
   8  14  -3  915.61   41.30
   8  14  -3  902.81   34.90
  22  -8   3  938.41   41.00
  -8 -14   3  914.81   39.40
  22  -8   3  968.70   39.70
  -8 -14   3  939.21   35.20
 -14  22   3  888.51   26.90
 -14  22   3  876.41   25.20
  11 -22  -3  966.10   30.50
  11 -22  -3  973.80   33.30
 -22  11  -3  944.81   40.60
  11  11  -3  975.20   42.60
 -11  22   3  925.61   27.00
 -11 -11   3  921.71   35.40
  22 -11   3  907.31   41.60
 -11 -11   3  930.01   38.80
  22 -11   3  914.21   38.30
 -22  14  -3 1359.06   46.90
   8 -22  -3 1337.77   39.80
  22 -14   3 1439.56   51.69
  22 -14   3 1426.46   48.40
 -14  -8   3 1492.25   46.80
 -14  -8   3 1356.16   46.80
  -8  22   3 1448.96   35.00
 -22  17  -3  309.77   29.10
   5 -22  -3  333.07   23.80
  22 -17   3  350.86   32.80
 -17  -5   3  320.77   26.40
  -5  22   3  315.87   19.50
 -17  -5   3  343.77   27.80
 -22  20  -3  263.37   26.90
  20   2  -3  292.57   28.30
   2 -22  -3  251.87   23.80
 -22  20  -3  258.57   29.40
  22 -20   3  215.18   26.90
 -20  -2   3  254.27   28.20
  -2  22   3  222.98   20.60
  23  -1  -3  374.46   32.00
 -22  23  -3  354.56   32.70
  -1 -22  -3  322.07   27.40
   1  22   3  317.07   25.10
 -23   1   3  307.77   30.40
  22 -23   3  374.46   38.60
 -23   1   3  310.97   21.70
 -22  26  -3  113.99   23.60
  -4 -22  -3  123.79   21.20
  26  -4  -3   89.19   20.90
 -22  26  -3  104.49   24.50
 -26   4   3   86.49   14.60
 -26   4   3  104.79   20.70
  22 -26   3  126.69   28.60
   4  22   3  128.29   20.10
  29  -7  -3  213.98   30.00
 -22  29  -3  292.57   37.70
 -22  29  -3  223.88   30.40
  -7 -22  -3  228.18   27.60
  -7 -22  -3  248.38   37.70
  22 -29   3  158.08   27.70
  22 -29   3  183.28   36.10
   7  22   3  264.17   33.00
 -29   7   3  289.87   24.20
 -29   7   3  269.17   32.80
  31 -23  -3  206.08   29.50
  31 -23  -3  220.08   33.40
 -23  -8  -3  150.88   34.40
  -8  31  -3  155.18   30.50
  -8  31  -3  211.28   29.50
 -31  23   3  239.18   23.80
   8 -31   3  193.78   41.00
  28 -23  -3  422.76   38.10
  -5  28  -3  409.06   38.10
  28 -23  -3  482.35   42.30
 -23  -5  -3  372.46   47.80
  -5  28  -3  384.66   40.40
 -28  23   3  459.55   24.20
   5 -28   3  434.16   39.00
  25 -23  -3  349.27   33.40
 -23  -2  -3  366.96   41.70
  25 -23  -3  376.86   31.20
  -2  25  -3  422.76   33.70
 -25  23   3  317.07   19.80
   2 -25   3  301.37   32.50
  22 -23  -3  320.67   26.40
 -23   1  -3  296.97   36.10
   1  22  -3  335.27   29.40
  22 -23  -3  306.77   29.00
  23  -1   3  281.87   35.10
 -22  23   3  271.37   18.30
  19 -23  -3  127.49   17.70
   4  19  -3  105.79   16.40
 -23   4  -3  159.08   24.70
   4  19  -3  107.99   20.20
  19 -23  -3  127.99   18.60
 -19  23   3  148.49   15.30
  23  -4   3   86.49   16.90
  -4 -19   3  149.99   19.90
  23  -4   3  172.38   23.10
  16 -23  -3   26.20   13.00
 -23   7  -3   11.20   14.70
   7  16  -3   36.20   13.60
  16 -23  -3   18.50   11.50
   7  16  -3   51.69   17.10
  23  -7   3   31.50   15.80
  23  -7   3   77.19   16.90
 -16  23   3   45.50    9.50
  -7 -16   3   47.30   13.30
  -7 -16   3   44.40   17.90
  10  13  -3  208.08   28.00
  13 -23  -3  217.08   20.60
 -23  10  -3  175.18   22.80
  13 -23  -3  241.08   22.60
 -13  23   3  172.28   15.00
  23 -10   3  195.98   24.60
 -10 -13   3  203.28   21.60
 -13  23   3  184.28   16.20
 -10 -13   3  208.58   28.00
  23 -10   3  149.69   21.30
  10 -23  -3  106.89   14.50
  10 -23  -3  114.09   24.70
 -23  13  -3   93.89   20.20
 -10  23   3  134.89   15.00
 -13 -10   3  121.19   16.00
  23 -13   3   82.69   16.50
 -13 -10   3  113.69   18.50
  23 -13   3  108.59   20.90
   7 -23  -3   16.60   11.40
 -23  16  -3    9.40   15.20
 -16  -7   3   29.60   16.20
  23 -16   3   34.60   17.20
  -7  23   3   33.00   10.00
 -16  -7   3   38.70   12.00
   4 -23  -3   79.29   16.30
 -23  19  -3   70.89   18.20
  23 -19   3   50.49   20.70
  -4  23   3   66.89   12.70
 -19  -4   3   65.99   12.40
 -19  -4   3   48.40   17.60
   1 -23  -3  329.57   26.90
 -23  22  -3  344.37   32.20
  22   1  -3  371.46   32.20
 -22  -1   3  234.68   21.30
  -1  23   3  291.77   23.90
  23 -22   3  327.17   38.30
 -22  -1   3  325.57   32.20
  25  -2  -3  475.95   37.70
  -2 -23  -3  450.45   33.20
 -23  25  -3  419.66   43.70
 -23  25  -3  459.25   37.50
   2  23   3  417.36   29.40
  23 -25   3  424.16   42.10
 -25   2   3  445.96   35.00
 -25   2   3  395.26   24.60
  28  -5  -3  390.06   39.80
 -23  28  -3  468.65   41.90
  -5 -23  -3  441.86   36.20
 -23  28  -3  487.15   39.10
 -28   5   3  323.57   25.50
  23 -28   3  410.36   40.70
  23 -28   3  425.36   50.59
   5  23   3  455.75   34.70
  -8 -23  -3  316.87   35.80
  -8 -23  -3  248.38   41.20
  31  -8  -3  242.58   34.10
 -23  31  -3  206.98   31.40
 -23  31  -3  225.78   32.90
 -31   8   3  186.68   19.80
  23 -31   3  246.28   40.90
 -31   8   3  271.77   36.30
  30 -24  -3   17.60   22.60
  -6  30  -3   95.69   27.50
  30 -24  -3   48.40   27.50
  -6  30  -3   65.19   23.90
 -24  -6  -3   22.00   31.80
 -24  -6  -3   48.00   19.00
   6 -30   3   63.69   22.40
 -30  24   3   59.09   13.90
 -24  -3  -3   -3.90   25.40
  27 -24  -3   21.80   21.20
  -3  27  -3   39.90   21.90
  27 -24  -3   35.70   18.90
  -3  27  -3   11.60   18.60
 -27  24   3   25.90   11.30
   3 -27   3   47.10   19.90
  24 -24  -3   22.30   14.80
 -24   0  -3   65.39   24.30
   0  24  -3   28.30   17.20
  24 -24  -3    8.60   17.50
 -24  24   3   11.20   10.10
   0 -24   3   18.30   16.50
  24   0   3   24.90   19.10
   3  21  -3   88.59   18.20
  21 -24  -3  107.69   19.10
 -24   3  -3   95.99   24.00
  21 -24  -3   98.79   17.60
  24  -3   3  170.88   25.60
 -21  24   3  125.39   16.20
  18 -24  -3  377.46   27.60
   6  18  -3  349.77   28.70
  18 -24  -3  377.26   27.50
 -24   6  -3  379.86   35.10
 -18  24   3  354.16   18.80
  -6 -18   3  405.36   35.70
  -6 -18   3  326.37   27.10
  24  -6   3  384.06   35.40
   9  15  -3 1105.29   47.20
  15 -24  -3 1181.68   40.30
  15 -24  -3 1159.78   37.00
 -24   9  -3 1142.39   46.70
 -15  24   3 1084.39   29.40
 -15  24   3 1037.00   31.20
  -9 -15   3 1110.59   39.70
  -9 -15   3 1040.90   45.20
  24  -9   3 1054.79   46.30
  12 -24  -3  555.44   27.30
 -24  12  -3  489.25   35.40
  12 -24  -3  553.84   29.30
 -12 -12   3  567.54   29.70
 -12  24   3  609.54   24.00
  24 -12   3  569.04   37.50
 -24  15  -3  512.05   35.40
   9 -24  -3  542.75   28.80
 -15  -9   3  482.75   27.40
 -15  -9   3  485.85   34.80
  24 -15   3  481.45   37.30
  -9  24   3  487.65   22.70
   6 -24  -3  585.74   31.10
 -24  18  -3  615.24   37.00
  -6  24   3  566.44   25.40
 -18  -6   3  545.65   28.10
 -18  -6   3  549.95   35.00
  24 -18   3  510.65   38.50
 -24  21  -3  136.39   22.20
   3 -24  -3  144.39   20.20
 -21  -3   3  115.69   16.40
 -21  -3   3  128.09   22.30
  24 -21   3   98.19   24.10
  -3  24   3  124.69   16.20
 -24  24  -3    5.70   17.40
  24   0  -3   46.40   19.80
   0 -24  -3   -3.30   14.30
 -24  24  -3   39.40   19.90
  24 -24   3  -13.30   21.30
   0  24   3   37.60   14.10
 -24   0   3   10.00   21.50
 -24   0   3   -3.50   10.80
  27  -3  -3  117.69   26.40
  -3 -24  -3  125.39   22.70
 -24  27  -3  132.19   24.70
 -24  27  -3   59.69   20.50
 -27   3   3   63.49   14.20
 -27   3   3   38.40   21.00
  24 -27   3   88.19   22.10
  24 -27   3   58.79   27.90
   3  24   3   90.79   18.90
 -24  30  -3  182.98   27.00
  30  -6  -3  260.87   33.80
 -24  30  -3  214.68   32.20
  -6 -24  -3  173.48   24.60
  -6 -24  -3  232.58   40.00
  24 -30   3  172.78   27.10
 -30   6   3  217.88   27.80
   6  24   3  171.38   25.80
 -30   6   3  186.38   24.20
  24 -30   3  204.18   38.30
  29 -25  -3  239.68   30.10
  -4  29  -3  312.87   38.60
  29 -25  -3  278.57   33.50
 -25  -4  -3  227.48   38.00
  -4  29  -3  189.48   28.90
 -29  25   3  245.98   20.90
   4 -29   3  196.78   26.20
  26 -25  -3  345.67   38.50
  -1  26  -3  236.98   31.60
  -1  26  -3  257.37   33.60
  26 -25  -3  296.77   33.10
 -25  -1  -3  327.97   38.10
  25   1   3  295.97   38.00
 -26  25   3  271.47   20.20
   1 -26   3  317.17   35.20
 -25   2  -3  417.26   41.70
  23 -25  -3  405.16   34.80
  23 -25  -3  395.76   29.90
   2  23  -3  361.86   54.59
   2  23  -3  358.66   32.40
  25  -2   3  329.97   35.20
 -23  25   3  334.27   20.10
  -2 -23   3  401.76   33.10
  25  -2   3  393.16   40.80
 -25   5  -3  671.03   43.30
  20 -25  -3  710.53   35.20
  20 -25  -3  770.52   37.10
   5  20  -3  673.13   35.90
  25  -5   3  778.82   45.50
 -20  25   3  696.23   24.60
 -25   8  -3  784.62   42.80
  17 -25  -3  781.32   34.30
  17 -25  -3  742.33   34.80
   8  17  -3  806.12   38.10
  -8 -17   3  712.93   41.40
 -17  25   3  776.32   25.70
  -8 -17   3  633.44   33.70
  25  -8   3  737.73   42.70
  14 -25  -3 1179.48   41.70
 -25  11  -3 1238.38   49.90
  14 -25  -3 1265.97   39.70
  25 -11   3 1271.67   52.39
 -11 -14   3 1263.07   49.30
 -11 -14   3 1339.57   43.90
 -14  25   3 1189.48   33.90
 -14  25   3 1274.07   33.50
 -25  14  -3  516.65   36.90
  11 -25  -3  574.44   30.70
  11 -25  -3  563.74   28.60
 -11  25   3  615.94   25.40
  25 -14   3  620.04   42.90
 -14 -11   3  584.14   38.20
 -14 -11   3  618.84   31.50
 -25  17  -3  583.64   37.70
   8 -25  -3  623.44   32.40
  -8  25   3  538.95   25.20
 -17  -8   3  548.55   37.50
 -17  -8   3  577.54   29.60
  25 -17   3  509.25   41.30
   5 -25  -3  724.33   35.30
 -25  20  -3  664.13   40.70
 -20  -5   3  744.43   32.00
  -5  25   3  671.53   29.40
 -20  -5   3  622.04   46.20
  25 -20   3  637.24   44.40
  23   2  -3  387.46   36.50
   2 -25  -3  371.16   31.90
 -25  23  -3  398.96   36.60
 -23  -2   3  350.06   36.50
  -2  25   3  397.16   26.80
  25 -23   3  385.06   43.30
 -23  -2   3  364.46   25.90
 -25  26  -3  120.49   25.40
  26  -1  -3  144.09   26.10
  -1 -25  -3  156.78   22.70
 -25  26  -3  103.69   22.20
   1  25   3  154.58   21.90
 -26   1   3  167.28   25.70
 -26   1   3  133.69   17.80
  25 -26   3  139.69   31.80
  25 -26   3  121.59   24.20
 -25  29  -3  142.09   25.50
 -25  29  -3  196.68   31.60
  29  -4  -3  140.99   28.00
  -4 -25  -3  199.18   28.20
 -29   4   3  207.38   27.70
   4  25   3  231.98   26.90
  25 -29   3  149.49   23.40
  25 -29   3  197.48   39.30
  28 -26  -3  324.77   42.00
  28 -26  -3  351.26   39.80
 -26  -2  -3  276.77   37.60
  -2  28  -3  330.17   42.30
  -2  28  -3  325.97   37.10
 -28  26   3  275.67   21.30
   2 -28   3  174.48   26.80
   1  25  -3  239.08   31.40
   1  25  -3  194.98   25.10
  25 -26  -3  270.27   30.90
 -26   1  -3  214.88   33.50
  26  -1   3  301.47   38.30
 -25  26   3  226.78   20.20
  -1 -25   3  261.97   34.40
  26  -1   3  208.78   31.10
   4  22  -3  142.39   21.30
   4  22  -3  134.39   27.20
  22 -26  -3  173.28   24.00
 -26   4  -3  163.68   28.00
  22 -26  -3  158.88   22.40
 -22  26   3  169.78   17.70
  26  -4   3  137.79   28.00
  -4 -22   3  140.79   22.00
  26  -4   3  161.88   26.50
  19 -26  -3   91.19   17.80
   7  19  -3   59.39   18.60
  19 -26  -3   72.19   18.50
 -26   7  -3  100.59   23.50
  26  -7   3   88.79   24.50
  26  -7   3  100.19   29.40
 -19  26   3   77.19   12.40
  -7 -19   3   66.69   22.90
  16 -26  -3  277.47   27.70
  16 -26  -3  324.77   27.40
 -26  10  -3  248.78   29.10
 -16  26   3  278.07   20.10
 -16  26   3  249.48   20.20
 -10 -16   3  273.57   34.10
  26 -10   3  269.87   35.70
  13 -26  -3   82.99   17.20
  13 -26  -3  127.99   19.10
 -26  13  -3   68.79   20.50
 -13 -13   3   86.99   17.40
 -13  26   3   87.39   13.10
  26 -13   3  105.69   24.20
 -13 -13   3  105.49   23.60
  10 -26  -3   45.00   15.40
 -26  16  -3   86.49   20.60
 -16 -10   3   57.19   14.30
 -10  26   3   38.30   11.90
  26 -16   3   55.79   21.00
 -16 -10   3   64.59   20.40
   7 -26  -3  365.86   29.90
 -26  19  -3  419.56   36.80
 -19  -7   3  369.96   35.30
 -19  -7   3  372.26   26.30
  -7  26   3  303.27   23.40
  26 -19   3  334.87   37.30
 -26  22  -3  318.07   36.80
   4 -26  -3  310.97   30.70
  26 -22   3  253.77   32.50
  -4  26   3  263.07   23.90
 -22  -4   3  234.38   28.30
 -22  -4   3  246.38   24.50
 -26  25  -3  235.18   29.40
   1 -26  -3  264.27   32.80
  25   1  -3  235.38   30.70
  -1  26   3  223.08   23.50
 -25  -1   3  277.27   37.10
  26 -25   3  267.17   35.90
 -25  -1   3  205.08   21.70
  26 -25   3  277.87   36.00
  -2 -26  -3  231.98   27.50
  28  -2  -3  204.18   31.30
 -26  28  -3  333.57   43.10
 -26  28  -3  264.77   32.40
   2  26   3  344.27   32.50
  26 -28   3  304.37   39.60
  26 -28   3  241.38   37.70
 -28   2   3  277.57   30.70
   0  27  -3    1.50   19.90
 -27   0  -3  -29.00   27.80
   0  27  -3    0.00   24.10
  27 -27  -3    1.90   23.40
  27 -27  -3   29.50   20.60
  27   0   3    0.90   24.20
 -27  27   3   -7.20   11.40
  27   0   3   17.50   27.60
   0 -27   3    2.50   21.70
   3  24  -3   99.39   21.10
 -27   3  -3  126.19   28.00
  24 -27  -3   94.59   23.90
  24 -27  -3  123.89   21.80
   3  24  -3   78.79   24.70
  -3 -24   3   74.59   22.00
 -24  27   3  116.29   14.20
  27  -3   3  119.99   29.50
  27  -3   3   93.29   23.70
  21 -27  -3  299.67   33.50
   6  21  -3  300.37   32.30
   6  21  -3  343.87   37.80
 -27   6  -3  265.77   32.80
  21 -27  -3  377.76   31.90
  27  -6   3  399.86   43.00
  -6 -21   3  449.76   43.20
  27  -6   3  396.26   37.30
  -6 -21   3  395.86   34.00
 -21  27   3  358.56   21.00
   9  18  -3  475.95   40.20
  18 -27  -3  482.05   33.50
  18 -27  -3  604.94   34.80
 -27   9  -3  566.84   41.50
  -9 -18   3  566.34   43.80
 -18  27   3  549.54   24.10
  27  -9   3  583.24   43.90
  12  15  -3  601.94   50.09
  15 -27  -3  679.03   35.40
  15 -27  -3  631.04   33.30
 -27  12  -3  684.43   43.30
  27 -12   3  532.65   41.50
 -15  27   3  496.65   24.70
 -15  27   3  522.75   24.60
 -12 -15   3  582.74   42.80
 -27  15  -3 1004.00   48.80
  12 -27  -3 1066.79   38.30
  12 -27  -3 1091.89   42.70
  27 -15   3 1007.30   53.49
 -15 -12   3 1017.70   47.80
 -12  27   3  981.60   33.30
   9 -27  -3  518.45   34.00
 -27  18  -3  457.35   39.30
  27 -18   3  533.25   43.00
  -9  27   3  518.35   27.00
 -18  -9   3  496.15   39.30
 -27  21  -3  113.49   24.60
   6 -27  -3  113.59   20.50
 -21  -6   3  114.29   24.70
  -6  27   3  108.89   16.70
  27 -21   3  142.49   29.50
 -27  24  -3   60.09   23.20
   3 -27  -3   68.09   19.90
  27 -24   3  -24.00   24.40
  -3  27   3   24.00   15.10
 -24  -3   3   15.60   21.80
  27 -24   3   -5.60   19.20
 -24  -3   3   18.40   13.90
  27   0  -3   19.00   24.20
   0 -27  -3    7.80   21.70
 -27  27  -3   -0.40   25.50
  27 -27   3   31.60   30.60
  27 -27   3   34.50   21.30
   0  27   3   22.00   18.50
 -27   0   3   -9.10   22.20
 -28   2  -3  427.16   51.39
  26 -28  -3  399.96   37.80
   2  26  -3  373.96   38.00
   2  26  -3  448.46   47.60
  26 -28  -3  463.75   45.20
  -2 -26   3  318.47   38.90
  28  -2   3  503.65   52.49
 -26  28   3  412.26   23.00
  28  -2   3  344.87   42.80
   5  23  -3  472.25   37.70
 -28   5  -3  422.76   46.50
   5  23  -3  518.75   46.20
  23 -28  -3  454.25   39.80
  23 -28  -3  510.25   37.60
 -23  28   3  511.85   24.30
  -5 -23   3  543.65   48.80
  -5 -23   3  489.05   38.20
  28  -5   3  464.05   42.90
  28  -5   3  579.14   51.29
 -28   8  -3  781.32   48.50
   8  20  -3  846.32   49.90
  20 -28  -3  814.42   40.80
  20 -28  -3  734.53   40.60
 -20  28   3  837.82   28.50
  -8 -20   3  816.82   41.50
  28  -8   3  786.12   51.49
  28  -8   3  749.13   45.80
  -8 -20   3  888.41   51.89
  17 -28  -3  656.13   37.40
  17 -28  -3  648.04   36.80
 -28  11  -3  629.14   45.20
  11  17  -3  609.94   44.60
  28 -11   3  739.23   48.20
 -11 -17   3  716.73   49.50
 -17  28   3  749.33   28.20
  14 -28  -3  465.55   32.10
  14  14  -3  438.96   40.60
  14 -28  -3  563.74   35.80
 -28  14  -3  470.65   41.40
 -14  28   3  528.75   26.30
  28 -14   3  500.35   46.10
 -14 -14   3  585.44   43.20
 -28  17  -3  824.52   46.00
  11 -28  -3  667.93   37.60
 -17 -11   3  735.43   45.00
  28 -17   3  702.53   48.80
 -11  28   3  734.03   30.40
   8 -28  -3  439.16   35.40
 -28  20  -3  336.27   38.30
 -20  -8   3  337.37   38.50
  -8  28   3  288.27   24.90
  28 -20   3  267.97   33.10
 -28  23  -3  499.75   43.60
   5 -28  -3  446.46   37.50
  28 -23   3  309.67   38.00
 -23  -5   3  386.86   42.10
  -5  28   3  329.87   28.20
  28 -23   3  415.06   46.80
   2 -28  -3  392.66   39.30
 -28  26  -3  371.86   45.70
 -26  -2   3  480.25   44.70
  28 -26   3  294.07   37.20
  28 -26   3  333.57   42.20
   4  25  -3  208.48   28.20
  25 -29  -3  355.66   43.70
   4  25  -3  199.98   33.20
  25 -29  -3  305.67   36.10
 -29   4  -3  235.48   36.50
  -4 -25   3  211.38   26.30
  29  -4   3  270.67   36.10
 -25  29   3  201.38   20.00
  29  -4   3  152.98   28.10
   7  22  -3  158.78   26.80
 -29   7  -3  175.18   31.90
  22 -29  -3  163.18   26.60
  22 -29  -3  151.48   24.80
  29  -7   3  178.98   32.00
  -7 -22   3  119.99   29.60
  -7 -22   3  168.38   26.30
 -22  29   3  146.99   16.20
  29  -7   3  158.98   28.10
  19 -29  -3  106.19   21.80
 -29  10  -3  110.89   27.30
  10  19  -3   73.19   25.30
  19 -29  -3   85.19   23.20
  29 -10   3   86.39   22.00
 -19  29   3  122.89   15.30
 -10 -19   3   98.99   29.00
  29 -10   3  142.09   30.20
 -10 -19   3  123.79   21.80
  16 -29  -3  104.09   20.90
 -29  13  -3  105.99   25.80
  16 -29  -3  114.09   22.30
  13  16  -3  115.99   25.80
 -16  29   3   90.29   15.50
  29 -13   3  119.29   28.70
 -13 -16   3  104.79   20.30
  29 -13   3  119.69   25.30
 -13 -16   3   95.59   26.30
  16  13  -3   82.49   25.60
 -29  16  -3   27.60   22.00
  13 -29  -3    4.90   18.20
  13 -29  -3   23.00   18.20
  29 -16   3   -2.50   23.60
 -16 -13   3   -0.70   23.30
 -13  29   3   29.40   12.60
  29 -16   3   16.10   22.40
  19  10  -3  218.58   29.30
 -29  19  -3  230.18   29.10
  10 -29  -3  257.37   32.30
 -19 -10   3  216.48   30.60
  29 -19   3  204.08   26.50
  29 -19   3  177.78   30.00
 -10  29   3  244.28   24.40
 -29  22  -3  260.37   32.30
   7 -29  -3  330.27   36.10
  29 -22   3  321.57   40.00
 -22  -7   3  271.07   32.40
  -7  29   3  235.08   26.80
  29 -22   3  150.08   27.40
   4 -29  -3  183.98   27.10
 -29  25  -3  254.97   34.60
 -25  -4   3  279.17   33.60
 -25  -4   3  256.97   30.20
  -4  29   3  222.58   29.60
  29 -25   3  172.28   35.30
  24 -30  -3  148.19   26.60
   6  24  -3  116.89   29.40
 -30   6  -3   92.29   29.40
  -6 -24   3  114.69   32.70
  -6 -24   3  111.49   24.50
 -24  30   3  149.79   19.70
  30  -6   3  148.79   35.40
  30  -6   3  108.89   24.30
  21 -30  -3  668.33   42.90
   9  21  -3  490.85   48.20
 -30   9  -3  650.93   50.89
  21 -30  -3  687.93   44.20
  -9 -21   3  655.83   55.99
  30  -9   3  709.33   53.59
 -21  30   3  670.43   27.60
  30  -9   3  580.84   45.70
  -9 -21   3  597.44   41.30
 -30  12  -3  818.12   52.99
  18 -30  -3  805.62   43.50
  18 -30  -3  849.12   44.30
  12  18  -3  742.63   51.79
 -12 -18   3  726.13   52.59
 -18  30   3  775.22   30.70
  30 -12   3  792.62   49.90
 -12 -18   3  842.62   43.50
  30 -12   3  746.73   54.39
  15  15  -3  567.74   46.90
  15 -30  -3  596.94   38.50
  15 -30  -3  617.24   40.80
 -30  15  -3  590.04   47.90
  30 -15   3  527.85   42.90
 -15 -15   3  588.04   36.90
  30 -15   3  712.33   53.19
 -15 -15   3  595.04   48.30
 -15  30   3  542.85   28.90
  12 -30  -3  610.74   41.80
 -30  18  -3  575.94   46.40
  18  12  -3  581.54   47.60
  30 -18   3  586.64   49.80
  30 -18   3  587.34   45.50
 -18 -12   3  617.04   37.20
 -18 -12   3  551.54   46.80
 -12  30   3  587.24   30.60
   9 -30  -3  471.35   40.40
  21   9  -3  424.36   44.60
 -30  21  -3  560.44   46.80
  30 -21   3  573.74   53.99
  30 -21   3  421.16   43.00
 -21  -9   3  540.45   35.90
  -9  30   3  523.65   31.50
 -21  -9   3  555.84   47.20
 -30  24  -3  158.98   31.40
   6 -30  -3  298.77   39.30
 -24  -6   3  156.08   31.10
  30 -24   3   77.59   25.30
  -6  30   3  157.88   21.60
 -24  -6   3  110.39   21.30
  30 -24   3  142.59   35.10
 -31   8  -3  223.38   34.70
  23 -31  -3  257.17   31.60
  23 -31  -3  269.27   37.90
   8  23  -3  183.08   32.00
  -8 -23   3  192.98   26.30
  31  -8   3  317.47   60.09
  -8 -23   3  285.07   42.20
 -23  31   3  293.27   22.50
  11  20  -3  230.38   34.20
  20 -31  -3  385.46   41.30
 -31  11  -3  340.07   39.20
  20 -31  -3  396.06   39.60
  31 -11   3  318.07   39.90
 -11 -20   3  357.16   37.60
 -11 -20   3  355.16   40.90
 -20  31   3  382.76   24.70
  31 -11   3  289.47   38.80
 -31  14  -3  680.43   51.89
  17 -31  -3  566.84   42.20
  14  17  -3  477.65   48.00
  17 -31  -3  565.84   40.80
 -17  31   3  520.55   30.50
  31 -14   3  564.94   45.20
 -14 -17   3  630.94   52.29
 -14 -17   3  641.64   41.40
  31 -14   3  657.53   55.99
  17  14  -3  531.75   49.30
 -31  17  -3  622.94   49.90
  14 -31  -3  478.55   41.60
 -14  31   3  599.54   31.60
 -17 -14   3  622.84   39.60
  31 -17   3  639.34   55.59
 -17 -14   3  627.64   53.29
  31 -17   3  451.45   43.30
 -31  20  -3  284.87   34.50
  11 -31  -3  276.57   32.20
  31 -20   3  185.08   35.30
 -20 -11   3  262.57   35.20
 -11  31   3  269.37   28.20
 -20 -11   3  262.87   33.30
 -31  23  -3  280.47   37.20
   8 -31  -3  233.88   30.50
 -23  -8   3  372.46   35.10
 -23  -8   3  260.97   35.90
  -8  31   3  331.17   30.40
  31 -23   3  239.88   39.70
  13  19  -3   66.99   25.50
  19 -32  -3   94.89   25.00
  19 -32  -3  156.08   27.70
 -32  13  -3   62.59   31.40
 -13 -19   3  171.18   35.70
  32 -13   3  115.19   28.00
 -13 -19   3   69.89   23.40
 -19  32   3  121.69   17.40
 -32  16  -3    5.70   25.80
  16 -32  -3   32.00   22.50
  16  16  -3    0.90   25.90
  16 -32  -3   29.10   22.60
 -16 -16   3    0.60   19.60
  32 -16   3  -22.80   34.60
 -16 -16   3   21.60   28.60
  32 -16   3   66.29   31.00
 -16  32   3   16.50   14.70
  13 -32  -3   68.89   24.40
 -32  19  -3  -32.80   28.40
  32 -19   3   18.20   27.90
 -19 -13   3   38.60   28.80
 -13  32   3   29.00   16.20
   0   1  -4  131.89   10.20
   0   1  -4  136.09    7.10
   1  -1  -4  126.19    9.20
  -1   0  -4  129.89    9.30
  -1   0  -4  133.39    7.20
   0  -1   4  118.89   10.40
   1   0   4  115.89    9.80
  -1   1   4  115.79    9.10
  -1   3  -4  246.08   10.70
  -2  -1  -4  263.07   10.20
   3  -2  -4  240.68   13.30
  -2  -1  -4  246.28   11.00
  -1   3  -4  255.27   14.00
   1  -3   4  237.18    7.50
   1  -3   4  220.08   13.90
   2   1   4  241.08   11.80
  -2   2  -4  726.33   17.50
   2   0  -4  725.43   20.10
   0  -2  -4  716.73   12.90
   0  -2  -4  716.23   17.10
  -2   2  -4  723.03   21.00
   2   0  -4  709.13   12.50
   2  -2   4  688.03   21.00
   2  -2   4  701.63   12.60
  -2   0   4  691.53   19.70
   0   2   4  700.73   17.20
  -2   5  -4  111.99    9.80
  -2   5  -4  100.69   11.80
  -3  -2  -4  102.79    9.30
  -3  -2  -4   95.49    7.90
   5  -3  -4  100.59    9.20
   2  -5   4  134.29   13.80
   2  -5   4  136.79    8.70
   3   2   4  133.89    9.90
   1   2  -4  109.89    7.20
   1   2  -4   99.59   10.50
  -3   1  -4  103.59    8.60
   2  -3  -4  114.09    7.40
  -3   1  -4  107.59    9.50
  -1  -2   4  103.49   11.10
  -2   3   4   91.19    7.40
   3  -1   4  100.89   10.50
   3  -1   4  103.09    5.70
  -1  -3  -4  249.28    9.60
  -1  -3  -4  249.58    9.50
   4  -1  -4  236.68   12.70
  -3   4  -4  244.68   14.30
  -3   4  -4  259.37   12.50
   1   3   4  186.28    9.40
   3  -4   4  177.68   14.00
   3  -4   4  182.28    9.90
  -4  -3  -4 1313.87   28.80
  -3   7  -4 1289.57   34.40
  -3   7  -4 1297.27   29.60
   7  -4  -4 1284.87   27.90
   3  -7   4 1201.88   33.50
   3  -7   4 1218.88   26.80
   4   3   4 1161.38   25.70
  -4   0  -4  353.76   14.00
  -4   0  -4  348.97   13.80
   4  -4  -4  330.77   11.30
   0   4  -4  349.96   17.00
   0   4  -4  336.97   12.80
   0  -4   4  458.25   19.40
   0  -4   4  439.36   11.80
   4   0   4  427.86   16.30
  -4   3  -4  176.88   11.10
  -4   3  -4  178.88   12.40
   3   1  -4  170.28    7.60
   3   1  -4  198.98   12.80
   1  -4  -4  166.28    7.10
   4  -3   4  137.19    8.70
   4  -3   4  126.59   12.60
  -1   4   4  138.79    7.20
  -3  -1   4  128.09   11.80
  -4   6  -4  420.16   16.60
  -4   6  -4  429.96   19.40
   6  -2  -4  411.46    8.80
  -2  -4  -4  419.26   14.40
   6  -2  -4  445.46   17.10
   2   4   4  426.56   13.40
   4  -6   4  412.36   20.20
   4  -6   4  442.66   15.40
  -4   9  -4   11.50    7.40
  -5  -4  -4   11.70    7.20
   9  -5  -4   10.70    3.60
  -4   9  -4   16.20    7.90
   4  -9   4   40.70    7.90
   4  -9   4   39.00    9.60
   5   4   4   27.60    6.70
  -5  -1  -4  388.76   16.00
   6  -5  -4  418.76   13.60
  -1   6  -4  392.76   19.60
  -1   6  -4  402.16   15.60
   1  -6   4  427.16   14.30
   1  -6   4  448.36   20.60
   5   1   4  462.75   17.10
  -5   2  -4  175.58   11.70
  -5   2  -4  180.38   12.20
   3  -5  -4  167.38    6.70
   2   3  -4  171.68    9.40
   2   3  -4  159.58   13.10
   5  -2   4  220.18   14.00
  -2  -3   4  206.78    6.80
  -2  -3   4  196.68   14.60
   5  -2   4  214.08   10.50
  -2  -3   4  208.38    6.40
   5   0  -4 1612.14   26.00
   5   0  -4 1681.23   35.90
   5   0  -4 1684.03   27.40
  -5   5  -4 1723.13   34.50
  -5   5  -4 1637.74   37.40
   5  -5   4 1517.05   30.10
   5  -5   4 1497.65   35.80
   0   5   4 1480.05   24.30
   8  -3  -4 2999.50   41.80
   8  -3  -4 3052.79   43.60
  -3  -5  -4 3049.79   50.59
  -5   8  -4 3108.49   53.79
  -5   8  -4 2949.70   58.49
   3   5   4 2907.81   45.80
   5  -8   4 3008.50   58.69
   5  -8   4 2998.80   51.29
  11  -6  -4 1690.53   37.70
  -5  11  -4 1781.72   45.40
  -5  11  -4 1886.21   40.90
  -6  -5  -4 1799.62   40.20
   5 -11   4 2115.79   50.39
   6   5   4 1974.50   38.70
   5 -11   4 1999.00   42.40
  -2   8  -4  654.53   21.30
  -6  -2  -4  625.74   21.60
  -2   8  -4  666.33   25.60
   6   2   4  628.94   20.20
   2  -8   4  604.54   25.50
   2  -8   4  638.14   19.60
  -6   1  -4  434.56   16.70
   1   5  -4  438.36   19.90
   1   5  -4  436.86   15.40
   5  -6  -4  455.05   11.40
  -6   1  -4  438.96   17.40
  -1  -5   4  454.85   13.50
  -1  -5   4  467.05   21.10
   6  -1   4  418.86   17.90
   6  -1   4  461.05   15.40
  -6   4  -4  662.43   22.30
  -6   4  -4  653.93   20.80
   4   2  -4  692.53   23.10
   4   2  -4  634.74   15.80
   6  -4   4  671.73   19.10
   6  -4   4  635.34   22.90
   7  -1  -4  602.04   15.30
   7  -1  -4  609.54   21.70
  -6   7  -4  605.54   23.30
  -6   7  -4  584.74   21.00
   7  -1  -4  588.44   14.00
   6  -7   4  600.64   19.80
   1   6   4  598.24   14.20
   6  -7   4  657.13   25.20
  -6  10  -4 1770.52   39.10
  -6  10  -4 1624.74   42.40
  -4  -6  -4 1771.52   37.60
   4   6   4 1743.03   32.60
   6 -10   4 1759.12   38.20
   6 -10   4 1683.03   43.80
  -7  -6  -4 3517.25   64.59
  13  -7  -4 3413.36   54.99
  -6  13  -4 3457.45   63.59
  -6  13  -4 3313.87   69.49
   6 -13   4 3587.04   72.99
   6 -13   4 3588.64   65.19
  10  -7  -4 4368.86   60.19
  -7  -3  -4 4480.15   73.19
  -3  10  -4 4419.36   71.69
  -3  10  -4 4439.76   80.09
   3 -10   4 4494.85   80.49
   7   3   4 4506.65   70.69
   3 -10   4 4454.45   71.39
  -7   0  -4  520.65   20.00
   0   7  -4  504.45   22.60
   0   7  -4  507.55   18.10
   0  -7   4  697.03   19.40
   7   0   4  721.23   22.90
   0  -7   4  718.43   26.90
   7   0   4  703.93   20.50
  -7   3  -4  777.62   23.50
   3   4  -4  787.82   19.60
   3   4  -4  752.42   25.70
  -7   3  -4  758.32   23.50
  -3  -4   4  711.93   16.80
   7  -3   4  724.53   20.80
   7  -3   4  709.43   23.80
  -3  -4   4  716.33   25.20
  -3  -4   4  760.32   18.60
  -7   6  -4  408.06   19.40
   6   1  -4  415.86   14.30
   6   1  -4  417.66   19.40
   6   1  -4  409.16   12.90
  -7   6  -4  392.06   18.00
   7  -6   4  388.46   20.20
   7  -6   4  366.66   16.00
   9  -2  -4   22.00    5.00
  -7   9  -4   17.50    7.30
  -7   9  -4   17.30    8.00
   9  -2  -4   25.00    5.70
   7  -9   4   25.90    7.40
   7  -9   4   40.30   11.30
   2   7   4   32.90    5.20
  12  -5  -4  873.31   22.60
  -7  12  -4  922.31   28.90
  -7  12  -4  908.01   32.20
  -5  -7  -4  883.31   28.10
   7 -12   4  862.21   27.40
   7 -12   4  844.32   32.40
  -7  15  -4 1633.94   41.80
  15  -8  -4 1593.14   35.70
  -7  15  -4 1626.34   46.90
  -8  -7  -4 1679.63   43.60
   7 -15   4 1565.64   47.30
   7 -15   4 1561.44   40.40
  -8  -4  -4 1927.21   44.10
  -4  12  -4 1891.61   42.30
  -4  12  -4 1876.01   48.10
  12  -8  -4 1858.61   33.80
   4 -12   4 1760.82   46.50
   4 -12   4 1692.73   39.00
   8   4   4 1717.23   37.80
  -1   9  -4  619.44   21.50
  -1   9  -4  594.74   25.60
  -8  -1  -4  557.54   22.20
   9  -8  -4  563.84   12.30
   8   1   4  612.84   20.50
   1  -9   4  592.74   26.00
   1  -9   4  581.54   19.70
   8   1   4  621.04   21.90
  -8   2  -4  498.05   19.10
  -8   2  -4  499.75   20.40
   2   6  -4  505.35   17.50
   2   6  -4  499.25   22.30
   8  -2   4  438.36   17.40
  -2  -6   4  443.46   21.80
   8  -2   4  452.55   20.00
  -2  -6   4  434.26   14.80
  -8   5  -4 3195.18   58.89
   5   3  -4 3263.57   50.19
   5   3  -4 3254.07   60.59
  -8   5  -4 3381.96   57.99
  -5  -3   4 3218.98   46.50
  -5  -3   4 3197.88   45.70
   8  -5   4 3312.07   55.69
   8  -5   4 3324.97   60.89
  -8   8  -4 1805.02   39.90
  -8   8  -4 1751.62   42.20
   8   0  -4 1802.32   33.90
   8   0  -4 1773.02   40.60
   8   0  -4 1823.62   31.50
   8  -8   4 1930.31   40.00
   8  -8   4 1932.21   45.60
   0   8   4 1869.91   28.00
  11  -3  -4  336.47   14.30
  -8  11  -4  331.37   20.40
  -8  11  -4  343.77   19.10
   8 -11   4  337.87   22.50
   8 -11   4  322.87   17.50
  -8  14  -4  727.63   30.60
  -6  -8  -4  743.03   28.00
  14  -6  -4  711.73   22.30
  -8  14  -4  707.93   27.40
   8 -14   4  684.83   30.90
   8 -14   4  698.93   26.30
  17  -9  -4  306.17   17.90
  -9  -8  -4  326.37   24.60
  -8  17  -4  310.87   22.90
  -8  17  -4  307.97   24.60
   8 -17   4  325.67   27.10
   8 -17   4  295.97   20.60
  14  -9  -4  192.28   12.40
  -5  14  -4  179.48   17.10
  -9  -5  -4  230.58   19.70
  -5  14  -4  223.28   20.30
   5 -14   4  267.77   22.60
   5 -14   4  224.38   16.70
  -2  11  -4 1976.20   42.70
  -2  11  -4 1994.90   49.50
  -9  -2  -4 2062.59   45.60
  11  -9  -4 2102.09   42.50
   2 -11   4 2077.59   43.00
   9   2   4 2139.79   44.30
   2 -11   4 2077.99   51.09
   1   8  -4  222.88   14.30
   8  -9  -4  232.48    7.70
  -9   1  -4  222.98   16.40
   1   8  -4  246.98   18.00
  -1  -8   4  267.17   13.80
  -1  -8   4  287.37   20.40
   9  -1   4  269.37   15.50
   9  -1   4  278.07   17.00
   4   5  -4   12.00    7.70
  -9   4  -4   19.90    6.90
   4   5  -4   13.20    5.90
  -9   4  -4   23.10    8.20
  -4  -5   4   20.70    6.20
   9  -4   4   25.10    9.00
  -4  -5   4   19.20    5.20
   9  -4   4   26.60    7.40
   7   2  -4  362.16   19.40
   7   2  -4  337.57   13.70
  -9   7  -4  330.87   18.90
  -9   7  -4  330.97   18.20
   9  -7   4  333.37   16.80
  -7  -2   4  334.97   11.10
   9  -7   4  355.76   20.40
  -7  -2   4  337.07   10.10
  -9  10  -4  641.04   24.10
  10  -1  -4  598.14   19.20
  10  -1  -4  622.64   18.00
  -9  10  -4  604.14   25.80
   9 -10   4  634.14   27.60
   9 -10   4  643.04   23.30
  -9  13  -4 1471.45   38.50
  -9  13  -4 1436.56   41.90
  13  -4  -4 1437.26   32.60
   9 -13   4 1459.75   38.00
   9 -13   4 1472.95   43.80
  -7  -9  -4 2013.30   49.60
  -9  16  -4 1970.00   53.19
  -9  16  -4 1984.60   48.40
  16  -7  -4 2001.50   42.90
   9 -16   4 1942.41   53.79
   9 -16   4 1963.70   47.90
  -9  19  -4 1723.03   51.89
  19 -10  -4 1630.34   42.00
  -9  19  -4 1705.83   52.19
 -10  -9  -4 1683.43   50.19
   9 -19   4 1692.63   53.89
   9 -19   4 1571.04   47.90
  -6  16  -4 3209.08   71.89
  -6  16  -4 3365.06   65.29
  16 -10  -4 3318.97   58.39
 -10  -6  -4 3248.88   67.69
   6 -16   4 3253.67   65.09
   6 -16   4 3412.26   74.09
 -10  -3  -4 5543.75   91.49
  -3  13  -4 5464.55   87.59
  -3  13  -4 5359.36   96.59
  13 -10  -4 5369.76   77.99
  10   3   4 5432.46   86.69
   3 -13   4 5357.66   96.29
   3 -13   4 5319.07   86.49
   0  10  -4 4686.53   73.49
  10 -10  -4 4454.35   62.19
 -10   0  -4 4604.34   77.59
   0  10  -4 4461.95   82.29
  10 -10  -4 4451.15   63.69
  10   0   4 4517.35   74.39
   0 -10   4 4643.14   83.39
  10   0   4 4590.64   76.39
   0 -10   4 4486.35   72.29
   7 -10  -4 4475.35   60.39
 -10   3  -4 4616.04   76.29
   3   7  -4 4544.65   70.29
   3   7  -4 4522.15   80.69
  -3  -7   4 4725.63   81.89
  10  -3   4 4733.53   78.89
  -3  -7   4 4609.64   69.89
  -3  -7   4 4743.83   71.89
  10  -3   4 4605.64   75.19
 -10   6  -4 1611.64   38.30
   6   4  -4 1598.64   31.90
   6   4  -4 1624.64   41.20
 -10   6  -4 1507.95   38.30
   4 -10  -4 1590.04   35.10
  -6  -4   4 1592.64   30.80
  -6  -4   4 1611.74   29.40
  10  -6   4 1615.14   37.10
  10  -6   4 1633.54   40.80
   9   1  -4  735.63   27.00
   9   1  -4  747.53   20.10
 -10   9  -4  717.33   25.90
   9   1  -4  724.23   22.10
 -10   9  -4  696.33   27.00
  -1  10   4  716.63   13.10
  10  -9   4  737.83   25.00
  -9  -1   4  749.62   17.10
  10  -9   4  781.02   29.70
  12  -2  -4  323.67   15.80
 -10  12  -4  316.67   21.00
 -10  12  -4  310.07   19.70
 -12   2   4  273.87    9.20
  10 -12   4  264.57   17.50
 -12   2   4  277.07    8.40
  10 -12   4  293.97   22.00
 -10  15  -4  823.32   33.40
  15  -5  -4  759.22   24.90
 -10  15  -4  804.32   30.30
  -5 -10  -4  817.02   30.20
 -15   5   4  743.33   14.70
  10 -15   4  806.72   29.50
  10 -15   4  789.22   34.60
 -10  18  -4  922.41   35.20
  18  -8  -4  955.00   31.00
  -8 -10  -4  994.30   37.60
  10 -18   4 1014.80   35.70
  10 -18   4 1017.40   40.80
 -18   8   4  959.30   18.60
 -18   8   4  959.20   24.10
  21 -11  -4  403.06   24.80
 -10  21  -4  373.26   27.30
 -11 -10  -4  420.96   32.40
 -10  21  -4  366.66   28.70
 -21  11   4  364.76   13.00
  10 -21   4  399.96   32.90
  10 -21   4  425.46   27.20
 -21  11   4  378.56   12.10
  -7  18  -4 1204.28   66.19
 -11  -7  -4 1519.45   46.30
  -7  18  -4 1507.25   42.80
  18 -11  -4 1467.95   37.10
   7 -18   4 1421.46   48.00
   7 -18   4 1474.45   42.10
  15 -11  -4 1941.51   39.50
  -4  15  -4 1951.80   52.99
  -4  15  -4 2041.30   46.80
 -11  -4  -4 1953.90   49.50
   4 -15   4 1855.71   52.49
   4 -15   4 1951.20   45.70
  -1  12  -4 1605.64   38.30
  12 -11  -4 1631.84   32.20
  -1  12  -4 1567.74   44.90
 -11  -1  -4 1663.73   42.30
  12 -11  -4 1617.04   30.70
  11   1   4 1509.25   37.70
   1 -12   4 1456.05   43.60
   1 -12   4 1483.85   36.20
  11   1   4 1574.64   39.30
 -11   2  -4 1567.04   39.80
   9 -11  -4 1549.14   26.50
   2   9  -4 1605.54   36.00
   9 -11  -4 1654.53   38.00
   2   9  -4 1599.04   43.60
  11  -2   4 1667.83   38.90
  -2  -9   4 1635.44   43.80
  11  -2   4 1638.44   40.50
  -2  -9   4 1693.63   35.70
   5   6  -4 2233.08   50.89
 -11   5  -4 2060.89   46.10
   6 -11  -4 2081.59   35.80
 -11   5  -4 2230.78   47.40
   5   6  -4 2176.28   41.20
  -5  -6   4 2366.56   41.90
  11  -5   4 2378.26   51.49
  -5  -6   4 2393.76   43.80
  11  -5   4 2477.55   49.10
   3 -11  -4  270.77   11.80
 -11   8  -4  290.17   18.60
   8   3  -4  301.37   19.60
   8   3  -4  280.27   14.00
 -11   8  -4  272.87   18.20
  11  -8   4  216.28   18.50
  -8  -3   4  193.38   10.10
  11  -8   4  222.78   15.50
  -8  -3   4  224.48   12.10
  11   0  -4  946.21   26.70
 -11  11  -4  993.70   31.40
 -11  11  -4  938.01   32.50
 -11   0   4  927.91   19.10
  11 -11   4  901.11   33.50
   0  11   4  895.41   18.80
 -11   0   4  891.71   20.20
  11 -11   4  909.91   29.30
 -11  14  -4  224.98   20.30
 -11  14  -4  224.48   19.30
  14  -3  -4  206.78   15.40
 -14   3   4  170.18    9.70
  11 -14   4  167.78   16.40
  11 -14   4  218.88   21.70
 -14   3   4  186.58   10.70
 -11  17  -4  485.85   27.20
 -11  17  -4  467.55   28.00
  17  -6  -4  436.76   21.30
  -6 -11  -4  468.45   27.10
  11 -17   4  426.96   24.00
  11 -17   4  383.96   29.90
 -17   6   4  385.06   13.10
 -17   6   4  404.06   12.00
 -11  20  -4  224.58   23.70
  -9 -11  -4  242.68   27.40
  20  -9  -4  232.48   19.90
 -11  20  -4  232.68   25.40
 -20   9   4  209.38   10.30
  11 -20   4  220.38   22.30
 -20   9   4  214.38   11.60
  11 -20   4  197.78   27.60
 -12 -11  -4  368.06   34.30
  23 -12  -4  336.67   26.00
 -11  23  -4  312.57   28.10
 -11  23  -4  312.97   30.30
 -23  12   4  349.37   15.00
 -23  12   4  330.97   13.00
  11 -23   4  435.86   36.70
  11 -23   4  358.36   28.10
  -8  20  -4  373.36   29.80
  -8  20  -4  433.26   27.50
  20 -12  -4  393.36   22.90
   8 -20   4  333.27   24.20
   8 -20   4  394.56   31.40
  -5  17  -4  539.35   26.30
 -12  -5  -4  538.15   29.90
  17 -12  -4  527.65   21.70
  -5  17  -4  563.24   31.40
   5 -17   4  550.74   26.30
   5 -17   4  520.25   32.70
 -12  -2  -4  598.94   27.80
  -2  14  -4  592.74   29.50
  -2  14  -4  611.74   25.00
  14 -12  -4  564.24   19.10
  14 -12  -4  606.04   20.90
   2 -14   4  705.83   33.00
  12   2   4  760.12   28.30
   2 -14   4  741.33   26.90
  12   2   4  692.03   26.80
 -12   1  -4 1499.95   40.20
   1  11  -4 1494.55   36.30
  11 -12  -4 1475.95   28.60
  11 -12  -4 1453.65   28.30
   1  11  -4 1515.65   44.00
  -1 -11   4 1376.46   41.60
  12  -1   4 1381.76   37.40
  -1 -11   4 1374.36   33.80
  12  -1   4 1348.47   36.20
   4   8  -4 1263.77   31.20
   4   8  -4 1336.67   39.60
   8 -12  -4 1288.87   25.00
 -12   4  -4 1297.17   36.40
  -4  -8   4 1184.38   28.60
  -4  -8   4 1182.68   30.60
  12  -4   4 1142.39   32.70
  12  -4   4 1152.08   34.50
   7   5  -4  511.95   25.10
   7   5  -4  513.85   18.70
 -12   7  -4  478.25   22.20
   5 -12  -4  475.75   14.80
 -12   7  -4  510.55   23.30
  12  -7   4  460.95   21.20
  -7  -5   4  469.65   16.20
  -7  -5   4  468.45   17.90
  12  -7   4  471.05   24.20
  10   2  -4   56.89    9.50
 -12  10  -4   64.09   12.10
 -12  10  -4   53.59   10.80
  10   2  -4   58.69   12.20
  10   2  -4   66.29    9.10
   2 -12  -4   64.09    7.90
  12 -10   4   27.60    8.40
 -10  -2   4   48.30    7.60
  -2  12   4   46.10    4.80
  12 -10   4   52.79   12.00
 -10  -2   4   42.30    6.30
  13  -1  -4   87.09   11.10
  -1 -12  -4   78.89    9.80
 -12  13  -4   72.69   13.10
 -12  13  -4   83.29   13.40
  12 -13   4   59.69   11.10
   1  12   4   61.89    8.50
  12 -13   4   68.49   13.70
 -13   1   4   63.49    7.40
 -13   1   4   51.69    7.50
 -12  16  -4  319.07   23.40
  -4 -12  -4  370.06   19.00
 -12  16  -4  333.57   24.70
  16  -4  -4  356.16   19.60
 -16   4   4  350.66   12.40
 -16   4   4  365.86   14.20
  12 -16   4  363.56   22.50
  12 -16   4  372.86   28.50
  -7 -12  -4  478.45   29.90
  19  -7  -4  434.36   23.20
 -12  19  -4  370.26   28.40
 -19   7   4  463.45   16.10
  12 -19   4  443.56   26.30
  12 -19   4  395.76   36.70
 -19   7   4  457.85   14.50
 -12  22  -4  418.06   32.20
  22 -10  -4  430.46   26.70
 -12  22  -4  405.06   29.30
 -10 -12  -4  376.16   24.60
 -10 -12  -4  405.06   33.50
  12 -22   4  379.16   27.90
  12 -22   4  374.56   35.10
 -22  10   4  329.27   13.50
 -22  10   4  342.67   15.70
 -12  25  -4  181.88   23.40
  25 -13  -4  172.98   22.30
 -13 -12  -4  128.19   23.60
 -13 -12  -4  181.18   24.40
  12 -25   4  101.19   25.10
 -25  13   4  111.89   13.40
 -25  13   4   93.09    9.50
 -13  -9  -4  893.21   42.20
  -9  22  -4  875.11   41.90
  -9  22  -4  896.91   37.20
  22 -13  -4  862.71   33.90
   9 -22   4  847.82   44.40
 -22  13   4  734.33   16.90
   9 -22   4  768.52   34.90
 -22  13   4  678.33   19.20
  -6  19  -4 2928.61   71.49
 -13  -6  -4 2934.81   68.49
  19 -13  -4 2846.02   58.19
  19 -13  -4 2942.31   59.89
   6 -19   4 2732.53   94.79
   6 -19   4 2830.22   63.59
 -13  -3  -4 4476.65   85.49
  16 -13  -4 4586.94   74.49
  -3  16  -4 4665.33   81.49
  -3  16  -4 4490.55   90.29
  16 -13  -4 4583.54   73.89
   3 -16   4 4526.65   90.39
  13   3   4 4502.55   81.29
   3 -16   4 4452.05   80.39
   0  13  -4 4387.16   86.09
  13 -13  -4 4344.37   66.99
   0  13  -4 4530.55   76.49
 -13   0  -4 4595.64   82.39
  13 -13  -4 4376.66   67.59
   0 -13   4 4596.04   77.99
  13   0   4 4573.74   81.79
  13   0   4 4503.85   80.19
   0 -13   4 4740.63   88.69
 -13   3  -4 4633.14   81.89
  10 -13  -4 4672.73   67.39
  10 -13  -4 4543.55   63.69
   3  10  -4 4679.63   75.79
   3  10  -4 4589.74   86.49
  13  -3   4 4519.45   80.49
  13  -3   4 4470.45   78.49
  -3 -10   4 4620.54   74.09
   6   7  -4 3060.99   54.59
 -13   6  -4 3068.09   61.39
   7 -13  -4 3085.19   48.60
   6   7  -4 3089.19   65.09
  -6  -7   4 3097.89   55.29
  13  -6   4 3063.29   63.09
  13  -6   4 3121.89   60.29
  -6  -7   4 3065.39   52.79
 -13   9  -4  856.91   30.60
   4 -13  -4  873.41   22.10
   9   4  -4  903.51   32.50
   9   4  -4  877.81   24.90
 -13   9  -4  844.92   30.40
  13  -9   4  908.41   30.00
  -9  -4   4  912.01   24.70
  -9  -4   4  933.11   23.40
  13  -9   4  911.91   33.60
   1 -13  -4  246.48   13.90
 -13  12  -4  224.38   19.80
 -13  12  -4  233.98   19.20
  12   1  -4  229.68   16.20
  -1  13   4  227.38    9.70
  13 -12   4  198.38   20.90
  13 -12   4  209.88   17.50
 -12  -1   4  187.78   13.70
 -12  -1   4  208.68   11.30
  15  -2  -4   45.00   10.60
 -13  15  -4   64.69   13.50
  -2 -13  -4   56.89    9.50
 -13  15  -4   47.30   12.50
   2  13   4   50.09    7.80
 -15   2   4   43.00    7.90
  13 -15   4   59.39   12.10
 -15   2   4   55.29    6.80
  13 -15   4   56.99   14.70
 -13  18  -4  695.33   31.80
  -5 -13  -4  700.63   26.70
  18  -5  -4  726.33   28.50
 -13  18  -4  682.93   33.40
  13 -18   4  709.33   37.40
 -18   5   4  717.93   20.90
 -18   5   4  726.03   19.10
 -13  21  -4  371.46   28.80
 -13  21  -4  343.17   27.60
  -8 -13  -4  332.07   30.70
  -8 -13  -4  345.17   23.20
  21  -8  -4  324.87   23.40
 -21   8   4  313.47   16.20
  13 -21   4  370.66   32.80
 -21   8   4  329.47   14.00
  13 -21   4  358.76   26.60
 -11 -13  -4  184.48   26.60
 -13  24  -4  197.28   24.00
 -11 -13  -4  174.08   23.00
  24 -11  -4  166.58   21.90
 -24  11   4  146.29   11.70
  13 -24   4  154.98   24.80
 -24  11   4  152.28   14.70
  27 -14  -4  107.79   20.60
 -13  27  -4  124.29   23.60
  27 -14  -4  131.79   24.00
 -14 -13  -4   76.49   24.40
 -13  27  -4  155.98   24.50
 -14 -13  -4  107.19   19.50
  13 -27   4  131.79   28.20
 -27  14   4  121.69   15.10
 -27  14   4   97.59   12.20
  13 -27   4  119.69   22.00
 -14 -10  -4   74.39   22.80
 -10  24  -4   66.19   16.60
  24 -14  -4   66.99   24.50
  24 -14  -4   70.29   18.10
 -24  14   4  112.89    9.50
 -24  14   4  101.29   11.30
  10 -24   4  113.09   24.20
  -7  21  -4  271.67   25.50
  -7  21  -4  271.77   28.40
  21 -14  -4  268.77   24.00
  21 -14  -4  278.47   21.70
 -14  -7  -4  241.28   29.40
   7 -21   4  290.67   24.90
   7 -21   4  286.67   31.00
  18 -14  -4 1715.83   41.90
 -14  -4  -4 1705.43   50.39
  18 -14  -4 1651.23   40.30
  -4  18  -4 1693.43   46.40
  -4  18  -4 1731.33   53.09
   4 -18   4 1494.55   51.29
   4 -18   4 1514.95   47.00
  15 -14  -4 2062.59   41.40
 -14  -1  -4 2097.49   53.09
  -1  15  -4 1968.50   55.39
  15 -14  -4 2053.79   41.60
  -1  15  -4 2103.69   48.30
   1 -15   4 2089.99   48.20
  14   1   4 1980.10   49.30
  14   1   4 2128.59   50.89
   1 -15   4 2103.19   56.89
   2  12  -4  619.64   24.80
 -14   2  -4  585.24   27.70
   2  12  -4  638.24   30.40
  12 -14  -4  582.84   18.30
  12 -14  -4  598.24   19.00
  -2 -12   4  735.93   32.90
  14  -2   4  730.43   28.60
  -2 -12   4  689.33   25.10
  14  -2   4  748.13   29.60
   9 -14  -4  405.96   11.40
   9 -14  -4  391.66   14.60
   5   9  -4  400.26   19.50
   5   9  -4  367.16   23.90
 -14   5  -4  374.36   22.90
  14  -5   4  437.46   22.50
  -5  -9   4  445.36   18.90
  14  -5   4  436.56   24.40
  -5  -9   4  419.26   21.00
 -14   8  -4  611.34   27.10
 -14   8  -4  551.74   25.00
   6 -14  -4  585.24   18.30
   8   6  -4  617.54   21.80
   8   6  -4  589.94   28.30
  -8  -6   4  584.24   20.00
  14  -8   4  599.54   25.30
  -8  -6   4  602.14   22.20
  14  -8   4  606.54   28.40
 -14  11  -4  182.48   18.00
 -14  11  -4  238.58   20.30
   3 -14  -4  193.38   12.80
  11   3  -4  189.18   19.10
  11   3  -4  191.38   14.80
  -3  14   4  223.78    8.20
  14 -11   4  230.38   18.10
 -11  -3   4  215.18   14.90
  14 -11   4  205.18   20.90
 -11  -3   4  196.98   12.40
   0 -14  -4  155.88   13.50
  14   0  -4  161.18   16.40
 -14  14  -4  153.88   19.40
 -14  14  -4  163.48   19.60
 -14   0   4  100.79   10.10
 -14   0   4  113.39   12.70
  14 -14   4  121.29   18.10
   0  14   4  106.39    9.80
  14 -14   4  125.29   16.40
  -3 -14  -4  121.79   14.90
 -14  17  -4  106.29   19.40
 -14  17  -4  126.39   17.00
  17  -3  -4  125.19   15.00
 -17   3   4  116.19   10.40
  14 -17   4  110.39   15.40
  14 -17   4  141.49   21.60
   3  14   4  120.69   12.90
 -17   3   4  148.99   13.90
 -14  20  -4  379.56   29.50
  20  -6  -4  401.46   25.10
  -6 -14  -4  402.46   30.10
 -14  20  -4  368.96   28.20
  14 -20   4  409.16   26.30
  14 -20   4  366.16   32.70
 -20   6   4  352.56   14.90
 -20   6   4  317.17   16.90
  23  -9  -4   63.39   17.20
 -14  23  -4   63.29   18.70
  -9 -14  -4   56.99   13.50
 -14  23  -4   47.30   15.40
  -9 -14  -4   52.69   19.60
 -23   9   4   57.49   10.60
 -23   9   4   78.79    9.20
  14 -23   4   62.59   20.20
  14 -23   4   59.69   15.30
 -12 -14  -4   75.49   16.50
 -14  26  -4   64.39   17.60
 -12 -14  -4   61.29   25.00
  26 -12  -4   60.79   17.00
 -26  12   4   49.10    8.80
  14 -26   4  110.79   27.00
  14 -26   4   71.39   29.30
 -26  12   4   81.89   11.50
 -15 -14  -4   12.90   17.00
 -14  29  -4  -29.30   22.00
 -14  29  -4   -9.40   18.40
  29 -15  -4    4.10   20.80
  29 -15  -4  -35.50   17.90
 -15 -14  -4   53.89   27.30
 -29  15   4   -0.40    8.10
  14 -29   4  -27.10   29.00
 -29  15   4   10.50    9.90
  14 -29   4   -9.20   20.50
 -11  26  -4  151.38   23.40
  26 -15  -4  133.39   22.50
 -15 -11  -4  116.09   18.50
 -15 -11  -4  120.69   25.80
  26 -15  -4  117.59   19.90
 -26  15   4  128.99   13.60
 -26  15   4  117.29   10.90
  11 -26   4  144.69   27.60
 -15  -8  -4  563.94   38.50
  23 -15  -4  562.74   29.60
  -8  23  -4  595.74   36.70
  23 -15  -4  618.04   33.30
  -8  23  -4  597.24   33.50
   8 -23   4  603.14   33.00
   8 -23   4  567.84   41.10
  20 -15  -4  304.87   23.50
 -15  -5  -4  300.67   29.00
  -5  20  -4  255.17   26.10
  20 -15  -4  293.67   21.50
  -5  20  -4  322.07   25.80
   5 -20   4  314.07   25.20
   5 -20   4  327.27   31.80
  17 -15  -4  202.18   16.10
  -2  17  -4  234.38   21.20
  17 -15  -4  208.38   17.50
 -15  -2  -4  215.48   23.80
  -2  17  -4  197.28   23.60
  15   2   4  173.88   20.10
   2 -17   4  179.88   18.90
  15   2   4  197.38   21.20
   2 -17   4  205.48   26.00
   1  14  -4 1450.35   46.90
  14 -15  -4 1488.75   33.80
  14 -15  -4 1514.75   33.10
   1  14  -4 1459.05   39.30
 -15   1  -4 1524.05   44.90
  15  -1   4 1410.96   41.30
  -1 -14   4 1492.85   47.70
  -1 -14   4 1540.95   39.90
  15  -1   4 1511.15   43.80
 -15   4  -4 2147.39   52.99
   4  11  -4 2204.88   47.00
  11 -15  -4 2154.08   36.80
   4  11  -4 2188.08   56.19
  11 -15  -4 2181.08   40.60
  15  -4   4 1970.70   48.40
  15  -4   4 1994.70   50.19
  -4 -11   4 2030.90   44.20
   7   8  -4 1022.10   29.70
   8 -15  -4  982.00   24.70
 -15   7  -4  984.00   34.70
   7   8  -4 1027.10   37.40
  15  -7   4  982.40   35.60
  -7  -8   4  997.10   28.00
  -7  -8   4  983.80   30.20
  15  -7   4  993.70   32.90
 -15  10  -4  660.63   28.50
   5 -15  -4  755.42   22.10
  10   5  -4  734.33   31.70
 -15  10  -4  717.13   30.50
  10   5  -4  751.12   25.10
 -10  -5   4  712.03   22.40
 -10  -5   4  718.33   24.50
  15 -10   4  692.73   31.50
  15 -10   4  763.72   29.50
   2 -15  -4  101.49   11.70
  13   2  -4   58.59   11.00
 -15  13  -4   70.09   13.30
 -15  13  -4   89.49   15.10
 -13  -2   4  103.79   10.90
  15 -13   4   58.69   13.90
  15 -13   4   92.69   14.50
 -13  -2   4  107.29   12.10
  -2  15   4  100.89    9.10
  16  -1  -4   63.49   12.00
  -1 -15  -4   66.49   10.80
 -15  16  -4   60.19   14.50
  15 -16   4   75.69   16.20
 -16   1   4   69.99   10.70
 -16   1   4   77.49   10.40
   1  15   4   73.49    9.40
  15 -16   4   57.39   13.10
  19  -4  -4   27.30   11.00
  -4 -15  -4   27.90    9.70
 -15  19  -4   32.60   14.70
 -15  19  -4   16.10   13.30
  15 -19   4    8.20   12.00
 -19   4   4   14.20    6.30
   4  15   4   -6.30    7.90
  15 -19   4   17.10   15.20
 -19   4   4   16.00    8.70
  -7 -15  -4   81.09   19.90
  22  -7  -4   63.39   15.50
 -15  22  -4   65.89   15.50
  -7 -15  -4   58.99   13.10
 -15  22  -4   60.49   16.70
  15 -22   4   60.09   14.40
  15 -22   4   59.09   20.00
 -22   7   4   44.10   10.40
 -22   7   4   46.50    8.70
 -10 -15  -4  289.57   25.90
 -10 -15  -4  303.37   37.40
  25 -10  -4  341.57   28.60
 -15  25  -4  294.17   30.90
  15 -25   4  302.37   38.00
 -25  10   4  263.27   15.40
 -25  10   4  283.67   19.00
 -15  28  -4  126.69   23.20
 -15  28  -4  108.49   26.10
 -13 -15  -4  115.09   27.70
 -13 -15  -4  159.68   22.50
  28 -13  -4   87.89   20.40
  15 -28   4  113.59   28.90
 -28  13   4  142.39   17.70
  15 -28   4  140.59   25.60
 -28  13   4   97.39   11.10
 -16 -15  -4  207.28   37.70
  31 -16  -4  160.98   29.20
 -16 -15  -4  111.39   19.10
  31 -16  -4  176.48   31.10
 -15  31  -4  174.08   30.10
 -15  31  -4  169.58   31.90
  15 -31   4  130.99   38.50
  15 -31   4  118.19   23.00
 -31  16   4  147.39   15.90
 -31  16   4  156.48   17.70
 -12  28  -4   23.30   21.30
  28 -16  -4   11.20   17.60
  28 -16  -4   82.59   22.70
 -12  28  -4   40.10   19.20
 -16 -12  -4   69.29   17.60
 -16 -12  -4   26.60   26.10
 -28  16   4   70.29   10.80
 -28  16   4   55.49    8.50
  12 -28   4   42.20   27.30
  12 -28   4   63.99   19.60
 -16  -9  -4  201.48   29.30
  25 -16  -4  185.58   38.70
  25 -16  -4  209.48   25.60
  -9  25  -4  176.38   21.80
 -25  16   4  186.08   11.80
 -25  16   4  150.18    9.90
   9 -25   4  224.98   30.70
  22 -16  -4  522.55   27.80
 -16  -6  -4  486.85   35.70
  22 -16  -4  507.05   29.80
  -6  22  -4  508.75   34.60
  -6  22  -4  461.65   29.60
   6 -22   4  446.56   37.60
   6 -22   4  501.25   30.70
  -3  19  -4 2056.79   60.19
 -16  -3  -4 2131.29   58.89
  19 -16  -4 2092.29   48.10
  19 -16  -4 2094.69   48.20
  -3  19  -4 2122.29   53.29
   3 -19   4 2060.69   61.19
   3 -19   4 2107.69   53.69
   0  16  -4 2675.43   66.89
   0  16  -4 2605.94   56.69
  16 -16  -4 2545.45   49.70
  16 -16  -4 2518.15   50.19
 -16   0  -4 2553.34   62.19
  16   0   4 2452.95   57.49
   0 -16   4 2299.97   62.29
  16   0   4 2487.25   58.69
   0 -16   4 2381.26   54.39
  13 -16  -4 4777.52   75.59
   3  13  -4 4797.12   82.39
 -16   3  -4 4945.71   90.79
   3  13  -4 5031.50   95.89
  13 -16  -4 4823.12   72.49
  16  -3   4 4844.62   89.39
  -3 -13   4 4877.51   83.09
  16  -3   4 4872.21   88.09
 -16   6  -4 2966.40   64.69
   6  10  -4 2964.10   68.59
  10 -16  -4 2934.81   51.79
   6  10  -4 3127.79   58.49
  10 -16  -4 3008.70   44.90
  16  -6   4 3041.70   63.79
  16  -6   4 3068.29   66.29
  -6 -10   4 2974.00   59.69
  -6 -10   4 2977.90   56.99
 -16   9  -4 2079.49   51.79
   7 -16  -4 1981.40   40.20
   9   7  -4 2075.49   44.90
   9   7  -4 2078.89   54.89
  16  -9   4 2108.29   53.99
  -9  -7   4 2029.10   42.70
  16  -9   4 2054.29   50.79
  -9  -7   4 2110.09   45.80
   4 -16  -4  155.18   13.30
 -16  12  -4  155.88   17.90
 -16  12  -4  174.28   21.40
  12   4  -4  143.59   19.40
  -4  16   4  142.99    8.30
  16 -12   4  137.39   17.40
 -12  -4   4  160.58   16.40
  16 -12   4  135.29   18.00
 -12  -4   4  135.09   12.80
 -16  15  -4   51.19   14.00
   1 -16  -4   65.09   10.70
  15   1  -4   46.90   11.80
  16 -15   4   42.80   14.50
 -15  -1   4   44.30    8.20
  16 -15   4   43.90   11.80
  -1  16   4   37.00    7.10
 -15  -1   4   49.30   10.60
 -16  18  -4  146.49   18.90
  18  -2  -4  170.48   19.10
  -2 -16  -4  166.88   16.90
 -16  18  -4  211.08   24.00
  16 -18   4  202.98   25.00
 -18   2   4  225.68   17.60
   2  16   4  211.98   15.60
  16 -18   4  245.08   22.50
 -18   2   4  215.08   14.20
 -16  21  -4  247.28   26.60
 -16  21  -4  224.18   26.50
  21  -5  -4  207.78   23.00
  -5 -16  -4  225.48   20.80
 -21   5   4  200.18   18.20
  16 -21   4  147.59   18.80
 -21   5   4  188.68   14.00
  16 -21   4  223.28   30.90
   5  16   4  171.68   18.50
 -16  24  -4  586.84   36.40
  -8 -16  -4  593.44   40.80
  -8 -16  -4  612.24   30.70
  24  -8  -4  630.54   35.30
 -24   8   4  509.65   19.90
  16 -24   4  551.94   41.90
 -24   8   4  505.55   23.30
   8  16   4  518.55   28.80
 -16  27  -4  200.48   27.20
  27 -11  -4  206.18   25.40
 -11 -16  -4  176.08   28.70
 -16  27  -4  182.08   24.10
 -11 -16  -4  166.18   20.60
 -27  11   4  198.88   15.50
 -27  11   4  207.58   19.10
  16 -27   4  238.18   31.70
  16 -27   4  212.68   31.20
 -16  30  -4  154.18   27.40
 -14 -16  -4  138.29   23.40
  30 -14  -4  142.39   25.70
  30 -14  -4  184.38   30.10
 -14 -16  -4   81.29   30.50
 -16  30  -4  173.98   29.30
  16 -30   4  156.98   36.60
 -30  14   4  123.09   16.10
 -30  14   4  145.89   15.30
  16 -30   4  134.49   25.90
 -13  30  -4   37.20   25.90
 -17 -13  -4   76.09   30.10
 -17 -13  -4   84.09   22.40
  30 -17  -4   60.49   23.10
  30 -17  -4   84.49   24.60
 -13  30  -4   81.09   24.50
 -30  17   4   67.89   11.30
  13 -30   4   98.39   33.40
  13 -30   4   57.29   22.00
 -30  17   4   70.49   10.30
  27 -17  -4  103.09   20.50
  27 -17  -4   88.89   21.20
 -10  27  -4  111.19   25.40
 -17 -10  -4   81.39   24.50
 -10  27  -4  125.89   22.00
  10 -27   4   94.69   22.50
  10 -27   4  119.79   28.00
 -27  17   4  102.59   10.50
 -27  17   4  112.59   12.70
  -7  24  -4   45.70   16.60
 -17  -7  -4   57.29   21.00
  24 -17  -4   50.59   16.40
   7 -24   4   83.39   24.00
  21 -17  -4  427.16   25.20
  -4  21  -4  389.66   31.30
  -4  21  -4  397.96   28.70
 -17  -4  -4  469.85   33.90
  21 -17  -4  395.76   25.70
   4 -21   4  469.45   29.30
   4 -21   4  478.25   37.00
  18 -17  -4  671.93   26.60
  -1  18  -4  746.53   32.10
  18 -17  -4  752.82   28.30
  -1  18  -4  717.33   37.20
 -17  -1  -4  772.12   37.40
   1 -18   4  764.52   39.30
   1 -18   4  689.23   31.00
  17   1   4  740.83   33.80
  17   1   4  765.32   35.70
  15 -17  -4  152.68   14.60
   2  15  -4  157.38   18.90
   2  15  -4  136.39   19.50
  15 -17  -4  140.29   14.90
 -17   2  -4  162.78   20.40
  17  -2   4  165.48   20.80
  17  -2   4  138.09   18.00
  -2 -15   4  132.39   17.60
 -17   5  -4  614.24   30.80
   5  12  -4  630.84   35.10
  12 -17  -4  609.44   19.30
   5  12  -4  620.54   26.40
  12 -17  -4  588.54   21.50
  -5 -12   4  665.63   26.00
  17  -5   4  635.64   29.60
  17  -5   4  664.43   31.40
  -5 -12   4  632.84   28.50
   9 -17  -4  180.28   10.10
   8   9  -4  202.48   17.70
 -17   8  -4  209.98   22.30
   9 -17  -4  191.78   14.00
   8   9  -4  185.78   22.10
  -8  -9   4  197.28   15.90
  17  -8   4  219.28   19.50
  -8  -9   4  183.68   18.70
  17  -8   4  197.58   22.20
  11   6  -4  384.96   26.60
 -17  11  -4  392.16   24.60
  11   6  -4  386.46   21.20
 -17  11  -4  405.16   27.30
   6 -17  -4  393.76   18.50
 -11  -6   4  333.67   20.90
  17 -11   4  326.57   22.90
  -6  17   4  350.46   10.70
 -11  -6   4  333.57   18.00
  17 -11   4  344.87   26.60
 -17  14  -4  328.67   25.30
   3 -17  -4  357.16   19.20
 -17  14  -4  359.56   25.50
 -14  -3   4  329.07   20.10
 -14  -3   4  307.67   16.40
  -3  17   4  319.57   13.30
  17 -14   4  338.27   27.20
  17 -14   4  306.97   23.60
   0 -17  -4   14.10    8.50
  17   0  -4   -2.50    9.80
 -17  17  -4   12.30   14.80
 -17  17  -4   19.10   12.20
  17 -17   4    4.50   10.60
 -17   0   4   16.30    7.40
   0  17   4   15.50    7.00
  17 -17   4   35.60   19.20
 -17   0   4   23.40    9.90
 -17  20  -4  405.16   29.70
 -17  20  -4  376.56   29.20
  -3 -17  -4  385.46   23.10
  20  -3  -4  356.76   25.80
   3  17   4  350.66   20.50
 -20   3   4  345.97   21.30
  17 -20   4  429.36   34.40
 -20   3   4  363.66   18.00
  17 -20   4  383.56   28.00
  23  -6  -4  150.18   20.10
 -17  23  -4  161.08   22.60
  -6 -17  -4  179.38   21.10
  -6 -17  -4  162.98   25.80
 -23   6   4  163.48   19.20
   6  17   4  157.98   20.50
 -23   6   4  112.99   14.30
  17 -23   4  125.79   24.50
  -9 -17  -4   93.89   26.10
  26  -9  -4   83.69   19.40
 -17  26  -4   69.79   19.30
 -26   9   4   67.79   13.30
 -26   9   4   54.19    9.80
  17 -26   4   47.00   18.90
   9  17   4   48.60   16.20
  17 -26   4   53.09   24.30
 -17  29  -4   47.50   22.10
 -12 -17  -4   99.29   30.30
 -17  29  -4   79.59   24.40
 -12 -17  -4   48.00   18.00
  29 -12  -4   98.19   21.90
 -29  12   4   58.09   13.30
 -29  12   4   56.69   10.80
  12  17   4   54.79   19.30
  17 -29   4   31.40   20.10
  17 -29   4   43.30   29.10
 -18 -11  -4  102.09   30.50
 -11  29  -4  108.59   23.00
 -18 -11  -4  144.39   22.20
  29 -18  -4  138.19   27.60
 -11  29  -4  118.39   27.10
  29 -18  -4  130.49   24.30
 -29  18   4  140.49   13.90
  11 -29   4  185.88   27.30
 -29  18   4  104.29   11.90
  11 -29   4   72.49   32.70
  26 -18  -4   63.29   17.20
  26 -18  -4   39.60   18.50
  -8  26  -4   27.20   27.10
 -18  -8  -4   47.10   24.20
  -8  26  -4   45.80   17.60
   8 -26   4   95.79   27.40
   8 -26   4  125.09   20.40
  -5  23  -4   92.09   17.60
  23 -18  -4  103.49   16.40
  23 -18  -4   81.09   17.10
 -18  -5  -4   82.49   20.90
   5 -23   4   57.09   22.30
  -2  20  -4  234.28   27.50
  20 -18  -4  239.58   22.30
  -2  20  -4  250.67   24.70
  20 -18  -4  245.08   20.50
 -18  -2  -4  233.48   26.70
   2 -20   4  210.58   22.60
  18   2   4  166.18   36.60
   2 -20   4  159.78   23.70
  18   2   4  131.49   19.00
   1  17  -4  672.33   36.00
  17 -18  -4  733.83   26.50
  17 -18  -4  679.33   26.50
 -18   1  -4  701.63   36.60
   1  17  -4  691.83   31.10
  18  -1   4  720.43   35.40
  -1 -17   4  667.53   30.90
  18  -1   4  633.14   32.20
  14 -18  -4 1454.85   36.20
  14 -18  -4 1516.75   33.70
   4  14  -4 1543.65   50.19
 -18   4  -4 1458.45   48.30
   4  14  -4 1578.44   42.20
  18  -4   4 1252.67   48.60
  -4 -14   4 1401.06   39.40
  18  -4   4 1413.36   45.50
  11 -18  -4 1360.76   27.70
   7  11  -4 1317.57   48.10
  11 -18  -4 1355.46   34.00
 -18   7  -4 1351.86   44.50
   7  11  -4 1411.66   38.90
  18  -7   4 1366.66   42.20
  -7 -11   4 1318.27   36.80
  -7 -11   4 1346.77   40.10
  18  -7   4 1315.97   44.20
 -18  10  -4  686.03   33.60
  10   8  -4  716.03   27.70
   8 -18  -4  666.13   23.80
 -10  -8   4  784.02   26.60
 -10  -8   4  769.12   29.70
  18 -10   4  735.23   31.80
  -8  18   4  701.33   15.90
  18 -10   4  726.23   35.20
  13   5  -4  561.44   32.80
 -18  13  -4  563.44   29.30
 -18  13  -4  595.34   31.00
   5 -18  -4  551.64   22.90
 -13  -5   4  579.84   22.80
  18 -13   4  625.04   34.40
 -13  -5   4  579.54   25.80
  16   2  -4   95.09   15.20
   2 -18  -4   80.59   12.10
 -18  16  -4   60.19   16.50
 -18  16  -4   64.99   13.70
  18 -16   4   88.59   18.60
  -2  18   4   92.69   11.20
 -16  -2   4  116.59   12.80
 -16  -2   4   98.39   14.40
  18 -16   4  110.09   17.50
  19  -1  -4   -4.30   11.10
 -18  19  -4    7.20   12.60
 -18  19  -4  -27.90   12.50
   1  18   4   20.60    8.60
  18 -19   4   -8.70   14.00
 -19   1   4   -4.20   10.00
  18 -19   4    7.30   11.00
 -19   1   4    4.60    7.60
  -4 -18  -4    0.50   10.40
 -18  22  -4   21.70   16.10
 -18  22  -4   24.80   15.00
  22  -4  -4  -15.70   11.70
 -22   4   4   28.20    9.10
  18 -22   4   18.30   13.10
 -22   4   4   25.80   12.00
  18 -22   4   22.00   17.60
   4  18   4   30.20   11.50
 -18  25  -4  210.88   27.30
  -7 -18  -4  188.08   23.20
  25  -7  -4  151.98   20.80
  -7 -18  -4  195.28   28.90
 -25   7   4  132.49   15.80
   7  18   4  137.89   17.80
  18 -25   4  139.19   27.50
 -25   7   4  157.18   20.50
 -18  28  -4  110.69   23.10
 -18  28  -4   89.79   24.90
  28 -10  -4  107.99   23.60
 -10 -18  -4   44.20   17.30
 -10 -18  -4   37.60   27.70
 -28  10   4   61.79   10.80
 -28  10   4   71.39   14.20
  18 -28   4  121.19   29.30
  18 -28   4   81.79   22.90
  10  18   4   86.89   18.90
  31 -13  -4  341.27   37.20
  31 -13  -4  477.45   51.19
 -18  31  -4  442.56   43.70
 -13 -18  -4  449.76   57.59
 -13 -18  -4  356.56   32.00
 -18  31  -4  413.16   47.10
  18 -31   4  361.86   44.30
 -31  13   4  359.36   21.30
  18 -31   4  345.17   42.00
 -31  13   4  431.06   25.00
 -19 -12  -4   13.90   30.90
 -12  31  -4  -26.50   25.20
 -12  31  -4   42.30   24.20
  31 -19  -4   29.20   26.60
 -19 -12  -4  107.89   32.90
  31 -19  -4    6.90   23.10
  12 -31   4   33.60   22.80
 -31  19   4   19.10    8.40
 -31  19   4   20.30    8.00
  12 -31   4   12.40   33.80
  -9  28  -4  209.58   28.00
  28 -19  -4  156.68   24.30
  28 -19  -4  206.38   26.90
  -9  28  -4  190.28   28.70
 -19  -9  -4  232.68   34.80
   9 -28   4  182.48   33.00
   9 -28   4  213.98   27.10
  -6  25  -4  306.77   31.00
  25 -19  -4  345.67   28.30
 -19  -6  -4  346.27   38.50
  25 -19  -4  307.07   30.20
   6 -25   4  324.07   39.90
  22 -19  -4  539.45   30.40
 -19  -3  -4  545.55   39.30
  -3  22  -4  488.25   30.90
  22 -19  -4  577.64   29.20
   3 -22   4  716.43   34.70
   3 -22   4  650.03   43.20
  19 -19  -4  681.73   28.50
   0  19  -4  666.23   38.30
   0  19  -4  697.83   33.20
  19 -19  -4  675.33   28.10
 -19   0  -4  650.03   38.20
  19   0   4  629.24   33.50
  19   0   4  646.74   35.80
   0 -19   4  574.14   30.40
   3  16  -4 2020.00   50.39
  16 -19  -4 1900.31   44.90
  16 -19  -4 2011.20   43.10
   3  16  -4 1931.41   58.89
 -19   3  -4 1984.10   57.59
  -3 -16   4 1690.03   57.99
  19  -3   4 1883.41   63.89
  19  -3   4 1979.80   53.99
  13 -19  -4 2620.64   52.39
  13 -19  -4 2673.43   46.70
   6  13  -4 2654.63   68.59
   6  13  -4 2578.54   56.89
  19  -6   4 2682.33   65.99
  19  -6   4 2679.83   63.89
  -6 -13   4 2699.53   61.79
  -6 -13   4 2724.43   58.19
  10 -19  -4 1045.20   30.70
   9  10  -4 1115.09   43.50
 -19   9  -4 1063.49   44.40
   9  10  -4 1087.29   34.80
  10 -19  -4 1054.99   23.70
  -9 -10   4 1199.08   34.70
  19  -9   4 1073.59   40.80
  19  -9   4 1172.98   43.60
  -9 -10   4 1114.19   37.60
  12   7  -4  191.58   24.20
   7 -19  -4  183.08   16.20
 -12  -7   4  193.78   16.90
  19 -12   4  175.18   21.20
  19 -12   4  236.28   40.80
 -12  -7   4  185.68   20.80
   4 -19  -4   71.29   12.00
 -19  15  -4   59.19   15.00
 -19  15  -4   38.40   13.00
 -15  -4   4   50.19   12.70
  19 -15   4   65.09   17.50
  -4  19   4   39.30    7.40
 -15  -4   4   53.09   10.20
  19 -15   4   41.90   13.30
   1 -19  -4   34.30   11.00
  18   1  -4   67.79   20.60
 -19  18  -4   46.80   15.10
 -19  18  -4   41.60   14.30
 -18  -1   4   62.39   13.60
  19 -18   4   49.40   14.30
  -1  19   4   27.70    8.40
 -18  -1   4   55.49   10.60
  19 -18   4   50.49   17.90
  21  -2  -4  176.18   22.20
 -19  21  -4  105.19   18.40
 -19  21  -4  200.98   26.70
  -2 -19  -4  113.79   16.30
 -21   2   4  117.49   15.60
  19 -21   4  137.09   24.00
 -21   2   4  155.78   17.30
   2  19   4  132.99   17.60
  19 -21   4  142.49   21.00
  24  -5  -4   97.59   19.90
  -5 -19  -4  116.29   17.10
 -19  24  -4   75.49   19.90
  19 -24   4  140.99   26.60
 -24   5   4  127.99   16.80
   5  19   4  127.39   17.10
 -24   5   4  128.39   16.40
  -8 -19  -4  333.27   38.00
  27  -8  -4  268.07   32.80
  -8 -19  -4  305.87   28.10
 -19  27  -4  315.57   36.30
 -19  27  -4  284.47   35.90
  19 -27   4  197.58   25.90
 -27   8   4  199.68   18.10
   8  19   4  197.38   27.70
  19 -27   4  229.68   33.00
 -27   8   4  266.07   23.20
 -19  30  -4  154.68   26.20
  30 -11  -4  235.48   31.60
 -11 -19  -4  195.58   34.80
 -11 -19  -4  146.29   23.20
 -30  11   4  149.19   19.00
 -30  11   4  150.78   17.70
  19 -30   4  110.29   22.50
  19 -30   4  165.08   35.90
  11  19   4  184.68   24.80
 -20 -10  -4   30.20   29.80
 -10  30  -4   -2.90   18.80
  30 -20  -4   16.60   24.10
 -10  30  -4   52.89   26.00
  30 -20  -4   49.70   21.20
 -20 -10  -4   40.30   17.80
 -30  20   4    7.40    6.90
  10 -30   4   33.10   23.10
  10 -30   4   29.70   33.60
  -7  27  -4   89.99   19.50
  27 -20  -4   95.89   20.00
  -7  27  -4   73.49   24.80
  27 -20  -4  112.89   22.60
 -20  -7  -4  117.79   29.80
   7 -27   4   51.49   19.80
   7 -27   4  102.69   28.30
 -20  -4  -4  277.47   32.90
  -4  24  -4  318.17   30.20
  24 -20  -4  295.37   27.30
  24 -20  -4  288.47   29.30
   4 -24   4  336.27   39.10
  -1  21  -4  228.98   27.70
  21 -20  -4  223.48   21.90
  21 -20  -4  211.88   23.50
 -20  -1  -4  230.28   28.00
  20   1   4  314.37   31.80
  20   1   4  268.87   27.50
   1 -21   4  251.47   26.20
 -20   2  -4  274.77   31.10
  18 -20  -4  261.67   20.70
   2  18  -4  250.47   28.30
   2  18  -4  287.57   25.30
  18 -20  -4  306.87   21.30
  20  -2   4  211.18   24.80
  20  -2   4  172.48   22.20
  -2 -18   4  180.38   22.00
 -20   5  -4  224.68   29.10
  15 -20  -4  216.48   17.60
   5  15  -4  185.08   25.50
  15 -20  -4  219.88   18.20
   5  15  -4  246.88   22.70
  -5 -15   4  240.78   26.90
  20  -5   4  233.58   24.70
  -5 -15   4  194.08   24.90
  20  -5   4  268.67   27.20
  12 -20  -4  235.18   18.10
  12 -20  -4  226.48   15.20
 -20   8  -4  268.67   27.70
   8  12  -4  285.27   26.90
  20  -8   4  236.68   23.10
  -8 -12   4  229.08   19.90
  20  -8   4  203.98   26.40
  -8 -12   4  230.08   24.60
  11   9  -4  200.18   25.80
 -20  11  -4  185.68   25.30
   9 -20  -4  244.18   18.20
  11   9  -4  202.18   20.80
 -11  -9   4  197.08   18.10
  20 -11   4  210.48   26.40
  -9  20   4  180.18   10.80
 -11  -9   4  197.88   22.80
  20 -11   4  156.98   19.40
  14   6  -4  325.77   27.60
   6 -20  -4  290.67   20.10
 -20  14  -4  304.07   28.30
 -14  -6   4  321.27   19.80
 -14  -6   4  322.67   24.00
  20 -14   4  274.77   29.20
  20 -14   4  287.67   24.60
  -6  20   4  308.87   14.10
   3 -20  -4  392.16   23.40
 -20  17  -4  382.56   30.00
  20 -17   4  405.86   27.90
 -17  -3   4  377.76   20.70
  -3  20   4  371.96   17.40
  20 -17   4  362.86   33.20
 -17  -3   4  394.36   25.70
 -20  20  -4  334.57   31.40
   0 -20  -4  342.37   24.20
  20   0  -4  268.57   27.00
 -20  20  -4  278.17   29.50
 -20   0   4  459.95   22.00
  20 -20   4  496.25   31.80
  20 -20   4  414.56   35.70
 -20   0   4  404.26   26.20
   0  20   4  415.26   21.30
  23  -3  -4  125.59   20.70
  -3 -20  -4   91.89   16.90
 -20  23  -4   80.89   19.80
 -23   3   4   56.69   14.80
 -23   3   4   59.29   11.50
   3  20   4   63.29   13.60
  20 -23   4   77.09   24.10
  26  -6  -4  426.66   36.20
  -6 -20  -4  462.55   31.30
 -20  26  -4  480.55   38.80
  -6 -20  -4  450.45   43.20
 -20  26  -4  559.84   42.90
   6  20   4  423.86   29.50
  20 -26   4  326.97   44.20
 -26   6   4  392.06   22.20
  20 -26   4  429.36   36.40
 -26   6   4  407.06   27.10
  -9 -20  -4  366.76   41.10
  29  -9  -4  363.66   38.70
 -20  29  -4  414.56   40.40
 -20  29  -4  311.97   43.20
  -9 -20  -4  284.27   32.00
   9  20   4  298.67   33.40
 -29   9   4  348.27   27.30
 -29   9   4  305.67   20.90
  20 -29   4  221.58   28.60
  20 -29   4  380.56   51.59
  29 -21  -4   83.69   25.80
  29 -21  -4   74.19   22.10
  -8  29  -4   81.19   25.20
 -21  -8  -4  113.19   34.20
  -8  29  -4   42.20   23.50
   8 -29   4   48.60   22.30
   8 -29   4  110.69   33.80
  26 -21  -4  135.99   21.90
  26 -21  -4  114.69   41.10
  -5  26  -4  142.49   23.80
 -21  -5  -4   95.99   28.20
  -5  26  -4   85.19   23.20
   5 -26   4   89.29   28.10
   5 -26   4   87.09   20.80
  -2  23  -4  175.68   22.00
  23 -21  -4  186.68   24.10
  23 -21  -4  186.18   21.90
 -21  -2  -4  158.78   26.20
  21   2   4  182.38   28.00
  20 -21  -4  191.88   22.10
 -21   1  -4  151.18   23.90
   1  20  -4  195.28   26.20
  20 -21  -4  165.38   18.40
  -1 -20   4  223.48   24.80
  21  -1   4  239.78   30.90
  21  -1   4  224.08   27.10
 -21   4  -4  578.54   38.10
  17 -21  -4  588.84   25.90
  17 -21  -4  595.14   27.30
   4  17  -4  609.94   31.20
   4  17  -4  546.05   35.90
  -4 -17   4  630.14   30.70
  21  -4   4  619.84   36.60
  21  -4   4  674.23   35.50
 -21   7  -4  234.08   27.80
  14 -21  -4  228.08   19.40
  14 -21  -4  223.38   17.50
   7  14  -4  225.18   22.90
  -7 -14   4  217.78   21.30
  21  -7   4  211.08   28.10
  -7 -14   4  287.27   27.80
  21  -7   4  292.27   26.10
  10  11  -4  407.76   26.30
  10  11  -4  323.47   28.30
  11 -21  -4  459.45   18.40
 -21  10  -4  418.56   30.60
  11 -21  -4  436.86   23.40
 -10 -11   4  541.75   26.20
  21 -10   4  475.35   29.20
  21 -10   4  512.65   34.00
 -10 -11   4  517.75   30.60
   8 -21  -4  466.55   23.90
  13   8  -4  422.86   32.10
 -21  13  -4  466.55   33.10
  -8  21   4  486.15   16.70
  21 -13   4  489.05   30.10
 -13  -8   4  535.85   25.40
 -13  -8   4  540.95   29.30
  21 -13   4  478.95   34.90
   5 -21  -4  216.58   20.00
 -21  16  -4  222.08   27.40
 -16  -5   4  228.48   23.80
 -16  -5   4  214.08   19.00
  21 -16   4  242.58   30.40
  21 -16   4  158.48   19.80
  -5  21   4  232.78   14.20
  19   2  -4   24.40   14.10
 -21  19  -4   87.79   18.60
   2 -21  -4   44.70   12.80
  -2  21   4   85.69   12.00
 -19  -2   4   58.29   16.00
  21 -19   4  102.39   22.30
  21 -19   4   93.49   18.40
 -19  -2   4   94.99   13.40
  -1 -21  -4    0.80   12.40
 -21  22  -4   21.80   17.20
  22  -1  -4    0.00   14.90
 -22   1   4    3.50   10.00
   1  21   4    2.00   10.90
  21 -22   4  -10.00   17.90
 -22   1   4    1.40   13.60
  25  -4  -4  309.97   32.80
  -4 -21  -4  285.27   28.60
 -21  25  -4  295.17   34.10
 -21  25  -4  270.57   31.50
  21 -25   4  215.48   27.60
  21 -25   4  268.77   35.50
 -25   4   4  241.08   20.40
   4  21   4  267.27   24.90
 -25   4   4  248.88   26.50
 -21  28  -4  130.89   27.40
  -7 -21  -4  121.49   21.90
 -21  28  -4  171.68   29.40
  -7 -21  -4  193.38   34.70
  28  -7  -4  165.48   25.90
  21 -28   4  181.88   27.40
  21 -28   4  148.09   33.40
 -28   7   4  148.19   16.10
 -28   7   4  196.88   25.70
   7  21   4  146.69   21.60
 -10 -21  -4  114.29   22.90
 -21  31  -4  126.59   29.70
 -10 -21  -4  138.69   35.10
 -21  31  -4  204.28   30.40
  31 -10  -4  146.39   29.40
  10  21   4  159.98   25.70
 -31  10   4  163.48   17.40
 -31  10   4  209.88   26.60
  21 -31   4  157.58   39.60
  -6  28  -4  171.08   26.20
 -22  -6  -4  204.08   36.50
  -6  28  -4  167.38   32.60
  28 -22  -4  217.08   28.30
  28 -22  -4  165.28   25.00
   6 -28   4  183.78   37.10
   6 -28   4  131.29   23.90
  -3  25  -4  257.37   35.80
 -22  -3  -4  374.26   43.50
  25 -22  -4  329.17   33.70
  -3  25  -4  346.27   33.90
  25 -22  -4  294.97   29.50
   3 -25   4  375.56   33.70
  22   3   4  322.87   40.30
  22 -22  -4  577.24   32.40
 -22   0  -4  616.64   43.60
   0  22  -4  619.84   36.30
  22 -22  -4  594.74   31.30
  19 -22  -4  560.44   28.90
  19 -22  -4  600.14   29.10
 -22   3  -4  631.94   40.80
   3  19  -4  563.14   32.50
  -3 -19   4  693.73   34.30
  22  -3   4  713.43   37.90
  22  -3   4  700.53   41.20
   6  16  -4  286.17   25.00
 -22   6  -4  264.37   30.20
  16 -22  -4  322.07   21.70
  16 -22  -4  326.97   22.60
  22  -6   4  275.37   26.90
  22  -6   4  273.27   29.90
  -6 -16   4  274.97   24.30
  -6 -16   4  284.67   37.00
  13 -22  -4  738.53   24.90
  13 -22  -4  752.12   30.10
   9  13  -4  739.03   32.80
 -22   9  -4  763.52   38.80
  22  -9   4  674.53   38.30
  -9 -13   4  682.53   36.40
  -9 -13   4  637.64   29.70
  22  -9   4  682.63   35.00
  10 -22  -4  320.37   22.20
 -22  12  -4  353.76   31.90
  22 -12   4  299.27   26.40
 -12 -10   4  274.97   22.60
 -10  22   4  266.77   13.20
 -12 -10   4  278.27   27.00
  22 -12   4  304.17   30.90
 -22  15  -4   20.70   15.50
  15   7  -4   36.10   14.50
   7 -22  -4   50.69   12.30
  22 -15   4   21.00   16.60
 -15  -7   4   33.90   14.00
  -7  22   4   16.70    7.20
 -15  -7   4   30.30   10.80
  22 -15   4   16.00   13.20
   4 -22  -4   60.09   14.20
 -22  18  -4   56.89   17.50
 -18  -4   4   63.29   16.60
 -18  -4   4   91.49   13.30
  22 -18   4   67.69   15.00
  22 -18   4   81.99   22.40
  -4  22   4   79.49   11.10
 -22  21  -4   26.50   17.70
   1 -22  -4   56.39   15.00
  21   1  -4   62.69   17.80
  -1  22   4   87.89   13.20
  22 -21   4   57.99   20.10
 -21  -1   4   71.89   12.60
 -21  -1   4   88.39   17.40
 -22  24  -4  141.79   23.70
  -2 -22  -4  148.19   20.70
 -22  24  -4   97.29   23.70
  24  -2  -4  130.39   22.60
  22 -24   4   94.49   21.30
   2  22   4  130.79   16.90
 -24   2   4  128.39   19.70
  22 -24   4  132.39   30.30
 -24   2   4  113.39   15.20
 -22  27  -4  280.57   38.40
  -5 -22  -4  386.76   33.30
 -22  27  -4  351.66   39.20
  27  -5  -4  320.47   36.80
  -5 -22  -4  353.26   47.20
  22 -27   4  287.67   38.00
 -27   5   4  275.47   22.30
   5  22   4  290.87   29.20
 -27   5   4  363.36   29.50
  22 -27   4  317.77   39.20
  -8 -22  -4   27.70   20.60
  -8 -22  -4   16.70   31.50
 -22  30  -4   74.59   25.10
  30  -8  -4   21.80   23.30
 -22  30  -4  104.49   27.80
  22 -30   4  104.89   25.80
  22 -30   4   55.79   34.30
 -30   8   4   77.59   17.30
   8  22   4  114.19   22.90
  -7  30  -4   15.80   22.20
  30 -23  -4   -9.30   21.90
 -23  -7  -4  -12.70   28.60
  -7  30  -4   49.70   25.60
  30 -23  -4   -7.50   23.90
   7 -30   4   33.10   33.40
   7 -30   4   22.40   23.10
  -4  27  -4   29.30   20.00
  27 -23  -4   16.90   20.80
  27 -23  -4   24.80   18.10
  -4  27  -4  -25.90   23.30
 -23  -4  -4   -3.90   24.50
   4 -27   4    2.20   18.60
  -1  24  -4  135.39   25.20
  24 -23  -4  158.48   22.80
  24 -23  -4  129.69   20.20
  -1  24  -4  164.38   23.50
 -23  -1  -4  177.78   29.40
  23   1   4  205.18   28.00
   1 -24   4  275.87   30.60
  23   1   4  163.28   27.10
  21 -23  -4  140.99   18.60
 -23   2  -4  163.58   26.40
   2  21  -4  141.69   21.90
  21 -23  -4  111.99   18.70
  -2 -21   4   23.10   13.50
  23  -2   4  112.49   22.90
 -23   5  -4   54.19   20.50
  18 -23  -4   53.49   13.70
   5  18  -4   59.59   15.50
  18 -23  -4   38.10   14.40
   5  18  -4   14.90   16.20
  23  -5   4    1.30   13.30
  -5 -18   4    5.40   13.00
  -5 -18   4   26.30   18.20
  23  -5   4   22.30   17.30
  15 -23  -4  501.15   24.20
 -23   8  -4  474.05   35.80
  15 -23  -4  493.65   26.60
   8  15  -4  521.45   30.10
  -8 -15   4  467.15   28.50
  23  -8   4  388.96   34.90
  23  -8   4  475.85   32.10
  12 -23  -4  218.08   21.50
  11  12  -4  205.38   24.80
  12 -23  -4  211.68   17.70
 -23  11  -4  230.58   30.00
  23 -11   4  240.88   31.70
 -11 -12   4  241.48   22.10
 -11 -12   4  267.97   29.00
  23 -11   4  219.28   25.80
 -23  14  -4  109.69   20.20
   9 -23  -4  108.69   18.70
 -14  -9   4  120.49   19.60
  23 -14   4  107.79   22.80
  23 -14   4  109.49   18.80
 -14  -9   4  139.89   19.60
  -9  23   4  127.99   12.30
   6 -23  -4  278.47   24.00
 -23  17  -4  245.88   30.60
  17   6  -4  259.27   30.20
  23 -17   4  291.57   36.10
 -17  -6   4  273.37   25.10
  -6  23   4  293.97   17.20
 -17  -6   4  310.47   28.50
 -23  20  -4  160.78   23.70
   3 -23  -4  145.19   19.40
 -20  -3   4  119.19   15.70
  23 -20   4  146.59   25.60
  -3  23   4  114.09   13.20
 -20  -3   4  121.09   19.80
 -23  23  -4  541.15   39.80
 -23  23  -4  592.44   37.80
  23   0  -4  524.75   37.20
   0 -23  -4  601.04   33.70
  23 -23   4  512.45   40.20
  23 -23   4  572.14   45.60
 -23   0   4  597.34   34.60
   0  23   4  592.24   28.10
 -23   0   4  558.44   31.80
 -23  26  -4  727.73   45.80
  26  -3  -4  668.03   43.90
  -3 -23  -4  669.33   38.50
 -23  26  -4  631.94   44.20
 -26   3   4  688.13   35.80
   3  23   4  671.93   34.00
  23 -26   4  758.62   52.99
  23 -26   4  738.23   45.70
  -6 -23  -4  329.67   40.30
  29  -6  -4  366.96   41.90
 -23  29  -4  408.66   43.20
 -23  29  -4  387.06   44.60
  -6 -23  -4  414.96   37.90
   6  23   4  341.27   34.50
  23 -29   4  388.66   46.60
 -29   6   4  389.46   27.40
 -29   6   4  355.96   32.20
  23 -29   4  365.86   40.10
  -5  29  -4   79.19   27.90
  29 -24  -4   68.19   23.40
  -5  29  -4   60.29   23.50
  29 -24  -4   69.69   26.50
 -24  -5  -4   64.59   31.00
   5 -29   4  -13.20   19.60
  26 -24  -4  153.28   23.20
 -24  -2  -4  115.39   31.80
  26 -24  -4  145.99   25.30
  -2  26  -4  125.09   23.20
  -2  26  -4  156.58   28.20
  24   2   4  151.98   29.20
   2 -26   4  136.79   22.30
   1  23  -4  124.59   26.20
  23 -24  -4  122.79   19.10
 -24   1  -4  115.89   26.20
   1  23  -4  128.29   22.00
  23 -24  -4  120.79   20.60
  24  -1   4   89.49   23.10
  -1 -23   4  100.49   21.20
  24  -1   4  144.99   25.90
  20 -24  -4  323.77   27.70
 -24   4  -4  265.47   30.80
  20 -24  -4  277.27   26.10
   4  20  -4  327.67   30.10
  17 -24  -4   84.69   15.30
  17 -24  -4  104.19   25.60
 -24   7  -4   73.59   22.10
   7  17  -4   47.70   15.60
  24  -7   4  107.89   23.90
  -7 -17   4   97.19   22.50
  -7 -17   4  109.79   19.10
  14 -24  -4   53.89   12.60
 -24  10  -4   59.79   17.70
  10  14  -4   72.89   18.10
 -10 -14   4   90.39   25.90
  24 -10   4  129.99   24.10
 -10 -14   4   92.49   15.80
 -24  13  -4  176.78   24.80
  11 -24  -4  184.68   23.10
  24 -13   4  169.38   25.80
 -13 -11   4  135.19   21.90
 -13 -11   4  159.88   18.80
 -11  24   4  137.49   12.60
   8 -24  -4  675.43   32.40
 -24  16  -4  630.24   38.80
 -16  -8   4  566.84   34.80
 -16  -8   4  578.74   28.40
  24 -16   4  526.05   41.20
  -8  24   4  569.44   21.00
 -24  19  -4   93.69   20.20
   5 -24  -4  101.69   17.30
  -5  24   4   66.09   11.10
 -19  -5   4   59.79   18.10
  24 -19   4   84.69   21.50
 -19  -5   4   51.19   13.20
 -24  22  -4   60.69   17.30
   2 -24  -4   61.09   16.80
 -24  22  -4   44.20   21.20
 -22  -2   4   44.90   14.10
  24 -22   4   38.10   17.70
  24 -22   4   39.70   21.80
  -2  24   4   55.79   12.90
 -22  -2   4   58.29   18.70
  -1 -24  -4  308.97   31.60
  25  -1  -4  273.27   30.70
 -24  25  -4  305.77   38.90
 -24  25  -4  205.68   25.80
 -25   1   4  201.98   23.60
  24 -25   4  270.27   36.30
   1  24   4  266.07   25.40
  24 -25   4  252.17   34.20
 -25   1   4  236.58   30.90
  -4 -24  -4  181.58   25.00
 -24  28  -4  153.08   27.60
  28  -4  -4  214.98   32.80
 -24  28  -4  163.38   28.60
  24 -28   4  185.48   29.50
  24 -28   4  112.59   32.80
 -28   4   4  165.28   23.20
 -28   4   4  162.98   18.90
  -3  28  -4  195.78   27.40
 -25  -3  -4  114.79   33.70
  28 -25  -4  213.58   27.40
  -3  28  -4  159.78   30.90
  28 -25  -4  210.78   30.50
   3 -28   4  189.28   28.40
  25   3   4  143.49   33.70
 -25   0  -4  369.86   46.40
  25 -25  -4  453.25   36.60
  25 -25  -4  478.05   34.80
   0  25  -4  417.76   43.90
   0  25  -4  368.96   36.90
   0 -25   4  493.55   38.00
  25   0   4  521.65   46.50
  25   0   4  406.46   39.30
  22 -25  -4  324.27   29.00
   3  22  -4  217.98   29.00
  22 -25  -4  352.66   31.80
 -25   3  -4  292.17   35.90
   3  22  -4  345.77   33.40
  -3 -22   4  229.38   32.90
  25  -3   4  294.57   34.40
  19 -25  -4  212.78   25.50
 -25   6  -4  268.67   31.80
   6  19  -4  237.88   28.90
   6  19  -4  274.27   33.30
  19 -25  -4  295.17   26.40
  25  -6   4  354.56   36.60
  -6 -19   4  332.87   38.60
  16 -25  -4  107.89   15.90
 -25   9  -4   81.09   20.20
   9  16  -4  105.29   19.90
  16 -25  -4   79.59   15.60
  -9 -16   4  145.59   24.60
  25  -9   4  123.19   24.70
  -9 -16   4  138.29   19.10
 -25  12  -4  104.59   22.60
  13 -25  -4  112.99   14.10
  13 -25  -4   86.19   16.60
 -12 -13   4   93.39   21.00
 -12 -13   4   70.69   15.30
  25 -12   4   81.49   22.80
 -25  15  -4  166.78   25.00
  10 -25  -4  178.38   20.60
  25 -15   4  135.19   26.00
 -15 -10   4  135.79   17.80
 -10  25   4  144.09   14.20
 -15 -10   4  149.49   25.00
 -25  18  -4   49.99   19.10
   7 -25  -4   56.79   16.10
  18   7  -4   13.40   18.30
 -18  -7   4   22.90   18.30
  -7  25   4   49.00   10.40
  25 -18   4   33.10   21.10
 -18  -7   4   14.60   12.50
   4 -25  -4  327.57   29.00
 -25  21  -4  316.17   37.80
  -4  25   4  251.37   20.50
 -21  -4   4  254.67   24.20
 -21  -4   4  272.27   31.90
  25 -21   4  257.17   32.70
  25 -21   4  242.98   30.70
 -25  24  -4  390.06   39.60
 -25  24  -4  415.66   37.50
   1 -25  -4  336.07   32.60
  24   1  -4  371.56   37.80
  25 -24   4  363.46   37.60
 -24  -1   4  369.86   26.50
  25 -24   4  315.67   39.70
  -1  25   4  404.66   26.20
 -24  -1   4  411.06   34.70
 -25  27  -4  199.98   29.20
  -2 -25  -4  283.87   35.40
  27  -2  -4  273.97   34.60
 -25  27  -4  240.08   33.30
  25 -27   4  309.97   40.50
  25 -27   4  288.97   39.20
 -27   2   4  227.78   25.30
   2  25   4  292.97   29.30
 -27   2   4  251.47   32.70
  27 -26  -4   13.50   20.20
  -1  27  -4   29.90   25.00
 -26  -1  -4    0.60   29.20
  27 -26  -4   57.29   24.60
  -1  27  -4   27.00   21.90
   1 -27   4   55.69   22.10
  26   1   4   47.10   28.50
 -26   2  -4  139.79   31.90
  24 -26  -4  184.88   23.60
  24 -26  -4  177.28   25.10
   2  24  -4  155.98   30.10
   2  24  -4  165.08   23.60
  -2 -24   4  195.68   25.30
  26  -2   4  157.58   26.20
  26  -2   4  214.18   32.70
   5  21  -4  100.79   25.00
  21 -26  -4  138.89   21.50
  21 -26  -4  134.49   21.00
   5  21  -4  124.59   22.00
 -26   5  -4   76.19   26.40
  26  -5   4   94.89   26.40
  -5 -21   4   79.39   23.20
  -5 -21   4  118.79   27.90
  26  -5   4  108.89   23.10
  18 -26  -4   60.89   16.70
 -26   8  -4   34.10   21.10
  18 -26  -4   70.49   15.70
   8  18  -4   65.69   17.30
   8  18  -4   58.29   23.60
  -8 -18   4   66.49   23.10
  26  -8   4   41.40   18.60
  26  -8   4   88.39   24.80
 -26  11  -4   46.80   21.30
  15 -26  -4   55.39   14.10
  15 -26  -4   41.20   15.40
 -11 -15   4   24.00   13.60
 -11 -15   4   37.00   21.10
  26 -11   4   40.20   20.50
  12 -26  -4   58.69   16.10
 -26  14  -4   60.99   22.60
  26 -14   4   95.69   24.20
 -14 -12   4   60.69   20.60
 -14 -12   4  112.59   17.60
 -12  26   4   92.89   12.90
 -26  17  -4   68.29   21.70
   9 -26  -4   82.89   17.20
  26 -17   4   83.79   25.30
 -17  -9   4   99.59   16.30
  -9  26   4  108.99   15.30
  26 -17   4  131.29   22.80
 -17  -9   4   93.89   22.60
   6 -26  -4  646.34   36.10
 -26  20  -4  560.34   41.50
  26 -20   4  409.66   37.10
  26 -20   4  541.75   45.50
 -20  -6   4  482.45   29.10
  -6  26   4  449.26   22.80
   3 -26  -4  757.02   39.50
 -26  23  -4  694.23   46.60
  26 -23   4  627.94   43.50
  -3  26   4  700.83   30.20
 -23  -3   4  718.53   34.00
 -23  -3   4  640.44   48.60
  26 -23   4  720.73   51.99
 -26  26  -4  787.02   48.20
   0 -26  -4  782.92   43.20
  26   0  -4  838.92   48.90
 -26  26  -4  768.92   50.89
 -26   0   4  868.01   53.39
 -26   0   4  826.82   34.60
  26 -26   4  676.13   47.00
  26 -26   4  794.92   58.19
   0  26   4  838.92   36.80
   1  26  -4   50.29   27.00
 -27   1  -4   19.90   29.50
  26 -27  -4   53.89   20.60
   1  26  -4   38.20   20.40
  26 -27  -4   28.70   24.70
  27  -1   4   25.30   27.70
  27  -1   4   10.90   23.40
  -1 -26   4   49.20   21.60
  23 -27  -4   35.30   19.50
   4  23  -4   23.20   19.80
 -27   4  -4    1.70   25.20
  23 -27  -4  -37.40   15.70
   4  23  -4  -24.80   21.90
  -4 -23   4    2.00   18.70
  27  -4   4  -12.30   20.80
  27  -4   4   16.30   24.00
 -27   7  -4   61.19   24.60
  20 -27  -4   75.19   18.50
  20 -27  -4   78.89   19.20
   7  20  -4   46.00   19.20
   7  20  -4   66.39   22.70
  27  -7   4   38.70   22.10
  27  -7   4   22.30   20.30
  -7 -20   4   86.29   24.90
  -7 -20   4   32.00   17.10
 -27  10  -4   41.80   21.20
  17 -27  -4   93.09   17.50
  17 -27  -4   72.79   16.60
  10  17  -4   81.49   24.10
 -10 -17   4  113.89   25.90
  27 -10   4  126.59   24.60
  27 -10   4  117.59   26.00
 -27  13  -4  126.79   24.90
  14 -27  -4  129.39   17.00
  14 -27  -4  141.19   20.20
 -13 -14   4  148.09   25.60
  27 -13   4  158.08   26.50
  27 -13   4  144.29   28.40
  11 -27  -4  345.57   30.30
 -27  16  -4  242.18   29.60
 -11  27   4  268.47   17.90
  27 -16   4  234.18   30.70
 -16 -11   4  231.98   27.40
 -16 -11   4  214.48   26.20
  27 -16   4  258.57   32.80
  19   8  -4  209.18   27.40
   8 -27  -4  320.87   31.10
 -27  19  -4  300.67   38.50
  27 -19   4  260.17   29.90
 -19  -8   4  252.37   26.60
 -19  -8   4  285.77   34.70
  27 -19   4  240.68   31.50
  -8  27   4  250.77   19.60
 -27  22  -4  225.58   29.20
   5 -27  -4  317.27   33.70
 -22  -5   4  264.47   26.70
 -22  -5   4  178.88   27.20
  -5  27   4  187.18   21.30
  27 -22   4  126.49   24.30
  27 -22   4  161.68   29.10
   2 -27  -4  162.78   25.10
 -27  25  -4  170.88   29.50
 -25  -2   4  257.77   27.10
 -25  -2   4  200.18   26.90
  27 -25   4  162.48   28.70
  -2  27   4  187.68   25.20
  27 -25   4  204.58   36.70
  28  -1  -4  120.59   29.90
 -28   1   4  174.48   26.10
  25 -28  -4  126.09   24.20
   3  25  -4   65.29   30.30
   3  25  -4   96.79   25.30
  25 -28  -4  146.69   26.30
 -28   3  -4  102.59   31.40
  -3 -25   4   76.79   22.40
  28  -3   4  115.79   33.30
   6  22  -4  100.69   28.50
  22 -28  -4  119.69   22.60
   6  22  -4   85.69   23.00
 -28   6  -4   60.69   28.30
  22 -28  -4  101.49   20.30
  28  -6   4   75.49   24.80
  28  -6   4  121.69   26.00
  -6 -22   4   98.39   21.30
  -6 -22   4   76.19   28.90
   9  19  -4  102.19   26.10
  19 -28  -4  156.68   22.90
 -28   9  -4  109.19   25.90
  19 -28  -4  122.49   20.70
  -9 -19   4  135.79   21.30
  28  -9   4  126.49   26.30
  28  -9   4   84.69   28.40
  -9 -19   4  154.58   28.40
  12  16  -4  125.29   28.30
  16 -28  -4  120.19   17.90
  16 -28  -4   79.19   18.80
 -28  12  -4  115.09   27.40
  28 -12   4  117.79   22.50
  28 -12   4  135.19   28.70
 -12 -16   4   60.09   24.60
 -28  15  -4  149.09   25.90
  15  13  -4   99.09   39.50
  13 -28  -4  157.38   21.90
 -13  28   4  114.39   13.30
  28 -15   4  162.88   26.00
  28 -15   4  159.08   30.40
 -15 -13   4  129.09   26.50
  18  10  -4   83.09   26.80
 -28  18  -4  111.49   26.40
  10 -28  -4  108.89   21.20
  28 -18   4   64.19   25.50
 -10  28   4   83.39   12.80
 -18 -10   4  102.69   23.90
  28 -18   4   72.89   21.10
   7 -28  -4  239.08   31.30
 -28  21  -4  186.78   29.90
  -7  28   4  232.48   22.20
 -21  -7   4  228.28   29.50
  28 -21   4  240.88   35.20
  28 -21   4  146.19   25.30
 -28  24  -4   86.69   28.20
   4 -28  -4  163.28   25.60
  -4  28   4  132.79   18.10
  28 -24   4   76.49   24.00
 -24  -4   4  134.59   26.10
  28 -24   4   93.99   32.80
 -27  -1   4  117.29   25.50
   5  24  -4   68.69   23.20
  24 -29  -4   55.49   24.50
  24 -29  -4   96.59   23.70
   5  24  -4   70.29   26.30
 -29   5  -4   74.59   28.50
  -5 -24   4   43.60   22.20
  -5 -24   4   87.89   32.40
  29  -5   4   26.20   23.60
  29  -5   4   80.89   31.80
  21 -29  -4   72.49   21.20
   8  21  -4   69.09   22.70
 -29   8  -4   39.50   25.20
  21 -29  -4   95.59   21.60
   8  21  -4   58.09   25.00
  29  -8   4   52.59   27.90
  29  -8   4   48.70   23.80
  -8 -21   4   37.00   19.60
  -8 -21   4   59.49   29.60
 -29  11  -4   81.39   27.80
  18 -29  -4   77.89   18.80
  18 -29  -4   70.99   20.00
  11  18  -4   53.89   24.00
  29 -11   4   94.19   27.70
  29 -11   4   67.59   21.90
 -11 -18   4   83.89   19.90
 -11 -18   4   71.19   26.60
  15 -29  -4   35.10   18.70
 -29  14  -4   10.70   22.10
  14  15  -4    3.00   23.40
  29 -14   4    4.20   19.10
 -14 -15   4  -17.00   21.90
  29 -14   4    1.60   25.80
 -14 -15   4  -20.10   19.50
 -29  17  -4  172.98   28.80
  17  12  -4  166.38   31.10
  12 -29  -4  197.58   24.20
 -17 -12   4  103.69   26.10
  29 -17   4  159.48   26.50
 -12  29   4  171.68   18.20
  29 -17   4  143.19   33.10
   9 -29  -4  565.14   39.70
 -29  20  -4  576.64   47.40
  20   9  -4  442.26   44.40
  -9  29   4  532.45   26.60
  29 -20   4  595.64   44.90
 -20  -9   4  510.95   44.30
  29 -20   4  556.74   52.69
   6 -29  -4  462.55   39.70
 -29  23  -4  419.06   47.90
  29 -23   4  391.56   39.90
 -23  -6   4  478.25   44.40
  29 -23   4  497.65   53.69
  -6  29   4  473.25   28.50
  23 -30  -4   33.30   23.10
 -30   7  -4   13.10   26.70
   7  23  -4   27.90   26.90
   7  23  -4   47.30   22.50
  23 -30  -4   28.70   22.30
  30  -7   4   29.80   29.00
  -7 -23   4   37.00   21.80
  30  -7   4    6.10   22.20
  -7 -23   4   58.09   30.60
 -30  10  -4  -11.30   26.00
  10  20  -4   39.50   24.90
  20 -30  -4   25.40   20.80
  20 -30  -4   64.19   21.30
  30 -10   4   13.00   26.80
 -10 -20   4   20.00   19.80
  30 -10   4   19.00   22.70
 -10 -20   4   66.39   30.10
  17 -30  -4   33.60   20.50
  17 -30  -4   50.79   18.60
 -30  13  -4   51.09   28.30
  13  17  -4   97.49   26.30
  30 -13   4   74.39   23.60
 -13 -17   4   71.09   19.40
  30 -13   4   22.20   26.20
 -13 -17   4   50.69   26.80
  16  14  -4  134.19   29.10
 -30  16  -4   73.29   27.70
  14 -30  -4  129.59   24.10
  30 -16   4   59.89   27.90
 -16 -14   4  144.89   22.40
 -16 -14   4  104.89   28.10
 -14  30   4   95.29   14.00
  30 -16   4   84.79   23.60
  19  11  -4  186.98   29.40
  11 -30  -4  282.47   35.70
 -30  19  -4  278.77   34.80
  30 -19   4  185.68   35.50
 -19 -11   4  209.58   26.00
 -19 -11   4  236.98   31.70
  30 -19   4  179.68   28.30
 -11  30   4  226.38   22.00
   8 -30  -4  118.99   24.40
  22   8  -4   45.40   28.10
 -30  22  -4   76.49   28.50
  30 -22   4   71.69   25.70
  -8  30   4   97.79   16.00
 -22  -8   4  123.79   27.30
  30 -22   4  111.69   33.20
  12  19  -4   11.90   28.10
  19 -31  -4   61.39   20.20
 -31  12  -4   61.59   29.90
  19 -31  -4   28.90   23.00
 -12 -19   4   56.19   30.70
  31 -12   4   52.49   29.60
  31 -12   4   25.70   24.30
 -12 -19   4    0.50   20.10
  16 -31  -4  318.77   38.50
 -31  15  -4  248.68   35.60
 -15 -16   4  260.27   35.00
  31 -15   4  194.48   36.20
  31 -15   4  177.48   26.80
 -15 -16   4  226.98   26.60
  13 -31  -4  588.14   43.40
 -31  18  -4  379.76   47.80
  18  13  -4  423.26   60.49
 -18 -13   4  315.97   36.00
  31 -18   4  309.17   41.10
  31 -18   4  255.97   33.20
 -18 -13   4  473.45   48.50
 -13  31   4  309.47   22.40
  10 -31  -4  194.98   31.30
 -31  21  -4  191.98   32.40
 -21 -10   4  231.68   33.40
 -10  31   4  185.48   23.40
 -21 -10   4  268.87   33.50
  31 -21   4  163.88   32.30
  -1   1  -5    0.00    4.50
   1   0  -5    2.60    5.00
  -1   1  -5   -0.50    5.00
   0  -1  -5    0.20    3.60
   0  -1  -5   -4.40    4.30
   1   0  -5    5.90    3.80
   1  -1   5    0.20    6.20
   0   1   5    5.10    5.70
  -1   0   5    6.60    6.30
   0   2  -5   15.00    6.70
   0   2  -5   13.10    5.10
  -2   0  -5   15.00    5.80
   2  -2  -5   11.00    5.30
  -2   0  -5   10.00    5.20
  -2   2   5   10.10    5.90
   0  -2   5   11.00    7.20
   2   0   5   10.90    6.40
  -2   3  -5   28.80    6.50
  -1  -2  -5   27.20    5.50
  -1  -2  -5   19.10    5.50
  -2   3  -5   30.20    7.80
   3  -1  -5   23.40    6.60
   2  -3   5   58.49    9.90
  -3   1   5   55.19    8.30
   1   2   5   52.59    7.60
  -1   4  -5  245.58   12.50
  -3  -1  -5  247.78   12.50
   4  -3  -5  280.17   13.00
  -3  -1  -5  233.08   12.60
  -1   4  -5  254.87   16.60
   3   1   5  304.47   15.30
   1  -4   5  318.57   18.60
   1  -4   5  317.57    8.60
   2   1  -5   46.30    8.30
   2   1  -5   51.39    6.80
  -3   2  -5   48.80    8.70
   1  -3  -5   48.90    6.70
  -3   2  -5   53.99    7.70
   3  -2   5   72.89   10.10
  -1   3   5   66.79    8.80
  -2  -1   5   81.69   10.40
   5  -2  -5  519.45   18.50
  -2  -3  -5  496.95   15.80
  -3   5  -5  510.85   21.80
  -3   5  -5  480.45   17.90
  -2  -3  -5  477.95   15.00
   3  -5   5  392.26   12.90
   3  -5   5  375.96   20.10
   2   3   5  374.36   14.90
  -4  -2  -5 1102.29   25.60
   6  -4  -5 1164.38   26.60
  -4  -2  -5 1147.09   27.10
  -2   6  -5 1166.98   27.90
  -2   6  -5 1160.18   33.80
   2  -6   5 1196.98   24.60
   2  -6   5 1196.58   34.70
   4   2   5 1174.98   28.20
   3  -4  -5  761.72   19.00
  -4   1  -5  741.93   22.60
  -4   1  -5  743.83   20.90
   1   3  -5  760.02   25.60
   1   3  -5  769.52   19.20
  -1  -3   5  851.61   27.20
   4  -1   5  853.11   25.60
   4   0  -5    5.10    3.60
  -4   4  -5    2.60    5.90
   0  -4  -5    2.70    3.70
  -4   4  -5    5.00    6.50
   4   0  -5   -4.30    5.70
   0   4   5    0.50    4.20
   4  -4   5   -0.30    7.30
   4  -4   5    1.90    3.90
  -4   7  -5  547.95   20.30
   7  -3  -5  564.24   20.00
  -4   7  -5  529.85   23.60
  -3  -4  -5  570.14   18.80
   4  -7   5  578.64   25.10
   3   4   5  585.64   18.00
   4  -7   5  570.34   18.10
  -3   8  -5 1110.19   34.70
  -3   8  -5 1137.49   29.60
   8  -5  -5 1175.08   27.90
  -5  -3  -5 1135.69   29.00
   3  -8   5 1109.69   35.10
   3  -8   5 1086.79   26.40
   5   3   5 1162.48   28.10
  -5   0  -5    8.80    6.20
   0   5  -5    8.30    5.60
   5  -5  -5    5.60    4.90
   0   5  -5   -0.60    6.70
  -5   0  -5    3.30    5.20
   0  -5   5    6.00    8.20
   5   0   5    6.50    6.30
   0  -5   5    3.00    3.60
   3   2  -5  583.44   22.40
   2  -5  -5  574.24   13.70
   3   2  -5  568.74   15.50
  -5   3  -5  557.84   21.40
  -5   3  -5  581.34   19.70
   5  -3   5  473.55   14.40
  -2   5   5  481.15   13.00
  -3  -2   5  493.25   21.00
   5  -3   5  485.95   21.50
   6  -1  -5  886.51   17.70
   6  -1  -5  899.01   26.50
  -5   6  -5  912.31   25.90
   6  -1  -5  844.12   16.60
  -5   6  -5  868.91   28.80
   1   5   5  964.00   21.00
   5  -6   5 1023.00   32.10
   5  -6   5  982.50   23.90
   9  -4  -5 1509.95   35.00
   9  -4  -5 1532.55   25.50
  -5   9  -5 1489.55   36.20
  -5   9  -5 1505.65   41.50
   9  -4  -5 1487.45   23.90
  -4  -5  -5 1546.55   34.50
   4   5   5 1524.75   31.50
   5  -9   5 1555.54   34.30
   5  -9   5 1541.85   42.30
  10  -6  -5  863.01   24.70
  -6  -4  -5  859.41   27.10
  -4  10  -5  878.91   27.50
  -4  10  -5  834.62   31.60
  10  -6  -5  840.82   16.80
   4 -10   5  899.01   33.10
   4 -10   5  879.91   25.40
   6   4   5  872.61   25.00
  -6  -1  -5  281.47   15.70
  -1   7  -5  263.17   18.20
  -1   7  -5  247.08   14.40
   7  -6  -5  238.28   11.80
   6   1   5  306.67   16.70
   1  -7   5  324.77   13.20
   1  -7   5  324.57   20.80
   2   4  -5  938.81   22.30
   4  -6  -5  906.01   17.70
  -6   2  -5  885.11   26.10
  -6   2  -5  919.11   25.70
   2   4  -5  899.71   29.20
  -2  -4   5  966.00   30.30
   6  -2   5  940.71   28.30
   6  -2   5  938.71   21.70
   5   1  -5  930.41   28.40
   5   1  -5  939.21   19.90
  -6   5  -5  931.91   29.10
  -6   5  -5  968.80   26.90
   6  -5   5 1054.69   31.80
  -1   6   5 1029.00   18.80
   6  -5   5 1041.70   24.60
   8  -2  -5  508.15   13.90
  -2  -6  -5  521.55   18.60
  -6   8  -5  503.05   21.10
   8  -2  -5  506.85   13.00
  -6   8  -5  498.15   23.60
   8  -2  -5  519.05   21.30
   2   6   5  551.44   16.00
   6  -8   5  540.55   19.40
   6  -8   5  552.24   25.90
  -6  11  -5 1537.55   38.60
  -6  11  -5 1483.45   43.20
  -5  -6  -5 1575.64   37.60
   6 -11   5 1416.96   42.30
   5   6   5 1398.06   30.90
   6 -11   5 1356.56   34.30
  -5  12  -5 3225.78   60.69
  -7  -5  -5 3143.19   60.09
  -5  12  -5 3084.29   67.49
  12  -7  -5 2930.71   54.29
   5 -12   5 2976.30   56.79
   7   5   5 3045.30   54.49
   5 -12   5 2994.50   66.39
  -7  -2  -5 1930.31   41.70
  -2   9  -5 1848.02   47.70
  -2   9  -5 1971.50   41.20
   9  -7  -5 1915.71   36.30
   2  -9   5 1969.10   49.20
   7   2   5 1987.90   41.50
   2  -9   5 1918.51   38.50
  -7   1  -5   26.20    7.90
   1   6  -5   19.70    6.80
   1   6  -5   32.60    9.40
  -7   1  -5   12.40    6.10
   6  -7  -5   29.10    4.70
   7  -1   5   53.49    7.60
  -1  -6   5   54.59    6.40
   7  -1   5   45.30    9.50
  -1  -6   5   59.39    7.20
  -1  -6   5   46.60   10.80
  -7   4  -5  581.04   22.80
  -7   4  -5  571.34   21.60
   4   3  -5  550.74   23.30
   4   3  -5  575.74   17.00
   7  -4   5  603.94   24.30
   7  -4   5  605.44   19.10
  -7   7  -5    2.30    7.10
  -7   7  -5    0.90    7.00
   7   0  -5    6.40    4.70
   7   0  -5    5.50    4.30
   7   0  -5    7.50    7.00
   0   7   5    0.30    3.70
   7  -7   5    9.90    9.20
   7  -7   5    8.60    5.90
  -3  -7  -5  163.98   14.70
  -7  10  -5  151.28   15.80
  10  -3  -5  152.38    9.80
  -7  10  -5  168.98   17.40
  10  -3  -5  171.98    9.40
  10  -3  -5  162.18   14.50
   7 -10   5  144.49   18.50
   3   7   5  166.28   11.10
   7 -10   5  153.98   13.70
  13  -6  -5  984.70   24.20
  -7  13  -5  978.20   36.50
  -7  13  -5  930.51   31.70
  -6  -7  -5  941.71   31.50
   7 -13   5  897.11   29.50
   7 -13   5  924.81   36.10
   6   7   5  903.81   25.80
  -8  -6  -5 1200.48   36.80
  -6  14  -5 1183.08   35.90
  14  -8  -5 1175.58   27.20
  -6  14  -5 1147.09   40.50
   8   6   5 1149.69   31.60
   6 -14   5 1123.99   33.30
   6 -14   5 1117.49   41.10
  -8  -3  -5  325.77   20.00
  -3  11  -5  352.76   19.30
  11  -8  -5  326.67   10.60
  -3  11  -5  322.17   22.30
   3 -11   5  328.27   23.80
   3 -11   5  333.87   17.00
   8   3   5  364.96   18.50
   0   8  -5    2.40    6.10
   8  -8  -5   10.90    4.40
   0   8  -5    5.60    8.20
  -8   0  -5    1.70    7.50
   8   0   5    4.80    5.30
   8   0   5    5.40    7.40
   0  -8   5    1.00    4.80
   0  -8   5   -0.70    8.50
  -8   3  -5 1629.34   37.60
  -8   3  -5 1553.74   37.50
   3   5  -5 1565.54   41.30
   3   5  -5 1606.34   32.50
   8  -3   5 1607.54   33.70
  -3  -5   5 1634.84   41.20
  -3  -5   5 1583.34   27.50
   8  -3   5 1574.14   39.40
   6   2  -5  447.36   21.90
   6   2  -5  437.66   14.90
  -8   6  -5  428.26   21.40
  -8   6  -5  455.35   20.50
   8  -6   5  459.25   23.00
   8  -6   5  445.96   18.00
   9  -1  -5 1850.21   34.60
   9  -1  -5 1833.92   43.20
  -8   9  -5 1903.51   43.00
  -8   9  -5 1803.62   46.20
   9  -1  -5 1840.42   32.20
   8  -9   5 1835.22   40.20
   8  -9   5 1839.12   47.50
   1   8   5 1837.52   30.10
  -4  -8  -5 3077.99   58.19
  -8  12  -5 3182.58   61.39
  -8  12  -5 3020.20   66.39
  12  -4  -5 3041.60   50.99
   8 -12   5 3133.29   59.59
   8 -12   5 3105.89   68.29
   4   8   5 3133.69   51.19
  -8  15  -5 1743.33   45.60
  -7  -8  -5 1718.63   45.50
  -8  15  -5 1705.43   50.49
  15  -7  -5 1695.73   37.00
   7   8   5 1635.54   37.70
   8 -15   5 1648.24   50.89
   8 -15   5 1706.33   43.50
  -7  16  -5  405.06   24.70
  -7  16  -5  368.56   32.70
  -9  -7  -5  394.76   25.60
  16  -9  -5  402.46   18.30
   7 -16   5  407.86   23.00
   9   7   5  416.46   22.20
   7 -16   5  406.86   29.70
  13  -9  -5   84.99    8.80
  -4  13  -5   67.59   11.80
  -9  -4  -5   86.19   14.30
  -4  13  -5   53.99   12.10
   4 -13   5   57.79   14.30
   9   4   5   72.79   11.00
   4 -13   5   50.09   10.00
  -1  10  -5  824.32   32.30
  -1  10  -5  844.42   26.70
  10  -9  -5  793.62   15.30
  -9  -1  -5  799.92   28.10
   1 -10   5  692.23   30.60
   1 -10   5  696.53   22.40
   9   1   5  683.63   25.00
  -9   2  -5 1821.62   41.10
   7  -9  -5 1579.54   25.40
   2   7  -5 1711.63   35.80
  -9   2  -5 1650.93   38.80
   2   7  -5 1658.03   44.10
  -2  -7   5 1845.92   34.20
   9  -2   5 1787.22   42.60
   9  -2   5 1799.82   37.80
  -2  -7   5 1873.31   46.60
  -2  -7   5 1774.02   34.80
   5   4  -5 1797.22   34.40
  -9   5  -5 1758.82   40.90
  -9   5  -5 1739.13   42.10
   5   4  -5 1718.93   43.90
   9  -5   5 1777.02   37.80
   9  -5   5 1768.72   43.80
  -5  -4   5 1775.12   27.70
  -5  -4   5 1782.92   27.30
   8   1  -5 1344.77   37.60
   8   1  -5 1313.07   27.20
   8   1  -5 1350.16   29.90
  -9   8  -5 1393.96   36.50
  -9   8  -5 1342.87   38.30
   9  -8   5 1414.86   34.70
   9  -8   5 1436.36   41.00
  -9  11  -5 2272.37   50.19
  11  -2  -5 2300.07   50.69
  11  -2  -5 2248.58   38.90
  -9  11  -5 2251.67   54.49
  11  -2  -5 2229.58   41.70
   9 -11   5 2092.39   53.49
   9 -11   5 2106.49   46.00
   2   9   5 2100.99   35.20
  -5  -9  -5 1616.14   42.20
  -9  14  -5 1617.34   43.20
  14  -5  -5 1627.04   35.50
  -9  14  -5 1594.84   47.90
   9 -14   5 1456.65   39.60
   5   9   5 1438.46   32.10
   9 -14   5 1445.16   46.70
  -8  -9  -5 2178.18   54.79
  -9  17  -5 2175.58   59.99
  -9  17  -5 2156.78   53.29
  17  -8  -5 2186.68   46.20
   9 -17   5 1990.10   50.49
   9 -17   5 2097.69   62.29
  -8  18  -5  664.73   40.00
  18 -10  -5  707.83   25.70
 -10  -8  -5  740.53   34.70
  -8  18  -5  734.43   37.10
   8 -18   5  579.04   45.20
  10   8   5  645.94   28.40
   8 -18   5  699.73   38.60
  -5  15  -5  398.56   27.50
 -10  -5  -5  398.56   25.50
  -5  15  -5  403.86   24.00
  15 -10  -5  404.56   16.80
  10   5   5  508.15   24.20
   5 -15   5  522.65   31.80
   5 -15   5  486.25   23.80
 -10  -2  -5  480.85   24.50
  -2  12  -5  471.95   26.90
  -2  12  -5  512.55   23.10
   2 -12   5  409.56   19.40
   2 -12   5  410.56   26.70
  10   2   5  410.36   21.40
   1   9  -5  734.13   24.30
 -10   1  -5  729.83   27.20
   9 -10  -5  720.13   14.10
   9 -10  -5  762.02   16.90
   1   9  -5  721.13   30.30
  10  -1   5  602.44   21.90
  -1  -9   5  599.84   19.80
  10  -1   5  625.84   25.30
  -1  -9   5  596.54   28.10
 -10   4  -5 1279.97   35.20
   4   6  -5 1249.07   29.50
 -10   4  -5 1217.68   34.00
   4   6  -5 1259.67   38.00
  10  -4   5 1279.77   36.70
  -4  -6   5 1283.97   25.90
  10  -4   5 1283.57   32.20
  -4  -6   5 1273.97   27.00
   7   3  -5  106.09   11.00
 -10   7  -5   91.69   12.60
 -10   7  -5   94.89   13.00
   7   3  -5  104.19   13.50
  10  -7   5  120.39   15.10
  10  -7   5  122.39   13.20
 -10  10  -5  -10.20    7.70
  10   0  -5    0.20    5.60
  10   0  -5   -1.10    7.40
 -10  10  -5   -3.40    8.60
  10   0  -5    2.70    5.50
  10 -10   5   -6.10    6.40
  10 -10   5   -2.10    9.30
 -10  13  -5  599.34   27.10
  13  -3  -5  551.44   20.60
 -10  13  -5  563.94   28.70
  10 -13   5  557.84   30.80
   3  10   5  575.64   17.80
  10 -13   5  543.65   24.60
  -6 -10  -5   71.09   15.20
  16  -6  -5   50.89   10.10
 -10  16  -5   49.60   16.00
 -10  16  -5   48.10   12.30
  10 -16   5   26.40   10.60
  10 -16   5   42.70   15.10
 -10  19  -5  618.64   34.60
 -10  19  -5  623.24   32.40
  19  -9  -5  598.64   26.20
  -9 -10  -5  628.64   34.20
  10 -19   5  593.04   29.80
  10 -19   5  549.85   37.80
  20 -11  -5  906.11   31.80
  -9  20  -5  936.81   37.90
 -11  -9  -5  905.41   40.40
   9 -20   5 1030.10   47.00
   9 -20   5  966.30   37.90
 -11  -6  -5  435.76   28.20
  -6  17  -5  450.05   30.40
  -6  17  -5  453.65   26.50
  17 -11  -5  458.55   19.80
  11   6   5  411.66   24.20
   6 -17   5  383.06   23.30
  -3  14  -5  238.18   19.80
  14 -11  -5  245.38   12.70
 -11  -3  -5  250.97   21.70
  -3  14  -5  197.78   21.50
   3 -14   5  252.87   25.20
  11   3   5  249.58   19.70
   3 -14   5  242.98   17.70
 -11   0  -5   17.10    9.70
  11 -11  -5   11.00    4.30
   0  11  -5   13.90    8.30
   0  11  -5    6.50   10.40
  11 -11  -5    9.60    5.20
  11   0   5   15.80    7.80
   0 -11   5   10.40    6.80
  11   0   5   13.20    9.10
   0 -11   5    7.50   10.60
   3   8  -5  526.25   20.60
   8 -11  -5  518.75   12.60
   3   8  -5  528.15   26.50
 -11   3  -5  537.75   25.00
  -3  -8   5  543.65   27.20
  -3  -8   5  556.34   18.60
  11  -3   5  571.34   25.70
  -3  -8   5  554.44   20.40
  11  -3   5  536.35   21.70
   6   5  -5 1501.85   42.20
 -11   6  -5 1425.36   38.60
   5 -11  -5 1410.56   32.90
   6   5  -5 1432.06   32.10
 -11   6  -5 1451.95   39.10
  -6  -5   5 1275.77   26.20
  11  -6   5 1279.97   38.40
  -6  -5   5 1233.08   24.80
  11  -6   5 1293.07   33.70
 -11   9  -5 1942.01   46.90
   9   2  -5 2014.60   38.40
   9   2  -5 2047.90   49.90
 -11   9  -5 2054.59   50.19
  11  -9   5 1910.31   44.10
  11  -9   5 1974.70   50.59
  12  -1  -5 1320.47   29.90
 -11  12  -5 1342.97   38.90
 -11  12  -5 1304.87   41.70
  12  -1  -5 1337.07   32.70
  12  -1  -5 1313.37   39.20
  11 -12   5 1363.56   37.70
  11 -12   5 1330.67   43.30
   1  11   5 1308.87   24.30
 -11  15  -5 3419.76   68.39
  15  -4  -5 3281.17   59.99
 -11  15  -5 3046.40   81.39
  -4 -11  -5 3389.86   66.49
  11 -15   5 3089.39   64.19
  11 -15   5 3125.49   72.59
 -11  18  -5 2197.48   60.69
 -11  18  -5 2051.29   55.29
  -7 -11  -5 2089.29   55.59
  18  -7  -5 2064.79   47.50
  11 -18   5 1913.01   53.69
  11 -18   5 2033.30   60.39
 -10 -11  -5  295.17   31.40
  21 -10  -5  285.27   22.40
 -11  21  -5  265.47   28.40
  11 -21   5  272.97   32.60
  11 -21   5  280.87   25.40
 -12 -10  -5  317.77   32.80
  22 -12  -5  382.36   25.40
 -10  22  -5  339.47   30.20
  10 -22   5  389.86   36.50
  10 -22   5  344.37   28.10
  -7  19  -5  183.18   23.40
  19 -12  -5  160.08   16.40
  -7  19  -5  146.79   18.20
   7 -19   5  157.08   23.80
  12   7   5  185.18   21.70
   7 -19   5  192.78   21.10
  16 -12  -5   98.79   10.90
  -4  16  -5   87.09   15.80
 -12  -4  -5  116.29   17.60
  -4  16  -5   92.19   14.20
  12   4   5  118.09   16.00
   4 -16   5  117.39   14.80
   4 -16   5   96.99   18.60
  -1  13  -5   37.00   10.20
  13 -12  -5   60.09    7.40
  13 -12  -5   61.09    8.50
 -12  -1  -5   67.09   14.70
  -1  13  -5   61.29   14.30
  12   1   5   22.20    9.30
   1 -13   5   30.30    8.60
   1 -13   5   19.30   12.50
  12   1   5   23.40   10.10
  10 -12  -5  811.02   16.70
   2  10  -5  817.12   33.60
   2  10  -5  793.62   26.60
 -12   2  -5  812.62   30.80
  -2 -10   5  719.43   23.60
  -2 -10   5  796.42   33.20
  12  -2   5  770.02   29.70
  12  -2   5  724.63   26.40
   5   7  -5 3288.77   57.49
   7 -12  -5 3223.28   49.00
   5   7  -5 3299.07   69.39
 -12   5  -5 3390.06   65.49
 -12   5  -5 3232.08   63.99
  -5  -7   5 3307.57   53.79
  12  -5   5 3348.57   62.29
  12  -5   5 3296.07   66.89
  -5  -7   5 3273.27   55.19
   8   4  -5 3038.70   52.99
   8   4  -5 3093.69   65.99
 -12   8  -5 3086.79   62.69
 -12   8  -5 3127.79   64.29
   4 -12  -5 3095.29   48.20
  12  -8   5 3088.49   65.79
  -8  -4   5 3026.10   46.50
  12  -8   5 3121.89   60.19
  -8  -4   5 3075.29   47.80
 -12  11  -5 1579.54   43.00
  11   1  -5 1529.75   36.70
 -12  11  -5 1575.14   45.50
  11   1  -5 1571.04   34.20
  11   1  -5 1625.44   44.80
  12 -11   5 1566.64   46.90
  12 -11   5 1583.24   41.20
  14  -2  -5 2160.48   46.50
 -12  14  -5 2247.28   53.89
 -12  14  -5 2288.57   58.29
   2  12   5 1936.71   35.20
  12 -14   5 2043.60   56.09
  12 -14   5 2052.29   49.70
 -12  17  -5 2659.53   78.29
 -12  17  -5 3044.70   72.29
  17  -5  -5 3026.90   59.39
  -5 -12  -5 3043.20   65.59
  12 -17   5 2874.81   66.19
 -12  20  -5  750.62   35.80
  20  -8  -5  705.43   29.00
  12 -20   5  682.23   40.60
  12 -20   5  700.03   33.00
  23 -11  -5  490.65   29.20
 -11 -12  -5  584.44   39.70
 -12  23  -5  539.85   35.20
 -13 -11  -5  131.99   25.80
  24 -13  -5   93.19   17.50
 -11  24  -5  102.89   18.60
  11 -24   5   72.19   21.00
  21 -13  -5  314.97   21.90
 -13  -8  -5  292.97   30.90
  -8  21  -5  325.17   27.30
   8 -21   5  308.77   34.20
   8 -21   5  307.17   26.00
  18 -13  -5   45.40    9.50
  -5  18  -5   26.00   14.40
  -5  18  -5   40.60   13.30
 -13  -5  -5   32.30   15.10
   5 -18   5   67.89   19.80
  13   5   5   51.59   13.70
 -13  -2  -5  144.09   18.70
  15 -13  -5  129.89   11.80
  -2  15  -5  160.48   22.10
  -2  15  -5  150.98   18.80
  15 -13  -5  168.38   14.30
   2 -15   5  148.89   16.90
   2 -15   5  113.59   18.50
  13   2   5  152.18   19.90
 -13   1  -5   47.20   13.40
   1  12  -5   57.89   11.50
   1  12  -5   57.89   14.30
  12 -13  -5   49.20    7.10
  12 -13  -5   48.70    6.80
  -1 -12   5   32.00   13.60
  13  -1   5   30.00    9.70
  13  -1   5   22.60   10.70
  -1 -12   5   33.70    8.90
 -13   4  -5   16.80   10.80
   4   9  -5   39.80    9.70
   4   9  -5   29.30   11.30
   9 -13  -5   42.00    6.10
  -4  -9   5   27.10    9.30
  13  -4   5   23.70    9.10
  -4  -9   5   29.00    7.80
  13  -4   5   22.40   10.00
   6 -13  -5  801.92   19.70
 -13   7  -5  815.62   30.30
   7   6  -5  853.31   25.90
   7   6  -5  848.72   33.70
 -13   7  -5  782.22   30.90
  13  -7   5  770.02   32.10
  -7  -6   5  775.02   21.00
  -7  -6   5  758.62   22.80
  13  -7   5  763.82   27.70
 -13  10  -5  473.75   26.00
  10   3  -5  456.75   26.50
 -13  10  -5  497.25   26.00
   3 -13  -5  469.85   17.00
  10   3  -5  461.25   19.50
 -10  -3   5  475.85   15.90
  13 -10   5  479.05   28.40
  13 -10   5  453.95   23.40
 -10  -3   5  473.25   14.10
  13   0  -5   31.00   10.40
 -13  13  -5    8.60   10.00
  13   0  -5   28.80    9.10
   0 -13  -5   27.00    8.00
 -13  13  -5   34.20   12.10
   0  13   5   25.20    5.00
   0  13   5   35.70    5.30
  13 -13   5   26.20   14.30
  13 -13   5   23.50   10.30
  16  -3  -5   52.89   11.60
 -13  16  -5   87.29   17.80
 -13  16  -5   51.89   14.00
  13 -16   5   34.90   12.40
  13 -16   5   44.80   17.90
  19  -6  -5  104.69   14.90
 -13  19  -5   97.29   17.30
  -6 -13  -5  139.99   21.20
  13 -19   5   95.29   20.80
  13 -19   5  116.79   18.60
  -9 -13  -5   -8.20   17.30
 -13  22  -5   19.40   15.50
  22  -9  -5   24.20   13.10
  13 -22   5    1.50   19.50
  13 -22   5   15.10   12.70
 -13  25  -5   59.79   18.00
 -12 -13  -5   38.90   15.20
 -12 -13  -5   26.40   22.00
 -13  25  -5   73.69   21.20
  25 -12  -5   47.00   15.40
  13 -25   5    8.90   21.80
  26 -14  -5  328.97   30.80
 -14 -12  -5  298.57   40.60
 -12  26  -5  320.47   37.30
 -12  26  -5  283.87   34.20
  12 -26   5  294.57   33.60
  12 -26   5  319.87   39.50
  -9  23  -5  112.69   21.60
  23 -14  -5  113.09   17.20
 -14  -9  -5   63.59   21.10
   9 -23   5  144.69   27.10
   9 -23   5   56.69   15.10
  20 -14  -5  150.18   17.60
  20 -14  -5  173.98   20.20
  -6  20  -5  129.49   19.20
 -14  -6  -5  188.48   24.30
   6 -20   5  158.28   21.10
   6 -20   5  159.68   24.60
  14   6   5  188.88   24.10
 -14  -3  -5    4.30   12.50
  17 -14  -5   15.10    9.30
  -3  17  -5   -2.40   11.90
  17 -14  -5   10.40    7.50
   3 -17   5   10.40   16.40
   3 -17   5   18.60   10.80
  14   3   5   18.90   12.40
 -14   0  -5   31.20   13.50
  14 -14  -5   24.60    7.60
   0  14  -5   25.20   10.90
   0  14  -5    8.30   11.90
  14 -14  -5   14.90    6.20
  14   0   5   10.50   10.90
  14   0   5   20.30   10.00
   0 -14   5   17.60   13.40
   0 -14   5    7.20    8.50
 -14   3  -5  417.16   26.50
   3  11  -5  427.36   27.30
  11 -14  -5  423.46   12.20
  11 -14  -5  410.26   15.00
   3  11  -5  395.36   21.20
  14  -3   5  511.75   24.40
  14  -3   5  467.35   26.20
  -3 -11   5  459.95   20.60
   6   8  -5 1575.94   37.40
   8 -14  -5 1544.25   30.40
   6   8  -5 1602.44   47.60
 -14   6  -5 1582.64   44.20
  14  -6   5 1574.84   41.40
  14  -6   5 1583.14   45.90
  -6  -8   5 1599.24   34.60
  -6  -8   5 1543.65   36.40
   9   5  -5 1858.21   40.40
   5 -14  -5 1869.71   35.80
 -14   9  -5 1895.61   49.10
 -14   9  -5 1901.21   49.30
   9   5  -5 1913.51   51.99
  -9  -5   5 1708.63   35.00
  14  -9   5 1704.93   49.00
  14  -9   5 1662.23   43.60
  -9  -5   5 1657.43   32.90
 -14  12  -5 2528.85   58.59
  12   2  -5 2576.84   49.20
 -14  12  -5 2505.95   60.79
  12   2  -5 2550.14   60.79
   2 -14  -5 2523.65   46.80
 -12  -2   5 2302.87   39.20
  14 -12   5 2393.66   60.89
  14 -12   5 2244.78   53.19
 -12  -2   5 2319.87   37.90
 -14  15  -5 3228.98   69.29
  -1 -14  -5 3178.38   58.49
  15  -1  -5 3272.87   63.39
 -14  15  -5 3275.57   73.89
   1  14   5 3336.07   51.99
  14 -15   5 3439.36   78.09
  14 -15   5 3368.36   69.99
 -15   1   5 3367.46   47.60
 -14  18  -5  857.41   39.20
  18  -4  -5  909.21   32.50
 -14  18  -5  873.91   37.40
  -4 -14  -5  861.11   30.10
  14 -18   5  878.41   43.50
  14 -18   5  939.21   36.80
  21  -7  -5  800.22   33.10
  -7 -14  -5  744.43   40.70
 -14  21  -5  773.72   38.40
  -7 -14  -5  766.92   31.30
  14 -21   5  629.74   33.70
  14 -21   5  626.14   40.60
 -14  24  -5  680.13   38.90
 -10 -14  -5  655.93   43.90
  24 -10  -5  663.23   35.10
 -10 -14  -5  642.74   33.00
  14 -24   5  661.33   45.50
  27 -13  -5   42.40   17.50
 -14  27  -5   17.50   21.60
 -13 -14  -5   75.89   24.20
 -13 -14  -5   80.29   19.40
 -14  27  -5   65.39   21.60
  14 -27   5   46.50   19.60
  14 -27   5   65.99   25.90
  28 -15  -5  170.58   26.60
 -15 -13  -5   94.89   29.20
 -13  28  -5  169.38   27.20
 -13  28  -5  141.39   25.40
  28 -15  -5  162.88   24.90
 -15 -13  -5  147.69   22.60
  13 -28   5  126.59   24.60
  13 -28   5  144.49   32.20
  25 -15  -5  256.37   27.40
  25 -15  -5  245.98   30.30
 -15 -10  -5  303.67   35.50
 -10  25  -5  366.96   37.40
 -10  25  -5  266.27   31.30
  10 -25   5  316.37   37.40
  -7  22  -5  243.68   27.70
 -15  -7  -5  246.98   33.60
  22 -15  -5  283.97   25.50
  22 -15  -5  233.28   22.20
   7 -22   5  254.37   25.20
   7 -22   5  239.88   30.50
  15   7   5  221.28   28.60
  19 -15  -5  543.65   23.70
  -4  19  -5  572.14   30.50
 -15  -4  -5  565.24   34.70
  19 -15  -5  573.64   26.00
   4 -19   5  556.44   29.50
  15   4   5  566.44   32.10
   4 -19   5  568.44   39.20
  16 -15  -5   -4.70    6.00
  16 -15  -5   -3.00    7.20
  -1  16  -5   16.50   13.70
 -15  -1  -5   -2.00   13.80
  -1  16  -5    6.00   10.60
   1 -16   5    6.30    9.60
  15   1   5    7.30   12.20
   1 -16   5    5.80   13.40
  15   1   5   17.00   10.30
   2  13  -5  161.38   18.50
  13 -15  -5  176.98   11.80
  13 -15  -5  190.88   12.70
 -15   2  -5  196.38   23.50
   2  13  -5  177.48   23.10
  -2 -13   5  221.88   25.50
  -2 -13   5  190.98   17.10
  15  -2   5  176.28   21.40
  15  -2   5  202.18   19.40
 -15   5  -5  406.66   26.90
   5  10  -5  432.36   21.70
  10 -15  -5  440.86   16.10
   5  10  -5  439.06   27.80
  15  -5   5  470.85   27.90
  -5 -10   5  480.45   20.60
  -5 -10   5  520.55   23.90
  15  -5   5  480.85   25.00
   8   7  -5 2297.97   58.39
   7 -15  -5 2187.78   40.50
   8   7  -5 2231.28   46.50
 -15   8  -5 2155.08   53.89
 -15   8  -5 2199.38   53.99
  -8  -7   5 2057.29   42.90
  15  -8   5 2144.39   55.49
  -8  -7   5 2118.99   41.40
  15  -8   5 2118.59   50.49
  11   4  -5 3808.32   78.99
   4 -15  -5 3642.64   60.79
  11   4  -5 3781.32   65.29
 -15  11  -5 3746.03   75.09
 -15  11  -5 3590.84   75.79
  15 -11   5 3386.86   74.89
 -11  -4   5 3430.26   56.79
 -11  -4   5 3387.66   54.89
  15 -11   5 3587.04   70.69
  14   1  -5 3478.55   67.29
 -15  14  -5 3541.75   73.39
  14   1  -5 3450.65   75.39
 -15  14  -5 3416.06   75.69
   1 -15  -5 3439.56   61.09
  15 -14   5 3767.62   74.69
  15 -14   5 3576.94   80.29
 -14  -1   5 3675.03   54.49
 -14  -1   5 3611.54   55.79
  -1  15   5 3558.24   50.59
  -2 -15  -5 1544.75   39.20
 -15  17  -5 1537.95   47.90
 -15  17  -5 1471.35   49.40
  17  -2  -5 1511.15   42.20
  15 -17   5 1701.03   55.89
   2  15   5 1634.74   34.50
  15 -17   5 1721.23   49.50
 -17   2   5 1714.73   29.50
 -17   2   5 1696.63   29.70
  -5 -15  -5  928.51   33.30
  20  -5  -5  910.71   35.30
 -15  20  -5  937.91   41.20
   5  15   5  894.71   29.20
  15 -20   5  990.70   40.10
  15 -20   5  872.31   45.50
  -8 -15  -5  683.63   43.30
 -15  23  -5  583.14   37.00
  -8 -15  -5  629.74   31.40
  26 -11  -5  172.68   23.00
 -11 -15  -5  138.49   27.80
 -11 -15  -5  136.09   19.90
 -15  26  -5  159.88   23.50
 -15  26  -5  160.98   25.10
  15 -26   5  156.88   23.80
  15 -26   5  136.49   29.10
  29 -14  -5   21.30   19.80
 -14 -15  -5   32.20   17.90
 -15  29  -5   19.10   23.50
 -14 -15  -5   43.30   27.80
 -15  29  -5   17.30   20.60
  15 -29   5   72.69   30.30
  15 -29   5   65.79   23.70
 -14  30  -5   21.20   25.70
  30 -16  -5   -6.30   22.00
 -16 -14  -5   10.70   17.80
 -14  30  -5   47.30   22.50
  30 -16  -5   57.99   26.60
 -16 -14  -5   21.00   29.40
  14 -30   5  -41.80   20.40
  14 -30   5   12.20   32.10
  27 -16  -5   97.49   20.60
 -11  27  -5  104.79   25.00
 -16 -11  -5   72.59   27.80
  27 -16  -5  117.29   23.70
 -11  27  -5  103.79   24.00
  11 -27   5   61.99   20.10
  11 -27   5   58.89   28.60
 -16  -8  -5  200.58   27.10
  24 -16  -5  194.28   23.20
  24 -16  -5  212.68   24.20
  -8  24  -5  190.18   23.70
   8 -24   5  179.28   28.90
  -5  21  -5   30.20   14.60
  21 -16  -5   15.40   12.00
 -16  -5  -5   10.70   17.20
  21 -16  -5   21.70   11.00
   5 -21   5   12.20   12.10
  16   5   5   22.50   15.80
   5 -21   5   20.50   18.50
  -2  18  -5  335.87   25.50
 -16  -2  -5  296.57   30.40
  18 -16  -5  321.17   18.70
  18 -16  -5  283.97   19.70
   2 -18   5  388.16   25.00
  16   2   5  384.06   29.10
   2 -18   5  299.07   33.10
  15 -16  -5   55.89    9.00
 -16   1  -5   38.00   15.80
   1  15  -5   60.99   13.20
   1  15  -5   45.60   15.20
  15 -16  -5   63.89    9.30
  -1 -15   5   81.29   19.30
  16  -1   5   79.19   15.90
  16  -1   5   82.09   14.60
  -1 -15   5   70.09   12.90
   4  12  -5  129.39   18.60
 -16   4  -5  148.99   19.00
  12 -16  -5  151.98    9.60
   4  12  -5  155.68   17.90
  12 -16  -5  127.99   11.90
  -4 -12   5  167.48   20.40
  16  -4   5  170.88   22.00
  16  -4   5  158.38   19.10
  -4 -12   5  165.88   16.40
   7   9  -5  546.75   24.20
   7   9  -5  426.86   45.60
   9 -16  -5  516.95   18.30
 -16   7  -5  522.85   28.90
  16  -7   5  538.45   26.90
  -7  -9   5  553.44   21.60
  16  -7   5  584.34   30.70
  -7  -9   5  522.15   24.10
   6 -16  -5    8.40    6.70
  10   6  -5   17.90    9.40
  10   6  -5   23.50   11.80
 -16  10  -5   -6.70   10.80
 -16  10  -5    6.00   11.30
 -10  -6   5   -0.70    7.90
 -10  -6   5    7.80    6.30
  16 -10   5   -9.80   11.20
  16 -10   5   -9.30    9.40
   3 -16  -5  111.59   13.30
  13   3  -5  138.79   19.50
 -16  13  -5  129.19   17.80
 -16  13  -5  138.59   18.40
 -13  -3   5  118.39   14.50
 -13  -3   5  123.59   11.20
  16 -13   5  124.59   16.50
  16 -13   5  121.79   21.10
   0 -16  -5   10.60    8.50
 -16  16  -5   -4.90   12.40
 -16  16  -5   40.20   13.10
  16   0  -5   12.60    9.90
 -16   0   5    1.20    5.70
 -16   0   5    8.90    7.40
   0  16   5    7.10    5.70
  16 -16   5   -9.90   13.60
  16 -16   5  -13.10   10.00
  19  -3  -5   35.50   12.50
 -16  19  -5   12.70   15.10
  -3 -16  -5   14.80   10.30
   3  16   5   40.60    9.60
 -19   3   5   32.60    7.40
  16 -19   5   40.90   14.20
 -19   3   5   23.60    5.90
  16 -19   5    5.00   17.20
  22  -6  -5   11.90   14.40
  -6 -16  -5   28.90   11.70
  -6 -16  -5   -2.00   17.30
 -16  22  -5   15.80   16.40
   6  16   5   15.70   10.20
  16 -22   5    9.80   19.50
  16 -22   5    6.30   13.20
  -9 -16  -5   23.60   13.20
  -9 -16  -5    6.50   21.40
 -16  25  -5    5.70   18.30
 -16  25  -5   17.80   18.60
  25  -9  -5   35.70   16.50
  16 -25   5   46.20   25.40
  16 -25   5  -11.30   16.00
 -16  28  -5   42.00   21.30
 -16  28  -5   -2.20   22.00
  28 -12  -5    1.80   17.60
 -12 -16  -5   -1.20   27.00
 -12 -16  -5  -12.60   15.90
  16 -28   5  -13.10   26.80
  16 -28   5   11.30   18.70
 -17 -12  -5  126.79   32.70
  29 -17  -5  204.18   29.90
 -17 -12  -5  165.68   23.80
  29 -17  -5  168.28   26.20
 -12  29  -5  114.89   24.70
 -12  29  -5  186.98   30.50
  12 -29   5  151.18   33.40
  12 -29   5  134.19   25.00
  -9  26  -5  187.08   30.30
  26 -17  -5  249.58   28.90
 -17  -9  -5  235.28   32.00
  26 -17  -5  252.67   33.10
  -9  26  -5  253.97   32.00
   9 -26   5  200.98   25.80
   9 -26   5  230.78   34.90
 -17  -6  -5  137.49   25.70
  -6  23  -5  105.09   19.90
  23 -17  -5  130.79   17.90
  23 -17  -5  141.69   19.60
  17   6   5  136.69   22.80
   6 -23   5  118.49   27.00
 -17  -3  -5    2.80   16.40
  20 -17  -5   32.90   10.70
  -3  20  -5   13.30   12.50
  20 -17  -5   17.80   11.30
  17   3   5   67.19   22.50
   3 -20   5   44.40   13.30
   3 -20   5  -10.00   16.20
   0  17  -5    2.80   12.00
   0  17  -5   20.40   13.10
  17 -17  -5    8.20    7.60
  17 -17  -5   12.50    8.60
 -17   0  -5   15.90   15.40
  17   0   5    4.80   12.80
   0 -17   5   12.30   15.80
  17   0   5   20.50   15.50
  14 -17  -5    8.10    7.10
  14 -17  -5    2.50    6.60
   3  14  -5    7.20   10.50
   3  14  -5  -18.40   12.30
  17  -3   5    7.80   12.80
  17  -3   5   10.20   10.80
  -3 -14   5    2.70    9.30
  11 -17  -5  718.53   22.60
   6  11  -5  741.03   28.60
   6  11  -5  700.73   35.40
 -17   6  -5  745.03   34.70
  17  -6   5  675.33   30.60
  17  -6   5  703.23   34.40
  -6 -11   5  666.13   25.60
  -6 -11   5  638.04   28.60
   9   8  -5 2472.85   63.99
   9   8  -5 2557.84   53.09
 -17   9  -5 2511.25   60.99
   8 -17  -5 2465.45   46.80
  17  -9   5 2340.77   56.29
  17  -9   5 2309.67   61.19
  -9  -8   5 2294.97   49.10
  -9  -8   5 2345.77   47.00
 -17  12  -5 2711.53   64.29
 -17  12  -5 2389.56   76.79
  12   5  -5 2723.93   67.99
  12   5  -5 2739.43   55.09
   5 -17  -5 2681.43   50.59
 -12  -5   5 2706.73   48.80
 -12  -5   5 2685.43   51.39
  17 -12   5 2618.04   77.69
  17 -12   5 2610.44   63.69
 -17  15  -5 1293.77   44.40
 -17  15  -5 1278.57   45.30
   2 -17  -5 1229.98   33.80
  15   2  -5 1308.47   46.10
  17 -15   5 1495.15   51.79
  17 -15   5 1436.26   45.70
  -2  17   5 1439.26   25.30
 -15  -2   5 1497.35   32.10
 -15  -2   5 1474.95   33.90
  -1 -17  -5 1362.06   38.40
  18  -1  -5 1362.26   42.70
 -17  18  -5 1372.46   48.10
  17 -18   5 1327.37   45.50
   1  17   5 1360.66   30.90
 -18   1   5 1372.36   28.80
 -18   1   5 1371.16   31.00
  17 -18   5 1423.36   53.09
  -4 -17  -5  859.21   33.00
  21  -4  -5  764.92   38.50
 -17  21  -5  885.61   41.10
   4  17   5  784.82   27.90
  17 -21   5  798.22   46.70
 -21   4   5  831.82   22.10
 -21   4   5  821.72   20.50
  17 -21   5  854.71   39.60
 -17  24  -5  610.04   43.70
  -7 -17  -5  582.14   31.50
  24  -7  -5  610.74   34.30
  -7 -17  -5  686.63   45.40
 -17  24  -5  615.14   40.00
   7  17   5  506.85   27.90
 -24   7   5  529.85   15.10
  17 -24   5  525.25   44.50
 -17  27  -5   11.90   21.90
 -17  27  -5   60.99   21.50
 -10 -17  -5   75.19   28.20
  27 -10  -5   70.09   20.10
  10  17   5   64.89   20.00
  17 -27   5   11.40   18.00
  17 -27   5    2.90   26.40
 -13 -17  -5   42.80   30.10
 -17  30  -5   -5.00   21.40
 -17  30  -5   10.20   22.90
  30 -13  -5   -3.00   23.00
 -13 -17  -5  -24.30   17.30
  17 -30   5   25.00   20.20
  17 -30   5   13.00   32.70
 -10  28  -5  235.98   28.20
  28 -18  -5  320.17   33.70
 -18 -10  -5  277.97   37.80
 -10  28  -5  269.17   34.00
  28 -18  -5  296.37   38.90
  10 -28   5  258.47   38.90
  10 -28   5  240.88   29.00
  25 -18  -5  622.04   37.30
  25 -18  -5  652.43   35.00
 -18  -7  -5  764.02   48.10
  -7  25  -5  693.93   45.30
  -7  25  -5  656.33   40.20
   7 -25   5  596.64   49.20
  18   7   5  716.83   43.60
  -4  22  -5  166.88   21.00
  22 -18  -5  166.78   19.70
 -18  -4  -5  179.68   26.40
  22 -18  -5  172.58   19.30
   4 -22   5  209.68   27.60
  18   4   5  278.57   31.90
   4 -22   5  261.37   26.30
  -1  19  -5   75.19   16.70
 -18  -1  -5   64.49   18.80
  19 -18  -5   68.99   12.00
  19 -18  -5   61.59   12.70
   1 -19   5   47.60   20.30
  18   1   5   39.90   17.00
  18   1   5   57.59   15.40
   1 -19   5   41.40   13.90
 -18   2  -5  266.27   28.30
  16 -18  -5  260.67   16.90
   2  16  -5  282.37   24.20
  16 -18  -5  250.97   17.30
  18  -2   5  260.87   30.40
  18  -2   5  252.37   24.40
  -2 -16   5  250.27   24.90
   5  13  -5   31.50   14.20
  13 -18  -5   45.80    6.80
 -18   5  -5   42.00   15.10
   5  13  -5   40.20   13.00
  13 -18  -5   44.80    9.00
  -5 -13   5   87.09   13.50
  -5 -13   5   59.59   15.30
  18  -5   5   64.99   16.70
 -18   8  -5 1022.60   46.90
   8  10  -5 1065.59   34.50
   8  10  -5 1050.09   43.00
  10 -18  -5 1038.30   28.70
  18  -8   5 1053.69   43.80
  -8 -10   5 1014.60   31.20
  -8 -10   5 1065.89   34.70
   7 -18  -5 2475.15   49.00
  11   7  -5 2450.05   65.59
  11   7  -5 2505.75   53.89
 -18  11  -5 2423.86   62.69
  18 -11   5 2256.27   60.29
  18 -11   5 1962.50   70.89
 -11  -7   5 2406.06   49.70
 -11  -7   5 2431.26   47.20
 -18  14  -5 1020.30   40.50
 -18  14  -5 1033.00   41.40
   4 -18  -5 1048.20   31.30
  14   4  -5 1101.49   43.20
  18 -14   5 1082.49   40.30
 -14  -4   5 1061.49   28.80
 -14  -4   5 1120.89   32.00
  18 -14   5 1134.19   45.60
   1 -18  -5 1314.77   37.00
  17   1  -5 1353.36   43.30
 -18  17  -5 1364.96   47.90
  18 -17   5 1416.16   46.70
  18 -17   5 1397.66   52.69
 -17  -1   5 1404.46   31.50
  -1  18   5 1354.96   28.30
 -17  -1   5 1372.56   34.00
 -18  20  -5 1033.30   43.70
  -2 -18  -5 1046.90   35.50
 -20   2   5 1082.19   28.60
  18 -20   5 1236.28   45.80
   2  18   5 1046.90   29.70
  18 -20   5 1101.89   52.09
 -20   2   5 1055.59   26.10
  -5 -18  -5  740.13   33.50
  23  -5  -5  744.63   36.90
  -5 -18  -5  778.22   45.70
 -18  23  -5  726.73   41.70
  18 -23   5  766.42   48.80
   5  18   5  695.53   29.20
 -23   5   5  723.93   22.10
 -23   5   5  693.83   20.10
 -18  26  -5  209.38   27.50
 -18  26  -5  318.27   38.50
  26  -8  -5  212.48   26.40
  -8 -18  -5  164.58   21.20
  -8 -18  -5  257.77   35.00
  18 -26   5  161.38   24.40
 -26   8   5  198.78   13.30
   8  18   5  179.58   24.90
  18 -26   5  163.78   30.10
 -11 -18  -5  -13.50   17.40
 -11 -18  -5  -72.89   27.20
 -18  29  -5   -7.80   24.70
 -18  29  -5   41.00   21.60
  29 -11  -5  -24.20   21.10
  18 -29   5  -23.90   19.30
  11  18   5  -14.40   17.00
  18 -29   5   25.10   28.80
 -11  30  -5  156.18   28.40
 -11  30  -5  128.19   23.70
  30 -19  -5  182.08   30.90
  30 -19  -5  213.38   30.80
 -19 -11  -5  278.87   37.60
 -19 -11  -5  163.08   34.70
  11 -30   5  183.08   39.40
  11 -30   5  175.38   24.70
  -8  27  -5  328.87   36.80
  27 -19  -5  369.76   33.00
 -19  -8  -5  379.26   45.50
  -8  27  -5  366.56   42.40
  27 -19  -5  350.06   37.30
   8 -27   5  319.77   35.50
   8 -27   5  326.67   40.20
  -5  24  -5  341.47   32.70
  24 -19  -5  263.17   28.90
  -5  24  -5  283.67   35.90
 -19  -5  -5  274.57   33.60
   5 -24   5  352.86   42.50
  19   5   5  359.06   36.90
 -19  -2  -5  156.28   24.50
  21 -19  -5  195.38   23.40
  -2  21  -5  197.38   23.80
  21 -19  -5  205.68   20.80
   2 -21   5  229.38   26.20
   2 -21   5  184.18   26.80
  19   2   5  274.07   31.80
  18 -19  -5   72.79   12.50
   1  18  -5   55.19   14.30
  18 -19  -5   97.29   13.60
 -19   1  -5   89.49   19.20
  -1 -18   5   71.89   14.20
  19  -1   5   50.19   16.40
  19  -1   5   51.69   15.60
  15 -19  -5  522.55   22.30
  15 -19  -5  504.25   19.50
 -19   4  -5  512.35   34.40
   4  15  -5  486.75   28.10
  19  -4   5  405.06   31.70
  19  -4   5  472.95   29.50
  -4 -15   5  518.75   31.60
  -4 -15   5  544.35   27.20
   7  12  -5  226.18   27.00
 -19   7  -5  151.18   20.40
  12 -19  -5  171.48   15.70
  -7 -12   5  182.08   18.20
  -7 -12   5  183.28   22.80
  19  -7   5  214.78   26.70
  19  -7   5  189.78   22.80
  10   9  -5  577.04   34.40
 -19  10  -5  541.55   33.50
   9 -19  -5  508.45   22.20
  10   9  -5  574.74   27.30
 -10  -9   5  478.25   26.10
 -10  -9   5  480.55   22.30
  19 -10   5  481.45   28.50
  19 -10   5  494.95   33.70
   6 -19  -5   60.79   11.10
 -19  13  -5   44.80   13.50
  13   6  -5   80.19   17.40
 -19  13  -5   20.10   14.40
 -13  -6   5   72.59   11.30
 -13  -6   5   67.99   13.00
  19 -13   5   73.39   18.50
  19 -13   5   67.49   15.50
  16   3  -5   14.30   13.70
 -19  16  -5   -4.00   10.20
 -19  16  -5  -12.30   13.70
   3 -19  -5   -3.60    8.80
 -16  -3   5    2.70    7.30
 -16  -3   5  -18.10   10.10
  19 -16   5    5.20   16.40
  19 -16   5   -2.10   12.70
  -3  19   5    7.00    4.80
   0 -19  -5  -17.70    9.60
 -19  19  -5   -4.90   14.20
  19   0  -5    6.70   13.50
  19 -19   5    4.90   14.00
 -19   0   5   -3.10    9.80
  19 -19   5   15.80   19.20
   0  19   5   18.30    7.60
 -19   0   5    8.00    7.60
  -3 -19  -5    1.00   11.90
 -19  22  -5   -3.70   16.90
  22  -3  -5   22.10   15.70
  19 -22   5    7.30   20.70
 -22   3   5   24.80    8.50
   3  19   5   22.80   10.00
 -22   3   5   11.60    9.80
 -19  25  -5   16.60   20.10
  -6 -19  -5   23.40   22.80
 -19  25  -5    2.10   21.00
  -6 -19  -5    9.10   14.40
  25  -6  -5   13.90   15.50
  19 -25   5   64.29   19.40
  19 -25   5   25.00   23.80
   6  19   5   23.30   13.60
 -25   6   5   34.10    8.40
 -25   6   5   34.10    9.80
  28  -9  -5  -13.00   18.50
 -19  28  -5  -10.50   24.00
  -9 -19  -5   13.30   27.70
  -9 -19  -5   37.60   18.10
 -19  28  -5   42.70   22.40
  19 -28   5    0.70   21.80
   9  19   5    5.40   15.80
  19 -28   5   -7.20   27.00
  -9  29  -5  168.78   27.60
  29 -20  -5  210.58   29.70
  -9  29  -5  186.68   30.80
  29 -20  -5  191.28   28.00
 -20  -9  -5  182.08   33.20
   9 -29   5  211.88   41.30
   9 -29   5  213.48   30.00
  -6  26  -5   63.99   19.70
  -6  26  -5   37.00   24.50
  26 -20  -5  124.09   20.70
 -20  -6  -5   96.89   29.00
  26 -20  -5   78.59   20.80
   6 -26   5   54.79   25.30
  20   6   5  121.49   25.50
   6 -26   5   87.79   22.00
 -20  -3  -5   26.50   21.30
  -3  23  -5   -2.70   18.50
  23 -20  -5   20.70   13.80
  23 -20  -5   27.80   15.60
  -3  23  -5   27.60   15.40
   3 -23   5   18.90   21.10
  20   3   5   28.40   20.00
   0  20  -5    9.00   14.50
 -20   0  -5    7.80   18.70
  20 -20  -5   11.70   12.00
  20 -20  -5   -4.20   10.30
  20   0   5    7.90   14.40
   0 -20   5   -5.50   12.50
  20   0   5   -8.80   16.70
 -20   3  -5   83.49   19.50
   3  17  -5  104.59   17.80
  17 -20  -5  100.79   13.10
  17 -20  -5   86.69   13.50
  20  -3   5   49.20   16.50
  -3 -17   5   56.69   14.00
  20  -3   5   82.19   17.60
 -20   6  -5  363.06   31.80
  14 -20  -5  359.46   20.60
  14 -20  -5  389.36   15.70
   6  14  -5  395.06   26.80
  20  -6   5  389.26   32.10
  20  -6   5  351.76   27.80
  -6 -14   5  435.56   25.10
  -6 -14   5  436.06   29.70
  11 -20  -5  992.50   30.60
   9  11  -5 1059.09   36.40
   9  11  -5 1052.89   44.90
 -20   9  -5 1019.90   42.80
  20  -9   5 1049.79   40.50
  -9 -11   5 1080.19   37.80
  -9 -11   5 1112.69   34.40
  20  -9   5 1040.60   45.10
  12   8  -5 1074.39   46.30
   8 -20  -5 1117.89   32.80
 -20  12  -5 1110.09   45.20
  20 -12   5 1122.19   46.00
  20 -12   5 1032.10   40.20
 -12  -8   5 1070.89   32.50
 -12  -8   5 1067.79   35.60
 -20  15  -5 1006.40   43.80
  15   5  -5 1054.59   45.00
   5 -20  -5  996.00   32.80
  20 -15   5 1005.50   41.20
 -15  -5   5  951.40   33.00
 -15  -5   5  955.20   29.30
  20 -15   5 1033.40   46.20
 -20  18  -5 1198.28   46.40
 -18  -2   5 1264.67   36.10
  20 -18   5 1273.17   52.99
  20 -18   5 1308.57   47.30
 -18  -2   5 1277.67   33.00
  -2  20   5 1269.77   27.70
  21  -1  -5  827.02   39.30
  -1 -20  -5  843.72   34.00
 -20  21  -5  776.22   42.40
   1  20   5  818.02   26.90
 -21   1   5  853.81   28.90
  20 -21   5  884.71   49.20
 -21   1   5  850.11   26.10
 -20  24  -5  543.25   41.70
 -20  24  -5  434.46   39.00
  24  -4  -5  457.05   35.00
  -4 -20  -5  474.95   29.90
  20 -24   5  516.65   46.60
 -24   4   5  493.25   22.60
   4  20   5  435.66   26.00
 -24   4   5  475.15   20.10
  20 -24   5  534.35   38.90
 -20  27  -5  180.38   28.90
 -20  27  -5  187.28   28.30
  -7 -20  -5  181.18   23.60
  -7 -20  -5  207.58   34.10
  27  -7  -5  190.88   26.40
 -27   7   5  163.88   17.00
 -27   7   5  198.18   15.30
   7  20   5  161.88   20.60
  20 -27   5  190.18   35.20
  20 -27   5  136.19   25.50
 -20  30  -5   72.79   23.80
 -10 -20  -5  -23.50   32.40
 -10 -20  -5   37.00   17.90
  30 -10  -5   -3.60   23.70
 -20  30  -5   46.70   29.10
  20 -30   5  -70.29   40.10
  20 -30   5    6.20   32.50
  10  20   5   14.40   18.70
  -7  28  -5  206.78   32.40
 -21  -7  -5  255.57   36.50
  28 -21  -5  314.37   39.60
  28 -21  -5  389.26   36.60
  -7  28  -5  278.37   37.60
  21   7   5  364.26   46.10
   7 -28   5  327.47   34.50
   7 -28   5  291.77   39.30
  -4  25  -5  511.85   38.70
 -21  -4  -5  561.94   47.20
  -4  25  -5  541.35   43.50
  25 -21  -5  574.44   36.50
  25 -21  -5  565.54   33.80
  21   4   5  531.15   42.70
   4 -25   5  465.25   48.50
   4 -25   5  509.05   38.30
  22 -21  -5  425.46   28.90
  -1  22  -5  411.76   33.10
  -1  22  -5  454.25   39.60
 -21  -1  -5  454.15   41.20
  22 -21  -5  408.26   27.50
  19 -21  -5  140.69   16.70
  19 -21  -5  154.28   17.20
 -21   2  -5  130.99   23.50
   2  19  -5  109.19   18.10
  -2 -19   5  209.68   24.00
  21  -2   5  219.08   27.50
  21  -2   5  131.29   20.00
   5  16  -5   -4.40   12.20
  16 -21  -5    4.80    9.60
 -21   5  -5    3.90   17.50
  16 -21  -5    5.90    9.60
  -5 -16   5  -11.40   14.90
  21  -5   5    5.80   12.80
  -5 -16   5    9.00   11.20
  21  -5   5  -10.30   14.70
 -21   8  -5  167.58   22.40
  13 -21  -5  220.38   18.60
   8  13  -5  182.58   22.70
  21  -8   5  223.58   30.40
  -8 -13   5  246.38   27.20
  -8 -13   5  237.98   21.60
  21  -8   5  271.37   26.60
  11  10  -5  592.54   29.80
  10 -21  -5  564.84   25.30
 -21  11  -5  568.44   37.20
  11  10  -5  544.45   36.20
 -11 -10   5  552.54   25.60
 -11 -10   5  529.85   29.60
  21 -11   5  546.75   37.60
  21 -11   5  526.45   31.70
  14   7  -5  895.51   43.20
 -21  14  -5  940.61   43.90
   7 -21  -5  890.01   31.30
  21 -14   5  742.93   36.90
 -14  -7   5  719.33   27.50
  21 -14   5  749.03   42.20
 -14  -7   5  765.42   31.80
 -21  17  -5  974.80   43.70
  17   4  -5  984.20   45.30
   4 -21  -5  977.30   44.90
 -17  -4   5  962.30   34.00
  21 -17   5  991.80   48.80
 -17  -4   5  941.81   30.00
  21 -17   5  910.41   41.30
  -4  21   5 1005.00   23.90
 -21  20  -5  972.50   46.50
   1 -21  -5  956.90   36.10
  20   1  -5  975.20   41.50
 -20  -1   5 1025.10   33.70
  21 -20   5 1115.29   53.79
 -20  -1   5 1021.90   30.20
  -1  21   5 1001.20   27.20
  23  -2  -5  545.45   36.00
 -21  23  -5  542.45   40.50
  -2 -21  -5  519.95   30.70
 -23   2   5  525.85   25.20
  21 -23   5  536.75   38.70
 -23   2   5  468.55   21.70
  21 -23   5  550.64   45.50
   2  21   5  488.65   24.70
 -21  26  -5  406.26   42.80
  -5 -21  -5  480.45   48.10
  26  -5  -5  357.96   35.60
 -21  26  -5  391.36   39.30
  -5 -21  -5  318.17   30.80
   5  21   5  358.06   28.10
 -26   5   5  373.86   21.20
 -26   5   5  316.87   18.90
  21 -26   5  426.16   40.40
  21 -26   5  395.16   48.50
 -21  29  -5   39.90   24.40
 -21  29  -5   37.50   23.70
  29  -8  -5  -35.90   21.20
  -8 -21  -5  -40.90   17.60
  -8 -21  -5  -23.60   32.30
  21 -29   5    5.20   21.70
  21 -29   5  -11.60   29.40
   8  21   5   -6.40   17.20
 -29   8   5    5.50    9.80
 -29   8   5   -3.80    9.30
  27 -22  -5  407.16   36.50
  -5  27  -5  389.66   45.00
  -5  27  -5  370.26   39.40
 -22  -5  -5  324.77   38.30
  27 -22  -5  386.86   46.90
  22   5   5  402.26   46.60
   5 -27   5  437.66   39.60
   5 -27   5  398.76   50.69
  -2  24  -5  413.06   36.90
  -2  24  -5  380.26   39.70
 -22  -2  -5  331.37   43.80
  24 -22  -5  362.16   29.40
  24 -22  -5  345.27   31.40
   2 -24   5  392.16   34.80
  22   2   5  389.06   42.50
   1  21  -5  567.34   34.80
 -22   1  -5  529.15   42.20
  21 -22  -5  569.64   29.30
  21 -22  -5  483.05   28.90
 -22   4  -5  375.16   36.50
  18 -22  -5  343.57   24.00
   4  18  -5  337.37   29.50
  18 -22  -5  377.36   22.70
  22  -4   5  388.36   35.50
  -4 -18   5  350.46   27.10
  22  -4   5  381.66   30.90
  -4 -18   5  401.86   35.80
 -22   7  -5  331.97   33.90
  15 -22  -5  270.27   15.90
  15 -22  -5  261.67   21.80
   7  15  -5  310.67   27.30
  22  -7   5  281.37   31.80
  22  -7   5  243.28   27.20
  -7 -15   5  263.87   23.80
  -7 -15   5  239.08   29.70
 -22  10  -5  378.16   33.80
  10  12  -5  289.07   25.80
  12 -22  -5  322.67   22.20
 -10 -12   5  362.36   26.90
  22 -10   5  378.36   35.00
 -10 -12   5  360.66   29.40
  22 -10   5  354.86   29.10
   9 -22  -5   23.90   10.90
  13   9  -5   50.89   17.50
 -22  13  -5   14.70   17.70
  22 -13   5    3.30   13.10
  22 -13   5   16.30   16.70
 -13  -9   5   39.70   14.90
 -13  -9   5    6.10   10.10
   6 -22  -5   -6.00   16.70
  16   6  -5   35.20   17.20
 -22  16  -5   -0.80   15.80
  22 -16   5  -31.00   12.90
 -16  -6   5    3.40    9.60
  22 -16   5    2.00   18.60
 -16  -6   5   -3.90   12.40
 -22  19  -5    9.70   18.10
   3 -22  -5    9.40   12.30
 -19  -3   5    7.80   10.50
  -3  22   5    6.10    7.20
 -19  -3   5   27.50   13.80
  22 -19   5   45.90   22.10
 -22  22  -5   10.60   19.00
   0 -22  -5   20.00   14.50
  22   0  -5   -5.90   16.50
 -22   0   5    1.40   12.80
 -22   0   5   25.70   10.50
   0  22   5   20.80    9.70
  22 -22   5   -1.40   22.10
  22 -22   5   15.30   17.90
  -3 -22  -5   22.30   16.80
 -22  25  -5   19.60   23.20
 -22  25  -5   32.70   22.10
  25  -3  -5   43.80   19.30
   3  22   5   22.60   13.00
  22 -25   5   24.80   25.30
 -25   3   5   47.60   11.40
  22 -25   5   44.10   21.80
 -25   3   5   41.00   13.50
  -6 -22  -5   54.49   20.00
 -22  28  -5   21.90   23.00
  28  -6  -5   44.80   22.80
 -22  28  -5   55.19   25.70
  -6 -22  -5   45.80   32.00
 -28   6   5   52.39   13.00
   6  22   5   28.30   17.40
  22 -28   5   37.60   32.90
  22 -28   5   51.99   24.80
 -28   6   5   36.20   11.60
 -23  -6  -5   14.30   28.80
  -6  29  -5   88.89   21.50
  -6  29  -5   54.69   31.60
  29 -23  -5   24.60   22.30
  29 -23  -5   90.69   26.50
   6 -29   5  109.79   35.80
  23   6   5   92.69   31.60
   6 -29   5  109.89   24.00
  -3  26  -5   19.90   22.00
 -23  -3  -5  -31.50   25.90
  26 -23  -5   32.90   18.20
  26 -23  -5   11.00   20.40
  -3  26  -5    5.40   24.00
  23   3   5   11.70   23.80
   3 -26   5   27.50   21.60
  23 -23  -5    0.40   15.30
   0  23  -5   27.80   21.30
  23 -23  -5  -13.20   13.70
   0  23  -5   13.70   17.80
 -23   0  -5   34.20   24.80
  23   0   5    0.80   20.60
  20 -23  -5  107.09   17.20
   3  20  -5  119.19   21.30
 -23   3  -5   76.59   25.90
  20 -23  -5   87.59   15.80
  -3 -20   5    3.70   12.70
  23  -3   5   73.49   21.70
 -23   6  -5  151.58   25.00
   6  17  -5  159.38   21.70
  17 -23  -5  159.88   20.90
  17 -23  -5  180.18   18.00
  -6 -17   5  165.58   20.30
  23  -6   5  140.29   24.60
  -6 -17   5  173.48   24.60
 -23   9  -5  217.78   28.20
  14 -23  -5  244.48   22.10
   9  14  -5  181.78   21.10
  23  -9   5  201.48   27.40
  -9 -14   5  149.59   18.30
  -9 -14   5  170.78   22.90
  11 -23  -5  684.23   29.50
  12  11  -5  683.23   33.60
 -23  12  -5  563.24   40.20
 -12 -11   5  562.44   33.80
  23 -12   5  591.34   40.40
  15   8  -5  670.83   41.40
 -23  15  -5  667.73   40.80
 -15  -8   5  562.74   32.00
  23 -15   5  632.24   41.60
 -15  -8   5  586.44   27.30
 -23  18  -5  603.54   41.10
  18   5  -5  680.33   41.90
   5 -23  -5  650.73   31.40
 -18  -5   5  635.84   27.40
  23 -18   5  649.83   45.00
 -18  -5   5  641.84   33.00
   2 -23  -5  603.84   32.30
 -23  21  -5  595.94   42.70
  -2  23   5  614.14   22.00
 -21  -2   5  591.54   30.60
  23 -21   5  555.04   38.80
  23 -21   5  647.54   48.50
 -21  -2   5  534.45   25.80
 -23  24  -5  528.25   42.20
  24  -1  -5  709.33   42.70
 -23  24  -5  754.12   47.20
  -1 -23  -5  767.02   38.90
   1  23   5  706.33   29.20
  23 -24   5  793.52   51.39
 -24   1   5  693.63   31.00
 -24   1   5  717.43   27.70
  23 -24   5  657.43   44.00
 -23  27  -5  215.28   32.60
  -4 -23  -5  202.78   26.40
 -23  27  -5  133.39   28.00
  27  -4  -5  154.38   28.10
  -4 -23  -5  173.38   36.70
  23 -27   5  153.38   28.20
 -27   4   5  219.98   20.50
   4  23   5  236.98   26.90
  23 -27   5  185.78   36.60
 -27   4   5  244.48   23.50
  28 -24  -5  587.14   45.80
 -24  -4  -5  462.85   53.79
  28 -24  -5  633.34   43.90
  -4  28  -5  573.44   49.00
  -4  28  -5  564.04   43.10
  24   4   5  652.03   56.09
   4 -28   5  541.05   44.00
  25 -24  -5  302.87   34.40
  25 -24  -5  303.87   32.30
 -24  -1  -5  257.87   35.30
  -1  25  -5  309.57   41.30
  -1  25  -5  329.07   39.50
  24   1   5  324.47   38.90
   1 -25   5  330.57   35.10
   2  22  -5  385.46   41.20
   2  22  -5  422.46   35.50
  22 -24  -5  414.66   30.50
 -24   2  -5  335.57   45.80
  22 -24  -5  381.26   29.10
  24  -2   5  373.36   41.70
  24  -2   5  426.86   37.10
  19 -24  -5  300.07   23.80
   5  19  -5  304.97   31.40
 -24   5  -5  312.07   35.80
  19 -24  -5  336.17   40.30
  -5 -19   5  397.96   38.30
  24  -5   5  264.07   36.30
  16 -24  -5  104.89   16.60
  16 -24  -5   86.29   12.00
   8  16  -5   96.49   18.70
 -24   8  -5   83.69   22.20
  -8 -16   5   68.69   16.00
  24  -8   5   88.39   23.10
  -8 -16   5   56.99   20.10
  13 -24  -5   88.89   17.40
  11  13  -5   86.89   18.00
 -24  11  -5   34.20   19.80
 -11 -13   5   37.00   12.80
 -11 -13   5   37.60   18.20
  24 -11   5   68.69   20.90
  14  10  -5  755.92   44.50
  10 -24  -5  721.93   32.60
 -24  14  -5  828.02   45.40
 -14 -10   5  651.33   30.30
 -14 -10   5  654.13   35.30
  24 -14   5  668.93   44.60
   7 -24  -5  734.93   33.50
  17   7  -5  746.13   45.60
 -24  17  -5  760.62   44.50
  24 -17   5  714.23   47.30
 -17  -7   5  686.73   30.10
 -17  -7   5  712.73   35.90
 -24  20  -5  448.26   38.80
  20   4  -5  366.26   37.60
   4 -24  -5  449.95   29.70
 -20  -4   5  395.56   24.80
  24 -20   5  379.86   36.00
  -4  24   5  410.56   17.70
  24 -20   5  412.96   45.30
 -20  -4   5  405.66   30.90
 -24  23  -5  556.14   41.30
 -24  23  -5  696.73   46.20
   1 -24  -5  627.84   35.90
  -1  24   5  634.54   25.60
 -23  -1   5  615.04   32.20
  24 -23   5  618.84   51.19
 -23  -1   5  650.03   28.40
  24 -23   5  626.84   42.50
  -2 -24  -5  340.87   34.20
  26  -2  -5  280.97   32.80
 -24  26  -5  175.68   27.50
 -24  26  -5  236.48   31.70
  24 -26   5  331.27   40.00
 -26   2   5  260.17   22.60
 -26   2   5  240.68   25.70
  24 -26   5  297.67   41.80
   2  24   5  325.47   25.90
  27 -25  -5  591.54   44.30
  -2  27  -5  599.84   43.70
  27 -25  -5  575.94   41.00
  -2  27  -5  495.45   46.40
 -25  -2  -5  584.64   57.39
  25   2   5  669.83   56.89
   2 -27   5  564.94   43.30
   1  24  -5  216.88   28.90
   1  24  -5  200.78   29.30
  24 -25  -5  336.07   33.20
  24 -25  -5  255.77   30.10
 -25   1  -5  240.58   35.80
  25  -1   5  332.67   45.40
  25  -1   5  287.17   36.60
  -1 -24   5  314.57   33.80
  21 -25  -5  489.05   30.60
 -25   4  -5  472.55   48.40
   4  21  -5  527.75   37.10
  21 -25  -5  471.25   31.00
   4  21  -5  477.25   43.00
  25  -4   5  411.46   43.50
  -4 -21   5  512.15   44.20
  25  -4   5  396.56   38.40
   7  18  -5  437.86   34.70
  18 -25  -5  432.76   24.80
 -25   7  -5  488.45   42.60
  18 -25  -5  492.75   30.30
  -7 -18   5  554.24   41.90
  25  -7   5  533.85   42.80
  15 -25  -5  259.07   25.60
  10  15  -5  196.28   24.10
 -25  10  -5  205.28   27.00
 -10 -15   5  220.18   24.40
  25 -10   5  204.98   28.70
 -10 -15   5  221.88   27.40
  12 -25  -5   29.70   14.40
 -25  13  -5   70.29   22.00
 -13 -12   5   14.20   18.70
  25 -13   5   68.39   23.30
 -13 -12   5  -12.50   11.60
   9 -25  -5   70.09   15.90
 -25  16  -5   47.30   20.30
  16   9  -5   31.40   21.40
 -16  -9   5   62.59   14.30
  25 -16   5   86.59   23.10
  25 -16   5   68.29   22.70
 -16  -9   5   53.69   18.30
   6 -25  -5   47.60   15.30
  19   6  -5   43.40   21.10
 -25  19  -5   58.89   23.60
  25 -19   5   45.40   23.20
  25 -19   5   21.70   18.80
  -6  25   5   55.99    8.10
 -19  -6   5   31.20   23.00
 -19  -6   5   49.20   18.30
 -25  22  -5   61.89   21.20
   3 -25  -5   30.20   16.30
 -25  22  -5   10.70   22.90
 -22  -3   5   36.60   17.00
  25 -22   5   19.00   19.30
  25 -22   5   36.60   26.10
  -3  25   5   46.40   10.20
 -22  -3   5   30.10   14.80
  25   0  -5   -6.80   20.80
 -25  25  -5  -21.90   19.40
   0 -25  -5   24.90   19.20
 -25  25  -5   42.50   23.90
 -25   0   5    4.50   13.20
  25 -25   5  -12.20   20.60
  25 -25   5  -12.20   26.70
   0  25   5   18.90   12.90
 -25   0   5   26.50   15.80
   0  26  -5    6.50   23.50
   0  26  -5   10.30   22.50
 -26   0  -5   16.60   31.20
  26 -26  -5  -23.30   19.10
  26 -26  -5   12.80   22.70
   0 -26   5   20.70   21.60
  26   0   5  -29.00   28.20
   3  23  -5   22.20   25.40
   3  23  -5   42.50   20.60
  23 -26  -5   65.79   19.10
  23 -26  -5   23.40   17.80
 -26   3  -5   44.00   28.70
  -3 -23   5   31.40   19.40
  26  -3   5   66.59   22.90
  26  -3   5   22.60   24.30
   6  20  -5  243.88   32.40
   6  20  -5  178.38   31.40
 -26   6  -5  230.78   32.00
  20 -26  -5  201.78   24.30
  20 -26  -5  269.17   28.60
  26  -6   5  273.37   35.70
  -6 -20   5  204.98   30.50
  26  -6   5  226.98   33.30
  17 -26  -5  317.67   21.40
 -26   9  -5  304.97   39.20
  17 -26  -5  326.87   28.20
   9  17  -5  310.27   32.00
  -9 -17   5  373.36   39.70
  26  -9   5  331.07   35.40
  26  -9   5  307.37   36.10
  14 -26  -5  384.26   29.10
 -26  12  -5  334.87   36.50
 -12 -14   5  349.87   28.40
 -12 -14   5  325.07   35.40
  26 -12   5  382.56   42.10
  26 -12   5  363.06   35.80
 -26  15  -5  118.49   24.20
  11 -26  -5  161.08   20.50
  15  11  -5  166.08   25.80
  26 -15   5   59.79   26.00
  26 -15   5   94.69   21.40
 -15 -11   5  112.09   17.90
 -15 -11   5  123.69   25.60
  18   8  -5  273.57   38.10
 -26  18  -5  204.88   28.80
   8 -26  -5  323.07   30.00
 -18  -8   5  212.88   24.30
  26 -18   5  248.38   35.30
  26 -18   5  148.99   24.00
 -18  -8   5  196.98   24.80
  21   5  -5  226.68   30.40
 -26  21  -5  253.07   31.80
  26 -21   5  283.57   37.40
 -21  -5   5  303.07   32.70
  26 -21   5  286.97   36.60
 -21  -5   5  317.27   25.80
  -5  26   5  270.07   17.40
 -26  24  -5  451.45   45.80
 -26  24  -5  284.37   39.00
   2 -26  -5  405.56   35.10
 -24  -2   5  424.06   33.70
  26 -24   5  365.66   50.99
 -24  -2   5  347.97   31.30
  -2  26   5  339.37   23.10
  26 -24   5  318.47   40.10
  -1 -26  -5  122.29   23.60
  27  -1  -5  160.38   31.00
 -26  27  -5  147.79   29.50
  26 -27   5  205.38   36.10
 -27   1   5  148.59   21.00
   1  26   5  158.68   19.80
   2  25  -5  467.85   42.60
  25 -27  -5  526.85   38.90
 -27   2  -5  443.16   53.19
  25 -27  -5  529.65   40.90
  -2 -25   5  539.35   42.10
  27  -2   5  580.44   56.79
  27  -2   5  501.45   45.00
   5  22  -5  190.08   32.80
 -27   5  -5  269.77   38.40
  22 -27  -5  220.98   25.90
  22 -27  -5  260.47   30.60
   5  22  -5  303.07   36.40
  27  -5   5  259.17   34.50
  -5 -22   5  260.97   36.80
  27  -5   5  321.57   41.10
  -5 -22   5  232.98   27.80
   8  19  -5  173.28   24.30
  19 -27  -5  216.48   24.40
   8  19  -5  165.78   29.00
 -27   8  -5  166.78   30.60
  19 -27  -5  194.58   24.00
  -8 -19   5  201.48   30.80
  27  -8   5  164.28   28.70
  27  -8   5  194.58   33.00
  16 -27  -5   52.39   17.20
 -27  11  -5   50.19   25.20
  11  16  -5   28.70   19.30
  11  16  -5   73.89   23.70
 -11 -16   5   55.99   22.40
  27 -11   5   78.29   26.50
 -11 -16   5   31.20   14.90
  27 -11   5   77.49   22.30
  14  13  -5   64.39   21.90
  13 -27  -5   75.79   17.40
 -27  14  -5   76.89   26.30
 -14 -13   5   83.19   18.00
  27 -14   5   86.29   25.30
 -14 -13   5   59.59   23.10
  27 -14   5  109.99   22.20
 -27  17  -5  110.29   25.20
  10 -27  -5   48.60   17.50
  17  10  -5   64.19   25.30
  27 -17   5   40.00   20.30
  27 -17   5   37.70   24.90
 -17 -10   5   46.50   32.50
 -17 -10   5   44.70   15.30
  20   7  -5  220.48   31.10
   7 -27  -5  199.78   23.80
 -27  20  -5  193.08   31.30
  27 -20   5  121.49   30.40
 -20  -7   5  158.68   20.10
 -20  -7   5  155.08   24.40
  -7  27   5  177.08   14.30
  27 -20   5  191.88   28.80
   4 -27  -5  291.47   33.50
 -27  23  -5  255.57   33.30
  23   4  -5  216.78   32.20
 -23  -4   5  251.67   32.90
  -4  27   5  261.67   19.80
 -23  -4   5  228.58   26.60
  27 -23   5  227.68   31.40
  27 -23   5  268.87   40.30
   1 -27  -5  155.48   24.80
 -27  26  -5  193.88   32.10
  27 -26   5  130.89   30.90
 -26  -1   5  177.48   23.40
  -1  27   5  172.78   22.80
 -26  -1   5  181.28   21.00
  24 -28  -5  541.05   39.90
 -28   4  -5  515.95   51.69
   4  24  -5  589.34   42.10
  24 -28  -5  492.75   38.00
   4  24  -5  633.04   64.79
  -4 -24   5  601.64   56.29
  -4 -24   5  533.15   41.50
  28  -4   5  482.15   46.50
  28  -4   5  587.94   55.79
   7  21  -5  266.27   35.00
 -28   7  -5  287.57   36.90
   7  21  -5  333.47   37.50
  21 -28  -5  358.06   35.50
  21 -28  -5  351.16   30.00
  28  -7   5  396.16   42.00
  -7 -21   5  342.47   35.00
  28  -7   5  275.67   37.20
  -7 -21   5  373.26   47.10
  18 -28  -5  272.67   30.30
 -28  10  -5  229.48   33.50
  10  18  -5  252.57   30.50
  18 -28  -5  262.57   23.20
  10  18  -5  213.98   32.40
  28 -10   5  254.07   32.10
  28 -10   5  244.08   35.20
 -10 -18   5  222.98   31.70
 -10 -18   5  233.48   31.60
 -28  13  -5  112.99   30.00
  15 -28  -5  145.49   22.40
  13  15  -5   83.69   25.40
  28 -13   5  117.19   24.80
  28 -13   5  169.88   34.10
 -13 -15   5   92.49   25.00
  12 -28  -5   -4.90   17.30
  16  12  -5   -2.60   22.70
 -28  16  -5  -16.40   21.80
 -16 -12   5   10.10   21.20
  28 -16   5   52.79   21.70
  28 -16   5  -36.00   25.10
 -16 -12   5   16.60   14.50
   9 -28  -5  -15.30   17.80
  19   9  -5   29.20   25.80
 -28  19  -5   48.20   26.40
 -19  -9   5  -32.00   20.00
  -9  28   5    8.80    7.40
 -19  -9   5   32.30   15.40
  28 -19   5   20.60   22.10
  28 -19   5   51.89   28.60
  22   6  -5   26.40   22.80
 -28  22  -5   62.29   27.30
   6 -28  -5   15.80   19.60
  28 -22   5   59.19   23.60
  28 -22   5   22.20   30.30
 -22  -6   5   53.39   17.30
  -6  28   5   52.69   10.50
  23 -29  -5  102.69   24.20
  23 -29  -5  114.69   21.60
   6  23  -5   96.39   23.20
 -29   6  -5   46.30   25.70
  29  -6   5   55.79   33.60
  29  -6   5   86.59   24.70
  -6 -23   5  173.78   35.00
  -6 -23   5   85.89   23.70
   9  20  -5  122.79   27.10
   9  20  -5  226.58   30.60
  20 -29  -5  243.48   28.80
  20 -29  -5  211.78   25.70
 -29   9  -5  139.69   31.70
  -9 -20   5  221.08   35.00
  29  -9   5  204.78   29.50
  -9 -20   5  265.97   34.60
  29  -9   5  214.08   36.70
  17 -29  -5  171.08   23.60
 -29  12  -5  140.59   31.30
  12  17  -5   86.29   26.20
  29 -12   5  162.98   33.20
  29 -12   5  161.18   27.40
 -12 -17   5  196.48   31.10
 -12 -17   5  126.29   21.60
  14 -29  -5   95.69   20.90
 -29  15  -5   79.69   27.00
  15  14  -5   51.19   23.50
 -15 -14   5  100.99   26.50
  29 -15   5  102.19   32.10
  29 -15   5   42.10   22.20
  11 -29  -5    3.00   20.00
 -29  18  -5   -3.90   23.40
  18  11  -5   34.40   23.70
  29 -18   5  -29.70   21.30
 -18 -11   5    2.30   21.80
 -18 -11   5  -12.00   15.60
  29 -18   5   15.70   26.00
   8 -29  -5    4.40   21.20
  21   8  -5   -7.40   23.90
 -29  21  -5   19.50   26.40
  -8  29   5   22.40    8.60
 -21  -8   5   18.40   22.90
  29 -21   5   -3.90   21.90
 -21  -8   5    0.20   16.20
  29 -21   5    3.00   30.60
  19 -30  -5   88.79   14.50
  19 -30  -5   30.90   22.30
 -30  11  -5   63.59   28.80
 -11 -19   5   94.39   21.80
 -11 -19   5   93.49   30.40
  30 -11   5   42.60   30.70
  30 -11   5   20.00   22.60
 -30  14  -5   -4.80   28.60
  14  16  -5   -7.50   37.90
  16 -30  -5   59.39   21.50
  30 -14   5   54.09   30.50
 -14 -16   5  -13.10   25.00
 -14 -16   5   39.00   20.30
  30 -14   5  -12.80   22.20
 -30  17  -5   61.69   29.70
  13 -30  -5  -25.00   19.80
  30 -17   5  -52.99   26.50
 -17 -13   5  -28.80   22.50
  30 -17   5   15.80   21.30
  10 -30  -5   37.90   23.20
 -30  20  -5  -24.20   23.30
 -20 -10   5   74.49   25.90
  30 -20   5   30.40   31.20
  30 -20   5   24.90   39.40
   0   0  -6 8183.98  116.99
   0   0  -6 8186.48  106.69
   0   0   6 7671.83  110.99
   2  -1  -6 2425.96   46.90
   2  -1  -6 2493.55   36.30
  -1  -1  -6 2459.35   45.90
  -1   2  -6 2508.85   50.49
  -1   2  -6 2506.55   42.50
  -1  -1  -6 2445.96   40.20
  -2   1   6 2412.66   46.00
   1  -2   6 2420.16   49.50
   1   1   6 2388.56   45.80
   1  -2  -6 1799.52   36.20
   1   1  -6 1797.22   31.50
   1   1  -6 1757.02   40.10
  -2   1  -6 1790.22   39.50
   1  -2  -6 1748.03   27.90
  -2   1  -6 1751.82   33.90
  -1   2   6 1657.73   34.60
  -1  -1   6 1642.24   38.50
   2  -1   6 1675.73   38.60
  -2  -2  -6 2095.19   37.40
   4  -2  -6 2118.09   42.30
  -2  -2  -6 2048.50   39.30
  -2   4  -6 2104.49   47.50
  -2   4  -6 2103.59   40.30
   2   2   6 1989.50   39.80
   2  -4   6 2018.00   46.40
  -3   0  -6 9798.22  136.29
   0   3  -6 9999.00  143.19
   3  -3  -6 9902.41  133.09
   0   3  -6 9898.61  130.49
  -3   0  -6 9937.21  131.79
  -3   3   6 9465.55  128.59
   3   0   6 9578.24  134.29
   0  -3   6 9811.52  139.59
   3   0  -6 6981.30   90.59
  -3   3  -6 7013.30  107.19
   3   0  -6 6938.41  104.69
   0  -3  -6 7044.69   97.09
   0  -3  -6 7044.50   91.39
  -3   3  -6 6972.70   99.09
  -3   0   6 7070.79  104.49
   0   3   6 7054.39   98.69
   3  -3   6 7092.29  108.39
  -3  -3  -6 2512.65   44.70
   6  -3  -6 2467.65   47.50
  -3   6  -6 2536.05   55.49
  -3   6  -6 2515.85   47.50
  -3  -3  -6 2421.36   43.20
   3  -6   6 2290.27   52.69
   3   3   6 2322.47   43.60
   3  -6   6 2326.37   37.20
  -4  -1  -6 1997.60   40.10
   5  -4  -6 2018.40   38.70
  -4  -1  -6 1988.50   39.40
  -1   5  -6 2034.50   39.60
  -1   5  -6 1996.10   47.60
   1  -5   6 2034.20   47.80
   4   1   6 1954.10   41.50
   2   2  -6 1798.52   42.50
   2  -4  -6 1799.72   33.40
   2   2  -6 1753.12   32.40
  -4   2  -6 1833.02   37.30
  -4   2  -6 1815.22   40.80
   4  -2   6 1792.82   41.80
  -2   4   6 1755.72   33.30
  -2  -2   6 1798.52   42.00
  -1  -4  -6  863.01   20.90
  -1  -4  -6  796.82   20.00
  -4   5  -6  843.62   29.40
  -4   5  -6  892.51   25.90
   5  -1  -6  799.52   26.10
   5  -1  -6  817.72   16.40
   1   4   6  797.92   21.50
   4  -5   6  798.92   29.30
  -4   8  -6  327.17   21.80
  -4   8  -6  346.87   18.90
   8  -4  -6  332.07   17.30
  -4  -4  -6  343.27   17.90
   4  -8   6  261.17   21.20
   4   4   6  271.07   15.50
   4  -8   6  292.47   14.00
  -2   7  -6  374.46   22.40
  -2   7  -6  364.36   18.10
  -5  -2  -6  356.36   18.40
   7  -5  -6  338.67   15.60
   2  -7   6  350.06   22.50
   2  -7   6  321.27   12.50
   5   2   6  303.87   17.20
   1   4  -6 1575.74   40.90
  -5   1  -6 1546.25   36.40
  -5   1  -6 1567.34   35.10
   1   4  -6 1565.54   32.10
   4  -5  -6 1570.44   30.20
  -1  -4   6 1558.84   40.50
   5  -1   6 1493.55   37.40
   4   1  -6  829.72   27.80
   4   1  -6  853.31   19.50
  -5   4  -6  863.91   28.80
  -5   4  -6  889.21   26.30
   5  -4   6  876.31   30.30
  -1   5   6  837.82   20.20
  -5   7  -6  592.64   26.80
  -5   7  -6  556.64   22.30
  -2  -5  -6  587.24   19.60
   7  -2  -6  555.84   13.60
   7  -2  -6  555.94   22.50
   7  -2  -6  570.44   13.20
   5  -7   6  503.75   25.70
   5  -7   6  498.65   17.00
   2   5   6  508.65   17.50
  10  -5  -6  688.13   24.50
  -5  10  -6  655.83   26.00
  10  -5  -6  669.23   15.20
  -5  -5  -6  660.03   25.00
  10  -5  -6  643.74   14.00
  -5  10  -6  638.44   30.10
   5 -10   6  732.63   32.30
   5   5   6  677.43   22.70
   5 -10   6  686.23   22.80
  -3   9  -6 1349.16   42.10
  -3   9  -6 1416.86   35.80
   9  -6  -6 1418.26   32.70
  -6  -3  -6 1384.76   35.40
   6   3   6 1340.27   33.70
   3  -9   6 1352.86   42.00
   3  -9   6 1369.86   30.50
   0   6  -6 3832.62   62.49
  -6   0  -6 3848.91   64.89
  -6   0  -6 3764.32   64.69
   0   6  -6 3763.12   73.19
   6  -6  -6 3799.72   57.89
   0  -6   6 3912.41   53.09
   6   0   6 3957.30   68.79
   0  -6   6 3983.60   74.69
   0  -6   6 3825.92   52.99
  -6   3  -6 2397.56   49.70
  -6   3  -6 2346.47   46.60
   3   3  -6 2268.97   40.10
   3   3  -6 2295.97   51.19
   3  -6  -6 2297.97   36.00
   6  -3   6 2126.59   35.20
   6  -3   6 2215.98   48.70
  -3  -3   6 2114.69   48.20
   6   0  -6 3396.16   64.29
  -6   6  -6 3574.74   62.49
  -6   6  -6 3467.95   67.79
   6   0  -6 3451.55   50.59
   0   6   6 2981.30   46.00
   6  -6   6 3034.80   62.79
   6  -6   6 3066.59   49.90
  -3  -6  -6 1190.38   30.50
   9  -3  -6 1160.68   22.80
  -6   9  -6 1188.48   38.60
   9  -3  -6 1156.58   21.30
   9  -3  -6 1145.19   32.70
  -6   9  -6 1145.89   33.20
   3   6   6  961.50   24.30
   6  -9   6  943.01   35.00
   6  -9   6  976.80   26.70
  12  -6  -6 1138.09   33.10
  12  -6  -6 1107.19   32.70
  -6  12  -6 1107.19   35.00
  -6  -6  -6 1158.18   34.60
  -6  12  -6 1231.98   41.90
   6 -12   6 1116.49   31.70
   6 -12   6 1071.89   40.40
   6   6   6 1046.30   29.10
  -4  11  -6   54.69   13.50
  11  -7  -6   74.19   10.10
  11  -7  -6   62.19    6.30
  -4  11  -6   57.29   11.50
  -7  -4  -6   65.89   12.70
   4 -11   6   64.59   10.00
   4 -11   6   34.90   13.10
   7   4   6   62.89   11.10
  -7  -1  -6  527.55   23.10
   8  -7  -6  497.15   16.90
  -1   8  -6  542.35   27.20
  -1   8  -6  528.45   21.60
   1  -8   6  671.63   29.90
   1  -8   6  630.44   18.30
   7   1   6  642.34   24.70
  -7   2  -6  384.06   19.30
   2   5  -6  373.96   22.30
   5  -7  -6  366.36   11.30
  -7   2  -6  384.46   19.70
   2   5  -6  356.36   16.60
  -2  -5   6  353.16   22.10
   7  -2   6  337.07   13.00
   7  -2   6  365.36   21.00
   5   2  -6  688.03   19.10
   5   2  -6  680.73   27.10
  -7   5  -6  726.03   25.60
  -7   5  -6  718.53   27.30
   7  -5   6  615.94   27.10
   7  -5   6  606.54   18.80
   8  -1  -6  416.56   13.50
   8  -1  -6  413.36   14.40
  -7   8  -6  422.46   21.70
  -1  -7  -6  418.86   17.40
  -7   8  -6  418.36   24.10
   8  -1  -6  428.76   21.70
   7  -8   6  339.67   16.30
   1   7   6  349.77   13.10
   7  -8   6  346.77   23.70
  11  -4  -6  126.39    9.80
  -7  11  -6  109.19   14.20
  11  -4  -6  111.79    9.40
  11  -4  -6  115.59   15.00
  -4  -7  -6  109.69   13.50
  -7  11  -6  116.89   16.00
   4   7   6   96.79   11.90
   7 -11   6  102.79   15.70
   7 -11   6   94.99   11.80
  -7  14  -6   29.10   11.90
  14  -7  -6   26.50    7.20
  -7  -7  -6   23.40   12.40
  -7  14  -6   26.10   12.90
   7   7   6   17.40    9.00
   7 -14   6   13.80   14.00
   7 -14   6   10.10    9.00
  -5  13  -6  375.46   31.50
  13  -8  -6  387.46   19.80
  -8  -5  -6  384.66   24.80
  13  -8  -6  392.56   14.30
  -5  13  -6  403.16   23.60
   5 -13   6  371.96   28.30
   8   5   6  399.96   20.90
   5 -13   6  376.86   20.20
  -8  -2  -6  988.30   32.00
  -2  10  -6  941.91   30.10
  10  -8  -6  969.40   25.10
  -2  10  -6  971.40   36.70
   2 -10   6  870.31   24.90
   2 -10   6  917.11   36.50
   8   2   6  883.11   29.30
  -8   1  -6  436.06   19.80
   1   7  -6  428.76   24.70
  -8   1  -6  434.06   22.10
   1   7  -6  446.36   19.30
   7  -8  -6  428.26   13.00
  -1  -7   6  525.35   14.90
   8  -1   6  512.95   23.60
  -1  -7   6  552.54   27.40
  -1  -7   6  507.75   15.60
  -8   4  -6  403.06   21.30
  -8   4  -6  424.96   21.40
   4   4  -6  459.35   23.50
   4   4  -6  434.56   16.90
   8  -4   6  382.86   22.70
   8  -4   6  382.16   15.70
   7   1  -6  324.87   20.30
  -8   7  -6  310.27   20.00
   7   1  -6  320.37   13.50
  -8   7  -6  326.37   21.60
   8  -7   6  248.58   21.40
   8  -7   6  255.27   14.70
  10  -2  -6  257.97   19.60
  -2  -8  -6  243.28   17.10
  10  -2  -6  259.97   12.10
  10  -2  -6  263.67   13.10
  -8  10  -6  251.17   19.50
  -8  10  -6  275.47   22.30
   2   8   6  232.08   12.20
   8 -10   6  231.88   16.10
   8 -10   6  261.87   23.50
  13  -5  -6  449.95   17.20
  -8  13  -6  450.85   32.10
  -8  13  -6  497.25   26.20
  -5  -8  -6  432.06   24.30
  13  -5  -6  433.86   22.80
   5   8   6  419.16   18.60
   8 -13   6  478.45   29.90
   8 -13   6  434.96   22.50
  16  -8  -6  775.22   24.80
  -8  16  -6  794.12   43.70
  -8  -8  -6  863.81   35.50
  -8  16  -6  819.02   38.30
   8 -16   6  746.83   39.00
   8 -16   6  777.52   30.90
   8   8   6  783.82   28.00
  -9  -6  -6  567.14   29.70
  -6  15  -6  534.65   31.90
  15  -9  -6  503.45   18.40
  -6  15  -6  483.55   27.30
   9   6   6  551.54   25.20
   6 -15   6  527.35   25.10
  -3  12  -6  716.33   27.90
  -3  12  -6  712.03   33.70
  12  -9  -6  710.13   23.00
  12  -9  -6  696.03   16.20
  -9  -3  -6  737.23   30.20
   9   3   6  832.02   29.50
   3 -12   6  833.92   37.10
   3 -12   6  810.62   26.60
  -9   0  -6  525.55   24.80
   0   9  -6  497.55   27.30
   0   9  -6  513.65   22.70
   9   0   6  628.74   26.40
   0  -9   6  678.23   31.80
   0  -9   6  665.43   20.20
  -9   3  -6 1488.15   38.60
   3   6  -6 1440.56   33.10
  -9   3  -6 1413.66   37.70
   3   6  -6 1457.15   42.70
   9  -3   6 1389.36   31.60
  -3  -6   6 1421.86   23.30
  -3  -6   6 1374.46   23.50
   9  -3   6 1423.76   39.90
  -3  -6   6 1449.26   41.90
   6   3  -6 1163.48   37.00
  -9   6  -6 1198.08   34.70
   6   3  -6 1167.08   27.00
  -9   6  -6 1177.68   36.70
   9  -6   6 1014.90   35.40
   9  -6   6 1050.49   27.90
   9   0  -6  607.94   18.30
  -9   9  -6  624.04   26.90
   9   0  -6  661.83   27.60
  -9   9  -6  619.94   28.60
   9   0  -6  623.44   20.10
   9  -9   6  564.84   28.80
   9  -9   6  550.04   22.10
  -9  12  -6  473.35   27.90
  -3  -9  -6  453.95   23.20
  -9  12  -6  498.45   25.70
  12  -3  -6  471.55   17.80
  12  -3  -6  482.15   16.80
  12  -3  -6  454.65   24.40
   9 -12   6  430.26   29.20
   9 -12   6  475.95   22.50
   3   9   6  484.15   17.10
  -9  15  -6  180.98   22.00
  -6  -9  -6  193.68   22.60
  15  -6  -6  142.89   13.60
  -9  15  -6  176.58   22.30
   6   9   6  196.58   16.20
   9 -15   6  169.48   18.80
  -9  18  -6   47.50   14.40
  -9  -9  -6   52.39   17.10
  18  -9  -6   57.39   11.40
   9 -18   6   40.00   17.50
   9 -18   6   61.59   14.00
   9   9   6   53.39   13.00
 -10  -7  -6  267.87   27.20
  -7  17  -6  242.58   26.70
  17 -10  -6  213.18   15.60
  -7  17  -6  237.48   24.90
  10   7   6  201.68   20.30
   7 -17   6  176.58   20.40
   7 -17   6  220.98   28.00
  -4  14  -6   90.69   17.30
 -10  -4  -6   79.29   15.30
  14 -10  -6   86.59    9.50
  -4  14  -6   84.49   15.00
   4 -14   6   50.89   15.90
   4 -14   6   57.29   11.40
  10   4   6   80.39   13.30
  11 -10  -6   60.49    8.30
  11 -10  -6   54.49    5.80
 -10  -1  -6   40.80   12.30
  -1  11  -6   56.09   13.10
  -1  11  -6   42.80   10.70
  10   1   6   77.39   13.10
   1 -11   6   77.89   10.40
   1 -11   6   71.09   16.80
 -10   2  -6  925.41   32.00
   2   8  -6  926.71   35.70
   2   8  -6  914.41   27.80
  -2  -8   6  913.81   35.00
  -2  -8   6  842.32   22.60
  10  -2   6  831.62   25.00
  10  -2   6  870.61   31.70
  -2  -8   6  847.62   21.50
 -10   5  -6  698.83   28.00
   5   5  -6  746.13   30.90
   5   5  -6  715.43   22.70
 -10   5  -6  701.53   27.80
  10  -5   6  698.13   23.50
  10  -5   6  731.03   30.60
   8   2  -6  193.68   13.20
   8   2  -6  188.98   19.00
 -10   8  -6  187.48   19.40
 -10   8  -6  205.58   19.30
  10  -8   6  156.58   18.70
  10  -8   6  178.58   15.00
 -10  11  -6  131.89   17.60
  11  -1  -6  143.69   18.30
  11  -1  -6  130.59   11.90
 -10  11  -6  109.19   15.10
  11  -1  -6  119.29   12.40
  10 -11   6   98.29   17.80
   1  10   6  110.69    8.50
  10 -11   6  102.99   13.30
 -10  14  -6   37.10   13.20
  14  -4  -6   42.00    8.80
  -4 -10  -6   35.00   12.20
 -10  14  -6   37.00   12.50
  14  -4  -6   49.90   11.30
  10 -14   6   60.79   17.60
  10 -14   6   33.90   10.80
   4  10   6   41.20    8.40
  -7 -10  -6  242.38   26.30
 -10  17  -6  251.17   26.00
  17  -7  -6  212.68   16.30
 -10  17  -6  226.48   27.10
  10 -17   6  213.68   28.30
  10 -17   6  203.88   22.10
   7  10   6  215.68   18.40
  20 -10  -6  292.87   21.50
 -10 -10  -6  356.76   33.20
 -10  20  -6  355.36   30.00
  10  10   6  299.07   23.90
  10 -20   6  246.78   25.40
  10 -20   6  273.07   34.80
  -8  19  -6  179.68   21.00
  19 -11  -6  216.28   17.90
 -11  -8  -6  224.58   29.40
   8 -19   6  174.88   22.00
   8 -19   6  132.89   21.70
  11   8   6  161.78   18.50
  16 -11  -6  837.92   24.10
 -11  -5  -6  820.52   36.60
  -5  16  -6  816.72   39.10
  11   5   6  813.52   31.50
   5 -16   6  840.52   31.10
   5 -16   6  826.52   41.30
  -2  13  -6  580.44   32.30
 -11  -2  -6  609.04   29.90
  13 -11  -6  577.14   19.10
  -2  13  -6  635.54   27.40
  13 -11  -6  624.34   20.70
  11   2   6  702.23   29.60
   2 -13   6  667.03   24.90
   2 -13   6  705.43   35.90
 -11   1  -6   51.49   12.30
   1  10  -6   48.80   13.30
  10 -11  -6   44.60    5.70
  10 -11  -6   53.99    7.10
  10 -11  -6   47.90    5.50
   1  10  -6   38.20   10.20
  -1 -10   6   58.39    8.60
  11  -1   6   65.99   10.30
  11  -1   6   51.99   12.40
  -1 -10   6   44.10   13.40
 -11   4  -6   19.70    9.10
   4   7  -6   39.50    9.50
 -11   4  -6   31.60   11.20
   4   7  -6   43.10   12.50
  11  -4   6   30.00    8.60
  -4  -7   6   37.30    6.30
  -4  -7   6   48.50    7.50
  11  -4   6   35.20   12.30
   7   4  -6  125.09   16.10
   7   4  -6  138.99   13.30
 -11   7  -6  138.79   17.90
 -11   7  -6  135.39   18.10
  11  -7   6  131.79   17.50
  11  -7   6  108.29   13.50
  10   1  -6  196.58   13.80
 -11  10  -6  203.58   20.60
 -11  10  -6  168.48   20.00
  10   1  -6  228.88   20.90
  11 -10   6  192.28   17.10
  11 -10   6  202.18   22.90
  13  -2  -6  327.47   23.90
 -11  13  -6  333.47   24.50
 -11  13  -6  302.37   26.70
  13  -2  -6  341.27   17.90
  11 -13   6  334.07   28.50
   2  11   6  374.86   14.20
  11 -13   6  435.86   23.40
  -5 -11  -6   66.09   15.20
  16  -5  -6   62.29   10.50
 -11  16  -6   78.39   16.90
   5  11   6   88.79   11.50
  11 -16   6   65.09   17.90
  11 -16   6   92.99   15.30
  19  -8  -6  515.75   24.60
 -11  19  -6  552.64   33.10
  11 -19   6  428.96   36.80
  11 -19   6  412.76   28.30
   8  11   6  465.35   24.40
  22 -11  -6  186.78   20.20
 -11  22  -6  141.59   20.70
 -11 -11  -6  154.48   25.60
  11  11   6  186.08   23.90
  11 -22   6  141.69   20.90
  11 -22   6  165.78   28.20
 -12  -9  -6  371.96   35.50
  -9  21  -6  340.47   30.20
  21 -12  -6  363.56   23.60
   9 -21   6  407.16   28.80
   9 -21   6  329.97   38.40
  12   9   6  407.66   28.70
  18 -12  -6   66.09   10.80
  -6  18  -6    3.20   12.70
 -12  -6  -6   71.49   20.70
  -6  18  -6   40.60   14.40
  12   6   6   79.09   15.10
   6 -18   6   69.49   17.60
   6 -18   6   75.89   21.70
  -3  15  -6  159.88   20.50
 -12  -3  -6  227.78   24.80
  15 -12  -6  192.18   12.50
  -3  15  -6  171.18   24.00
   3 -15   6  236.08   18.80
   3 -15   6  169.48   22.00
  12   3   6  216.08   22.00
 -12   0  -6  554.74   28.40
  12 -12  -6  525.45   20.90
   0  12  -6  552.34   25.30
  12 -12  -6  519.55   16.70
   0  12  -6  466.65   36.10
  12 -12  -6  527.85   15.90
  12   0   6  578.44   28.30
   0 -12   6  574.24   22.60
   0 -12   6  609.14   33.40
   3   9  -6  605.24   30.80
   3   9  -6  606.84   24.60
   9 -12  -6  633.44   14.40
 -12   3  -6  607.64   28.90
  12  -3   6  695.43   25.40
  -3  -9   6  709.63   33.40
  -3  -9   6  698.83   21.20
  -3  -9   6  699.83   22.90
  12  -3   6  694.03   30.60
 -12   6  -6 1138.09   36.50
   6 -12  -6 1097.99   22.50
   6   6  -6 1070.59   38.90
 -12   6  -6 1130.39   36.90
   6   6  -6 1108.09   29.90
  -6  -6   6 1028.70   21.90
  12  -6   6 1069.19   31.70
  12  -6   6 1082.29   38.30
  -6  -6   6 1069.59   21.80
   9   3  -6  537.85   28.50
   9   3  -6  535.25   20.40
 -12   9  -6  517.55   27.30
 -12   9  -6  573.94   28.70
  12  -9   6  532.35   23.80
  12  -9   6  526.75   30.30
  12   0  -6  819.52   33.80
 -12  12  -6  817.92   33.80
  12   0  -6  839.42   24.90
  12   0  -6  825.02   27.20
  12 -12   6  912.11   31.90
  12 -12   6  878.01   38.50
  15  -3  -6  522.25   28.50
 -12  15  -6  523.85   31.90
  -3 -12  -6  550.34   29.10
  15  -3  -6  564.24   23.30
  12 -15   6  647.84   29.10
   3  12   6  594.24   19.00
  12 -15   6  611.14   36.80
 -12  18  -6    2.60   11.20
 -12  18  -6   23.40   15.10
  18  -6  -6   34.80   10.60
  -6 -12  -6   11.80   15.20
  12 -18   6   19.50   12.50
   6  12   6   20.00    9.90
  12 -18   6   23.20   17.80
 -12  21  -6  151.08   21.60
  21  -9  -6  148.79   20.10
  -9 -12  -6  150.78   25.00
  12 -21   6  183.78   27.80
   9  12   6  216.98   21.90
  12 -21   6  200.88   22.80
 -12 -12  -6  232.88   31.30
 -12  24  -6  187.38   26.30
  24 -12  -6  246.38   26.10
  12 -24   6  245.78   36.20
  12  12   6  256.17   29.20
 -10  23  -6  861.31   41.70
  23 -13  -6  898.41   36.10
 -13 -10  -6  879.21   48.50
  13  10   6  974.00   40.60
  10 -23   6  910.21   53.49
  20 -13  -6  242.48   19.70
 -13  -7  -6  221.88   26.10
  -7  20  -6  265.97   27.70
  13   7   6  284.97   27.20
   7 -20   6  268.57   31.90
   7 -20   6  319.47   25.40
  -4  17  -6  252.87   27.00
  17 -13  -6  307.07   16.90
  13   4   6  360.86   26.20
   4 -17   6  330.97   23.00
   4 -17   6  338.27   33.10
 -13  -1  -6   50.29   15.20
  -1  14  -6   71.09   15.20
  14 -13  -6   93.09   12.00
  -1  14  -6  119.79   16.30
  14 -13  -6   90.49   10.10
  13   1   6   97.89   15.60
   1 -14   6   76.19   19.80
   1 -14   6   94.99   13.30
  11 -13  -6  805.62   20.90
 -13   2  -6  869.11   34.60
   2  11  -6  736.43   44.40
   2  11  -6  878.01   30.40
  13  -2   6  905.61   30.00
  -2 -11   6  937.91   29.60
  -2 -11   6  912.31   27.10
  13  -2   6  953.50   35.90
  -2 -11   6  962.90   40.00
   8 -13  -6  582.34   15.50
   5   8  -6  627.04   24.50
 -13   5  -6  618.44   29.60
   5   8  -6  618.64   31.80
  13  -5   6  582.34   24.90
  -5  -8   6  609.84   20.80
  -5  -8   6  596.24   18.80
  13  -5   6  591.44   30.40
 -13   8  -6  497.85   28.00
   8   5  -6  509.65   29.00
   8   5  -6  520.15   21.40
 -13   8  -6  505.35   26.40
   5 -13  -6  474.85   15.80
  13  -8   6  486.65   23.40
  -8  -5   6  485.95   15.80
  -8  -5   6  475.75   13.30
  13  -8   6  472.25   29.50
  11   2  -6  470.85   20.20
  11   2  -6  457.25   27.80
 -13  11  -6  447.06   27.50
  13 -11   6  490.75   24.90
  13 -11   6  523.05   31.80
  14  -1  -6  123.19   16.20
 -13  14  -6  128.69   21.80
 -13  14  -6  123.09   17.60
  14  -1  -6  140.49   18.40
  13 -14   6  171.98   19.50
   1  13   6  137.99    9.20
  13 -14   6  126.99   25.00
   1  13   6  136.49    8.30
 -13  17  -6  148.69   21.20
  -4 -13  -6  200.58   25.80
  17  -4  -6  141.99   17.50
 -13  17  -6  123.59   19.40
  13 -17   6  165.48   21.80
  13 -17   6  192.18   26.30
   4  13   6  182.58   15.10
  -7 -13  -6  329.97   32.50
  20  -7  -6  303.67   23.30
 -13  20  -6  346.77   30.20
  13 -20   6  291.77   34.20
   7  13   6  325.27   21.60
  13 -20   6  273.67   26.90
 -13  23  -6  605.44   39.40
 -10 -13  -6  572.94   43.00
  23 -10  -6  535.85   31.00
  10  13   6  603.54   31.70
  13 -23   6  542.35   46.30
 -13  26  -6  933.21   53.89
 -13 -13  -6  964.70   57.29
  26 -13  -6  959.80   43.20
 -13  26  -6 1023.40   50.69
  13 -26   6  892.31   57.19
  13  13   6  894.81   49.99
  13 -26   6  842.42   44.40
 -11  25  -6  129.69   25.00
 -11  25  -6  188.28   27.30
  25 -14  -6  184.08   26.20
 -14 -11  -6  200.18   31.50
  11 -25   6  176.18   25.00
  11 -25   6  182.38   33.70
 -14  -8  -6  432.16   39.10
  22 -14  -6  434.56   26.10
  -8  22  -6  411.26   32.30
   8 -22   6  350.76   28.50
  14   8   6  398.06   31.60
   8 -22   6  426.16   42.70
  19 -14  -6  175.68   19.80
  -5  19  -6  160.58   22.10
  19 -14  -6  135.79   16.30
 -14  -5  -6  171.38   24.10
   5 -19   6  175.28   21.60
   5 -19   6  184.98   25.40
  14   5   6  193.38   26.10
  -2  16  -6  143.99   17.70
  -2  16  -6  171.28   23.70
  16 -14  -6  145.19   13.00
  16 -14  -6  149.59   15.10
   2 -16   6  198.08   25.70
   2 -16   6  196.18   19.10
  14   2   6  182.98   23.60
  13 -14  -6   86.49    8.90
   1  13  -6   72.79   13.40
  13 -14  -6   70.69    9.60
 -14   1  -6   93.19   17.70
   1  13  -6   99.99   18.30
  -1 -13   6  110.09   21.90
  -1 -13   6   78.99   11.70
  14  -1   6   98.99   13.80
  14  -1   6  113.09   17.50
 -14   4  -6   70.59   15.90
   4  10  -6   84.39   17.10
  10 -14  -6   73.99    8.50
   4  10  -6   84.59   13.00
  -4 -10   6   80.69   10.70
  14  -4   6   80.29   13.10
  14  -4   6   60.49   14.20
  -4 -10   6   89.69   12.40
   7 -14  -6   12.40    5.30
 -14   7  -6   10.70   10.80
   7   7  -6   15.90   12.00
 -14   7  -6   27.60   12.20
   7   7  -6    9.00    9.00
  14  -7   6   15.40    9.60
  14  -7   6   18.00   12.50
  -7  -7   6    6.10    5.40
  -7  -7   6   18.60    7.40
  10   4  -6    2.30   10.80
  10   4  -6   22.50    8.50
 -14  10  -6  -16.60   10.60
   4 -14  -6   13.80    6.30
  14 -10   6   10.70   12.80
  14 -10   6   22.50   10.40
  13   1  -6   17.50    9.40
 -14  13  -6   -1.50   12.40
   1 -14  -6   24.70    8.30
 -14  13  -6    6.40   14.40
  13   1  -6    0.40   11.70
  14 -13   6   13.70   10.30
 -14  16  -6  254.97   26.10
  16  -2  -6  217.48   28.10
 -14  16  -6  262.07   27.10
  16  -2  -6  264.57   20.40
  14 -16   6  275.27   31.70
  14 -16   6  245.78   22.40
   2  14   6  247.38   12.70
   2  14   6  256.27   13.40
  19  -5  -6  267.67   21.90
  -5 -14  -6  298.67   33.10
 -14  19  -6  334.67   30.00
  14 -19   6  392.06   28.50
   5  14   6  335.07   19.40
  14 -19   6  270.17   34.00
 -14  22  -6  110.19   21.00
  22  -8  -6  151.78   19.30
  -8 -14  -6  110.49   24.00
   8  14   6   61.89   14.50
  14 -22   6   57.39   24.10
  25 -11  -6  349.57   30.30
 -14  25  -6  485.85   42.90
 -14  25  -6  416.36   39.60
 -11 -14  -6  388.36   44.10
 -11 -14  -6  368.06   30.90
  14 -25   6  291.37   36.80
  14 -25   6  342.17   34.40
  11  14   6  338.37   31.60
  28 -14  -6  290.17   30.40
 -14 -14  -6  336.57   36.20
 -14  28  -6  191.78   29.50
 -14  28  -6  212.68   29.30
 -14 -14  -6  265.97   38.70
  14 -28   6  282.47   41.20
  14 -28   6  260.37   31.10
  14  14   6  278.67   30.00
 -15 -12  -6  137.99   33.50
 -12  27  -6  226.88   32.70
  27 -15  -6  192.98   25.30
 -12  27  -6  339.47   43.00
  27 -15  -6  222.68   29.80
  12 -27   6  126.19   33.40
  12 -27   6  167.68   25.90
  15  12   6  219.08   27.30
  -9  24  -6  470.05   36.80
  24 -15  -6  493.55   30.60
 -15  -9  -6  495.25   45.00
  24 -15  -6  502.25   35.00
   9 -24   6  513.45   46.30
  15   9   6  516.85   40.70
  -6  21  -6  602.84   35.20
  21 -15  -6  635.84   30.30
 -15  -6  -6  606.14   40.50
  21 -15  -6  602.14   27.80
  15   6   6  628.34   36.40
   6 -21   6  609.94   32.50
   6 -21   6  616.14   44.30
  18 -15  -6  111.09   14.40
  -3  18  -6   83.99   17.10
 -15  -3  -6  104.19   20.20
  18 -15  -6  108.39   14.10
  15   3   6  105.79   19.30
   3 -18   6  105.39   21.80
   3 -18   6  140.79   17.00
 -15   0  -6  227.08   29.20
   0  15  -6  264.37   28.70
  15 -15  -6  271.97   15.20
  15 -15  -6  240.68   14.80
   0  15  -6  252.07   27.60
   0 -15   6  310.77   30.30
  15   0   6  271.07   21.40
  15   0   6  302.47   26.60
   0 -15   6  289.97   20.40
  12 -15  -6  202.08   12.30
 -15   3  -6  207.38   25.00
   3  12  -6  198.98   24.60
   3  12  -6  187.58   20.20
  -3 -12   6  244.88   21.20
  15  -3   6  295.07   21.10
  15  -3   6  234.38   25.30
  -3 -12   6  244.88   17.40
   9 -15  -6  634.04   18.60
   6   9  -6  670.33   34.70
   6   9  -6  626.04   26.20
 -15   6  -6  642.24   32.40
  -6  -9   6  620.04   21.80
  15  -6   6  695.63   34.10
  -6  -9   6  642.14   24.00
  15  -6   6  666.63   28.50
 -15   9  -6  234.18   24.40
   9   6  -6  180.18   31.00
   9   6  -6  237.08   18.70
 -15   9  -6  202.88   25.10
   6 -15  -6  227.78   13.00
  -9  -6   6  247.98   12.20
  -9  -6   6  220.68   14.20
  15  -9   6  204.28   19.50
  15  -9   6  232.08   25.50
 -15  12  -6  562.94   31.60
  12   3  -6  545.05   23.50
   3 -15  -6  521.15   19.90
  15 -12   6  609.84   28.80
  15   0  -6  207.38   25.00
 -15  15  -6  266.57   27.70
  15   0  -6  220.88   20.20
 -15  15  -6  199.68   25.50
   0 -15  -6  194.28   17.00
  15 -15   6  242.58   28.30
  15 -15   6  205.08   22.20
  -3 -15  -6  841.72   30.40
  18  -3  -6  764.32   31.40
 -15  18  -6  861.31   39.50
  15 -18   6  765.92   35.00
  15 -18   6  756.32   43.40
   3  15   6  716.93   22.20
   3  15   6  720.73   21.70
  21  -6  -6  215.18   23.60
 -15  21  -6  250.37   31.40
  -6 -15  -6  241.98   28.10
  -6 -15  -6  318.57   24.40
  15 -21   6  325.67   37.50
   6  15   6  281.97   21.20
  15 -21   6  276.17   28.30
 -15  24  -6  254.47   30.80
  24  -9  -6  226.68   28.30
  -9 -15  -6  239.28   31.80
  -9 -15  -6  249.68   27.00
  15 -24   6  228.08   33.20
 -15  27  -6  211.18   31.00
 -15  27  -6  295.57   39.80
 -12 -15  -6  349.57   33.60
 -12 -15  -6  432.76   50.29
  27 -12  -6  333.97   34.30
  15 -27   6  250.57   36.80
  15 -27   6  270.37   30.00
 -16 -13  -6  917.01   44.70
  29 -16  -6 1096.29   55.09
  29 -16  -6  975.70   49.50
 -16 -13  -6 1064.09   67.99
  13 -29   6  933.91   63.49
  16  13   6  947.11   51.09
  13 -29   6  905.11   49.90
  26 -16  -6  882.11   44.20
 -10  26  -6  817.62   47.60
 -16 -10  -6  931.21   56.29
  26 -16  -6  848.32   41.40
 -10  26  -6  818.42   51.59
  10 -26   6  738.13   54.99
  16  10   6  791.92   44.00
  10 -26   6  721.43   42.10
  23 -16  -6 1242.98   43.10
  23 -16  -6 1106.09   39.10
 -16  -7  -6 1183.18   53.89
  -7  23  -6 1213.98   47.50
  16   7   6 1267.37   49.30
   7 -23   6 1196.28   59.09
 -16  -4  -6 1112.99   48.00
  20 -16  -6 1020.80   33.10
  -4  20  -6 1083.29   42.70
  20 -16  -6 1094.39   35.30
  16   4   6 1179.98   47.30
   4 -20   6 1136.09   52.29
   4 -20   6 1206.38   42.10
  17 -16  -6   74.19   10.60
  17 -16  -6   71.99   11.00
 -16  -1  -6   47.50   16.60
  -1  17  -6   74.69   15.50
   1 -17   6   49.20   16.40
   1 -17   6   90.79   22.30
  16   1   6   91.19   19.10
  14 -16  -6  175.98   13.10
  14 -16  -6  173.08   11.40
 -16   2  -6  193.58   23.10
   2  14  -6  164.08   22.00
  16  -2   6  196.38   20.80
  -2 -14   6  168.18   18.70
  16  -2   6  182.48   24.80
   5  11  -6 1023.40   34.10
   5  11  -6 1028.10   43.30
  11 -16  -6 1032.90   25.20
  16  -5   6 1012.10   35.50
  16  -5   6 1027.30   41.60
  -5 -11   6 1048.80   30.10
  -5 -11   6  982.10   32.20
   8   8  -6  868.91   39.50
   8 -16  -6  867.01   23.50
   8   8  -6  846.62   30.30
 -16   8  -6  798.22   57.49
  -8  -8   6  823.12   24.00
  16  -8   6  835.52   38.50
  -8  -8   6  832.22   26.30
  16  -8   6  845.72   33.00
  11   5  -6  198.18   25.00
  11   5  -6  151.38   17.40
 -16  11  -6  152.78   21.90
 -16  11  -6  159.08   21.50
   5 -16  -6  128.19   12.60
 -11  -5   6  177.18   13.50
  16 -11   6  169.98   25.60
  16 -11   6  199.18   21.30
 -11  -5   6  180.48   11.40
 -16  14  -6  307.97   27.80
 -16  14  -6  287.67   27.60
  14   2  -6  285.37   27.10
   2 -16  -6  276.17   17.40
  16 -14   6  295.77   23.90
  16 -14   6  290.47   30.50
  17  -1  -6  498.25   27.40
 -16  17  -6  397.66   31.60
 -16  17  -6  484.85   33.10
  -1 -16  -6  501.05   23.90
  17  -1  -6  502.65   32.50
   1  16   6  479.75   18.10
  16 -17   6  497.25   30.00
   1  16   6  458.05   15.00
  16 -17   6  493.05   37.00
  20  -4  -6  574.94   30.30
 -16  20  -6  573.74   36.50
  -4 -16  -6  556.24   37.40
  -4 -16  -6  535.95   27.90
  16 -20   6  567.24   41.90
   4  16   6  573.24   22.90
   4  16   6  575.44   22.00
  16 -20   6  560.64   33.60
  -7 -16  -6  802.62   36.10
  23  -7  -6  747.53   37.60
  -7 -16  -6  811.22   48.00
 -16  23  -6  836.12   44.30
  16 -23   6  926.41   53.59
   7  16   6  857.31   31.50
 -16  26  -6  992.10   51.19
 -16  26  -6  910.81   53.49
  26 -10  -6 1013.00   44.50
 -10 -16  -6  931.01   56.29
 -10 -16  -6  917.41   42.50
  16 -26   6 1033.40   60.09
  16 -26   6 1017.50   49.50
 -16  29  -6  800.12   47.30
 -13 -16  -6  850.51   64.79
  29 -13  -6  870.71   49.20
 -13 -16  -6  762.92   43.30
  16 -29   6  813.92   62.79
  16 -29   6  800.12   47.90
  28 -17  -6  337.77   36.80
 -17 -11  -6  452.55   54.09
  28 -17  -6  413.06   42.00
 -11  28  -6  253.07   30.50
 -11  28  -6  354.66   41.80
  17  11   6  381.16   42.10
  11 -28   6  313.67   38.60
  11 -28   6  244.98   41.00
  25 -17  -6  251.57   32.00
  -8  25  -6  199.58   27.20
  25 -17  -6  161.98   25.70
 -17  -8  -6  190.08   29.20
  -8  25  -6  162.78   30.70
   8 -25   6  197.68   33.60
   8 -25   6  276.67   31.60
  17   8   6  276.07   35.50
 -17  -5  -6   37.20   21.30
  -5  22  -6   19.90   15.70
  22 -17  -6   34.90   15.00
  22 -17  -6   26.00   12.50
  17   5   6   10.50   17.40
   5 -22   6   20.70   14.30
   5 -22   6   -2.30   23.00
  19 -17  -6   72.99   13.10
 -17  -2  -6   79.99   20.80
  19 -17  -6   84.09   13.00
  -2  19  -6  101.29   18.70
  17   2   6   88.59   25.10
   2 -19   6   71.39   20.80
   2 -19   6  115.09   17.40
 -17   1  -6   96.99   19.80
  16 -17  -6   89.59   11.60
  16 -17  -6   86.99   10.90
   1  16  -6  105.99   16.40
  -1 -16   6  137.79   24.50
  17  -1   6  137.99   30.00
  17  -1   6  105.19   22.10
  -1 -16   6   85.59   14.70
 -17   4  -6  484.85   32.90
   4  13  -6  477.35   33.30
  13 -17  -6  452.55   18.70
  -4 -13   6  423.46   26.50
  17  -4   6  390.66   25.90
  -4 -13   6  442.06   22.90
  17  -4   6  454.85   32.70
   7  10  -6  314.97   28.20
   7  10  -6  313.87   23.20
 -17   7  -6  273.07   28.50
  10 -17  -6  295.87   15.40
  -7 -10   6  295.67   18.10
  17  -7   6  243.78   22.70
  -7 -10   6  309.57   21.20
   7 -17  -6  140.79   13.30
  10   7  -6  136.49   15.80
 -17  10  -6  168.98   21.20
  10   7  -6  145.69   21.00
 -17  10  -6  176.28   22.50
  17 -10   6  136.79   18.20
 -10  -7   6  123.99   13.10
  17 -10   6   98.79   18.40
 -10  -7   6  102.19   12.10
 -17  13  -6   95.39   17.60
 -17  13  -6   67.79   16.50
  13   4  -6   97.89   19.10
   4 -17  -6   98.79   12.00
  13   4  -6  100.49   14.80
 -13  -4   6  109.39   12.10
  17 -13   6   85.79   15.70
 -13  -4   6   99.19   10.00
  17 -13   6  112.19   21.40
  16   1  -6  246.08   27.30
   1 -17  -6  210.98   18.30
 -17  16  -6  223.58   26.80
 -17  16  -6  250.37   28.30
  17 -16   6  248.48   31.60
  17 -16   6  215.68   24.00
 -17  19  -6  202.58   24.90
  19  -2  -6  228.68   24.10
  -2 -17  -6  180.38   24.10
  17 -19   6  202.48   25.40
   2  17   6  188.78   14.10
  17 -19   6  222.38   30.40
   2  17   6  174.08   13.30
  -5 -17  -6  327.17   38.10
  22  -5  -6  306.67   28.40
  -5 -17  -6  309.17   25.50
 -17  22  -6  327.87   35.70
   5  17   6  280.17   19.50
  17 -22   6  310.97   37.00
  25  -8  -6  150.38   22.50
  -8 -17  -6  157.78   21.50
  -8 -17  -6  180.38   31.20
 -17  25  -6  194.58   29.80
 -17  25  -6  142.09   26.30
  17 -25   6  179.78   33.00
   8  17   6  166.88   22.80
  17 -25   6  233.38   29.80
 -11 -17  -6   73.09   20.30
 -17  28  -6   65.39   26.10
 -11 -17  -6  109.09   33.80
  28 -11  -6   82.39   23.70
 -17  28  -6   42.00   26.00
  17 -28   6   63.09   32.60
  17 -28   6   73.39   25.50
  27 -18  -6  200.58   26.20
 -18  -9  -6  166.38   30.40
  -9  27  -6  228.08   33.90
  27 -18  -6  244.88   28.90
  -9  27  -6  204.38   30.70
   9 -27   6  137.39   35.20
   9 -27   6  197.48   27.00
  18   9   6  186.18   28.60
  24 -18  -6  800.22   38.10
  -6  24  -6  764.62   42.00
 -18  -6  -6  771.62   50.49
  24 -18  -6  782.72   36.60
  -6  24  -6  886.41   50.89
   6 -24   6  662.63   51.19
  18   6   6  775.32   45.10
  21 -18  -6 1355.26   39.70
  21 -18  -6 1358.06   39.70
  -3  21  -6 1359.86   48.90
 -18  -3  -6 1393.66   56.09
  18   3   6 1353.66   51.29
   3 -21   6 1337.37   45.50
   3 -21   6 1304.97   59.19
 -18   0  -6  416.86   37.00
   0  18  -6  434.36   29.80
  18 -18  -6  450.95   21.90
  18 -18  -6  414.76   21.40
  18   0   6  511.65   36.60
   0 -18   6  575.94   30.20
   0 -18   6  581.54   40.90
  15 -18  -6  164.58   14.80
   3  15  -6  120.79   20.60
 -18   3  -6  190.28   25.10
  15 -18  -6  169.58   11.90
   3  15  -6  186.08   22.40
  18  -3   6  214.98   28.20
  -3 -15   6  193.38   20.90
  18  -3   6  200.98   23.40
  -3 -15   6  201.78   22.10
 -18   6  -6   29.90   16.50
   6  12  -6   23.20   14.90
   6  12  -6   34.20   14.70
  12 -18  -6   25.40    8.20
  18  -6   6   28.30   12.60
  -6 -12   6   35.00   10.10
  -6 -12   6   45.90   14.20
  18  -6   6   21.20   15.00
   9   9  -6   29.40   12.40
   9   9  -6    2.60   14.40
 -18   9  -6    6.30   13.20
   9 -18  -6    9.40    7.40
  -9  -9   6   22.00    8.70
  18  -9   6   10.80   15.60
  -9  -9   6   24.70   11.20
  18  -9   6   14.70   11.70
  12   6  -6   21.50   15.40
   6 -18  -6    0.50    7.20
  12   6  -6    3.00   10.40
 -18  12  -6    0.40   15.10
 -18  12  -6    1.70   12.80
 -12  -6   6   10.10    7.00
  18 -12   6   -4.60   14.90
 -12  -6   6    4.10    9.10
  18 -12   6   10.30   11.80
  15   3  -6  636.84   37.40
 -18  15  -6  595.54   34.40
   3 -18  -6  584.34   24.20
 -18  15  -6  621.94   36.60
  18 -15   6  542.75   38.00
 -15  -3   6  542.75   16.40
  18 -15   6  553.14   32.20
 -15  -3   6  547.55   18.20
  18   0  -6  880.11   42.50
 -18  18  -6  923.41   43.70
  18   0  -6  937.51   37.30
   0 -18  -6  890.31   31.50
   0  18   6  848.72   18.30
  18 -18   6  896.81   39.70
  18 -18   6  950.60   47.40
  -3 -18  -6  262.17   23.30
 -18  21  -6  282.17   33.90
  21  -3  -6  264.37   28.20
  18 -21   6  337.17   40.00
   3  18   6  270.17   17.50
 -18  24  -6  335.47   39.70
  24  -6  -6  309.37   31.40
 -18  24  -6  282.47   42.30
  -6 -18  -6  289.07   27.50
  -6 -18  -6  355.86   43.30
  18 -24   6  338.77   45.80
  18 -24   6  341.87   36.30
   6  18   6  287.77   22.70
  -9 -18  -6  430.96   52.79
  27  -9  -6  426.16   38.00
 -18  27  -6  450.35   46.60
  -9 -18  -6  361.56   33.70
 -18  27  -6  384.46   44.90
  18 -27   6  477.45   53.39
   9  18   6  432.56   30.80
  18 -27   6  496.45   43.90
  26 -19  -6  674.53   38.70
  -7  26  -6  613.64   49.10
 -19  -7  -6  737.73   54.49
  -7  26  -6  738.93   44.70
  26 -19  -6  646.84   39.80
  19   7   6  674.83   46.80
   7 -26   6  705.03   57.19
   7 -26   6  663.23   41.30
  23 -19  -6  502.75   31.30
  23 -19  -6  494.75   30.30
  -4  23  -6  568.34   37.10
 -19  -4  -6  509.05   45.70
   4 -23   6  540.85   46.90
  19   4   6  560.64   42.40
  20 -19  -6  342.67   22.70
  20 -19  -6  347.87   23.30
  -1  20  -6  335.97   30.70
 -19  -1  -6  319.77   38.80
   1 -20   6  366.06   28.50
  19   1   6  325.47   34.50
   1 -20   6  353.26   39.60
  17 -19  -6  120.39   14.10
   2  17  -6  104.99   17.10
 -19   2  -6  185.48   26.70
  17 -19  -6  128.89   15.40
  19  -2   6  129.69   18.30
  19  -2   6  111.19   20.40
  -2 -17   6  137.49   17.90
  14 -19  -6  310.97   18.90
   5  14  -6  351.86   27.20
 -19   5  -6  326.57   32.80
   5  14  -6  400.36   33.10
  19  -5   6  396.66   27.90
  -5 -14   6  390.66   28.40
  19  -5   6  364.86   32.30
  -5 -14   6  374.76   23.30
   8  11  -6  184.18   24.80
 -19   8  -6  148.49   21.50
   8  11  -6  149.09   18.30
  11 -19  -6  166.28   15.40
  -8 -11   6  111.59   15.70
  19  -8   6   80.29   19.90
  -8 -11   6   96.49   13.60
  19  -8   6   89.19   16.40
  11   8  -6  393.76   33.90
 -19  11  -6  469.65   34.30
  11   8  -6  500.35   35.10
   8 -19  -6  506.95   21.70
 -11  -8   6  389.46   19.60
  19 -11   6  366.76   27.40
 -11  -8   6  404.76   22.70
  19 -11   6  365.86   32.90
 -19  14  -6  189.48   24.70
  14   5  -6  174.58   23.00
 -19  14  -6  180.18   24.70
   5 -19  -6  202.58   17.60
 -14  -5   6  161.28   13.60
  19 -14   6  186.18   22.10
 -14  -5   6  162.68   16.80
  19 -14   6  221.18   28.40
  17   2  -6  164.08   23.30
 -19  17  -6  122.59   21.20
   2 -19  -6  118.19   14.80
 -17  -2   6   87.19   10.10
  19 -17   6  134.59   20.70
 -17  -2   6   95.69   12.50
  19 -17   6  107.99   23.40
 -19  20  -6  300.77   35.20
  -1 -19  -6  324.17   23.90
  20  -1  -6  336.57   29.10
   1  19   6  302.47   14.80
   1  19   6  313.67   15.20
  19 -20   6  302.67   38.30
  -4 -19  -6  617.24   32.10
  23  -4  -6  606.24   36.90
  -4 -19  -6  632.34   45.30
 -19  23  -6  652.63   44.90
   4  19   6  614.44   25.60
  19 -23   6  711.73   41.50
  19 -23   6  715.23   52.89
  -7 -19  -6  546.25   35.80
 -19  26  -6  613.54   46.00
  -7 -19  -6  625.94   54.89
  26  -7  -6  601.14   39.90
 -19  26  -6  636.24   47.60
  19 -26   6  690.33   46.50
  19 -26   6  629.44   54.39
   7  19   6  672.63   32.20
  -8  28  -6   36.20   40.90
  28 -20  -6   88.99   22.90
  -8  28  -6   80.59   23.50
  28 -20  -6   77.69   25.40
 -20  -8  -6   78.59   34.70
  20   8   6  135.49   30.50
   8 -28   6   77.09   24.30
   8 -28   6   44.30   34.80
 -20  -5  -6  105.59   30.50
  25 -20  -6   73.99   20.40
  -5  25  -6   54.59   26.80
  -5  25  -6   76.79   22.00
  25 -20  -6   56.69   19.20
   5 -25   6   96.79   20.90
   5 -25   6   70.09   26.80
  20   5   6   96.29   25.70
  22 -20  -6   51.09   15.10
  -2  22  -6   59.29   19.00
  22 -20  -6   56.99   15.90
 -20  -2  -6   53.59   23.00
   2 -22   6   23.90   25.30
   2 -22   6   -1.40   14.40
  20   2   6   23.30   20.70
   1  19  -6  439.66   31.70
 -20   1  -6  468.65   40.60
  19 -20  -6  469.55   24.30
  19 -20  -6  440.06   22.90
  20  -1   6  454.85   38.50
  -1 -19   6  522.75   31.10
  20  -1   6  415.46   30.80
  16 -20  -6 1144.49   33.60
 -20   4  -6 1206.58   50.69
   4  16  -6 1190.08   42.40
  -4 -16   6 1376.66   42.50
  20  -4   6 1321.37   45.60
  20  -4   6 1311.47   51.39
  -4 -16   6 1381.06   47.30
   7  13  -6  350.06   27.40
   7  13  -6  316.47   33.90
 -20   7  -6  384.16   34.10
  13 -20  -6  354.76   20.40
  20  -7   6  387.56   34.40
  -7 -13   6  414.76   28.20
  20  -7   6  422.16   29.20
  -7 -13   6  387.66   24.00
  10  10  -6  463.95   27.90
 -20  10  -6  418.36   34.00
  10  10  -6  403.96   33.30
  10 -20  -6  388.56   21.00
  20 -10   6  301.77   32.50
 -10 -10   6  346.07   20.60
  20 -10   6  347.57   27.90
 -10 -10   6  327.97   24.70
 -20  13  -6  347.37   32.70
  13   7  -6  364.86   26.20
   7 -20  -6  380.16   21.50
  13   7  -6  438.86   35.00
 -13  -7   6  339.77   19.00
  20 -13   6  453.55   36.50
 -13  -7   6  349.07   22.60
  20 -13   6  322.17   28.10
 -20  16  -6  338.57   33.80
   4 -20  -6  395.56   23.00
 -20  16  -6  314.27   29.20
  16   4  -6  345.37   33.20
 -16  -4   6  376.16   17.30
  20 -16   6  353.36   37.00
 -16  -4   6  363.96   20.10
  20 -16   6  317.57   29.20
  19   1  -6  172.98   24.50
 -20  19  -6  192.88   26.30
   1 -20  -6  159.28   17.70
  20 -19   6  169.88   27.80
 -19  -1   6  185.28   13.90
 -19  -1   6  164.98   11.50
  -2 -20  -6   90.79   16.10
  22  -2  -6   91.79   20.00
 -20  22  -6   77.89   23.30
  20 -22   6   94.89   27.10
   2  20   6   44.30    9.80
  20 -22   6   82.39   25.50
  -5 -20  -6  128.79   30.10
  -5 -20  -6  129.79   19.30
  25  -5  -6  159.98   25.10
 -20  25  -6  171.58   30.00
 -20  25  -6  145.59   28.60
   5  20   6  135.89   16.60
  20 -25   6  140.59   27.10
  20 -25   6  163.78   34.10
  -8 -20  -6  165.68   36.20
 -20  28  -6  118.09   28.70
  -8 -20  -6  117.99   20.70
  28  -8  -6  114.79   25.10
  20 -28   6  121.89   35.00
  20 -28   6   57.09   25.80
   8  20   6  139.19   20.80
 -21  -6  -6  301.87   40.10
  -6  27  -6  440.46   43.10
  27 -21  -6  437.06   53.89
  -6  27  -6  292.87   35.50
  27 -21  -6  422.26   36.40
   6 -27   6  469.35   41.70
   6 -27   6  401.86   55.09
  21   6   6  506.95   48.40
  24 -21  -6  228.08   28.00
  -3  24  -6  207.98   25.40
  -3  24  -6  177.58   32.40
  24 -21  -6  251.27   30.10
 -21  -3  -6  248.48   33.00
  21   3   6  260.67   33.30
   3 -24   6  341.27   46.60
   3 -24   6  269.87   33.00
  21 -21  -6  348.97   25.80
  21 -21  -6  356.86   25.80
   0  21  -6  358.86   32.80
 -21   0  -6  380.56   43.30
  21   0   6  271.17   35.90
 -21   3  -6 1035.80   51.49
  18 -21  -6  977.90   27.40
  18 -21  -6 1006.80   33.60
   3  18  -6  934.01   40.90
  21  -3   6  950.90   41.00
  -3 -18   6  976.70   38.40
  -3 -18   6  923.61   66.29
  21  -3   6  958.70   47.20
 -21   6  -6  448.06   37.80
  15 -21  -6  493.25   24.20
   6  15  -6  485.45   31.40
  21  -6   6  498.95   32.50
  21  -6   6  474.75   38.20
  -6 -15   6  458.75   32.50
  -6 -15   6  390.16   33.50
 -21   9  -6  180.58   24.80
  12 -21  -6  218.88   18.50
   9  12  -6  189.58   24.90
   9  12  -6  130.99   21.00
  21  -9   6  218.98   27.40
  21  -9   6  188.78   25.50
  -9 -12   6  223.58   25.10
  -9 -12   6  228.58   20.10
   9 -21  -6  161.78   17.80
 -21  12  -6   92.79   19.70
  12   9  -6  108.09   21.10
  12   9  -6  131.89   17.80
 -12  -9   6  136.49   15.00
 -12  -9   6  193.88   22.30
  21 -12   6  149.88   26.00
  21 -12   6  125.19   19.40
   6 -21  -6  304.37   22.30
 -21  15  -6  267.77   29.80
 -21  15  -6  313.37   34.00
  15   6  -6  332.47   34.30
 -15  -6   6  319.37   23.00
  21 -15   6  299.27   28.90
  21 -15   6  352.96   37.30
 -15  -6   6  294.17   18.60
 -21  18  -6  320.97   44.30
  18   3  -6  284.67   34.30
 -21  18  -6  359.76   36.30
   3 -21  -6  356.56   24.90
 -18  -3   6  349.96   19.90
 -18  -3   6  342.17   17.30
  21 -18   6  352.26   40.10
 -21  21  -6  371.06   40.40
  21   0  -6  320.07   35.10
  21   0  -6  353.56   32.20
   0 -21  -6  405.86   27.00
 -21   0   6  312.07   13.80
  21 -21   6  384.36   41.70
   0  21   6  327.57   14.70
 -21   0   6  289.77   15.40
  -3 -21  -6  225.78   26.70
 -21  24  -6  256.87   33.40
 -21  24  -6  382.96   41.40
  24  -3  -6  288.17   29.90
   3  21   6  218.88   19.70
  21 -24   6  258.97   36.40
  21 -24   6  263.77   32.60
  -6 -21  -6   71.99   20.50
  -6 -21  -6  137.49   34.70
  27  -6  -6  128.79   26.60
 -21  27  -6   79.19   25.20
 -21  27  -6   37.80   26.30
  21 -27   6  129.99   27.80
   6  21   6  126.19   18.30
  21 -27   6  127.79   35.00
  26 -22  -6  119.09   22.00
  26 -22  -6  172.18   24.40
 -22  -4  -6  160.28   35.60
  -4  26  -6   64.69   24.80
  -4  26  -6  101.09   26.10
   4 -26   6  119.39   32.90
   4 -26   6  117.09   23.70
  22   4   6  127.89   29.40
  -1  23  -6   73.19   23.00
 -22  -1  -6   56.69   27.00
  23 -22  -6   35.90   20.70
  23 -22  -6   91.69   19.10
  -1  23  -6   42.20   19.70
  22   1   6   80.09   25.00
  20 -22  -6   64.29   14.10
   2  20  -6   96.39   20.30
 -22   2  -6   92.29   26.30
  20 -22  -6   58.49   15.10
  -2 -20   6  109.89   19.30
  22  -2   6   72.19   23.00
 -22   5  -6   13.60   19.70
  17 -22  -6   12.30   11.20
   5  17  -6    6.00   15.20
  22  -5   6   24.10   19.30
  -5 -17   6   43.20   19.00
  22  -5   6    0.10   15.20
  -5 -17   6    1.80   12.60
 -22   8  -6  380.26   35.90
  14 -22  -6  348.87   22.80
   8  14  -6  307.27   34.30
   8  14  -6  337.57   29.40
  22  -8   6  264.57   28.50
  22  -8   6  288.77   35.30
  -8 -14   6  256.17   28.30
  11  11  -6  198.78   22.80
  11  11  -6  215.98   29.50
 -22  11  -6  160.98   24.80
  11 -22  -6  176.08   19.40
  22 -11   6  159.98   21.80
 -11 -11   6  149.39   19.60
 -11 -11   6  155.08   19.50
  22 -11   6  126.59   23.40
   8 -22  -6   42.40   12.00
 -22  14  -6   59.89   20.10
  14   8  -6   70.19   19.90
 -14  -8   6   19.00   10.90
  22 -14   6   22.70   18.60
  22 -14   6  -11.20   13.00
 -14  -8   6   11.30   13.30
  17   5  -6  173.88   25.90
   5 -22  -6  212.58   22.40
 -22  17  -6  174.28   25.20
 -22  17  -6  153.28   24.60
 -17  -5   6  175.68   17.00
 -17  -5   6  196.78   21.20
  22 -17   6  151.08   27.00
 -22  20  -6   57.39   22.90
  20   2  -6   83.49   22.10
   2 -22  -6   96.19   17.20
 -20  -2   6   67.79   11.90
  22 -20   6   82.29   25.00
 -20  -2   6   65.59   10.10
  22 -20   6  111.79   29.60
  -1 -22  -6  130.09   19.60
 -22  23  -6   98.59   26.50
  23  -1  -6  101.09   21.40
 -22  23  -6  124.89   27.10
  22 -23   6   65.79   21.30
   1  22   6   90.59   11.50
  22 -23   6   69.39   28.60
 -22  26  -6  162.18   24.70
  -4 -22  -6  227.68   25.30
 -22  26  -6  192.18   32.80
  26  -4  -6  227.38   30.20
  -4 -22  -6  272.77   37.70
  22 -26   6  197.28   30.20
   4  22   6  174.38   18.10
  22 -26   6  213.78   37.90
  -2  25  -6   40.70   24.20
  25 -23  -6  142.09   22.60
 -23  -2  -6  106.09   30.90
  -2  25  -6   71.19   23.00
  25 -23  -6   91.69   20.80
  23   2   6   24.80   27.10
   2 -25   6  110.09   22.80
   1  22  -6  192.08   26.80
   1  22  -6  128.99   26.10
  22 -23  -6  120.69   25.50
 -23   1  -6  187.18   33.10
  22 -23  -6  152.58   19.00
  23  -1   6  120.29   29.30
  19 -23  -6  505.55   29.30
 -23   4  -6  427.26   43.40
   4  19  -6  502.85   36.10
  19 -23  -6  438.36   21.40
  23  -4   6  556.04   43.30
  -4 -19   6  617.74   34.40
  -4 -19   6  556.94   42.00
   7  16  -6 1239.58   46.00
  16 -23  -6 1244.98   38.60
 -23   7  -6 1232.78   53.29
  -7 -16   6 1272.67   42.70
  -7 -16   6 1340.57   49.30
  23  -7   6 1333.57   56.99
  13 -23  -6 1029.90   35.70
  10  13  -6 1033.70   41.50
 -23  10  -6 1006.30   48.20
  10  13  -6 1052.19   50.79
  23 -10   6  979.30   50.59
 -10 -13   6 1028.20   41.00
  13  10  -6  640.64   42.70
 -23  13  -6  624.44   42.30
  13  10  -6  602.14   34.50
  10 -23  -6  658.73   29.80
 -13 -10   6  611.14   32.30
  23 -13   6  554.54   43.50
 -13 -10   6  592.34   27.80
   7 -23  -6  604.04   29.90
 -23  16  -6  582.34   43.30
  16   7  -6  586.44   44.20
 -16  -7   6  639.84   30.70
  23 -16   6  635.44   44.80
 -16  -7   6  610.14   26.00
   4 -23  -6  508.15   30.20
  19   4  -6  507.05   42.40
 -23  19  -6  448.66   37.80
 -23  19  -6  508.65   43.00
 -19  -4   6  560.44   26.30
  23 -19   6  571.54   39.90
  23 -19   6  581.14   47.10
 -19  -4   6  588.54   23.30
 -23  22  -6   64.29   21.40
 -23  22  -6   63.49   24.40
  22   1  -6   21.50   20.70
   1 -23  -6   60.29   17.60
 -22  -1   6   63.29    9.80
 -22  -1   6   77.19   12.30
  23 -22   6   64.79   25.40
  23 -22   6   14.60   21.10
 -23  25  -6   52.59   21.00
  25  -2  -6   75.79   24.90
 -23  25  -6   32.70   26.60
  -2 -23  -6   85.89   20.40
   2  23   6   59.29   13.10
  23 -25   6   50.49   22.20
  23 -25   6  118.39   34.00
   0  24  -6  318.77   44.40
  24 -24  -6  422.06   33.20
   0  24  -6  451.15   40.60
 -24   0  -6  374.06   50.89
  24 -24  -6  448.96   34.10
  24   0   6  325.47   39.80
   0 -24   6  315.77   37.30
  21 -24  -6  304.57   24.60
  21 -24  -6  263.67   27.20
   3  21  -6  204.78   30.60
 -24   3  -6  353.16   44.60
   3  21  -6  310.47   34.90
  24  -3   6  336.97   43.30
  24  -3   6  240.58   30.40
  -3 -21   6  351.56   41.40
  18 -24  -6  694.23   33.70
 -24   6  -6  725.63   48.10
   6  18  -6  663.43   60.49
   6  18  -6  773.12   39.70
  24  -6   6  786.72   49.10
  -6 -18   6  695.93   35.90
  -6 -18   6  684.93   43.10
  15 -24  -6  568.34   29.90
   9  15  -6  576.14   36.60
 -24   9  -6  518.95   43.10
   9  15  -6  584.34   44.10
  -9 -15   6  522.95   37.00
  24  -9   6  577.24   45.30
  -9 -15   6  544.85   31.00
  12  12  -6  158.48   28.60
 -24  12  -6  138.49   26.80
  12 -24  -6  202.78   23.60
  12  12  -6  142.19   21.70
 -12 -12   6  187.78   22.40
  24 -12   6  166.48   29.00
 -12 -12   6  138.29   24.90
 -24  15  -6  286.87   38.70
  15   9  -6  312.47   38.60
   9 -24  -6  268.77   25.20
  24 -15   6  353.16   41.80
 -15  -9   6  324.07   23.80
 -15  -9   6  346.07   28.90
   6 -24  -6  316.47   27.20
  18   6  -6  441.66   41.70
 -24  18  -6  389.36   42.30
  24 -18   6  348.87   45.60
 -18  -6   6  338.47   26.60
  24 -18   6  332.47   35.50
 -18  -6   6  357.76   22.10
  21   3  -6  338.57   39.90
 -24  21  -6  324.17   35.20
   3 -24  -6  363.66   30.40
 -24  21  -6  347.07   38.30
  24 -21   6  445.66   48.10
 -21  -3   6  374.56   24.60
  24 -21   6  360.86   38.40
 -21  -3   6  341.37   20.60
 -24  24  -6  143.29   26.20
   0 -24  -6  118.09   21.80
 -24  24  -6  108.79   27.80
 -24   0   6   80.39   12.60
  24 -24   6   73.79   32.80
  24 -24   6   47.20   21.80
 -24   0   6   74.59   11.30
   0  24   6   88.29   11.40
 -25   2  -6   78.89   32.60
  23 -25  -6   82.49   18.30
   2  23  -6   97.49   25.40
  23 -25  -6   74.29   19.10
   2  23  -6   60.49   23.20
  -2 -23   6   32.60   20.30
  25  -2   6   30.50   21.60
  25  -2   6   62.39   28.40
   5  20  -6  114.89   27.40
  20 -25  -6  105.79   19.80
   5  20  -6  113.79   22.70
  20 -25  -6   89.69   13.80
 -25   5  -6   60.69   28.00
  25  -5   6   89.89   27.00
  25  -5   6   78.59   21.50
  -5 -20   6   99.69   25.60
 -25   8  -6  215.98   33.30
  17 -25  -6  188.28   22.90
   8  17  -6  199.28   25.60
   8  17  -6  255.27   34.30
  25  -8   6  243.98   32.70
  -8 -17   6  255.17   29.70
  25  -8   6  246.18   34.80
  -8 -17   6  240.38   28.20
  11  14  -6  225.88   29.60
  11  14  -6  255.67   30.40
 -25  11  -6  168.88   29.00
  14 -25  -6  235.78   26.00
  25 -11   6  253.07   32.20
 -11 -14   6  230.68   26.30
  25 -11   6  224.78   28.60
 -11 -14   6  197.58   24.50
  11 -25  -6  269.77   25.90
  14  11  -6  214.38   29.10
 -25  14  -6  256.87   32.60
  25 -14   6  206.38   33.20
 -14 -11   6  204.88   25.10
 -14 -11   6  209.28   23.50
  25 -14   6  204.28   27.90
 -25  17  -6  155.68   27.80
  17   8  -6  130.89   27.80
   8 -25  -6  130.19   19.70
  25 -17   6  127.39   27.70
 -17  -8   6  162.88   20.50
  25 -17   6  184.98   28.00
 -17  -8   6  168.28   21.40
 -25  20  -6   83.89   25.50
   5 -25  -6   85.99   18.30
  20   5  -6  104.59   26.80
 -20  -5   6  106.19   15.10
  25 -20   6   97.59   28.30
 -20  -5   6  105.39   18.10
  25 -20   6   57.79   22.30
   2 -25  -6   40.80   18.10
  23   2  -6    2.90   22.00
 -25  23  -6    6.00   19.10
 -25  23  -6    8.30   25.40
 -23  -2   6    0.30   11.20
  25 -23   6   -7.70   28.50
 -23  -2   6   28.10   13.70
  25 -23   6   38.00   23.70
   4  22  -6  106.39   24.60
 -26   4  -6   48.40   29.80
  22 -26  -6  107.59   17.10
   4  22  -6   86.99   25.90
  22 -26  -6  130.69   20.90
  -4 -22   6  164.28   25.60
  -4 -22   6  143.09   30.50
  26  -4   6  128.69   25.40
  26  -4   6  160.88   35.10
   7  19  -6 1104.59   47.60
 -26   7  -6  960.60   56.99
   7  19  -6  813.92   55.49
  19 -26  -6 1012.60   42.40
  26  -7   6 1088.59   58.89
  26  -7   6 1012.30   50.09
  -7 -19   6 1014.00   51.39
  10  16  -6  787.52   51.79
 -26  10  -6  801.22   52.79
  16 -26  -6  930.91   39.90
  10  16  -6  949.40   45.00
 -10 -16   6  912.11   39.40
  26 -10   6  934.21   47.70
 -10 -16   6  960.30   46.80
  26 -10   6 1048.40   57.39
  13  13  -6 1002.80   55.59
  13 -26  -6 1090.49   42.40
 -26  13  -6 1148.69   59.49
  26 -13   6 1016.40   48.90
  26 -13   6  964.40   56.59
 -13 -13   6 1015.90   44.80
 -13 -13   6 1025.90   39.60
  16  10  -6  834.62   53.49
 -26  16  -6  873.91   53.59
  10 -26  -6  848.82   38.00
  26 -16   6  871.81   47.00
  26 -16   6  869.51   55.99
 -16 -10   6  814.62   39.30
 -16 -10   6  834.22   34.60
  19   7  -6  544.75   48.70
   7 -26  -6  447.86   33.30
 -26  19  -6  499.35   46.70
 -19  -7   6  556.24   28.30
  26 -19   6  532.35   43.70
  26 -19   6  559.04   53.39
 -19  -7   6  558.84   33.60
   4 -26  -6  241.58   31.10
 -26  22  -6  150.38   31.10
  22   4  -6  112.49   29.20
  26 -22   6  170.68   28.10
 -22  -4   6  158.28   19.10
  26 -22   6  187.48   36.10
 -22  -4   6  172.68   21.90
   6  21  -6  318.17   38.70
  21 -27  -6  249.08   32.70
 -27   6  -6  227.28   37.10
   6  21  -6  224.28   35.40
  21 -27  -6  279.77   20.60
  -6 -21   6  301.97   35.00
  -6 -21   6  344.27   46.00
  27  -6   6  365.76   50.49
  27  -6   6  357.76   41.70
   9  18  -6  147.99   29.50
 -27   9  -6  154.68   34.40
  18 -27  -6  200.68   23.40
   9  18  -6  189.98   26.90
  -9 -18   6  181.18   28.30
  27  -9   6  145.69   32.30
  27  -9   6  131.89   24.40
 -27  12  -6  220.28   34.90
  12  15  -6  213.88   30.40
  15 -27  -6  296.87   32.40
  12  15  -6  240.58   28.80
  27 -12   6  213.68   36.20
  27 -12   6  246.38   31.40
 -12 -15   6  217.88   28.80
 -12 -15   6  251.77   29.50
  12 -27  -6  268.77   32.40
 -27  15  -6  332.07   45.10
  15  12  -6  229.08   34.90
 -15 -12   6  299.17   27.80
 -15 -12   6  265.07   33.40
  27 -15   6  205.68   35.00
  27 -15   6  256.07   30.80
   9 -27  -6  310.17   33.00
  18   9  -6  299.67   36.30
 -27  18  -6  384.06   47.60
  27 -18   6  385.46   40.70
 -18  -9   6  428.66   35.20
 -18  -9   6  380.36   27.70
  27 -18   6  450.95   51.29
 -27  21  -6  122.89   29.30
   6 -27  -6  103.59   21.20
  21   6  -6   58.29   25.20
  27 -21   6  129.69   27.30
 -21  -6   6  111.19   18.00
  27 -21   6   78.49   30.40
 -21  -6   6  137.79   21.00
  20 -28  -6  130.69   23.60
   8  20  -6  112.89   25.30
 -28   8  -6  111.89   31.40
  28  -8   6  127.49   27.90
  -8 -20   6  162.38   24.20
  28  -8   6  170.58   34.70
  -8 -20   6  170.48   32.10
 -28  11  -6  202.68   35.70
  11  17  -6  203.18   28.80
  17 -28  -6  327.17   33.30
  11  17  -6  241.68   32.70
  28 -11   6  375.76   50.59
 -11 -17   6  393.36   41.20
 -28  14  -6  239.08   37.30
  14 -28  -6  289.97   33.80
 -14 -14   6  254.07   29.90
  28 -14   6  333.67   42.50
  28 -14   6  244.48   37.70
 -14 -14   6  305.57   36.90
  17  11  -6   22.90   22.60
  11 -28  -6  114.39   22.50
 -28  17  -6   67.19   28.80
 -17 -11   6  103.49   18.60
 -17 -11   6   63.49   23.00
  28 -17   6   53.79   23.90
  28 -17   6  101.49   31.60
  20   8  -6   -8.00   28.90
 -28  20  -6   65.29   29.00
   8 -28  -6  125.09   25.10
  28 -20   6   65.29   30.40
  28 -20   6   92.89   24.80
 -20  -8   6  125.99   21.80
 -20  -8   6   74.99   17.10
  16 -29  -6 1248.78   50.79
 -29  13  -6 1120.79   61.29
  29 -13   6  950.90   53.39
  29 -13   6 1024.00   64.19
 -13 -16   6 1197.38   54.39
 -29  16  -6  702.13   51.19
  13 -29  -6  759.12   43.80
  29 -16   6  682.63   47.00
  29 -16   6  640.54   53.89
 -16 -13   6  804.52   45.50
   1  -1  -7    6.90    5.40
   0   1  -7    8.90    6.30
   1  -1  -7    1.70    6.50
  -1   0  -7   17.00    7.50
  -1   0  -7    3.00    6.20
   0   1  -7   -4.30    6.90
  -1   1   7   -1.70    7.70
   1   0   7    2.00    8.00
   0  -1   7    5.90    8.50
  -2  -1  -7 1205.58   31.20
  -2  -1  -7 1211.48   28.40
  -1   3  -7 1199.48   36.20
  -1   3  -7 1224.68   29.50
   3  -2  -7 1208.18   31.70
   3  -2  -7 1215.88   21.80
   2   1   7 1263.87   33.90
   1  -3   7 1295.17   37.90
  -3   2   7 1270.57   32.50
   2   0  -7    3.20    5.30
  -2   2  -7    0.50    7.00
   0  -2  -7    0.30    5.90
   0  -2  -7    0.90    5.50
  -2   2  -7    6.20    7.00
   2   0  -7    3.70    6.70
  -2   0   7    1.50    8.20
   0   2   7    0.50    7.10
   2  -2   7   -1.10    8.00
   5  -3  -7 1438.96   35.00
  -2   5  -7 1457.65   42.00
  -2   5  -7 1516.65   35.30
  -3  -2  -7 1486.35   33.40
  -3  -2  -7 1450.55   33.50
   3   2   7 1419.86   35.50
   2  -5   7 1454.75   42.20
   2  -3  -7 1102.59   28.20
   1   2  -7 1136.89   26.40
   1   2  -7 1124.39   34.20
  -3   1  -7 1140.59   28.90
  -3   1  -7 1121.29   32.10
   2  -3  -7 1109.09   20.70
  -2   3   7 1153.78   29.30
  -1  -2   7 1148.79   34.90
   3  -1   7 1183.78   34.30
  -3   4  -7  188.38   17.90
  -3   4  -7  187.48   15.70
   4  -1  -7  181.18   15.40
  -1  -3  -7  217.38   13.20
  -1  -3  -7  208.38   12.70
   4  -1  -7  195.98   10.00
   3  -4   7  222.48   20.10
   1   3   7  228.28   15.40
   7  -4  -7   15.80    7.70
  -3   7  -7   14.60    9.10
  -4  -3  -7    6.20    8.10
  -3   7  -7    4.20    9.30
   4   3   7    5.30    8.20
   3  -7   7    2.70   10.60
   3  -7   7    7.90    4.60
   4  -4  -7   12.90    6.60
  -4   0  -7   16.50    8.40
   0   4  -7    8.80    8.50
   0   4  -7   17.90    7.80
  -4   0  -7   26.50    8.10
   0  -4   7    8.80   10.60
   4   0   7   15.40    9.40
   3   1  -7  394.16   14.90
  -4   3  -7  437.56   20.20
   1  -4  -7  425.76   16.20
   3   1  -7  406.86   21.20
   1  -4  -7  412.46   13.50
  -4   3  -7  402.16   21.70
   4  -3   7  467.65   24.40
  -3  -1   7  470.35   23.10
  -1   4   7  462.35   18.10
  -4   6  -7 1763.22   40.30
  -2  -4  -7 1711.33   35.40
   6  -2  -7 1643.94   27.10
  -2  -4  -7 1602.14   33.50
  -4   6  -7 1769.12   47.00
   6  -2  -7 1706.53   41.10
   2   4   7 1608.24   35.20
   4  -6   7 1683.73   46.50
  -5  -4  -7 2589.74   52.19
  -4   9  -7 2625.74   63.09
  -4   9  -7 2576.74   54.09
   9  -5  -7 2568.84   51.49
   4  -9   7 2711.13   46.80
   4  -9   7 2730.73   64.99
   5   4   7 2682.13   52.19
  -1   6  -7 1094.79   30.20
  -5  -1  -7 1079.89   30.70
  -5  -1  -7 1071.59   29.80
  -1   6  -7 1083.49   37.20
   6  -5  -7 1061.69   27.60
   5   1   7 1079.29   32.60
   1  -6   7 1099.69   37.70
   3  -5  -7 1358.86   28.80
   2   3  -7 1337.07   39.20
  -5   2  -7 1348.57   34.30
  -5   2  -7 1326.57   36.40
   2   3  -7 1354.76   29.90
  -2  -3   7 1371.06   39.30
   5  -2   7 1279.47   37.70
   5   0  -7   22.30    6.00
   5   0  -7   31.50    9.80
  -5   5  -7   24.60    9.90
  -5   5  -7   32.00   10.00
   0  -5  -7   24.00    5.90
   0  -5  -7   27.70    7.40
   5  -5   7   47.90   12.40
   0   5   7   30.90    7.50
  -5   8  -7  579.14   29.20
   8  -3  -7  576.14   14.60
  -5   8  -7  609.34   26.40
   8  -3  -7  599.74   24.60
   8  -3  -7  568.64   13.80
  -3  -5  -7  609.14   23.00
   3   5   7  498.65   20.20
   5  -8   7  538.15   17.30
   5  -8   7  503.25   29.00
  11  -6  -7 1788.52   28.40
  11  -6  -7 1807.72   42.70
  -5  11  -7 1850.91   46.30
  11  -6  -7 1813.92   30.20
  -6  -5  -7 1796.82   44.80
   5 -11   7 1681.73   37.90
   5 -11   7 1751.02   52.79
   6   5   7 1704.73   40.20
  -2   8  -7 2426.26   59.19
  -2   8  -7 2385.46   49.60
  -6  -2  -7 2382.16   49.99
   8  -6  -7 2306.67   45.10
   6   2   7 2352.26   49.90
   2  -8   7 2293.47   37.50
   2  -8   7 2350.46   58.79
   1   5  -7 1514.25   43.80
  -6   1  -7 1547.45   38.00
   1   5  -7 1462.85   33.90
   5  -6  -7 1475.05   30.30
  -6   1  -7 1498.25   38.00
   6  -1   7 1588.54   41.80
  -1  -5   7 1584.64   44.90
   4   2  -7 1500.65   41.70
   2  -6  -7 1398.96   30.40
  -6   4  -7 1520.05   41.00
   4   2  -7 1486.85   30.30
  -6   4  -7 1513.25   38.00
   6  -4   7 1441.66   41.90
  -6   7  -7  524.55   27.30
  -6   7  -7  546.05   25.20
   7  -1  -7  556.84   15.70
  -1  -6  -7  576.54   20.20
   7  -1  -7  518.25   24.50
   1   6   7  581.84   18.70
   6  -7   7  570.24   29.70
   6  -7   7  585.84   17.70
  10  -4  -7   93.19   13.10
  -4  -6  -7  100.09   13.80
  10  -4  -7   80.89    8.10
  10  -4  -7   70.99    8.30
  -6  10  -7   84.19   14.90
  -6  10  -7   91.19   14.80
   6 -10   7  106.19   12.60
   6 -10   7  116.49   17.80
   4   6   7  110.59   12.10
  -7  -6  -7   67.09   14.70
  -6  13  -7   49.99   15.70
  13  -7  -7   79.49    8.50
  -6  13  -7   77.09   14.90
  13  -7  -7   66.39   12.70
   7   6   7   95.99   13.40
   6 -13   7   89.79   12.20
   6 -13   7   97.79   21.80
  -7  -3  -7   19.50   11.10
  10  -7  -7   31.70    8.20
  -3  10  -7   -1.60   10.60
  -3  10  -7   29.40   10.90
   3 -10   7   19.30   13.50
   7   3   7    8.30    9.70
   3 -10   7   22.20    7.30
  -7   0  -7   16.90    9.20
  -7   0  -7    6.40    7.40
   7  -7  -7    9.60    5.90
   0   7  -7    7.50    8.20
   0   7  -7   13.90   10.20
   7   0   7   12.60    9.60
   0  -7   7   13.40   12.40
  -7   3  -7   17.30    8.60
   3   4  -7   20.10   10.50
  -7   3  -7   15.40   10.10
   3   4  -7   10.50    7.30
   4  -7  -7    5.80    4.10
   7  -3   7   26.40   11.00
  -3  -4   7   12.60   10.40
   6   1  -7  624.44   27.50
  -7   6  -7  604.44   28.20
  -7   6  -7  598.54   26.50
   6   1  -7  596.24   18.30
   7  -6   7  601.24   18.00
   7  -6   7  597.14   30.00
  -1   7   7  587.94   15.80
   9  -2  -7  392.86   14.80
   9  -2  -7  376.06   13.50
  -7   9  -7  423.26   26.40
  -7   9  -7  377.16   23.70
  -2  -7  -7  408.86   20.30
   9  -2  -7  388.66   22.70
   7  -9   7  342.87   16.90
   7  -9   7  365.46   27.00
   2   7   7  344.67   15.50
  -7  12  -7 1387.06   47.70
  12  -5  -7 1383.26   39.20
  -7  12  -7 1377.66   42.00
  12  -5  -7 1364.16   28.80
  -5  -7  -7 1457.75   40.10
  12  -5  -7 1404.56   26.90
   7 -12   7 1366.36   35.80
   7 -12   7 1395.76   49.00
   5   7   7 1373.76   33.60
  -7  15  -7  881.81   41.20
  -8  -7  -7  867.01   36.40
  15  -8  -7  835.52   24.00
  -7  15  -7  882.61   36.40
  15  -8  -7  827.62   31.80
   7 -15   7  897.11   43.90
   8   7   7  936.81   31.80
   7 -15   7  957.20   32.80
  -4  12  -7 1485.85   49.20
  -8  -4  -7 1511.05   43.00
  12  -8  -7 1477.55   36.60
  -4  12  -7 1447.56   41.90
  12  -8  -7 1420.66   25.50
   4 -12   7 1441.26   51.59
   8   4   7 1489.25   39.60
   4 -12   7 1461.85   35.80
  -1   9  -7 2333.27   59.79
  -1   9  -7 2282.97   49.40
  -8  -1  -7 2252.47   51.29
   9  -8  -7 2236.88   41.40
   8   1   7 2162.98   50.39
   1  -9   7 2123.19   37.80
   1  -9   7 2205.48   57.79
   2   6  -7 1945.01   52.19
   6  -8  -7 1960.60   31.80
  -8   2  -7 1989.20   46.30
  -8   2  -7 1979.70   46.70
   2   6  -7 1933.41   41.10
  -2  -6   7 1992.80   52.19
   8  -2   7 1966.60   49.40
  -8   5  -7  648.34   27.60
  -8   5  -7  669.83   29.00
   5   3  -7  634.04   29.10
   5   3  -7  641.54   20.70
   8  -5   7  538.45   17.60
   8  -5   7  536.05   28.50
  -8   8  -7   16.60   11.00
   8   0  -7   28.60   10.40
   8   0  -7   19.60    6.40
   0  -8  -7   22.30    8.10
  -8   8  -7    4.20    9.60
   8  -8   7   28.60   13.10
   0   8   7   17.90    5.30
   8  -8   7   22.20    7.20
  11  -3  -7  379.56   14.40
  11  -3  -7  390.66   15.80
  -3  -8  -7  353.16   21.90
  -8  11  -7  370.26   38.70
  -8  11  -7  394.06   25.80
  11  -3  -7  393.06   23.60
   8 -11   7  337.17   19.40
   8 -11   7  396.76   29.60
   3   8   7  353.76   16.40
  -6  -8  -7  799.12   33.20
  14  -6  -7  779.52   22.90
  -8  14  -7  794.62   39.00
  -8  14  -7  828.02   37.40
  14  -6  -7  768.62   31.30
   8 -14   7  641.84   27.00
   8 -14   7  715.33   38.80
   6   8   7  652.83   24.70
  17  -9  -7  904.21   33.80
  -9  -8  -7  876.01   39.60
  -8  17  -7  845.82   42.50
  -8  17  -7  870.91   37.90
  17  -9  -7  851.81   27.10
   8 -17   7  738.13   43.40
   9   8   7  832.62   31.90
   8 -17   7  851.41   33.50
  -5  14  -7 1161.78   39.40
  -9  -5  -7 1173.88   40.70
  14  -9  -7 1107.09   25.00
  -5  14  -7 1145.69   45.60
  14  -9  -7 1142.39   33.70
   9   5   7 1048.20   34.90
   5 -14   7 1098.39   33.30
   5 -14   7 1082.79   46.10
  -9  -2  -7 1911.51   49.10
  -2  11  -7 1974.60   56.89
  -2  11  -7 1944.31   47.20
  11  -9  -7 1912.81   38.90
   2 -11   7 1869.21   55.59
   9   2   7 1852.71   46.60
   2 -11   7 1825.52   38.70
   1   8  -7 2021.80   44.80
   8  -9  -7 2033.30   33.70
   1   8  -7 2014.40   55.19
  -9   1  -7 2068.59   49.40
  -1  -8   7 1832.32   30.40
  -1  -8   7 1936.81   53.69
   9  -1   7 1981.50   49.50
   4   5  -7 2308.67   57.39
  -9   4  -7 2314.37   53.39
   4   5  -7 2292.77   44.70
  -9   4  -7 2296.17   52.39
   9  -4   7 2465.35   57.89
   9  -4   7 2385.56   43.10
  -9   7  -7  378.56   24.60
   7   2  -7  384.96   25.00
   7   2  -7  403.16   16.80
  -9   7  -7  394.96   24.80
   9  -7   7  397.16   27.40
   9  -7   7  360.56   17.50
  -9  10  -7  136.59   17.20
  -9  10  -7  113.99   18.20
  -1  -9  -7  120.29   16.10
  10  -1  -7  120.39   11.90
  10  -1  -7  122.89   15.60
   9 -10   7   84.19   12.00
   1   9   7   86.09    8.90
   9 -10   7  108.29   18.70
  13  -4  -7   34.40    7.90
  13  -4  -7   28.90   12.00
  13  -4  -7   31.80    8.30
  -4  -9  -7   45.50   13.20
  -9  13  -7   40.30   13.90
  -9  13  -7   28.70   13.80
   9 -13   7   33.80   15.80
   4   9   7   32.10    8.60
   9 -13   7   21.30    9.80
  16  -7  -7   24.30    8.60
  -9  16  -7   22.00   14.30
  -9  16  -7   35.90   14.90
  -7  -9  -7   50.09   16.60
  16  -7  -7    8.10   11.40
   9 -16   7   16.80   10.90
   9 -16   7   -6.30   16.80
   7   9   7    4.70    9.70
  19 -10  -7  560.14   24.60
  -9  19  -7  401.66   35.00
  -9  19  -7  472.65   33.80
 -10  -9  -7  541.05   37.30
  10   9   7  512.45   28.30
   9 -19   7  559.14   31.10
   9 -19   7  509.75   40.30
 -10  -6  -7   -6.60   14.20
  16 -10  -7   14.70    7.90
  16 -10  -7   28.10   10.80
  -6  16  -7    2.60   13.40
  -6  16  -7   22.50   14.10
   6 -16   7   -8.10   17.00
  10   6   7    6.70   11.70
   6 -16   7    9.60   10.40
  13 -10  -7    3.70    7.50
  -3  13  -7   26.80   13.70
 -10  -3  -7   13.50   13.20
  -3  13  -7   -5.10   11.00
  13 -10  -7   13.00    5.10
   3 -13   7   19.70   15.90
  10   3   7    9.70   11.50
   3 -13   7    5.50    8.80
   0  10  -7   -7.70    9.90
   0  10  -7   -4.10   12.60
  10 -10  -7    4.50    7.30
 -10   0  -7   15.90   12.50
   0 -10   7    1.50    6.20
   0 -10   7    1.40   13.00
   0 -10   7   10.30    8.00
  10   0   7   12.70   10.90
   3   7  -7   20.00    9.10
 -10   3  -7   11.80    8.80
 -10   3  -7   21.00   12.00
   3   7  -7   44.80   13.50
  10  -3   7   47.20   13.10
  10  -3   7   33.20    8.30
  -3  -7   7   31.40   13.70
 -10   6  -7   67.29   14.40
 -10   6  -7   99.29   14.90
   6   4  -7   93.39   11.30
   6   4  -7   85.69   14.90
  10  -6   7  119.89   18.30
  10  -6   7  121.59   13.10
 -10   9  -7  184.98   21.60
   9   1  -7  183.88   20.60
   9   1  -7  185.08   13.70
 -10   9  -7  171.68   21.60
  10  -9   7  152.68   21.20
  10  -9   7  142.09   14.70
  12  -2  -7  306.27   15.40
  -2 -10  -7  323.67   22.10
  12  -2  -7  313.77   24.20
  12  -2  -7  326.67   17.10
 -10  12  -7  332.27   26.00
 -10  12  -7  332.07   27.00
   2  10   7  291.37   12.90
  10 -12   7  270.57   19.90
 -10  15  -7  371.56   30.90
 -10  15  -7  354.26   27.70
  15  -5  -7  295.57   25.20
  15  -5  -7  329.87   18.30
  -5 -10  -7  356.26   27.20
   5  10   7  282.17   17.80
  10 -15   7  283.77   21.90
  10 -15   7  322.27   32.30
 -10  18  -7  772.42   42.00
  18  -8  -7  705.83   32.80
 -10  18  -7  724.13   37.80
  18  -8  -7  707.93   26.60
  10 -18   7  581.34   31.20
   8  10   7  613.14   27.10
  10 -18   7  630.94   41.60
 -10  21  -7  390.16   35.80
  21 -11  -7  338.97   24.50
 -11 -10  -7  389.66   37.40
  10 -21   7  316.57   39.90
  10 -21   7  337.97   29.00
  11  10   7  313.87   27.80
  -7  18  -7  392.66   31.00
  -7  18  -7  374.56   33.70
 -11  -7  -7  335.87   33.40
  18 -11  -7  373.66   19.80
  18 -11  -7  373.16   24.30
   7 -18   7  347.07   26.20
  11   7   7  379.56   27.00
   7 -18   7  340.97   35.40
  -4  15  -7 1530.55   46.20
  15 -11  -7 1425.46   36.90
  15 -11  -7 1380.36   30.00
 -11  -4  -7 1514.45   48.00
  -4  15  -7 1514.15   53.29
   4 -15   7 1533.15   40.90
   4 -15   7 1448.66   54.19
  11   4   7 1519.45   44.30
  -1  12  -7 1710.03   54.59
  12 -11  -7 1751.92   34.50
  12 -11  -7 1668.83   27.60
 -11  -1  -7 1742.03   49.10
  -1  12  -7 1782.22   45.90
   1 -12   7 1652.83   55.99
  11   1   7 1688.93   46.50
   1 -12   7 1641.14   37.80
   2   9  -7 1517.65   73.39
   2   9  -7 1613.14   40.30
 -11   2  -7 1584.04   45.80
  -2  -9   7 1503.35   48.90
  -2  -9   7 1475.35   29.90
  11  -2   7 1565.34   45.90
  -2  -9   7 1510.55   29.40
 -11   5  -7 1514.95   43.50
 -11   5  -7 1547.55   44.50
   5   6  -7 1501.95   47.60
   5   6  -7 1545.05   36.70
  11  -5   7 1442.06   45.60
  11  -5   7 1443.56   34.90
   8   3  -7  281.57   24.10
 -11   8  -7  262.07   23.50
 -11   8  -7  245.98   23.80
   8   3  -7  265.07   16.60
  11  -8   7  246.78   17.30
  11  -8   7  252.77   25.90
  11   0  -7  -10.00    9.90
  11   0  -7    0.00    7.20
 -11  11  -7   -0.30   11.70
 -11  11  -7    2.80   11.30
  11 -11   7    6.70    9.30
  11 -11   7    6.60   14.60
  14  -3  -7  455.95   21.00
  -3 -11  -7  458.45   27.40
  14  -3  -7  465.55   28.70
 -11  14  -7  472.65   30.30
 -11  14  -7  478.35   32.50
   3  11   7  398.96   16.10
  11 -14   7  359.06   33.30
  11 -14   7  438.86   24.40
 -11  17  -7  452.05   33.40
  17  -6  -7  457.45   22.50
  17  -6  -7  446.76   29.10
 -11  17  -7  431.96   31.20
  -6 -11  -7  482.15   32.60
   6  11   7  431.56   21.80
  11 -17   7  455.85   37.00
  11 -17   7  391.06   30.40
 -11  20  -7  272.07   31.70
 -11  20  -7  155.08   31.10
  20  -9  -7  254.47   21.40
  -9 -11  -7  299.27   34.50
  11 -20   7  173.68   28.10
  11 -20   7  233.48   26.50
   9  11   7  217.08   22.80
 -11  23  -7  813.82   44.60
  23 -12  -7  770.42   34.90
 -11  23  -7  728.13   52.89
 -12 -11  -7  695.73   47.80
  12  11   7  704.03   36.50
  11 -23   7  709.63   51.39
 -12  -8  -7  984.20   48.20
  20 -12  -7 1042.90   33.90
  -8  20  -7 1032.50   44.20
   8 -20   7 1151.18   54.69
  12   8   7 1121.89   41.10
   8 -20   7 1158.38   42.20
  -5  17  -7 1068.79   41.10
  17 -12  -7 1023.00   32.80
 -12  -5  -7 1061.99   44.10
  17 -12  -7 1038.90   28.20
  -5  17  -7 1058.89   47.30
   5 -17   7 1069.69   37.00
   5 -17   7 1150.08   50.39
  12   5   7 1186.78   41.20
  14 -12  -7 1392.56   27.90
 -12  -2  -7 1419.96   47.20
  14 -12  -7 1436.96   33.10
  -2  14  -7 1472.75   52.39
   2 -14   7 1461.45   38.40
  12   2   7 1449.35   44.80
   2 -14   7 1443.66   52.99
  11 -12  -7 1563.64   25.90
   1  11  -7 1610.84   52.69
 -12   1  -7 1668.83   48.60
   1  11  -7 1639.14   42.90
  12  -1   7 1580.34   46.80
  -1 -11   7 1375.26   59.99
  -1 -11   7 1608.34   35.00
  -1 -11   7 1568.34   36.40
 -12   4  -7 1447.46   42.20
   4   8  -7 1293.87   56.19
   8 -12  -7 1452.65   24.20
 -12   4  -7 1492.75   44.90
   4   8  -7 1527.45   38.30
  -4  -8   7 1455.55   25.70
  12  -4   7 1496.35   36.60
  12  -4   7 1456.55   46.00
 -12   7  -7 1335.97   42.30
 -12   7  -7 1282.87   41.90
   7   5  -7 1257.87   44.20
   7   5  -7 1224.48   32.70
  12  -7   7 1223.88   43.80
  12  -7   7 1235.58   34.30
  10   2  -7  301.87   17.30
 -12  10  -7  275.27   24.80
  10   2  -7  278.67   25.20
 -12  10  -7  335.47   27.70
  12 -10   7  251.57   26.90
  12 -10   7  258.07   19.20
  13  -1  -7  168.48   20.80
 -12  13  -7  130.39   20.20
 -12  13  -7  154.48   21.10
  13  -1  -7  152.48   15.20
  13  -1  -7  149.19   15.50
  12 -13   7   96.89   20.50
  12 -13   7  109.39   15.00
  -4 -12  -7  549.25   31.80
 -12  16  -7  502.35   34.20
  16  -4  -7  491.45   31.40
 -12  16  -7  539.55   33.30
  16  -4  -7  536.05   24.00
  12 -16   7  559.24   38.10
  12 -16   7  498.85   35.30
   4  12   7  500.55   19.30
  -7 -12  -7  346.07   33.30
 -12  19  -7  322.17   32.80
  19  -7  -7  334.97   22.70
 -12  19  -7  296.57   33.20
  12 -19   7  386.36   39.60
   7  12   7  419.56   23.20
  12 -19   7  421.86   29.70
 -12  22  -7   28.40   19.70
 -10 -12  -7   30.00   21.70
  22 -10  -7   37.00   13.80
  12 -22   7    3.80   14.10
  12 -22   7   36.80   22.30
  10  12   7   29.70   15.00
 -12  25  -7   84.29   24.10
 -13 -12  -7  106.29   30.90
  25 -13  -7   88.99   21.30
 -12  25  -7  110.99   26.80
  12 -25   7   92.79   33.60
  13  12   7   64.49   20.10
  12 -25   7  122.79   22.70
  22 -13  -7  178.78   19.60
 -13  -9  -7  145.59   27.70
  -9  22  -7  196.78   25.80
   9 -22   7  166.98   22.70
   9 -22   7  153.58   32.20
  13   9   7  147.49   21.70
  19 -13  -7  271.47   19.50
  -6  19  -7  189.08   25.40
  -6  19  -7  316.57   29.80
 -13  -6  -7  329.97   34.80
  13   6   7  268.27   27.20
   6 -19   7  254.17   25.00
   6 -19   7  258.87   30.90
 -13  -3  -7   11.10   17.10
  -3  16  -7   32.30   13.60
  16 -13  -7   20.50    9.00
  -3  16  -7   -2.30   15.00
  16 -13  -7   14.10    7.60
   3 -16   7   19.90   18.80
   3 -16   7   30.20   11.40
  13   3   7   40.50   15.00
   0  13  -7   -3.60   11.40
  13 -13  -7   14.10    6.40
  13 -13  -7    8.60    6.50
 -13   0  -7   13.40   15.10
   0  13  -7    1.80   13.80
  13   0   7   -5.40   12.90
   0 -13   7   18.90    9.30
   0 -13   7    5.30   15.10
  10 -13  -7    3.90    4.20
   3  10  -7   13.40   14.40
   3  10  -7   -5.20   10.30
 -13   3  -7   -3.40   12.90
  -3 -10   7    9.40    7.00
  13  -3   7    5.30    9.00
  13  -3   7   12.50   13.60
  -3 -10   7    2.60    8.00
   6   7  -7   30.90   10.60
 -13   6  -7   22.40   11.40
 -13   6  -7    9.00   12.90
   7 -13  -7   22.70    5.60
   6   7  -7    8.60   12.80
  13  -6   7   46.30   16.10
  13  -6   7   49.99   10.70
   9   4  -7   23.60   18.50
 -13   9  -7   41.70   12.70
   9   4  -7   27.60   10.00
 -13   9  -7   40.00   14.60
  13  -9   7   41.40   16.20
  13  -9   7   34.80   10.20
  12   1  -7  346.87   27.20
 -13  12  -7  343.17   28.10
 -13  12  -7  342.87   29.40
  12   1  -7  345.37   19.00
  13 -12   7  207.48   28.50
  13 -12   7  257.07   20.80
  15  -2  -7  524.15   24.70
 -13  15  -7  532.45   33.30
 -13  15  -7  525.95   34.70
  15  -2  -7  548.75   41.10
  -2 -13  -7  554.94   30.10
  13 -15   7  454.05   37.00
  13 -15   7  438.56   26.30
  18  -5  -7  596.54   27.20
  18  -5  -7  556.54   33.50
  -5 -13  -7  631.24   36.80
 -13  18  -7  656.83   37.50
 -13  18  -7  575.64   37.80
  13 -18   7  566.84   31.40
  13 -18   7  573.04   39.80
   5  13   7  578.24   22.60
  21  -8  -7  229.78   24.20
 -13  21  -7  251.17   33.40
  -8 -13  -7  227.98   28.70
  13 -21   7  176.38   28.10
  13 -21   7  216.78   27.20
   8  13   7  159.58   21.40
 -13  24  -7  119.59   26.70
 -13  24  -7  108.19   25.00
  24 -11  -7   79.49   22.00
 -11 -13  -7   59.79   26.40
  11  13   7  113.19   20.00
  13 -24   7   96.39   29.00
 -13  27  -7   38.70   22.90
  27 -14  -7   -8.30   18.90
 -14 -13  -7   37.80   32.40
  13 -27   7   50.09   27.10
  14  13   7   26.10   21.00
  13 -27   7   46.50   22.60
  24 -14  -7  245.38   27.80
 -14 -10  -7  293.47   37.00
 -10  24  -7  300.07   35.50
 -10  24  -7  210.98   27.30
  10 -24   7  221.68   35.00
  14  10   7  250.27   33.60
  -7  21  -7  413.06   34.60
 -14  -7  -7  406.96   40.00
  21 -14  -7  432.46   25.10
   7 -21   7  321.17   42.00
   7 -21   7  338.27   28.90
  14   7   7  398.86   32.90
  -4  18  -7  990.10   47.70
  -4  18  -7 1029.50   41.00
  18 -14  -7  987.70   29.10
 -14  -4  -7  996.10   46.20
  18 -14  -7 1021.10   31.80
  14   4   7 1168.88   43.50
   4 -18   7 1073.69   40.10
   4 -18   7 1211.28   53.69
  15 -14  -7 1350.16   30.50
  -1  15  -7 1322.67   51.39
  15 -14  -7 1294.57   29.40
 -14  -1  -7 1350.26   49.00
  15 -14  -7 1264.47   28.50
  -1  15  -7 1344.07   43.40
   1 -15   7 1393.26   38.90
  14   1   7 1335.27   46.00
   1 -15   7 1327.67   52.59
   2  12  -7 1224.88   38.60
   2  12  -7 1209.88   47.20
  12 -14  -7 1221.28   24.80
  -2 -12   7 1255.67   48.60
  -2 -12   7 1205.18   31.90
  -2 -12   7 1208.98   33.90
  14  -2   7 1223.68   44.00
  14  -2   7 1168.28   35.10
   9 -14  -7  951.90   21.00
 -14   5  -7  962.50   39.90
   5   9  -7  937.71   41.30
   5   9  -7  959.70   32.30
  14  -5   7  891.61   31.00
  14  -5   7  931.31   39.60
  -5  -9   7  896.91   23.60
  -5  -9   7  897.91   22.40
   8   6  -7  503.05   32.30
   8   6  -7  494.35   23.40
 -14   8  -7  486.75   28.90
   6 -14  -7  482.45   16.40
 -14   8  -7  497.15   35.00
  14  -8   7  386.36   22.80
  14  -8   7  347.67   30.00
 -14  11  -7  424.36   30.30
  11   3  -7  469.55   31.10
 -14  11  -7  485.85   31.20
  11   3  -7  486.65   22.50
  14 -11   7  401.56   32.40
  14 -11   7  420.76   24.30
  14   0  -7   -3.40   13.20
  14   0  -7    4.10    8.90
 -14  14  -7   20.00   15.60
 -14  14  -7   -0.40   13.80
  14 -14   7   -2.00   16.70
  14 -14   7    9.20   11.80
  -3 -14  -7   80.79   18.40
  17  -3  -7  101.19   18.80
 -14  17  -7   78.59   19.30
  17  -3  -7  107.39   15.50
 -14  17  -7   89.89   20.10
   3  14   7   90.49   11.60
  14 -17   7   97.59   17.40
   3  14   7   65.19   12.10
  14 -17   7   98.09   24.10
 -14  20  -7  233.98   32.30
  20  -6  -7  302.57   29.80
  20  -6  -7  287.17   24.30
  -6 -14  -7  277.67   34.10
 -14  20  -7  370.06   35.80
  14 -20   7  280.57   34.20
   6  14   7  272.17   20.10
  14 -20   7  256.07   27.10
 -14  23  -7  260.27   36.30
 -14  23  -7  209.08   27.60
  -9 -14  -7  210.08   31.20
  23  -9  -7  204.88   26.80
  14 -23   7  258.87   35.30
   9  14   7  240.28   25.20
 -12 -14  -7  160.28   33.70
  26 -12  -7  175.78   24.90
 -14  26  -7   88.09   24.50
 -14  26  -7  170.88   27.90
  14 -26   7  135.79   33.70
  12  14   7  159.48   22.80
  14 -26   7  125.79   23.90
 -11  26  -7  185.68   26.90
  26 -15  -7  315.57   38.90
 -11  26  -7  176.78   28.20
  26 -15  -7  269.57   34.30
  11 -26   7  303.27   38.00
  11 -26   7  266.77   38.80
  15  11   7  295.37   37.70
  23 -15  -7  361.36   31.40
 -15  -8  -7  369.06   43.60
  -8  23  -7  346.07   36.40
  -8  23  -7  341.87   39.80
  23 -15  -7  387.76   27.80
  15   8   7  307.17   35.60
   8 -23   7  252.77   33.80
  20 -15  -7 1306.07   38.30
  20 -15  -7 1269.07   36.60
 -15  -5  -7 1355.46   55.09
  -5  20  -7 1329.47   48.10
  15   5   7 1345.67   49.20
   5 -20   7 1432.76   61.29
   5 -20   7 1360.16   45.30
 -15  -2  -7 1637.04   55.49
  -2  17  -7 1593.24   49.30
  -2  17  -7 1569.94   57.69
  17 -15  -7 1559.44   35.60
  17 -15  -7 1634.54   37.20
  17 -15  -7 1614.04   36.30
   2 -17   7 1787.52   47.60
  15   2   7 1791.62   54.69
   2 -17   7 1803.02   62.79
  14 -15  -7 1402.66   29.90
 -15   1  -7 1515.05   51.29
   1  14  -7 1417.06   52.99
   1  14  -7 1511.15   44.90
  -1 -14   7 1482.85   39.20
  15  -1   7 1497.65   49.90
  -1 -14   7 1515.15   42.20
  -1 -14   7 1555.24   55.79
  11 -15  -7 1257.37   26.30
 -15   4  -7 1296.57   46.80
   4  11  -7 1285.77   49.10
   4  11  -7 1282.97   39.10
  -4 -11   7 1324.27   34.10
  15  -4   7 1364.36   47.80
  15  -4   7 1397.86   39.80
  -4 -11   7 1364.46   32.60
 -15   7  -7  555.24   33.30
   7   8  -7  556.14   25.90
   7   8  -7  542.05   33.90
 -15   7  -7  526.55   29.80
   8 -15  -7  540.25   17.30
  15  -7   7  601.84   27.60
  -7  -8   7  556.04   17.10
  -7  -8   7  583.14   16.20
 -15  10  -7  314.27   26.70
   5 -15  -7  327.47   15.60
 -15  10  -7  324.47   28.90
  10   5  -7  319.37   21.30
  10   5  -7  337.17   29.80
  15 -10   7  291.77   30.20
  15 -10   7  310.77   22.30
  13   2  -7  623.34   25.70
   2 -15  -7  532.45   22.00
 -15  13  -7  609.14   34.80
  13   2  -7  556.64   34.00
 -15  13  -7  596.64   35.70
  15 -13   7  530.25   36.80
  15 -13   7  518.75   28.50
 -15  16  -7  108.89   19.00
  16  -1  -7  106.39   19.80
 -15  16  -7  107.59   20.20
  -1 -15  -7  154.28   17.50
  16  -1  -7  124.99   16.40
  15 -16   7  158.68   27.00
  15 -16   7  123.89   17.60
 -15  19  -7  125.79   23.30
 -15  19  -7  120.39   24.50
  -4 -15  -7   94.49   20.90
  19  -4  -7   99.19   19.00
  19  -4  -7  109.69   17.00
   4  15   7   88.69   10.00
  15 -19   7  132.49   27.40
   4  15   7  109.39   14.40
  15 -19   7  115.19   17.60
 -15  22  -7  141.59   24.80
  22  -7  -7  168.58   21.60
 -15  22  -7  166.68   28.20
  -7 -15  -7  175.08   27.40
   7  15   7  208.88   21.60
  15 -22   7  201.08   31.40
 -15  25  -7   74.69   24.40
 -10 -15  -7  138.89   20.60
 -10 -15  -7  149.49   31.80
 -15  25  -7  123.29   27.60
  25 -10  -7  126.39   21.70
  15 -25   7  128.49   23.40
  10  15   7  102.79   19.90
  15 -25   7  129.79   35.30
  -9  25  -7   46.80   20.90
 -16  -9  -7   28.30   28.60
  25 -16  -7   67.99   21.70
   9 -25   7   24.50   32.00
  16   9   7   41.50   21.90
   9 -25   7   54.19   19.30
 -16  -6  -7  141.19   30.00
  -6  22  -7  179.18   36.90
  -6  22  -7  147.09   24.50
  22 -16  -7  174.08   21.10
  22 -16  -7  129.69   17.60
   6 -22   7   93.19   18.30
   6 -22   7  132.79   31.80
  16   6   7  130.09   23.60
  -3  19  -7   22.60   19.10
 -16  -3  -7   65.49   22.30
  19 -16  -7   72.89   13.20
  19 -16  -7   38.40   11.40
  -3  19  -7   69.69   17.70
   3 -19   7   23.20   14.10
   3 -19   7   34.20   22.40
  16 -16  -7   -3.40    7.60
 -16   0  -7   10.10   18.40
  16 -16  -7   19.20    7.40
   0  16  -7    5.70   14.00
  16 -16  -7   12.50    7.80
   0  16  -7   -5.70   15.10
  16   0   7   19.90   20.00
   0 -16   7   28.50   11.20
   0 -16   7    4.30   16.80
 -16   3  -7   45.10   17.80
   3  13  -7   49.10   14.50
   3  13  -7   40.20   18.20
  13 -16  -7   36.80    7.70
  -3 -13   7   48.80   11.10
  16  -3   7   58.19   13.60
  -3 -13   7   57.39   13.70
  16  -3   7   53.79   29.90
  10 -16  -7    1.30    6.20
   6  10  -7  -13.40   13.80
 -16   6  -7   12.50   15.30
   6  10  -7    3.10   10.60
  -6 -10   7    2.70    8.90
  -6 -10   7    6.60    7.40
  16  -6   7    1.20   10.80
  16  -6   7    3.50   15.20
 -16   9  -7   38.80   16.60
   9   7  -7   17.20   11.10
   7 -16  -7   32.40    7.40
 -16   9  -7   24.90   13.10
   9   7  -7    7.70   14.40
  16  -9   7   18.60   17.20
  16  -9   7   19.80   11.40
 -16  12  -7  734.63   37.90
  12   4  -7  761.92   39.30
  12   4  -7  757.72   28.70
   4 -16  -7  699.53   23.50
 -16  12  -7  728.93   37.00
  16 -12   7  662.63   39.60
  16 -12   7  652.73   48.50
 -16  15  -7   68.39   19.90
 -16  15  -7  100.29   21.10
  15   1  -7   69.39   18.00
   1 -16  -7   56.19   11.40
  16 -15   7  113.59   23.60
  16 -15   7   99.19   17.10
 -16  18  -7    7.00   18.30
  18  -2  -7   16.80   13.10
  18  -2  -7    8.40   16.00
 -16  18  -7  -21.40   16.30
  -2 -16  -7    1.60   11.50
  16 -18   7    1.50   13.20
  16 -18   7  -17.80   19.20
  -5 -16  -7   15.60   20.10
 -16  21  -7    8.20   18.70
  21  -5  -7   16.30   13.80
  -5 -16  -7   11.10   12.70
 -16  21  -7    7.20   18.60
  21  -5  -7   26.80   16.30
  16 -21   7   -8.10   22.80
   5  16   7   30.00   10.30
   5  16   7   24.60    8.80
  16 -21   7    7.90   14.60
  24  -8  -7   35.70   18.00
  -8 -16  -7   30.70   24.60
 -16  24  -7   31.40   21.60
 -16  24  -7   80.29   26.50
  -8 -16  -7    6.20   15.60
   8  16   7   38.30   14.90
  16 -24   7   53.79   20.30
  16 -24   7   19.80   26.00
 -11 -16  -7   72.39   21.40
  27 -11  -7   10.70   21.30
 -16  27  -7   31.10   23.50
 -11 -16  -7    3.80   29.40
  16 -27   7   35.20   27.50
  11  16   7   68.39   19.90
  16 -27   7   40.10   23.30
  27 -17  -7   82.09   22.70
 -10  27  -7   66.59   20.20
 -17 -10  -7   86.89   36.10
  27 -17  -7   91.29   25.40
  10 -27   7  133.19   26.00
  10 -27   7   22.90   28.20
  17  10   7   88.09   25.80
  -7  24  -7  307.27   37.90
  24 -17  -7  326.37   28.90
  24 -17  -7  411.36   33.80
  -7  24  -7  318.37   38.10
 -17  -7  -7  369.36   48.10
  17   7   7  297.57   37.60
   7 -24   7  284.27   40.60
  -4  21  -7  492.35   66.79
  21 -17  -7  464.15   26.50
 -17  -4  -7  516.25   45.10
  -4  21  -7  543.95   36.40
  21 -17  -7  486.45   27.80
   4 -21   7  517.15   46.50
   4 -21   7  539.65   32.80
  17   4   7  511.55   38.40
  18 -17  -7 1729.13   37.60
  -1  18  -7 1791.32   53.19
  18 -17  -7 1671.23   39.70
  -1  18  -7 1709.63   62.09
 -17  -1  -7 1780.12   61.19
  18 -17  -7 1745.03   37.70
   1 -18   7 1786.62   49.70
   1 -18   7 1813.42   64.89
  17   1   7 1799.02   58.09
 -17   2  -7 1775.12   58.09
   2  15  -7 1848.72   61.99
  15 -17  -7 1715.23   36.90
   2  15  -7 1753.72   50.49
  -2 -15   7 1945.11   47.30
  17  -2   7 1868.11   50.19
  -2 -15   7 1935.81   50.29
  17  -2   7 1894.61   58.69
   5  12  -7  809.22   33.50
 -17   5  -7  840.52   41.40
  12 -17  -7  786.52   22.90
   5  12  -7  825.22   42.30
  -5 -12   7  867.61   28.10
  17  -5   7  863.81   41.70
  -5 -12   7  840.72   30.10
  17  -5   7  849.22   34.30
   8   9  -7  995.10   35.10
   9 -17  -7  940.41   25.90
 -17   8  -7 1039.70   43.70
   8   9  -7 1043.80   45.50
  17  -8   7  919.91   35.80
  17  -8   7  954.30   43.70
  -8  -9   7  900.01   24.00
  -8  -9   7  896.01   25.60
 -17  11  -7  282.87   30.40
  11   6  -7  312.77   23.30
   6 -17  -7  261.87   16.20
  11   6  -7  317.57   30.20
 -17  11  -7  258.17   26.60
  17 -11   7  283.77   32.00
  17 -11   7  259.47   24.80
   3 -17  -7   11.90    9.20
 -17  14  -7   29.70   15.40
 -17  14  -7   16.70   17.20
  14   3  -7   26.90   12.30
  14   3  -7   54.29   18.60
  17 -14   7    3.00   12.60
  17 -14   7    6.70   16.50
 -17  17  -7  -15.00   16.70
 -17  17  -7   30.80   18.00
  17   0  -7   47.10   18.30
   0 -17  -7   14.20   10.80
  17 -17   7   43.30   14.70
  17 -17   7   21.20   18.90
 -17  20  -7   86.49   22.50
 -17  20  -7   81.89   20.40
  20  -3  -7   61.09   17.10
  -3 -17  -7   74.19   21.10
  -3 -17  -7  106.49   16.50
  20  -3  -7   80.79   19.90
   3  17   7   99.19   12.60
  17 -20   7   68.39   24.00
   3  17   7   61.59    8.70
 -17  23  -7  132.09   25.00
 -17  23  -7  161.28   29.50
  23  -6  -7  167.78   22.80
  -6 -17  -7  122.69   19.50
  -6 -17  -7  149.09   28.60
  17 -23   7  161.28   24.30
   6  17   7  139.39   18.20
   6  17   7  165.18   20.60
  17 -23   7  224.38   34.80
 -17  26  -7  191.28   32.40
 -17  26  -7  302.77   41.10
  -9 -17  -7  192.88   35.30
  -9 -17  -7  130.09   22.80
  26  -9  -7  187.08   26.20
   9  17   7  212.88   26.20
  17 -26   7  258.77   31.80
   9  17   7  219.98   28.10
  17 -26   7  156.48   35.60
  -8  26  -7  141.09   34.50
 -18  -8  -7  262.57   39.00
  26 -18  -7  232.18   29.60
  26 -18  -7  297.67   33.90
  -8  26  -7  202.58   29.90
  18   8   7  220.98   30.30
   8 -26   7  239.68   40.20
   8 -26   7  272.17   36.70
  23 -18  -7  303.07   26.80
 -18  -5  -7  355.16   47.50
  23 -18  -7  322.47   29.50
  -5  23  -7  359.56   44.40
  -5  23  -7  344.27   36.10
  18   5   7  368.76   39.50
   5 -23   7  345.17   40.00
  -2  20  -7 1317.47   49.10
  20 -18  -7 1276.87   36.00
  -2  20  -7 1308.27   59.99
 -18  -2  -7 1293.77   57.49
  20 -18  -7 1204.28   36.90
   2 -20   7 1225.18   57.79
  18   2   7 1246.98   51.79
   2 -20   7 1245.68   44.10
 -18   1  -7 1947.11   62.79
  17 -18  -7 1851.41   41.50
   1  17  -7 1956.60   55.19
   1  17  -7 1902.01   65.39
  17 -18  -7 1869.91   34.20
  18  -1   7 2007.60   62.79
   4  14  -7  870.61   46.00
   4  14  -7  839.72   36.00
 -18   4  -7  869.01   44.60
  14 -18  -7  884.51   26.10
  -4 -14   7  946.21   35.10
  18  -4   7  961.50   46.10
  18  -4   7  917.21   38.30
  -4 -14   7  956.70   32.20
   7  11  -7  433.96   35.40
  11 -18  -7  377.76   17.80
   7  11  -7  394.56   27.30
 -18   7  -7  467.25   35.20
  -7 -11   7  424.06   20.20
  -7 -11   7  391.06   22.70
  18  -7   7  419.86   27.70
  18  -7   7  408.16   35.30
 -18  10  -7  506.25   36.00
   8 -18  -7  474.85   20.30
  10   8  -7  499.25   35.90
  18 -10   7  408.56   28.40
 -10  -8   7  425.66   18.30
  18 -10   7  401.06   35.30
 -10  -8   7  400.06   15.80
   5 -18  -7  510.25   22.20
 -18  13  -7  487.15   33.00
 -18  13  -7  525.75   37.20
  13   5  -7  579.74   28.60
  13   5  -7  525.75   36.40
  18 -13   7  484.85   29.60
  18 -13   7  576.94   39.80
  16   2  -7   34.80   17.40
 -18  16  -7    7.40   18.90
   2 -18  -7    1.30    9.60
 -18  16  -7   17.90   16.30
  18 -16   7   49.50   14.90
  18 -16   7   -2.60   19.40
 -18  19  -7   66.99   22.10
 -18  19  -7   73.69   21.50
  19  -1  -7   85.69   21.90
  -1 -18  -7   40.80   12.80
  18 -19   7   -5.50   13.00
  18 -19   7   22.40   24.30
 -18  22  -7  196.68   28.10
  -4 -18  -7  140.69   26.60
  22  -4  -7  197.18   26.20
 -18  22  -7  143.39   27.30
  22  -4  -7  220.78   29.60
  -4 -18  -7  154.28   19.60
   4  18   7  124.19   16.10
   4  18   7  137.29   15.00
  18 -22   7  153.58   33.50
  25  -7  -7  200.88   26.90
  -7 -18  -7  164.68   22.30
 -18  25  -7  167.38   29.50
 -18  25  -7  102.29   24.60
  -7 -18  -7  131.79   31.00
  18 -25   7  117.89   31.70
  18 -25   7  175.18   26.70
   7  18   7  198.48   23.70
   7  18   7  191.08   22.60
  25 -19  -7   51.79   21.70
 -19  -6  -7   24.20   31.90
  -6  25  -7   75.19   23.70
  -6  25  -7   35.30   23.50
  25 -19  -7   26.20   19.10
  19   6   7   39.20   22.90
   6 -25   7   57.59   21.50
   6 -25   7   59.99   33.20
 -19  -3  -7   19.80   24.50
  -3  22  -7   52.49   24.90
  22 -19  -7   55.49   15.00
  -3  22  -7   57.79   21.20
  22 -19  -7   27.40   15.30
   3 -22   7   29.50   27.00
   3 -22   7    7.40   15.00
  19   3   7    4.70   20.00
  19 -19  -7   11.20   11.50
  19 -19  -7   -0.70    9.80
   0  19  -7   19.60   16.20
   0  19  -7  -35.40   17.90
 -19   0  -7    7.80   20.70
   0 -19   7   -3.50   13.20
  19   0   7  -14.10   19.50
 -19   3  -7   43.80   20.60
  16 -19  -7   36.70   10.00
   3  16  -7   20.60   15.60
   3  16  -7   25.10   18.70
  -3 -16   7   54.79   13.80
  19  -3   7   36.60   20.00
  19  -3   7   12.70   14.20
  -3 -16   7   21.50   16.20
 -19   6  -7  311.27   34.40
   6  13  -7  304.07   27.70
   6  13  -7  284.57   33.40
  13 -19  -7  335.77   19.10
  -6 -13   7  271.37   20.60
  19  -6   7  281.27   26.70
  -6 -13   7  343.67   25.20
  19  -6   7  279.57   33.20
   9  10  -7  423.76   35.70
 -19   9  -7  412.56   34.80
  10 -19  -7  385.16   19.20
   9  10  -7  416.46   28.10
  19  -9   7  444.66   37.00
  -9 -10   7  393.56   19.50
  19  -9   7  387.96   28.90
  -9 -10   7  408.66   22.40
   7 -19  -7  359.16   20.20
  12   7  -7  346.67   33.80
 -19  12  -7  354.46   34.70
  12   7  -7  320.97   25.60
 -19  12  -7  322.77   30.80
 -12  -7   7  414.96   16.90
 -12  -7   7  395.86   14.90
  19 -12   7  409.56   29.10
  19 -12   7  418.46   38.80
  15   4  -7   96.89   21.80
 -19  15  -7   60.09   20.20
 -19  15  -7   99.89   21.10
   4 -19  -7   74.49   12.40
  19 -15   7   75.09   21.50
  19 -15   7   61.29   16.80
 -19  18  -7   60.29   18.90
   1 -19  -7   39.00   16.00
 -19  18  -7   34.60   18.80
  18   1  -7   39.00   19.00
  19 -18   7   -3.00   13.60
  19 -18   7    8.70   19.70
  21  -2  -7  174.98   27.30
  -2 -19  -7  150.98   19.50
 -19  21  -7  146.29   25.30
 -19  21  -7  154.98   27.90
  21  -2  -7  163.98   22.10
  19 -21   7  147.69   30.60
  24  -5  -7  363.36   36.20
 -19  24  -7  385.06   45.20
 -19  24  -7  339.67   43.50
  -5 -19  -7  358.36   45.40
  -5 -19  -7  344.27   30.10
  19 -24   7  263.97   29.60
   5  19   7  289.47   21.40
   5  19   7  321.47   21.50
  19 -24   7  296.87   39.00
  -4  24  -7  170.38   32.00
  24 -20  -7  314.67   31.40
  24 -20  -7  251.97   30.30
  -4  24  -7  205.88   28.90
 -20  -4  -7  216.18   34.60
   4 -24   7  236.18   37.40
   4 -24   7  295.87   34.10
  20   4   7  283.27   34.60
  21 -20  -7  555.64   28.80
 -20  -1  -7  633.74   49.30
  21 -20  -7  577.24   27.20
  -1  21  -7  627.54   39.50
  -1  21  -7  519.45   44.40
  20   1   7  653.93   44.90
   1 -21   7  529.45   34.20
   1 -21   7  591.64   50.89
 -20   2  -7 1056.39   53.09
   2  18  -7 1052.59   43.60
   2  18  -7 1117.49   53.99
  18 -20  -7 1015.50   33.10
  -2 -18   7 1067.89   39.90
  -2 -18   7 1113.19   45.40
  20  -2   7  982.20   41.10
  20  -2   7 1076.99   51.29
   5  15  -7 1191.88   44.50
  15 -20  -7 1148.99   32.90
   5  15  -7 1184.38   53.99
 -20   5  -7 1171.88   51.99
  -5 -15   7 1171.68   41.70
  20  -5   7 1185.28   52.99
  -5 -15   7 1138.29   37.30
  20  -5   7 1184.78   43.90
 -20   8  -7 1118.29   49.99
   8  12  -7 1117.19   40.70
   8  12  -7 1169.28   52.19
  12 -20  -7 1114.89   31.90
  -8 -12   7 1145.99   36.90
  20  -8   7 1201.38   43.60
  20  -8   7 1116.79   50.89
  -8 -12   7 1197.88   34.20
   9 -20  -7  124.69   14.00
  11   9  -7   75.49   19.60
 -20  11  -7  106.49   23.20
  11   9  -7  126.79   18.50
  20 -11   7  158.08   21.30
 -11  -9   7  113.19   14.50
 -11  -9   7  135.69   14.70
  20 -11   7  124.99   25.50
 -20  14  -7  162.58   21.80
  14   6  -7  210.78   25.30
  14   6  -7  217.28   28.20
   6 -20  -7  205.28   19.60
 -20  14  -7  210.98   28.80
  20 -14   7  164.18   27.30
  20 -14   7  168.08   21.70
 -20  17  -7   59.29   19.20
 -20  17  -7   45.90   20.10
   3 -20  -7   41.40   13.50
  17   3  -7   23.80   20.20
  20 -17   7    1.80   21.10
  20 -17   7   10.40   14.30
 -20  20  -7   10.20   20.90
  20   0  -7   -4.20   18.80
 -20  20  -7   58.89   20.90
   0 -20  -7   36.30   13.40
  20 -20   7   21.10   23.10
  -3 -20  -7   31.30   24.70
  -3 -20  -7   13.90   14.80
  23  -3  -7   17.10   20.50
  23  -3  -7   41.90   19.80
 -20  23  -7   36.70   24.10
 -20  23  -7   40.90   24.60
  20 -23   7   50.39   20.30
   3  20   7   29.90    9.00
  20 -23   7    5.20   28.20
   3  20   7   27.00    9.20
  -6 -20  -7  136.19   33.10
  26  -6  -7  110.59   25.40
  -6 -20  -7  111.29   21.20
 -20  26  -7   72.89   25.40
   6  20   7  116.29   15.30
  20 -26   7  133.79   26.20
  20 -26   7  144.19   34.50
   6  20   7  115.19   15.90
  -2  23  -7  392.76   38.30
  23 -21  -7  343.57   28.80
  23 -21  -7  356.16   29.90
  -2  23  -7  306.37   37.20
 -21  -2  -7  336.17   38.30
   2 -23   7  449.76   52.49
  21   2   7  474.45   45.80
 -21   1  -7  636.74   47.90
   1  20  -7  522.95   45.10
  20 -21  -7  490.65   27.50
  20 -21  -7  551.74   23.10
   1  20  -7  527.95   37.40
  21  -1   7  614.44   46.00
  -1 -20   7  544.35   34.10
  17 -21  -7  553.54   26.10
   4  17  -7  514.05   36.50
 -21   4  -7  515.15   44.60
   4  17  -7  644.64   45.90
  21  -4   7  505.35   33.50
  21  -4   7  542.35   42.90
  -4 -17   7  491.55   29.60
  -4 -17   7  578.84   36.70
 -21   7  -7  278.77   37.20
  14 -21  -7  292.17   21.00
   7  14  -7  297.87   30.40
   7  14  -7  275.37   36.90
  21  -7   7  225.48   28.80
  -7 -14   7  261.67   23.00
  21  -7   7  233.08   27.30
  -7 -14   7  286.57   27.40
 -21  10  -7  264.47   36.00
  10  11  -7  255.97   35.00
  10  11  -7  287.57   28.30
  11 -21  -7  281.37   20.90
 -10 -11   7  260.57   19.60
  21 -10   7  222.38   29.30
  21 -10   7  232.68   27.50
 -10 -11   7  211.38   22.40
   8 -21  -7  200.38   20.10
  13   8  -7  193.98   26.00
  13   8  -7  193.68   27.50
 -21  13  -7  166.18   25.70
  21 -13   7  198.38   26.20
 -13  -8   7  211.78   15.60
 -13  -8   7  200.48   18.00
  21 -13   7  201.78   29.70
 -21  16  -7   16.60   19.40
 -21  16  -7   28.20   16.80
  16   5  -7   59.09   21.90
   5 -21  -7   26.00   12.20
  21 -16   7   -7.90   21.90
  21 -16   7  -22.00   13.20
   2 -21  -7  241.78   23.50
  19   2  -7  200.08   29.70
 -21  19  -7  163.28   24.80
 -21  19  -7  202.28   27.10
  21 -19   7  183.58   30.50
  22  -1  -7  398.96   42.90
 -21  22  -7  475.55   44.50
 -21  22  -7  500.85   43.20
  -1 -21  -7  471.25   30.90
  21 -22   7  443.96   38.30
  21 -22   7  399.16   52.99
  -4 -21  -7  417.56   49.99
  25  -4  -7  425.06   41.40
  25  -4  -7  366.56   43.90
 -21  25  -7  366.56   47.50
  -4 -21  -7  468.75   35.50
   4  21   7  373.26   19.60
  21 -25   7  431.46   53.99
   4  21   7  443.76   21.20
  21 -25   7  368.46   40.40
  -3  25  -7   88.79   23.30
  25 -22  -7   29.20   18.40
 -22  -3  -7   90.59   32.20
  25 -22  -7    5.70   19.10
   3 -25   7    5.30   20.50
   3 -25   7   61.49   29.90
  22   3   7   18.20   26.00
   0  22  -7  -15.50   23.60
 -22   0  -7   26.50   26.10
  22 -22  -7   13.30   15.60
   0  22  -7  -13.10   18.90
  22 -22  -7   23.70   14.60
  22   0   7  -15.50   23.30
   3  19  -7   36.10   19.20
   3  19  -7   11.60   21.00
  19 -22  -7  -16.50   12.70
 -22   3  -7   31.50   24.10
  -3 -19   7  -17.50   14.10
  22  -3   7   25.40   16.20
  22  -3   7   30.70   23.00
  -3 -19   7   22.40   21.50
   6  16  -7  201.28   25.30
  16 -22  -7  203.38   21.40
 -22   6  -7  154.28   29.80
   6  16  -7  193.18   30.20
  -6 -16   7  163.08   23.00
  -6 -16   7  157.68   19.80
  22  -6   7  217.88   31.10
   9  13  -7  271.87   37.60
  13 -22  -7  219.48   21.80
 -22   9  -7  218.48   30.20
   9  13  -7  230.18   25.60
  22  -9   7  244.08   32.20
  22  -9   7  140.39   21.00
  -9 -13   7  199.98   25.60
  -9 -13   7  225.98   22.20
  10 -22  -7   46.30   12.50
  12  10  -7    3.50   19.00
 -22  12  -7   17.90   22.40
  12  10  -7   20.00   15.80
  22 -12   7   66.49   24.80
  22 -12   7   -3.80   14.20
 -12 -10   7   17.90   12.30
 -12 -10   7   34.40   10.80
   7 -22  -7   94.19   15.80
 -22  15  -7  140.89   25.20
  15   7  -7  129.09   26.70
 -15  -7   7  142.59   14.70
  22 -15   7  129.89   26.40
 -15  -7   7  131.69   16.70
  18   4  -7  262.17   33.50
   4 -22  -7  244.68   24.80
 -22  18  -7  226.08   29.80
 -22  18  -7  252.57   30.90
  22 -18   7  202.98   34.40
  21   1  -7  473.65   44.80
 -22  21  -7  415.26   40.70
 -22  21  -7  464.65   45.90
   1 -22  -7  513.55   31.50
  22 -21   7  350.56   47.20
  22 -21   7  334.67   37.00
 -22  24  -7  585.54   51.89
  -2 -22  -7  659.43   51.99
  24  -2  -7  456.35   46.00
  -2 -22  -7  556.84   35.20
  24  -2  -7  629.64   44.50
  22 -24   7  481.05   43.00
  22 -24   7  601.04   59.29
  -1  24  -7  240.38   31.40
  24 -23  -7  262.97   30.80
 -23  -1  -7  225.08   37.20
  24 -23  -7  308.37   28.60
  23   1   7  243.38   35.50
   1 -24   7  264.67   28.90
  21 -23  -7  334.67   20.20
   2  21  -7  344.07   38.20
 -23   2  -7  273.77   36.60
  21 -23  -7  346.47   29.20
   2  21  -7  219.08   30.30
  -2 -21   7  362.86   41.10
  23  -2   7  408.76   48.70
   5  18  -7  442.46   38.70
  18 -23  -7  388.06   27.10
 -23   5  -7  382.76   44.90
   5  18  -7  310.97   42.90
  23  -5   7  431.66   46.60
  -5 -18   7  329.17   30.50
   8  15  -7  427.76   35.50
 -23   8  -7  539.05   45.90
   8  15  -7  480.55   45.40
  15 -23  -7  496.05   27.90
  23  -8   7  417.06   43.60
  -8 -15   7  543.75   34.10
  -8 -15   7  377.46   36.50
 -23  11  -7  669.93   47.30
  12 -23  -7  640.24   29.80
  11  12  -7  653.13   46.10
  11  12  -7  610.94   37.20
 -11 -12   7  600.74   30.80
  23 -11   7  529.95   46.20
 -11 -12   7  552.74   27.60
   9 -23  -7  206.88   23.00
  14   9  -7  263.67   31.00
  14   9  -7  300.17   38.50
 -23  14  -7  300.87   39.00
  23 -14   7  256.47   32.20
 -14  -9   7  281.47   23.00
 -14  -9   7  301.37   20.20
 -23  17  -7   32.00   21.70
  17   6  -7   66.49   24.90
   6 -23  -7   34.20   15.20
 -23  17  -7   14.00   19.60
 -17  -6   7   47.80    9.10
 -17  -6   7   67.79   11.00
  23 -17   7   62.49   20.20
  23 -17   7   26.90   25.40
 -23  20  -7  -47.90   20.10
   3 -23  -7   -6.90   15.00
 -23  20  -7   -6.80   20.90
  20   3  -7    9.70   24.20
  23 -20   7   36.00   26.20
  23 -20   7    8.40   20.10
   0 -23  -7   -2.90   17.30
  23   0  -7   41.10   26.30
 -23  23  -7   -0.80   23.60
 -23  23  -7  -24.60   26.20
  23 -23   7   48.70   22.60
  23 -23   7   18.20   30.20
  23 -24  -7  276.07   31.00
  23 -24  -7  269.87   22.40
 -24   1  -7  297.77   40.60
   1  23  -7  254.57   31.80
  -1 -23   7  255.37   29.10
  -1 -23   7  279.97   34.50
  24  -1   7  298.07   38.10
   4  20  -7  207.38   32.00
   4  20  -7  320.07   39.00
 -24   4  -7  238.48   35.90
  20 -24  -7  238.78   24.80
  24  -4   7  271.97   35.80
  24  -4   7  275.47   35.50
  -4 -20   7  269.37   31.30
  17 -24  -7  207.88   24.60
 -24   7  -7  167.08   32.20
   7  17  -7  154.08   29.20
   7  17  -7  216.18   27.00
  -7 -17   7  182.68   22.00
  24  -7   7  231.98   34.90
  -7 -17   7  166.88   25.00
  10  14  -7  243.58   33.00
  10  14  -7  257.47   27.90
  14 -24  -7  307.57   25.60
 -24  10  -7  320.27   37.50
 -10 -14   7  312.37   30.70
  24 -10   7  300.67   41.50
  13  11  -7  118.89   28.20
 -24  13  -7  101.09   28.00
  11 -24  -7   85.19   26.60
  13  11  -7   84.19   20.60
 -13 -11   7   68.19   16.40
  24 -13   7  106.19   27.00
 -13 -11   7  116.99   15.70
   8 -24  -7   14.90   14.30
 -24  16  -7   57.69   23.60
  16   8  -7   10.70   23.30
  24 -16   7   26.80   19.30
 -16  -8   7   62.29   12.00
 -16  -8   7   19.90   13.00
  24 -16   7   16.50   25.60
  19   5  -7  435.56   46.60
 -24  19  -7  438.46   42.90
   5 -24  -7  375.76   30.70
 -24  19  -7  417.56   46.10
  24 -19   7  458.95   50.39
 -19  -5   7  375.16   17.10
  24 -19   7  420.46   39.50
 -24  22  -7  649.83   53.59
 -24  22  -7  550.24   50.99
  22   2  -7  643.04   53.29
   2 -24  -7  756.52   38.80
  24 -22   7  607.24   55.49
  24 -22   7  607.94   46.70
   3  22  -7   30.20   24.20
 -25   3  -7  -12.10   28.90
  22 -25  -7   10.00   17.80
  -3 -22   7   49.40   26.70
  25  -3   7  -17.70   21.90
  -3 -22   7  -11.00   20.20
  25  -3   7   30.60   30.30
   6  19  -7   44.00   22.70
  19 -25  -7   46.00   18.00
   6  19  -7  -16.00   22.80
 -25   6  -7    2.80   27.00
  25  -6   7   34.90   20.60
  25  -6   7   35.10   30.00
  -6 -19   7    4.70   17.60
  -6 -19   7   37.10   22.00
 -25   9  -7   71.99   27.60
   9  16  -7   62.39   26.00
   9  16  -7   65.59   21.60
  -9 -16   7   42.30   16.30
  25  -9   7   19.20   21.50
  -9 -16   7   42.40   19.30
  25  -9   7   54.99   27.50
  13 -25  -7  153.18   21.10
  12  13  -7  150.28   25.10
 -25  12  -7  148.29   29.60
  12  13  -7  142.99   30.60
  25 -12   7   96.59   21.70
  25 -12   7  121.49   29.40
 -12 -13   7  130.09   20.80
  10 -25  -7  138.69   20.00
  15  10  -7  140.09   30.80
 -25  15  -7   83.19   25.40
  25 -15   7  140.39   31.50
 -15 -10   7  144.29   18.90
  25 -15   7  163.48   25.50
 -15 -10   7  188.78   21.70
 -25  18  -7  355.56   45.30
  18   7  -7  342.37   45.10
   7 -25  -7  238.08   29.20
  25 -18   7  244.88   37.50
 -18  -7   7  234.88   21.30
 -18  -7   7  222.58   19.30
  25 -18   7  235.28   29.60
 -25  21  -7  406.06   49.99
  21   4  -7  550.64   49.60
 -25  21  -7  512.15   64.49
   4 -25  -7  486.75   35.60
  25 -21   7  412.86   53.59
  25 -21   7  546.75   45.00
 -26   8  -7   60.99   28.30
   8  18  -7  163.98   26.30
  18 -26  -7  145.99   22.30
   8  18  -7   70.59   26.90
  26  -8   7  124.69   34.30
  -8 -18   7  163.58   22.80
  -8 -18   7  161.58   26.70
  26  -8   7  141.19   26.00
  11  15  -7  425.76   39.40
 -26  11  -7  328.17   40.40
  15 -26  -7  412.46   33.70
  11  15  -7  342.77   42.50
  26 -11   7  377.66   48.70
  26 -11   7  337.47   38.10
 -11 -15   7  442.76   30.60
 -11 -15   7  324.77   34.50
  12 -26  -7  125.19   20.80
 -26  14  -7   89.29   30.00
  14  12  -7   94.59   31.60
 -14 -12   7  106.09   20.30
  26 -14   7  102.69   31.70
  26 -14   7   99.19   25.20
 -14 -12   7  109.29   20.30
  17   9  -7   34.90   25.40
 -26  17  -7  113.39   30.90
   9 -26  -7  127.09   20.30
  26 -17   7  108.59   25.20
 -17  -9   7   92.59   16.40
 -17  -9   7  127.59   17.70
  26 -17   7   56.79   29.60
 -26  20  -7   68.79   28.40
  20   6  -7   82.39   25.50
 -20  -6   7  134.19   16.70
 -20  -6   7  153.18   17.90
  26 -20   7   75.69   25.50
  26 -20   7  100.99   29.80
  17 -27  -7  124.39   22.40
 -27  10  -7   88.39   28.10
  10  17  -7  111.39   26.50
  27 -10   7  151.48   27.30
  27 -10   7  100.99   32.30
 -10 -17   7   69.19   23.30
 -10 -17   7  160.68   22.70
  13  14  -7   24.40   35.00
 -27  13  -7  -10.80   26.60
  13  14  -7   13.80   22.90
  14 -27  -7    9.40   18.30
 -13 -14   7   45.90   16.90
  27 -13   7    9.30   21.80
 -13 -14   7   47.60   20.80
  27 -13   7    3.70   28.40
  11 -27  -7   33.80   19.20
 -27  16  -7   39.70   26.10
  16  11  -7   82.89   30.40
  27 -16   7   38.80   22.60
 -16 -11   7   53.79   18.70
  27 -16   7   68.59   28.70
 -16 -11   7   44.30   16.30
  -1   1  -8   78.29   12.70
  -1   1  -8  112.49   13.70
   1   0  -8  113.79   12.00
   1   0  -8   86.29   12.70
   0  -1  -8  102.79   12.10
   0  -1  -8  113.19   14.90
   1  -1   8  105.59   15.30
   0   1   8  100.99   13.80
  -1   0   8   97.49   14.00
   0   2  -8  429.16   24.10
  -2   0  -8  456.15   20.00
   2  -2  -8  446.06   21.20
   2  -2  -8  461.45   15.70
  -2   0  -8  420.96   22.20
   0   2  -8  444.96   19.40
   2   0   8  500.65   25.20
  -2   2   8  469.45   22.30
   0  -2   8  483.05   26.50
  -2   3  -8   26.40    9.90
  -1  -2  -8   29.60    8.60
  -2   3  -8   19.80    9.50
   3  -1  -8   29.50    9.60
  -1  -2  -8   16.60    7.90
   3  -1  -8    6.80    6.30
   1   2   8   12.20    9.40
   2  -3   8   20.90   12.40
  -1   4  -8  610.54   23.60
  -3  -1  -8  623.74   24.40
  -1   4  -8  631.74   29.60
   4  -3  -8  602.14   23.80
   4  -3  -8  608.44   15.40
  -3  -1  -8  644.94   23.80
   3   1   8  605.44   26.60
   1  -4   8  584.14   30.10
   2   1  -8   35.20    8.00
  -3   2  -8   35.80   10.30
   2   1  -8   35.60   10.60
   1  -3  -8   26.30    7.90
   1  -3  -8   41.00    7.70
  -3   2  -8   20.50   10.00
   3  -2   8   29.90   13.30
  -2  -1   8   38.90   12.00
  -1   3   8   24.10    9.60
  -3   5  -8 1327.57   41.80
  -2  -3  -8 1282.27   31.90
   5  -2  -8 1300.17   36.70
  -2  -3  -8 1278.17   31.50
   5  -2  -8 1287.27   24.40
  -3   5  -8 1325.27   35.40
   2   3   8 1265.87   34.00
   3  -5   8 1273.47   42.70
  -4  -2  -8   12.80    9.80
  -2   6  -8    5.90    9.80
   6  -4  -8   11.00    8.10
  -2   6  -8    8.40   10.80
  -4  -2  -8    7.70    7.10
   4   2   8   15.70   10.20
   2  -6   8   16.90   12.40
   3  -4  -8  420.06   18.70
   3  -4  -8  371.16   12.60
   1   3  -8  376.06   18.70
  -4   1  -8  419.26   21.70
  -4   1  -8  419.56   22.50
   1   3  -8  392.56   24.10
   4  -1   8  411.66   24.80
  -1  -3   8  405.76   26.90
   4   0  -8 1610.24   43.10
   4   0  -8 1601.74   31.20
  -4   4  -8 1617.04   40.00
  -4   4  -8 1593.24   45.00
   0  -4  -8 1565.74   34.30
   0  -4  -8 1601.54   32.50
   0   4   8 1632.54   36.80
   4  -4   8 1679.13   47.70
   7  -3  -8  614.14   26.10
  -4   7  -8  622.74   27.70
   7  -3  -8  629.54   15.00
  -3  -4  -8  650.63   24.10
  -4   7  -8  625.64   31.90
   3   4   8  692.23   25.40
   4  -7   8  695.13   35.00
  -3   8  -8  726.83   29.10
  -5  -3  -8  698.53   27.70
  -3   8  -8  636.34   38.90
   8  -5  -8  704.13   25.80
   5   3   8  829.82   29.70
   3  -8   8  825.32   38.50
  -5   0  -8  168.78   18.20
  -5   0  -8  192.28   17.30
   0   5  -8  185.98   16.90
   5  -5  -8  157.78   13.70
   0   5  -8  190.38   20.80
   5   0   8  165.18   17.90
   0  -5   8  132.79   19.40
   3   2  -8 1376.16   30.60
  -5   3  -8 1319.67   36.50
   2  -5  -8 1348.97   26.00
   3   2  -8 1273.37   40.40
   2  -5  -8 1335.67   29.90
  -5   3  -8 1309.47   39.50
   5  -3   8 1289.37   41.40
  -3  -2   8 1307.67   40.70
   6  -1  -8  151.38   18.70
  -5   6  -8  167.68   21.30
  -5   6  -8  171.48   19.50
   6  -1  -8  166.08   11.10
  -1  -5  -8  160.28   15.30
   5  -6   8  213.88   24.40
   1   5   8  216.28   16.00
  -5   9  -8  126.59   16.80
  -5   9  -8  102.29   17.00
   9  -4  -8  114.09   14.70
   9  -4  -8   96.49    8.60
  -4  -5  -8  116.79   14.40
   9  -4  -8   98.79    8.70
   5  -9   8   93.09    9.60
   5  -9   8   91.59   19.40
   4   5   8   69.79   12.10
  10  -6  -8  337.67   20.10
  -4  10  -8  338.37   29.10
  -4  10  -8  362.96   25.10
  -6  -4  -8  344.17   23.70
   6   4   8  361.56   22.70
   4 -10   8  330.17   14.00
  -1   7  -8  258.97   20.40
  -6  -1  -8  240.28   17.50
   7  -6  -8  239.88   15.60
  -1   7  -8  248.88   24.40
  -6  -1  -8  252.17   21.40
   1  -7   8  284.47   27.30
   6   1   8  296.77   23.10
  -6   2  -8   27.60   10.60
   4  -6  -8   39.00    7.50
   2   4  -8   49.40   12.90
  -6   2  -8   45.30   12.40
   2   4  -8   51.59   10.20
   6  -2   8   41.90   13.70
  -2  -4   8   32.10   13.50
   5   1  -8   81.19   13.80
   1  -6  -8   78.29    9.40
   5   1  -8   95.59   10.40
  -6   5  -8  106.19   15.50
   1  -6  -8  111.09   11.80
  -6   5  -8   95.49   14.80
  -1   6   8  135.59   12.90
   6  -5   8  143.49   18.90
  -6   8  -8  514.35   34.60
   8  -2  -8  529.85   15.90
  -6   8  -8  559.44   28.20
   8  -2  -8  541.75   26.70
  -2  -6  -8  518.75   22.50
   6  -8   8  432.96   14.30
   2   6   8  415.56   19.00
   6  -8   8  432.16   31.00
  11  -5  -8 1644.84   28.70
  -5  -6  -8 1638.04   43.40
  -6  11  -8 1681.13   53.99
  11  -5  -8 1643.64   32.40
  11  -5  -8 1619.44   43.20
  -6  11  -8 1748.33   48.00
   5   6   8 1581.94   38.50
   6 -11   8 1550.24   53.59
   6 -11   8 1550.14   34.70
  -7  -5  -8   25.10   13.30
  12  -7  -8   13.00    5.30
  -5  12  -8   18.10   12.90
  -5  12  -8   -2.60   13.20
  12  -7  -8   14.10    5.60
  12  -7  -8   19.10    9.50
   7   5   8   -4.90   10.70
   5 -12   8  -17.70   14.50
   5 -12   8    1.90    7.70
   9  -7  -8  237.48   16.30
  -2   9  -8  241.28   25.30
  -2   9  -8  262.17   21.60
  -7  -2  -8  227.48   22.40
   7   2   8  212.88   21.30
   2  -9   8  238.98   28.20
   1   6  -8  148.09   15.20
  -7   1  -8  125.29   14.90
   6  -7  -8  149.79   11.80
  -7   1  -8  154.98   17.80
   1   6  -8  115.99   16.70
   7  -1   8  187.48   22.40
  -1  -6   8  180.88   24.30
   3  -7  -8  947.11   20.70
   4   3  -8  982.80   37.00
   4   3  -8  928.91   26.20
  -7   4  -8  983.00   35.90
  -7   4  -8  995.80   34.00
   7  -4   8  968.10   38.30
  -7   7  -8 1644.54   44.40
   0  -7  -8 1615.74   35.00
  -7   7  -8 1602.14   48.30
   7   0  -8 1615.24   45.80
   7   0  -8 1570.74   31.60
   7  -7   8 1534.75   48.60
   0   7   8 1468.05   29.80
   7  -7   8 1468.95   34.20
  10  -3  -8 2419.66   39.90
  -3  -7  -8 2438.56   51.59
  -7  10  -8 2453.95   57.89
  10  -3  -8 2415.66   56.59
  -7  10  -8 2573.14   65.49
   7 -10   8 2350.76   43.90
   3   7   8 2326.07   44.10
  13  -6  -8 1207.28   27.40
  -7  13  -8 1247.18   43.00
  -6  -7  -8 1216.38   40.40
  13  -6  -8 1178.68   38.00
  -7  13  -8 1190.78   48.10
   7 -13   8 1236.28   50.59
   7 -13   8 1306.87   35.20
   6   7   8 1298.87   35.40
  14  -8  -8  402.26   15.90
  -6  14  -8  408.96   30.20
  -6  14  -8  373.66   32.90
  -8  -6  -8  407.56   30.00
  14  -8  -8  398.36   23.90
   8   6   8  417.96   24.90
   6 -14   8  399.56   22.30
   6 -14   8  428.96   36.90
  -8  -3  -8  196.58   23.60
  -3  11  -8  207.98   23.30
  11  -8  -8  176.98   16.00
  -3  11  -8  187.88   25.90
   8   3   8  189.08   21.90
   3 -11   8  197.78   26.50
   3 -11   8  180.68   13.20
   8  -8  -8  878.91   23.20
  -8   0  -8  895.31   34.00
   0   8  -8  792.52   38.80
   0   8  -8  882.51   31.10
   8   0   8  870.51   34.70
   0  -8   8  892.21   40.30
  -8   3  -8  729.63   30.20
   3   5  -8  749.13   33.80
  -8   3  -8  734.63   31.30
   3   5  -8  757.22   25.70
   5  -8  -8  720.23   16.60
   8  -3   8  901.21   36.80
  -3  -5   8  837.72   36.70
   2  -8  -8  860.91   22.80
   6   2  -8  910.01   36.10
  -8   6  -8  846.92   33.80
   6   2  -8  850.21   24.20
  -8   6  -8  830.22   34.90
   8  -6   8  708.63   35.60
   8  -6   8  721.73   18.40
   9  -1  -8  888.01   35.10
  -8   9  -8  986.10   40.30
  -1  -8  -8  931.41   28.60
   9  -1  -8  921.61   23.30
  -8   9  -8  966.50   36.80
   1   8   8  940.91   22.50
   8  -9   8  964.20   25.70
   8  -9   8  986.90   41.80
  12  -4  -8   27.60   11.80
  12  -4  -8   44.10    8.70
  -8  12  -8   45.00   15.40
  12  -4  -8   28.30    7.50
  -4  -8  -8   35.30   12.80
   4   8   8   58.09   10.40
   8 -12   8   53.19   18.80
   8 -12   8   70.59   12.00
  -8  15  -8   36.40   16.50
  15  -7  -8   37.60    9.60
  -7  -8  -8   37.30   15.70
  -8  15  -8   34.40   17.00
  15  -7  -8   52.09   14.00
   8 -15   8   82.39   22.90
   8 -15   8   60.69   13.40
   7   8   8   89.79   13.90
  16  -9  -8  299.37   23.90
  16  -9  -8  284.17   16.60
  -7  16  -8  299.47   29.90
  -7  16  -8  271.87   32.40
   7 -16   8  232.18   22.00
   7 -16   8  329.77   36.20
   9   7   8  319.77   24.60
  13  -9  -8  186.38   10.50
  -4  13  -8  166.88   24.90
  -4  13  -8  215.18   27.00
  -9  -4  -8  201.08   25.60
  13  -9  -8  182.08   17.60
   9   4   8  177.38   22.70
   4 -13   8  160.98   16.20
   4 -13   8  177.48   26.20
  -1  10  -8   58.49   13.90
  -1  10  -8   49.99   17.00
  -9  -1  -8   52.09   15.00
  10  -9  -8   42.70    8.30
   9   1   8   59.39   15.10
   1 -10   8   24.00   16.10
   2   7  -8  193.28   27.80
   2   7  -8  175.98   18.80
   7  -9  -8  161.48    8.70
  -9   2  -8  157.88   18.70
  -9   2  -8  189.98   23.00
   9  -2   8  155.78   19.90
  -2  -7   8  170.08   21.20
  -9   5  -8   85.19   14.80
   5   4  -8   92.09   11.70
  -9   5  -8   73.69   15.30
   5   4  -8   96.09   16.50
   9  -5   8   72.29   16.90
   8   1  -8 1205.78   41.50
  -9   8  -8 1154.48   44.60
   1  -9  -8 1183.28   30.20
  -9   8  -8 1221.88   41.10
   8   1  -8 1192.38   28.70
   9  -8   8 1188.18   28.70
   9  -8   8 1173.48   45.30
  -2  -9  -8  447.56   24.30
  -9  11  -8  467.75   31.80
  11  -2  -8  513.55   18.30
  -9  11  -8  478.95   31.20
  11  -2  -8  502.75   29.10
   9 -11   8  553.24   36.20
   9 -11   8  521.75   22.40
   2   9   8  533.25   17.10
  -9  14  -8  928.01   43.70
  14  -5  -8  793.12   24.80
  -9  14  -8  818.62   38.70
  -5  -9  -8  894.31   35.80
  14  -5  -8  894.91   36.20
   9 -14   8  748.43   29.30
   5   9   8  728.83   25.20
   9 -14   8  718.33   42.30
  17  -8  -8  183.48   24.50
  -8  -9  -8  185.58   23.50
  -9  17  -8  244.78   26.90
  -9  17  -8  268.67   34.00
  17  -8  -8  220.78   17.70
   8   9   8  158.58   17.70
   9 -17   8  155.98   19.00
   9 -17   8  168.98   27.80
  -8  18  -8  300.77   33.00
  18 -10  -8  273.57   26.30
 -10  -8  -8  292.07   34.70
  -8  18  -8  347.37   36.60
  18 -10  -8  294.07   19.40
   8 -18   8  261.67   27.30
   8 -18   8  342.17   40.50
  10   8   8  317.37   26.80
  15 -10  -8   96.99   14.50
  -5  15  -8   38.10   17.90
  15 -10  -8   84.19    9.60
  -5  15  -8  118.09   19.20
  10   5   8   93.29   16.80
   5 -15   8  101.39   13.90
   5 -15   8   66.69   20.40
 -10  -2  -8   82.69   17.70
  -2  12  -8   64.39   15.30
  -2  12  -8   68.69   17.30
  12 -10  -8   80.29   10.80
  10   2   8   70.59   16.30
   2 -12   8   78.49   20.80
   2 -12   8   61.99   10.10
   1   9  -8  102.69   15.40
   1   9  -8   90.99   17.60
   9 -10  -8   86.59    8.50
 -10   1  -8   94.09   17.30
  10  -1   8   87.29   16.80
  -1  -9   8  113.29   21.60
 -10   4  -8  298.87   26.30
   4   6  -8  317.77   19.70
 -10   4  -8  295.07   23.00
   4   6  -8  251.67   32.00
  10  -4   8  363.36   28.60
 -10   7  -8 2295.87   56.89
   7   3  -8 2198.38   43.80
   7   3  -8 2152.08   58.29
  10  -7   8 2155.18   59.69
  10  -7   8 2041.40   40.70
  10   0  -8 3206.48   71.59
   0 -10  -8 3152.18   58.49
  10   0  -8 3150.08   53.39
 -10  10  -8 3186.48   69.49
 -10  10  -8 3188.88   74.89
  10 -10   8 3162.58   76.89
  10 -10   8 3170.78   58.09
 -10  13  -8 1156.88   44.00
  -3 -10  -8 1115.99   37.30
 -10  13  -8 1237.68   47.80
  13  -3  -8 1082.49   28.00
  13  -3  -8 1133.69   41.40
  13  -3  -8 1100.39   30.30
   3  10   8 1087.69   25.70
  10 -13   8 1249.18   50.29
  10 -13   8 1148.49   35.10
  16  -6  -8 1528.85   47.70
 -10  16  -8 1534.65   56.69
 -10  16  -8 1433.36   50.49
  16  -6  -8 1398.06   36.00
  -6 -10  -8 1511.45   48.30
   6  10   8 1390.76   35.60
  10 -16   8 1431.96   56.69
  10 -16   8 1342.77   41.30
  19  -9  -8  559.44   26.60
  19  -9  -8  587.84   33.70
 -10  19  -8  615.14   43.80
  -9 -10  -8  598.74   38.90
 -10  19  -8  594.24   40.00
  10 -19   8  657.43   33.30
  10 -19   8  625.34   47.20
   9  10   8  622.54   30.80
 -11  -9  -8  121.49   25.90
  20 -11  -8  130.29   20.00
  -9  20  -8  115.59   24.30
  -9  20  -8  143.59   29.10
  20 -11  -8  126.19   15.90
  11   9   8  141.79   20.10
   9 -20   8   80.19   25.50
   9 -20   8  176.48   22.00
  17 -11  -8   32.10   10.00
  -6  17  -8    6.80   18.30
 -11  -6  -8   30.40   17.60
  -6  17  -8   23.90   17.30
  17 -11  -8   18.30   12.80
  11   6   8   45.20   15.60
   6 -17   8   45.20   14.20
   6 -17   8   52.59   20.50
  -3  14  -8  205.68   26.80
  -3  14  -8  240.68   29.60
  14 -11  -8  214.78   11.70
  14 -11  -8  215.18   16.80
  11   3   8  175.58   20.50
   3 -14   8  192.98   26.10
   3 -14   8  183.78   17.20
 -11   0  -8   83.59   18.30
   0  11  -8   84.49   18.40
   0  11  -8  138.79   17.90
  11   0   8  127.99   19.80
   0 -11   8  148.09   11.40
   0 -11   8  117.59   12.80
   0 -11   8  120.99   21.30
   3   8  -8  289.87   21.20
 -11   3  -8  225.88   25.80
 -11   3  -8  271.17   22.40
   3   8  -8  222.68   26.60
  11  -3   8  240.98   26.50
 -11   6  -8 1619.84   48.00
   6   5  -8 1547.05   52.69
   6   5  -8 1528.95   37.30
  11  -6   8 1510.45   34.60
  11  -6   8 1617.24   51.99
 -11   9  -8  485.95   31.50
 -11   9  -8  521.35   32.80
   9   2  -8  459.35   30.30
   9   2  -8  498.05   21.00
  11  -9   8  431.66   37.70
  11  -9   8  490.35   22.10
 -11  12  -8  590.94   35.30
  12  -1  -8  657.43   22.50
  12  -1  -8  656.23   34.30
  -1 -11  -8  620.94   28.60
 -11  12  -8  612.14   36.40
  11 -12   8  555.04   25.00
  11 -12   8  556.64   38.40
  15  -4  -8  176.28   21.10
  -4 -11  -8  180.98   20.60
 -11  15  -8  141.79   21.80
  15  -4  -8  172.88   17.50
 -11  15  -8  182.78   23.80
  11 -15   8  182.38   21.60
  11 -15   8  235.98   32.50
   4  11   8  192.68   15.00
  18  -7  -8  383.76   23.00
 -11  18  -8  327.77   36.50
  -7 -11  -8  415.46   34.60
 -11  18  -8  386.46   35.70
  18  -7  -8  386.26   33.30
  11 -18   8  439.96   29.30
  11 -18   8  426.46   41.20
   7  11   8  411.46   23.20
 -10 -11  -8  677.13   44.80
 -11  21  -8  747.33   44.50
  21 -10  -8  740.73   39.40
 -11  21  -8  835.82   50.59
  21 -10  -8  704.03   32.30
  11 -21   8  698.33   51.99
  11 -21   8  672.33   37.60
  10  11   8  729.23   33.20
 -10  22  -8   82.69   23.20
  22 -12  -8   50.59   15.90
 -10  22  -8   28.80   24.20
 -12 -10  -8   33.10   24.40
  10 -22   8    9.20   16.10
  12  10   8   49.50   17.40
  10 -22   8   67.09   28.50
  19 -12  -8  214.08   24.90
  19 -12  -8  260.77   19.60
  -7  19  -8  296.97   37.10
 -12  -7  -8  284.07   36.10
  -7  19  -8  291.57   33.00
  12   7   8  181.28   22.30
   7 -19   8  192.48   21.70
   7 -19   8  233.88   34.10
  -4  16  -8  114.39   19.50
  16 -12  -8   96.89   13.10
 -12  -4  -8   93.79   21.30
  16 -12  -8  113.79   14.20
  -4  16  -8   86.39   20.10
   4 -16   8   94.19   14.90
  12   4   8   87.49   18.20
   4 -16   8  140.29   27.20
  13 -12  -8   28.80    7.90
 -12  -1  -8   32.30   18.40
  -1  13  -8   14.00   16.00
  -1  13  -8   24.80   13.70
  13 -12  -8   24.80    5.40
   1 -13   8    2.80   10.10
  12   1   8   16.00   14.00
   1 -13   8  -17.60   16.30
   1 -13   8    0.60    8.10
 -12   2  -8   47.60   16.80
   2  10  -8   75.59   14.30
   2  10  -8   63.29   16.60
  12  -2   8   78.69   17.50
  -2 -10   8   55.29   17.80
   5   7  -8   26.60   15.50
 -12   5  -8   -2.80   14.20
 -12   5  -8    6.50   20.40
   5   7  -8    0.40    9.90
  12  -5   8   -1.00   14.50
  12  -5   8   -6.60    7.90
   8   4  -8   25.00   10.00
 -12   8  -8   22.10   13.10
   8   4  -8    3.60   14.10
  12  -8   8   67.59   12.20
  12  -8   8   56.29   23.10
  11   1  -8  506.15   21.60
 -12  11  -8  511.75   34.40
 -12  11  -8  462.55   32.70
  11   1  -8  390.36   36.50
  12 -11   8  424.66   35.50
  12 -11   8  406.16   22.40
  14  -2  -8 1099.99   30.60
 -12  14  -8 1078.79   44.70
 -12  14  -8 1091.29   47.50
  -2 -12  -8 1115.79   38.90
  12 -14   8 1075.09   49.70
  12 -14   8 1097.09   36.60
 -12  17  -8  629.24   41.50
 -12  17  -8  646.04   39.30
  -5 -12  -8  659.13   36.40
  17  -5  -8  634.14   36.80
  17  -5  -8  637.94   27.60
  12 -17   8  596.14   31.30
   5  12   8  553.64   21.60
  12 -17   8  606.04   43.70
  -8 -12  -8   53.89   21.00
  20  -8  -8   48.00   17.70
  20  -8  -8   50.29   13.70
 -12  20  -8   50.19   21.20
 -12  20  -8   50.39   20.50
  12 -20   8   75.19   26.10
   8  12   8   98.99   15.90
  12 -20   8   90.29   18.60
 -11 -12  -8   38.70   24.40
 -12  23  -8   48.20   23.40
  23 -11  -8   31.20   18.00
  23 -11  -8   30.10   17.60
 -12  23  -8   27.40   25.20
  11  12   8   78.09   18.70
  12 -23   8   -8.90   25.70
  24 -13  -8   71.39   21.20
 -11  24  -8   78.89   27.10
  24 -13  -8   76.49   18.40
 -11  24  -8   70.39   24.00
 -13 -11  -8   57.29   29.50
  13  11   8   88.19   20.60
  11 -24   8   16.90   28.50
  11 -24   8   78.29   27.30
  -8  21  -8  356.26   36.70
 -13  -8  -8  349.96   41.70
  21 -13  -8  356.06   29.60
  -8  21  -8  326.07   37.30
  21 -13  -8  354.26   25.10
   8 -21   8  302.57   37.80
   8 -21   8  328.57   30.00
  13   8   8  294.37   31.60
  -5  18  -8  745.03   39.20
  -5  18  -8  728.63   45.10
 -13  -5  -8  740.13   44.10
  18 -13  -8  685.93   24.60
  18 -13  -8  709.03   30.00
  13   5   8  674.53   37.10
   5 -18   8  693.93   48.10
  -2  15  -8   33.40   14.70
  15 -13  -8   22.40    8.90
  -2  15  -8   13.00   17.00
  15 -13  -8   25.70    7.20
 -13  -2  -8   11.90   18.00
   2 -15   8    4.40   19.30
   2 -15   8   27.50   11.30
  13   2   8   23.30   15.50
 -13   1  -8   83.09   19.50
   1  12  -8   83.99   18.10
   1  12  -8   92.99   23.10
  13  -1   8   92.39   19.30
  -1 -12   8   73.09   11.40
  -1 -12   8   71.09   18.70
  -1 -12   8   73.89   10.00
   4   9  -8  344.47   24.20
   4   9  -8  341.77   30.10
 -13   4  -8  338.47   35.70
  13  -4   8  342.07   30.70
  13  -4   8  299.07   19.00
 -13   7  -8 1148.99   42.20
 -13   7  -8 1194.18   44.80
   7   6  -8 1224.78   46.80
   7   6  -8 1240.08   35.20
  13  -7   8 1236.08   57.29
  13  -7   8 1425.06   37.00
 -13  10  -8 1131.29   44.40
  10   3  -8 1151.28   32.20
  10   3  -8 1096.59   44.60
 -13  10  -8 1180.18   45.70
  13 -10   8 1167.78   35.60
  13 -10   8 1179.48   48.40
   0 -13  -8 2762.92   58.69
 -13  13  -8 2703.73   68.19
 -13  13  -8 2823.92   73.79
  13   0  -8 2743.03   52.49
  13   0  -8 2595.14   68.79
  13 -13   8 2306.17   53.59
  13 -13   8 2237.28   68.29
  16  -3  -8 3226.68   64.49
 -13  16  -8 3350.76   78.59
 -13  16  -8 3273.47   84.39
  -3 -13  -8 3336.17   72.19
  16  -3  -8 3260.37   77.19
  13 -16   8 3125.69   74.09
  13 -16   8 3326.97   86.19
  -6 -13  -8  821.32   43.20
 -13  19  -8  844.92   48.30
  19  -6  -8  763.82   32.30
  19  -6  -8  791.82   41.70
 -13  19  -8  839.32   44.60
   6  13   8  845.62   27.30
  13 -19   8  737.73   50.69
  13 -19   8  751.12   37.10
 -13  22  -8  522.45   41.90
 -13  22  -8  400.46   42.80
  22  -9  -8  454.45   37.50
  -9 -13  -8  522.45   43.50
  22  -9  -8  458.95   30.40
   9  13   8  462.95   28.60
  13 -22   8  352.76   47.80
 -13  25  -8   73.59   26.60
  25 -12  -8   96.19   22.50
 -12 -13  -8   99.29   30.60
  25 -12  -8   71.39   23.40
  13 -25   8  101.39   24.50
  13 -25   8   83.09   28.70
  12  13   8  130.39   20.90
 -14  -9  -8   88.59   28.50
  -9  23  -8   46.10   24.50
  23 -14  -8   98.89   18.80
  23 -14  -8  101.29   24.20
  -9  23  -8   69.09   22.40
  14   9   8  134.29   23.20
   9 -23   8   90.69   34.30
  20 -14  -8   98.09   14.40
  -6  20  -8  105.09   25.90
  -6  20  -8  130.09   22.50
  20 -14  -8  134.29   18.00
 -14  -6  -8  134.79   26.80
  14   6   8  133.69   22.40
   6 -20   8  125.39   18.90
   6 -20   8  108.09   29.40
  17 -14  -8  295.97   19.60
  17 -14  -8  254.37   16.50
  17 -14  -8  253.07   19.50
  -3  17  -8  230.48   28.70
  -3  17  -8  260.57   32.00
 -14  -3  -8  271.17   36.20
   3 -17   8  289.27   33.10
  14   3   8  238.28   30.80
   3 -17   8  320.97   23.90
 -14   0  -8   22.40   17.80
   0  14  -8  -18.20   16.30
   0  14  -8   -4.30   13.40
  14 -14  -8    6.30    6.40
   0 -14   8   -3.60   17.20
   0 -14   8    4.50   12.10
  14   0   8   33.30   16.70
   0 -14   8    0.90    9.10
   3  11  -8  175.38   23.20
 -14   3  -8  210.98   25.50
  11 -14  -8  214.48   12.10
  -3 -11   8  186.68   12.00
  14  -3   8  207.58   26.50
  -3 -11   8  176.18   13.40
   8 -14  -8  358.66   13.50
   6   8  -8  370.76   32.80
 -14   6  -8  418.76   33.10
   6   8  -8  375.56   24.30
 -14   6  -8  421.76   28.00
  14  -6   8  439.36   35.40
  14  -6   8  412.36   22.70
 -14   9  -8  808.12   38.30
   9   5  -8  938.21   42.80
   9   5  -8  866.51   30.10
 -14   9  -8  844.12   40.80
  14  -9   8  823.32   30.80
  14  -9   8  840.42   42.20
 -14  12  -8 1054.39   45.30
 -14  12  -8  981.90   43.70
  12   2  -8  945.91   42.90
  12   2  -8  960.20   30.70
  14 -12   8  899.11   33.30
  14 -12   8  945.01   47.40
 -14  15  -8  338.77   35.20
  -1 -14  -8  378.96   29.70
 -14  15  -8  349.96   34.10
  15  -1  -8  371.86   32.70
  14 -15   8  308.57   39.40
  14 -15   8  386.76   39.10
  18  -4  -8  485.35   27.90
 -14  18  -8  467.95   37.60
  -4 -14  -8  423.16   34.60
 -14  18  -8  426.96   38.80
  18  -4  -8  446.16   35.30
  14 -18   8  505.45   31.70
  14 -18   8  577.64   44.60
   4  14   8  499.75   17.10
 -14  21  -8  408.16   39.30
 -14  21  -8  338.67   39.40
  21  -7  -8  331.67   27.60
  -7 -14  -8  413.86   39.50
  21  -7  -8  346.57   35.90
   7  14   8  387.96   23.60
  14 -21   8  365.66   46.20
 -10 -14  -8  282.47   36.00
  24 -10  -8  271.57   30.60
  24 -10  -8  254.47   42.60
 -14  24  -8  320.67   40.30
 -14  24  -8  217.88   32.30
  14 -24   8  175.28   33.90
  10  14   8  275.77   28.40
  14 -24   8  216.98   28.00
 -15 -10  -8   65.69   30.90
  25 -15  -8   47.80   20.60
  25 -15  -8   26.60   30.60
 -10  25  -8   53.09   24.90
  15  10   8   54.29   21.20
  10 -25   8   52.39   22.20
  10 -25   8   20.30   27.60
 -15  -7  -8   78.09   27.70
  22 -15  -8   59.99   18.10
  -7  22  -8   60.79   23.60
  22 -15  -8   75.89   18.50
  22 -15  -8  105.39   17.10
  -7  22  -8   49.40   24.80
   7 -22   8   23.00   29.50
   7 -22   8   75.09   18.70
  15   7   8   66.89   21.20
  -4  19  -8   11.20   20.70
  19 -15  -8   24.20   12.40
  19 -15  -8   43.80   13.30
 -15  -4  -8   50.39   23.90
  -4  19  -8   40.10   18.50
  19 -15  -8   46.90   12.00
   4 -19   8   40.10   24.90
   4 -19   8   32.70   14.70
  -1  16  -8    6.20   15.30
  16 -15  -8   15.90    7.50
  -1  16  -8   11.40   18.00
  16 -15  -8    4.00    7.60
  16 -15  -8    1.40    8.10
 -15  -1  -8   17.80   20.40
   1 -16   8   41.80   21.10
   1 -16   8   19.30   11.80
 -15   2  -8  133.79   24.00
  13 -15  -8  114.69   11.00
   2  13  -8  158.58   25.20
   2  13  -8  106.49   18.30
  15  -2   8  115.19   25.70
  -2 -13   8  121.49   14.50
  -2 -13   8  139.69   15.00
  10 -15  -8   57.29    7.60
 -15   5  -8   49.80   18.70
   5  10  -8   74.69   19.40
   5  10  -8   52.19   22.60
  15  -5   8   58.59   19.80
  15  -5   8   59.89   12.80
 -15   8  -8   71.09   16.20
   7 -15  -8   81.79   10.80
 -15   8  -8   96.49   21.10
   8   7  -8   71.09   18.40
   8   7  -8  101.89   15.20
  15  -8   8  102.59   15.70
  15  -8   8  136.09   23.20
  11   4  -8  240.48   20.90
 -15  11  -8  233.08   27.50
   4 -15  -8  197.58   15.00
  11   4  -8  175.38   24.80
 -15  11  -8  203.88   26.70
  15 -11   8  204.08   21.70
  15 -11   8  278.67   33.60
  14   1  -8  251.27   21.40
 -15  14  -8  214.58   26.50
  14   1  -8  295.97   30.80
 -15  14  -8  206.98   25.50
  15 -14   8  259.97   32.40
  15 -14   8  215.48   29.30
  17  -2  -8  691.33   41.30
 -15  17  -8  761.12   43.30
  -2 -15  -8  736.33   39.40
 -15  17  -8  737.83   44.40
  15 -17   8  619.94   34.30
  15 -17   8  620.14   46.20
  20  -5  -8  316.47   28.30
  -5 -15  -8  341.47   37.30
 -15  20  -8  286.47   39.30
  20  -5  -8  270.67   34.40
 -15  20  -8  246.78   29.20
   5  15   8  222.08   16.70
  15 -20   8  199.28   23.20
  15 -20   8  228.88   34.10
   5  15   8  222.28   14.60
 -15  23  -8  182.28   30.10
 -15  23  -8  155.18   29.30
  -8 -15  -8  163.48   29.70
  23  -8  -8  146.79   25.80
  15 -23   8  165.78   32.60
   8  15   8  206.88   22.90
  15 -23   8   99.99   31.20
 -16  -8  -8  376.56   42.90
  -8  24  -8  359.06   42.10
  24 -16  -8  367.86   32.40
  24 -16  -8  436.46   35.90
  24 -16  -8  349.47   32.90
  16   8   8  272.97   37.60
   8 -24   8  278.47   41.20
  -5  21  -8  203.98   31.50
 -16  -5  -8  190.08   32.00
  21 -16  -8  245.08   24.70
  21 -16  -8  248.08   22.90
  21 -16  -8  267.27   26.10
  -5  21  -8  245.78   30.50
  16   5   8  211.88   27.50
   5 -21   8  280.57   29.60
   5 -21   8  193.08   35.20
  18 -16  -8  184.38   17.20
 -16  -2  -8  174.98   28.60
  -2  18  -8  161.48   24.70
  18 -16  -8  161.58   17.50
  -2  18  -8  175.28   30.90
  18 -16  -8  140.19   17.40
   2 -18   8  117.19   25.80
  16   2   8  171.78   25.10
   1  15  -8   25.00   15.30
  15 -16  -8   17.80    8.20
   1  15  -8   21.00   18.00
 -16   1  -8   66.89   22.00
  -1 -15   8   23.30   11.30
  16  -1   8   41.40   19.70
  -1 -15   8   10.80   19.80
  -1 -15   8   25.60   12.80
  12 -16  -8  273.67   14.10
 -16   4  -8  268.77   29.50
   4  12  -8  264.57   33.20
   4  12  -8  271.27   26.00
  16  -4   8  275.17   32.70
  16  -4   8  255.67   22.10
  -4 -12   8  226.28   17.00
  -4 -12   8  240.38   15.40
   9 -16  -8  266.47   14.10
 -16   7  -8  266.37   29.30
   7   9  -8  238.88   30.30
  16  -7   8  253.17   23.20
  16  -7   8  298.77   31.90
  10   6  -8 1682.13   57.49
  10   6  -8 1695.63   43.70
 -16  10  -8 1546.35   52.39
 -16  10  -8 1617.14   55.79
   6 -16  -8 1616.34   34.80
  16 -10   8 1620.74   46.00
  16 -10   8 1637.04   58.49
 -16  13  -8 2787.12   74.59
  13   3  -8 2862.11   57.89
 -16  13  -8 2806.72   72.39
   3 -16  -8 2717.03   52.69
  13   3  -8 2718.13   74.59
  16 -13   8 2684.33   67.69
  16 -13   8 2923.01   79.69
 -16  16  -8 1153.88   51.69
   0 -16  -8 1107.29   34.30
 -16  16  -8 1114.19   49.20
  16   0  -8 1091.29   48.30
  16 -16   8 1077.49   41.40
  16 -16   8 1126.39   55.49
  19  -3  -8 1837.62   62.09
  19  -3  -8 1685.23   50.19
  -3 -16  -8 1764.82   47.20
 -16  19  -8 1873.01   62.39
 -16  19  -8 1811.02   66.29
  -3 -16  -8 1862.81   59.89
  16 -19   8 1564.34   66.09
  16 -19   8 1536.45   51.29
  -6 -16  -8  867.41   50.49
  22  -6  -8  773.42   46.70
 -16  22  -8  825.32   51.59
  -6 -16  -8  811.32   37.40
 -16  22  -8  767.82   51.19
   6  16   8  840.42   25.70
  16 -22   8  904.41   59.39
   6  16   8  861.81   27.60
  23 -17  -8  108.59   21.10
  -6  23  -8   84.09   23.80
  23 -17  -8  125.69   20.30
 -17  -6  -8   98.49   31.70
  -6  23  -8   99.69   25.70
  23 -17  -8  102.39   18.70
   6 -23   8   84.69   33.40
  17   6   8  143.89   26.10
  20 -17  -8  148.09   15.80
 -17  -3  -8  118.39   29.00
  20 -17  -8  140.19   16.30
  -3  20  -8   83.79   23.20
  -3  20  -8  204.58   27.80
  20 -17  -8  178.38   20.80
  17   3   8  173.88   26.30
   3 -20   8  171.88   33.10
   3 -20   8  180.88   21.80
  17 -17  -8  129.99   15.60
   0  17  -8  107.09   23.70
 -17   0  -8  139.39   27.40
   0  17  -8  154.38   22.80
   0 -17   8  147.59   29.80
   0 -17   8  102.29   18.60
   0 -17   8  135.29   16.90
  17   0   8  142.79   25.80
 -17   3  -8  154.38   25.90
   3  14  -8  157.68   22.00
  14 -17  -8  172.18   14.60
   3  14  -8  187.68   28.40
  -3 -14   8  167.98   17.90
  -3 -14   8  159.08   20.20
  17  -3   8  174.68   25.70
   6  11  -8   31.50   18.80
  11 -17  -8   33.60    8.40
   6  11  -8   29.50   14.30
 -17   6  -8   23.70   19.00
  -6 -11   8   62.89    8.20
  17  -6   8   62.39   14.70
  17  -6   8   34.10   20.70
  -6 -11   8   39.90    8.60
 -17   9  -8  199.38   26.30
   9   8  -8  194.98   22.80
   8 -17  -8  216.98   15.10
   9   8  -8  195.48   25.90
  17  -9   8  203.48   28.20
  17  -9   8  164.08   22.30
 -17  12  -8  624.94   40.90
   5 -17  -8  609.04   23.10
  12   5  -8  582.54   39.40
  12   5  -8  633.84   29.40
 -17  12  -8  578.54   37.30
  17 -12   8  533.65   41.80
  17 -12   8  582.14   31.30
  15   2  -8  980.60   48.40
 -17  15  -8 1016.20   48.20
   2 -17  -8  981.90   31.90
 -17  15  -8 1062.29   49.20
  15   2  -8  999.10   36.10
  17 -15   8  935.71   52.49
  17 -15   8  871.11   38.00
  -1 -17  -8  288.07   26.70
 -17  18  -8  302.27   37.60
  18  -1  -8  312.87   36.10
 -17  18  -8  375.56   40.80
  -1 -17  -8  282.17   34.30
  17 -18   8  349.27   31.20
  17 -18   8  355.56   44.90
 -17  21  -8  350.56   42.10
 -17  21  -8  338.87   42.10
  -4 -17  -8  387.86   43.10
  21  -4  -8  306.17   39.10
  -4 -17  -8  344.37   28.80
  21  -4  -8  375.26   33.40
  17 -21   8  397.66   49.00
  24  -7  -8  280.37   30.30
 -17  24  -8  251.57   34.70
  -7 -17  -8  259.97   31.80
  -7 -17  -8  246.88   36.30
  24  -7  -8  216.98   31.40
  17 -24   8  209.78   39.40
  17 -24   8  258.87   29.80
   7  17   8  264.77   19.70
   7  17   8  302.17   21.40
  22 -18  -8   30.80   13.90
 -18  -4  -8   33.10   27.00
  22 -18  -8   47.80   15.70
  -4  22  -8   18.00   26.50
  22 -18  -8   28.70   15.50
  -4  22  -8   59.39   23.20
   4 -22   8   13.60   28.10
   4 -22   8    1.00   16.60
  18   4   8   50.69   22.70
  -1  19  -8   32.00   19.70
  -1  19  -8   27.90   23.30
  19 -18  -8   33.10    9.20
 -18  -1  -8   45.80   26.70
  19 -18  -8   66.69   13.40
  19 -18  -8    8.70   10.50
   1 -19   8   21.70   14.70
   1 -19   8   21.90   26.20
  18   1   8   32.70   21.00
   2  16  -8  251.37   27.20
  16 -18  -8  253.37   17.80
   2  16  -8  243.28   32.50
 -18   2  -8  253.87   31.70
  18  -2   8  228.58   28.60
  -2 -16   8  219.28   21.90
  -2 -16   8  220.38   25.00
 -18   5  -8  906.81   48.20
   5  13  -8  897.11   49.60
   5  13  -8  930.21   39.00
  13 -18  -8  911.11   26.00
  -5 -13   8  869.01   28.50
  -5 -13   8  884.81   27.50
  18  -5   8  884.61   47.40
   8  10  -8  521.95   39.60
 -18   8  -8  521.55   39.60
  10 -18  -8  464.05   19.80
   8  10  -8  475.35   30.00
  18  -8   8  490.15   32.10
  18  -8   8  522.55   42.00
  11   7  -8  308.27   25.30
 -18  11  -8  298.77   31.80
 -18  11  -8  248.58   30.20
  11   7  -8  344.37   35.40
   7 -18  -8  247.68   17.50
  18 -11   8  322.07   38.00
  18 -11   8  283.27   27.40
 -18  14  -8  372.46   35.80
 -18  14  -8  472.15   39.20
  14   4  -8  390.86   37.60
   4 -18  -8  431.46   22.10
  14   4  -8  404.86   28.10
  18 -14   8  482.15   31.50
  18 -14   8  484.75   42.50
   1 -18  -8  257.07   22.30
 -18  17  -8  268.87   32.90
  17   1  -8  281.17   36.20
 -18  17  -8  203.08   27.60
  18 -17   8  235.78   29.30
  18 -17   8  219.28   32.00
  -2 -18  -8  307.67   27.10
  -2 -18  -8  298.87   39.20
  20  -2  -8  300.77   39.40
 -18  20  -8  357.66   43.90
 -18  20  -8  374.66   42.10
  18 -20   8  201.88   35.00
 -18  23  -8    9.80   24.70
 -18  23  -8   28.70   27.80
  23  -5  -8  -12.30   22.40
  -5 -18  -8    0.60   16.20
  -5 -18  -8   21.80   25.80
  23  -5  -8  -19.50   18.50
  18 -23   8    3.80   29.70
   5  18   8    2.30    7.90
  18 -23   8  -34.10   19.30
   5  18   8   22.30    8.70
  21 -19  -8  165.58   19.40
  21 -19  -8  168.18   18.90
  21 -19  -8  187.38   21.70
  -2  21  -8  172.88   28.00
  -2  21  -8  173.98   32.20
 -19  -2  -8  144.69   32.90
   2 -21   8  168.68   32.40
  19   2   8  198.48   29.50
   2 -21   8  163.08   22.30
   1  18  -8  -15.70   21.20
   1  18  -8    1.30   17.20
  18 -19  -8   -3.10   11.00
 -19   1  -8   12.90   25.80
  -1 -18   8   16.70   15.90
  -1 -18   8  -24.30   16.10
  19  -1   8   21.70   22.70
   4  15  -8   80.59   19.30
 -19   4  -8   89.89   25.40
  15 -19  -8  108.89   12.90
   4  15  -8  130.39   27.50
  -4 -15   8  102.29   15.00
  19  -4   8   90.09   23.70
  -4 -15   8   90.49   15.90
  19  -4   8   61.39   16.50
   7  12  -8  463.25   39.60
 -19   7  -8  461.25   41.40
  12 -19  -8  420.36   19.90
   7  12  -8  488.65   32.00
  19  -7   8  386.16   39.70
  19  -7   8  257.27   27.40
  -7 -12   8  367.36   20.20
  -7 -12   8  342.77   18.20
  10   9  -8  740.13   33.90
  10   9  -8  703.73   44.50
   9 -19  -8  703.73   25.50
 -19  10  -8  763.12   45.70
  19 -10   8  768.92   47.40
  19 -10   8  697.63   35.30
  13   6  -8  785.62   46.60
 -19  13  -8  841.62   46.70
   6 -19  -8  784.22   28.60
  13   6  -8  809.42   34.70
 -19  13  -8  821.02   43.00
  19 -13   8  829.92   38.10
  19 -13   8  791.02   48.80
 -19  16  -8 2125.49   67.29
   3 -19  -8 2044.10   48.40
  16   3  -8 2058.79   68.89
 -19  16  -8 2000.90   66.69
  19 -16   8 1850.41   68.99
  19 -16   8 1889.01   56.39
   0 -19  -8 1625.44   45.90
 -19  19  -8 1516.15   62.39
  19   0  -8 1615.54   63.29
 -19  19  -8 1640.74   63.09
  19 -19   8 1626.94   69.09
  22  -3  -8  404.16   36.40
  -3 -19  -8  417.66   31.20
 -19  22  -8  449.16   47.20
  22  -3  -8  340.27   43.70
  -3 -19  -8  452.75   47.60
 -19  22  -8  396.66   42.20
  19 -22   8  299.67   40.50
  19 -22   8  287.17   37.00
  23 -20  -8  141.89   20.10
  23 -20  -8  160.98   22.20
  -3  23  -8   84.99   27.50
  23 -20  -8  143.19   17.90
 -20  -3  -8  125.69   36.10
  20   3   8  192.38   31.90
   3 -23   8  118.29   29.50
  20 -20  -8  539.65   27.70
   0  20  -8  442.06   45.40
   0  20  -8  588.84   42.30
 -20   0  -8  505.45   54.09
   0 -20   8  422.06   31.30
  20   0   8  458.05   45.40
   0 -20   8  467.95   44.80
 -20   3  -8  164.38   33.10
   3  17  -8  160.88   23.30
   3  17  -8  176.38   29.20
  17 -20  -8  145.79   19.50
  -3 -17   8  172.78   22.00
  20  -3   8  154.78   28.90
  -3 -17   8  160.28   19.00
 -20   6  -8   15.20   21.80
  14 -20  -8   58.79   12.00
   6  14  -8   42.90   18.00
   6  14  -8   75.99   24.90
  20  -6   8   34.10   15.70
  20  -6   8   78.79   24.80
  -6 -14   8   69.59   14.60
  -6 -14   8   75.59   12.80
   9  11  -8   48.30   22.40
 -20   9  -8  118.39   26.00
  11 -20  -8  109.49   13.40
   9  11  -8   82.09   18.00
  -9 -11   8  119.79   15.40
  20  -9   8   89.29   19.20
  20  -9   8  125.39   26.30
  -9 -11   8  102.29   12.90
  12   8  -8   81.79   23.20
   8 -20  -8   50.39   12.30
  12   8  -8   46.90   15.90
 -20  12  -8   46.70   23.70
  20 -12   8   76.69   18.50
  20 -12   8   98.19   25.90
 -20  15  -8  274.97   34.60
  15   5  -8  322.87   28.80
  15   5  -8  230.38   30.50
   5 -20  -8  261.77   22.90
 -20  15  -8  317.57   39.40
  20 -15   8  197.88   23.20
  20 -15   8  213.48   32.20
 -20  18  -8  346.37   38.80
   2 -20  -8  381.26   26.90
 -20  18  -8  361.06   41.90
  18   2  -8  457.45   43.00
  20 -18   8  344.67   46.00
  21  -1  -8  308.07   36.10
 -20  21  -8  319.07   41.80
  -1 -20  -8  334.57   44.40
  -1 -20  -8  308.07   28.50
 -20  21  -8  271.37   36.50
  20 -21   8  308.67   41.50
  20 -21   8  350.36   38.10
 -21  -1  -8   18.10   31.10
  -1  22  -8   69.79   26.10
  22 -21  -8   51.39   16.70
  22 -21  -8   79.89   12.10
  22 -21  -8   46.40   10.60
   1 -22   8  -17.00   17.30
  21   1   8   55.69   28.70
 -21   2  -8  401.46   50.39
   2  19  -8  380.56   38.20
  19 -21  -8  337.87   24.30
   2  19  -8  327.77   44.20
  21  -2   8  346.47   37.40
  -2 -19   8  325.87   29.10
  -2 -19   8  403.16   35.10
   5  16  -8  233.78   27.60
 -21   5  -8  213.28   34.10
  16 -21  -8  187.98   20.70
   5  16  -8  214.38   32.00
  -5 -16   8  242.78   27.10
  -5 -16   8  222.98   23.00
  21  -5   8  213.78   34.10
  21  -5   8  273.57   30.40
   8  13  -8  450.65   42.80
  13 -21  -8  351.76   23.20
   8  13  -8  453.65   34.30
 -21   8  -8  361.56   43.50
  21  -8   8  281.67   30.70
  21  -8   8  344.07   41.60
  -8 -13   8  308.27   22.90
  -8 -13   8  344.57   20.70
  10 -21  -8  612.94   26.70
  11  10  -8  631.84   34.50
  11  10  -8  647.04   46.50
 -21  11  -8  602.34   46.20
  21 -11   8  609.04   36.60
  21 -11   8  563.64   47.30
  14   7  -8  482.95   42.90
   7 -21  -8  521.15   26.60
 -21  14  -8  527.25   39.50
 -21  14  -8  478.55   44.20
  14   7  -8  484.15   32.20
  17   4  -8  221.78   30.00
 -21  17  -8  187.98   30.60
   4 -21  -8  237.98   25.10
 -21  17  -8  170.08   28.30
  21 -17   8  327.17   44.40
   1 -21  -8  339.77   28.20
 -21  20  -8  318.37   39.80
 -21  20  -8  385.56   47.60
  20   1  -8  379.36   45.10
  21 -20   8  276.07   39.10
  21 -20   8  319.77   36.90
  21 -22  -8   52.19   16.10
 -22   1  -8   65.99   33.90
   1  21  -8    7.30   21.90
  -1 -21   8   46.20   18.50
  -1 -21   8   54.89   24.20
  22  -1   8   47.00   27.40
   4  18  -8   78.19   26.80
  18 -22  -8   77.19   15.40
 -22   4  -8   33.70   29.00
   4  18  -8   69.79   22.70
  22  -4   8   95.59   29.80
  -4 -18   8   92.29   21.40
  -4 -18   8  114.69   18.80
 -22   7  -8   77.19   28.00
  15 -22  -8   94.39   15.70
   7  15  -8  103.09   26.50
   7  15  -8   89.99   22.60
  22  -7   8  111.19   28.40
  -7 -15   8   99.49   15.40
  -7 -15   8   93.19   17.50
  10  12  -8  103.69   26.90
  10  12  -8  135.39   22.40
 -22  10  -8  101.99   28.20
  12 -22  -8  106.29   16.10
  22 -10   8  108.59   28.50
 -10 -12   8   76.99   13.90
 -10 -12   8   94.49   12.40
 -22  13  -8  683.73   49.50
  13   9  -8  667.33   37.00
   9 -22  -8  607.44   30.00
  13   9  -8  618.54   47.80
   6 -22  -8  969.00   42.50
 -22  16  -8 1065.39   57.09
 -22  16  -8 1025.00   52.49
  16   6  -8 1017.60   55.59
  22 -16   8 1091.09   61.59
 -22  19  -8  242.78   30.30
 -22  19  -8  282.37   34.40
  22 -19   8  391.66   51.49
  22 -19   8  358.06   35.00
   3  20  -8   97.59   26.20
 -23   3  -8  174.88   37.10
  20 -23  -8  140.09   19.40
  -3 -20   8  128.09   21.60
  -3 -20   8  137.29   29.60
  23  -3   8  147.49   33.50
 -23   6  -8   43.80   27.20
  17 -23  -8   35.00   15.40
   6  17  -8   18.80   21.50
   6  17  -8   42.70   26.60
  23  -6   8   11.90   28.90
  -6 -17   8   50.89   19.30
  -6 -17   8   44.90   19.10
  14 -23  -8   88.09   16.10
   9  14  -8   73.69   20.90
 -23   9  -8   90.79   26.70
   9  14  -8   44.00   26.00
  23  -9   8   86.09   28.70
  -9 -14   8   51.79   15.80
  -9 -14   8   62.99   14.00
  11 -23  -8   60.89   15.60
  12  11  -8   61.39   18.80
  12  11  -8   76.69   27.70
 -23  12  -8   27.90   26.60
 -12 -11   8   54.59   11.70
 -12 -11   8   61.19   10.80
  23 -12   8   39.30   26.00
 -23  15  -8  209.98   34.20
   8 -23  -8  195.68   31.60
  15   8  -8  194.28   31.80
  23 -15   8  250.57   36.50
  23 -15   8  226.28   34.10
 -23  18  -8   73.59   21.50
   5 -23  -8   67.99   17.40
 -23  18  -8   10.30   26.90
  18   5  -8   69.09   27.00
  23 -18   8  127.49   23.80
  23 -18   8   95.09   30.40
 -24   8  -8  314.47   40.50
   8  16  -8  367.86   39.30
  16 -24  -8  349.17   29.30
  24  -8   8  290.47   38.70
  -8 -16   8  319.67   31.60
  -8 -16   8  310.87   34.20
  11  13  -8  175.68   25.60
  13 -24  -8  154.08   20.00
  11  13  -8  108.49   28.90
 -24  11  -8  144.09   31.10
  24 -11   8  151.98   34.10
  24 -11   8   96.59   27.70
 -11 -13   8  144.79   16.50
 -11 -13   8  170.78   22.70
 -24  14  -8  262.67   37.00
  14  10  -8  180.48   32.10
  14  10  -8  248.98   28.20
  10 -24  -8  233.98   29.20
  24 -14   8  267.87   35.60
  24 -14   8  263.77   38.30
  17   7  -8  144.89   31.30
 -24  17  -8  209.28   36.70
   7 -24  -8  231.18   28.80
  24 -17   8  153.68   32.00
  24 -17   8  232.98   29.60
  10  15  -8  119.89   24.90
 -25  10  -8    1.40   26.70
 -10 -15   8  141.69   20.30
 -10 -15   8  124.29   18.00
  25 -10   8  122.99   33.40
  25 -10   8   86.79   23.60
  12 -25  -8   98.19   18.90
  13  12  -8   89.49   23.70
 -25  13  -8   41.10   29.40
  13  12  -8   66.19   24.60
  25 -13   8  124.69   33.80
  25 -13   8  175.38   26.80
 -13 -12   8  119.39   14.50
 -13 -12   8  141.09   18.90
   0   0  -9   26.50    9.60
   0   0  -9   29.00   11.20
   0   0   9   53.59   13.90
  -1   2  -9 1792.72   48.80
   2  -1  -9 1781.52   36.10
  -1  -1  -9 1768.92   39.00
   2  -1  -9 1795.42   45.40
  -1   2  -9 1742.53   40.30
  -1  -1  -9 1705.23   43.20
  -2   1   9 1773.32   45.30
   1  -2   9 1778.02   49.70
   1   1   9 1702.53   44.80
  -2   1  -9 1922.11   43.00
   1   1  -9 1930.41   40.00
   1   1  -9 1928.21   50.09
  -2   1  -9 1921.21   48.60
   1  -2  -9 1881.31   44.50
   1  -2  -9 1877.41   37.90
  -1  -1   9 1958.90   50.99
  -1   2   9 1960.20   46.50
   2  -1   9 1977.70   51.59
  -2   4  -9 2080.29   55.29
  -2  -2  -9 2089.89   44.30
   4  -2  -9 2055.99   49.10
  -2   4  -9 2033.10   46.10
  -2  -2  -9 2003.00   45.70
   4  -2  -9 2075.09   37.00
   2  -4   9 2126.69   56.79
   2   2   9 2134.59   49.50
  -3   0  -9  -16.20    9.40
   3  -3  -9   -4.10    7.40
   0   3  -9  -15.60    8.70
   3  -3  -9    2.10    8.80
   0   3  -9    2.90   11.50
  -3   0  -9   10.80   10.10
   0  -3   9   19.10   14.00
   3   0   9   -6.60   11.60
  -3   3  -9    9.40   11.00
   3   0  -9   -0.80   10.50
   0  -3  -9   13.60    9.10
   0  -3  -9   13.90    9.10
  -3   3  -9   -1.80   10.20
   3   0  -9    8.40    8.00
   3  -3   9   18.00   14.20
   0   3   9   20.20   10.90
  -3  -3  -9   51.79   10.20
  -3   6  -9   58.29   13.90
  -3  -3  -9   62.69   12.70
   6  -3  -9   64.09    8.20
   6  -3  -9   58.89   12.40
   3   3   9   69.09   13.10
   3  -6   9   63.89   18.60
  -1   5  -9 1409.86   38.00
  -1   5  -9 1411.76   46.80
   5  -4  -9 1391.16   36.70
  -4  -1  -9 1365.36   37.90
  -4  -1  -9 1411.46   38.10
   4   1   9 1280.17   39.80
   1  -5   9 1244.58   45.50
  -4   2  -9 1941.71   50.09
   2  -4  -9 1882.51   35.80
   2   2  -9 1917.21   40.20
   2  -4  -9 1834.62   41.00
  -4   2  -9 1891.81   45.10
   2   2  -9 1911.71   51.79
   4  -2   9 1927.51   52.49
  -2  -2   9 1951.00   52.19
  -1  -4  -9 1985.80   42.10
   5  -1  -9 1991.80   37.00
  -4   5  -9 2059.09   55.69
  -4   5  -9 2076.69   48.50
   5  -1  -9 1965.70   50.09
  -1  -4  -9 1992.00   41.70
   4  -5   9 2018.30   56.89
   1   4   9 1923.51   43.40
  -4   8  -9  563.34   29.40
  -4   8  -9  618.54   35.30
  -4  -4  -9  558.74   27.30
   8  -4  -9  556.64   15.60
   8  -4  -9  571.24   26.90
   4   4   9  504.85   25.60
   4  -8   9  472.55   37.70
  -2   7  -9  356.36   24.30
  -2   7  -9  348.17   29.60
   7  -5  -9  368.96   21.10
  -5  -2  -9  349.17   24.60
   5   2   9  318.07   24.20
   2  -7   9  344.27   37.40
  -5   1  -9 1302.17   39.50
   1   4  -9 1344.77   45.40
   4  -5  -9 1282.07   25.40
   1   4  -9 1349.96   35.00
   4  -5  -9 1308.07   33.00
  -5   1  -9 1330.17   38.60
   5  -1   9 1195.28   41.00
  -1  -4   9 1143.49   42.90
   4   1  -9 2065.69   40.30
   4   1  -9 2026.60   53.49
  -5   4  -9 2096.69   54.89
   1  -5  -9 2080.09   39.70
   1  -5  -9 2010.50   40.50
  -5   4  -9 2054.69   49.30
  -1   5   9 1962.30   41.10
   5  -4   9 2018.30   55.69
  -5   7  -9 1588.34   44.30
   7  -2  -9 1520.55   30.10
  -2  -5  -9 1578.14   38.60
  -5   7  -9 1539.45   50.59
   7  -2  -9 1530.35   44.00
   2   5   9 1468.45   36.70
   5  -7   9 1492.85   52.59
  -5  10  -9  493.25   30.60
  -5  -5  -9  439.06   26.90
  10  -5  -9  453.25   14.10
  10  -5  -9  451.45   25.50
  -5  10  -9  412.06   33.10
   5   5   9  502.65   25.50
   5 -10   9  570.14   39.80
   9  -6  -9   71.89   12.30
  -6  -3  -9   75.99   15.60
  -3   9  -9   95.49   19.10
  -3   9  -9   69.19   14.90
   6   3   9   65.89   14.90
   3  -9   9   33.60   18.60
  -6   0  -9   11.30   11.50
   6  -6  -9   -0.30    7.90
   0   6  -9   20.00   10.60
  -6   0  -9    0.30    9.80
   0   6  -9   14.10   13.40
   0  -6   9  -10.70   14.50
   6   0   9    6.20   12.80
  -6   3  -9  241.18   23.50
   3   3  -9  197.58   23.30
  -6   3  -9  195.58   22.10
   3  -6  -9  205.18   13.30
   3   3  -9  201.18   16.90
   3  -6  -9  210.88   14.20
   6  -3   9  179.18   21.50
   6   0  -9   43.40   13.20
   0  -6  -9   69.29   11.80
  -6   6  -9   51.69   14.60
  -6   6  -9   37.30   18.70
   6   0  -9   62.39   10.10
   0   6   9   46.60   10.20
   6  -6   9   41.10   16.80
   9  -3  -9   68.59    8.70
   9  -3  -9   98.89   15.50
  -6   9  -9   79.49   16.90
  -6   9  -9   42.70   16.40
  -3  -6  -9   64.39   13.40
   6  -9   9   58.79   18.70
   3   6   9   53.39   11.50
  12  -6  -9   74.09   14.10
  12  -6  -9   84.89   14.80
  -6  -6  -9  125.49   18.20
  12  -6  -9   98.89   10.60
  -6  12  -9  153.98   24.80
  -6  12  -9   82.09   17.80
   6 -12   9   63.39   21.00
   6   6   9   81.79   14.30
   6 -12   9   71.19    8.80
  -7  -4  -9  514.95   30.90
  -4  11  -9  385.66   39.60
  11  -7  -9  481.55   24.20
  -4  11  -9  517.55   36.20
   7   4   9  494.35   28.20
   4 -11   9  487.65   38.00
  -1   8  -9  573.54   28.30
  -7  -1  -9  635.64   31.20
   8  -7  -9  576.44   22.50
  -1   8  -9  640.94   35.80
   1  -8   9  546.35   37.40
   7   1   9  523.05   30.60
   2   5  -9  230.38   31.50
   5  -7  -9  298.97   14.60
   2   5  -9  337.07   21.30
  -7   2  -9  355.46   25.90
  -7   2  -9  300.27   23.50
   7  -2   9  345.37   28.80
  -2  -5   9  315.17   29.80
  -7   5  -9 1115.59   47.40
   5   2  -9 1145.79   30.10
  -7   5  -9 1211.08   39.80
   2  -7  -9 1162.68   27.80
   5   2  -9 1177.88   42.20
   7  -5   9 1150.18   45.00
   8  -1  -9 1980.80   52.79
  -1  -7  -9 1943.41   43.80
   8  -1  -9 1856.01   36.50
  -7   8  -9 1962.90   57.39
  -7   8  -9 1946.41   51.99
   7  -8   9 1754.12   57.59
   1   7   9 1680.83   35.00
  -7  11  -9  938.51   43.60
  11  -4  -9  895.91   22.40
  -4  -7  -9  899.71   35.20
  11  -4  -9  889.31   35.40
  -7  11  -9  951.20   39.60
   7 -11   9  901.41   22.10
   4   7   9  919.11   28.40
   7 -11   9  932.51   46.10
  -7  14  -9  309.37   35.60
  -7  14  -9  272.57   31.30
  14  -7  -9  332.67   26.10
  14  -7  -9  341.47   16.50
  -7  -7  -9  384.66   31.60
   7   7   9  376.86   24.80
   7 -14   9  357.46   20.60
   7 -14   9  409.36   40.10
  -8  -5  -9  183.48   22.90
  13  -8  -9  161.28   17.40
  -5  13  -9  156.08   23.10
  -5  13  -9  182.08   22.70
   5 -13   9  192.38   28.10
   8   5   9  175.78   23.40
   5 -13   9  176.08   14.30
  -8  -2  -9  407.06   29.60
  -2  10  -9  392.76   32.30
  -2  10  -9  394.16   27.70
  10  -8  -9  398.46   20.10
   2 -10   9  373.36   36.20
   8   2   9  365.66   27.30
   1   7  -9  498.25   33.20
   7  -8  -9  493.35   17.60
   1   7  -9  536.85   26.30
  -8   1  -9  530.65   27.10
  -8   1  -9  513.15   29.90
  -1  -7   9  485.05   34.60
   8  -1   9  512.85   32.30
   4   4  -9  541.15   45.00
   4  -8  -9  722.53   19.30
   4   4  -9  699.83   26.20
  -8   4  -9  733.63   33.90
  -8   4  -9  727.43   33.30
   8  -4   9  678.33   36.80
   7   1  -9 1838.92   53.19
  -8   7  -9 1892.71   51.39
   7   1  -9 1823.12   38.20
  -8   7  -9 1851.71   54.89
   1  -8  -9 1850.21   39.30
  10  -2  -9 1101.09   26.60
  10  -2  -9 1134.39   41.30
  -8  10  -9 1077.29   42.10
  -8  10  -9 1119.19   45.90
  -2  -8  -9 1103.59   35.10
   2   8   9 1052.79   25.80
   8 -10   9 1044.90   23.10
   8 -10   9 1025.40   48.10
  13  -5  -9  659.93   20.70
  13  -5  -9  628.94   32.60
  -8  13  -9  676.13   37.60
  -8  13  -9  625.54   40.00
  -5  -8  -9  668.73   34.50
  13  -5  -9  644.14   22.00
   5   8   9  666.03   25.60
   8 -13   9  640.14   23.80
   8 -13   9  653.33   43.10
  -8  16  -9  133.49   25.40
  -8  -8  -9  106.19   21.50
  16  -8  -9   98.49   17.70
  -8  16  -9   47.50   21.20
  16  -8  -9   76.79   11.70
   8 -16   9   61.29   24.40
   8 -16   9   54.49   13.80
   8   8   9   71.59   14.50
  15  -9  -9  117.19   17.00
  -6  15  -9  121.09   21.60
  -9  -6  -9  106.89   21.50
  15  -9  -9  113.29   13.20
  -6  15  -9  146.59   27.60
   6 -15   9  120.79   14.80
   9   6   9  116.89   17.90
   6 -15   9  127.09   26.90
  -3  12  -9    9.20   17.00
  12  -9  -9   28.90   10.10
  -3  12  -9   34.10   15.20
  -9  -3  -9   65.09   17.10
   9   3   9   41.40   14.70
   3 -12   9   34.10   19.50
   0   9  -9   -1.00   13.60
  -9   0  -9   -6.90   13.90
   0   9  -9   16.90   12.20
   9  -9  -9    3.80    6.70
   9   0   9   26.40   14.90
   0  -9   9   13.20   17.60
   3   6  -9   81.29   13.80
  -9   3  -9   97.79   17.90
  -9   3  -9   59.79   14.90
   3   6  -9   81.49   18.60
   9  -3   9   55.79   18.30
   6   3  -9   42.00   19.10
  -9   6  -9   57.69   16.00
  -9   6  -9   47.50   16.60
   6   3  -9   64.39   11.50
   3  -9  -9   30.80    9.50
   9  -6   9   45.50   19.50
   9   0  -9   21.00    9.50
   0  -9  -9   16.60   11.80
   9   0  -9   21.00   13.80
  -9   9  -9   42.70   16.20
  -9   9  -9   22.70   16.00
   9  -9   9   18.50    6.60
   9  -9   9   27.80   18.30
  12  -3  -9   18.00   14.30
  -9  12  -9   72.59   19.40
  12  -3  -9   39.60    9.40
  -3  -9  -9   36.30   15.60
  -9  12  -9   36.20   17.60
   3   9   9   24.70    8.50
   9 -12   9   30.10    9.40
   9 -12   9   -4.00   18.10
  -9  15  -9   86.19   21.20
  15  -6  -9   83.99   17.60
  -9  15  -9   82.09   21.60
  15  -6  -9   75.99   12.30
  -6  -9  -9   81.29   20.50
   6   9   9   92.39   13.10
   9 -15   9   83.19   14.10
   9 -15   9   31.50   21.30
  -9  -9  -9  418.66   39.10
  -9  18  -9  354.66   38.80
  18  -9  -9  358.86   22.10
  -9  18  -9  386.06   43.60
  18  -9  -9  389.76   31.40
   9 -18   9  329.77   39.60
   9 -18   9  353.36   45.70
   9   9   9  383.26   27.30
  -7  17  -9   28.30   21.30
  17 -10  -9   22.30   13.60
  -7  17  -9    4.60   19.40
 -10  -7  -9   37.30   19.60
  17 -10  -9   16.80   10.10
   7 -17   9   22.20   13.00
  10   7   9   23.40   14.90
   7 -17   9    8.40   23.20
 -10  -4  -9  406.46   34.70
  14 -10  -9  411.56   23.10
  14 -10  -9  444.46   15.50
  -4  14  -9  469.55   34.30
  -4  14  -9  419.56   37.10
  10   4   9  415.76   30.60
   4 -14   9  423.86   40.60
   4 -14   9  425.96   19.70
  -1  11  -9  527.85   36.80
 -10  -1  -9  577.64   43.20
  -1  11  -9  557.94   37.70
  11 -10  -9  587.34   20.20
  10   1   9  497.35   31.90
   1 -11   9  525.45   40.20
 -10   2  -9  289.57   28.80
   2   8  -9  301.17   30.00
   2   8  -9  300.87   23.40
  10  -2   9  258.57   29.90
  -2  -8   9  249.48   29.30
 -10   5  -9  682.43   34.10
   5   5  -9  685.63   37.50
 -10   5  -9  637.84   34.50
   5   5  -9  650.43   26.30
  10  -5   9  717.13   39.40
   8   2  -9 1021.50   29.60
   2 -10  -9  962.80   29.20
 -10   8  -9 1151.88   45.10
 -10   8  -9  989.20   41.70
   8   2  -9 1024.50   42.70
  10  -8   9  983.90   22.50
  10  -8   9  983.20   46.00
  11  -1  -9  224.18   31.40
 -10  11  -9  278.17   30.20
  11  -1  -9  271.77   17.70
 -10  11  -9  281.67   30.90
  -1 -10  -9  301.07   24.60
  10 -11   9  258.27   34.60
  10 -11   9  220.78   16.50
  -4 -10  -9  407.26   30.90
 -10  14  -9  398.36   35.10
 -10  14  -9  321.17   35.30
  14  -4  -9  387.86   30.40
  14  -4  -9  379.26   19.50
   4  10   9  371.16   17.30
  10 -14   9  446.66   39.80
  10 -14   9  385.16   22.90
 -10  17  -9  310.17   39.70
  17  -7  -9  257.47   30.00
 -10  17  -9  324.77   32.80
  -7 -10  -9  274.07   29.30
  17  -7  -9  305.17   21.40
   7  10   9  370.66   23.20
  10 -17   9  317.17   42.30
  10 -17   9  341.57   26.70
 -10  20  -9   95.39   29.00
 -10 -10  -9   61.59   26.30
 -10  20  -9   64.69   25.00
  20 -10  -9   61.49   15.20
  10 -20   9   17.90   27.20
  10 -20   9   64.69   17.70
  10  10   9   76.39   16.60
  19 -11  -9  516.75   33.20
  -8  19  -9  480.95   43.00
 -11  -8  -9  534.65   42.20
  19 -11  -9  524.15   25.30
  -8  19  -9  475.25   48.60
   8 -19   9  541.95   50.89
  11   8   9  523.35   33.50
   8 -19   9  533.85   31.60
  -5  16  -9  161.98   24.90
  -5  16  -9  149.99   28.40
 -11  -5  -9  107.29   23.40
  16 -11  -9  131.39   16.20
  16 -11  -9  136.19   14.60
   5 -16   9  120.39   27.90
  11   5   9  142.89   20.50
   5 -16   9  143.59   19.10
 -11  -2  -9  545.35   36.60
  -2  13  -9  560.04   39.90
  -2  13  -9  511.75   33.30
  13 -11  -9  505.25   20.50
   2 -13   9  467.65   41.00
   2 -13   9  467.95   17.10
  11   2   9  500.25   33.60
   2 -13   9  483.55   16.40
 -11   1  -9  647.84   37.40
   1  10  -9  626.14   38.60
   1  10  -9  656.73   35.30
  11  -1   9  629.14   36.40
  -1 -10   9  694.13   42.50
   4   7  -9  486.05   25.40
   4   7  -9  484.75   34.50
 -11   4  -9  454.85   29.20
 -11   4  -9  443.36   41.00
  11  -4   9  529.05   36.20
 -11   7  -9  821.22   38.60
   7   4  -9  835.42   40.60
   7   4  -9  835.32   29.00
 -11   7  -9  833.62   39.50
  11  -7   9  886.51   44.10
   1 -11  -9  309.67   23.10
 -11  10  -9  331.77   32.40
  10   1  -9  288.47   29.10
 -11  10  -9  372.06   31.80
  10   1  -9  314.67   20.30
  11 -10   9  328.87   35.80
  11 -10   9  292.87   17.60
  13  -2  -9  187.28   22.70
 -11  13  -9  186.08   27.30
  -2 -11  -9  166.58   21.10
 -11  13  -9  142.59   23.00
  13  -2  -9  145.09   16.90
  11 -13   9  132.39   24.70
  11 -13   9  136.29   15.30
  16  -5  -9  114.79   19.80
 -11  16  -9  108.79   24.80
  16  -5  -9  105.59   15.20
 -11  16  -9  105.09   23.30
  11 -16   9   60.09   24.60
   5  11   9   62.69   11.00
  11 -16   9   80.39   15.50
 -11  19  -9  363.26   45.30
  19  -8  -9  351.56   35.10
  -8 -11  -9  348.67   40.70
  19  -8  -9  322.07   24.30
 -11  19  -9  334.17   41.70
  11 -19   9  270.47   35.00
  11 -19   9  318.07   28.40
   8  11   9  294.07   24.00
 -11 -11  -9  856.61   55.69
  22 -11  -9  802.72   36.10
 -11  22  -9  949.31   70.89
 -11  22  -9  755.92   54.89
  22 -11  -9  872.21   46.30
  11  11   9  807.32   37.20
  11 -22   9  627.34   57.79
  -9  21  -9  334.77   42.90
 -12  -9  -9  353.46   44.20
  21 -12  -9  319.27   25.40
  21 -12  -9  385.16   33.70
  -9  21  -9  369.76   45.30
  12   9   9  303.77   32.20
   9 -21   9  274.77   31.40
   9 -21   9  278.07   40.00
  -6  18  -9  255.57   33.00
  -6  18  -9  366.36   36.90
 -12  -6  -9  262.07   30.70
  18 -12  -9  255.27   19.10
  18 -12  -9  268.87   25.60
   6 -18   9  256.77   24.40
   6 -18   9  269.27   35.30
  12   6   9  251.47   29.90
  -3  15  -9   52.29   18.10
  15 -12  -9   78.09   12.20
  -3  15  -9   66.69   21.50
 -12  -3  -9   60.29   21.10
   3 -15   9   58.59   24.70
  12   3   9   84.89   20.10
   3 -15   9   81.99   12.20
   3 -15   9   85.49   13.60
 -12   0  -9  -18.10   15.80
   0  12  -9   -3.60   17.70
   0  12  -9   36.70   14.10
  12   0   9   38.50   17.70
   0 -12   9   -7.90   17.80
   3   9  -9   13.20   15.80
 -12   3  -9   14.30   17.50
   3   9  -9   16.70   12.50
  12  -3   9   23.80   19.90
   6   6  -9   93.49   14.40
   6   6  -9   68.39   18.90
 -12   6  -9   97.59   20.30
 -12   6  -9   66.29   16.70
  12  -6   9   87.89   21.80
   9   3  -9  -14.30   14.40
 -12   9  -9   12.70   15.70
   9   3  -9   20.60   11.30
 -12   9  -9    2.60   16.20
  12  -9   9   -4.40    8.60
  12  -9   9   -4.90   18.50
 -12  12  -9   39.90   17.40
  12   0  -9   -5.30   14.70
 -12  12  -9  -13.10   16.30
  12   0  -9   11.80    9.80
   0 -12  -9    2.30   13.90
  12 -12   9   29.20   21.70
  12 -12   9   17.50   11.00
  -3 -12  -9  110.29   21.20
 -12  15  -9   67.29   21.80
  15  -3  -9   63.29   18.90
 -12  15  -9   63.69   20.20
  12 -15   9  111.09   16.30
  12 -15   9  112.99   27.70
 -12  18  -9  102.39   26.90
  -6 -12  -9   78.79   23.00
 -12  18  -9   73.69   22.90
  18  -6  -9   85.89   15.60
  18  -6  -9   92.39   21.20
  12 -18   9   99.89   27.60
   6  12   9  103.79   12.50
  12 -18   9   95.89   18.50
  21  -9  -9  669.73   43.00
 -12  21  -9  535.25   47.60
  -9 -12  -9  551.14   48.60
  21  -9  -9  614.54   32.40
 -12  21  -9  621.84   49.50
  12 -21   9  528.95   53.79
  12 -21   9  575.04   37.20
   9  12   9  620.44   30.30
  20 -13  -9   13.10   15.80
  20 -13  -9   32.50   13.70
 -13  -7  -9   17.30   23.90
  -7  20  -9   23.20   21.40
  -7  20  -9  -20.40   23.60
  13   7   9   40.00   18.80
   7 -20   9   31.90   16.20
   7 -20   9   47.80   30.10
  17 -13  -9   88.29   11.70
  -4  17  -9   84.09   21.10
  17 -13  -9   83.49   13.80
 -13  -4  -9   76.69   23.80
  -4  17  -9   49.00   23.10
   4 -17   9   97.99   15.00
   4 -17   9   77.69   26.90
  13   4   9   96.79   21.20
 -13  -1  -9  441.06   36.70
  -1  14  -9  470.55   33.00
  -1  14  -9  402.96   38.70
  14 -13  -9  438.96   16.00
   1 -14   9  381.16   40.70
   1 -14   9  405.46   19.30
  13   1   9  393.86   34.50
   1 -14   9  385.66   17.70
 -13   2  -9  517.25   37.90
   2  11  -9  519.85   30.50
   2  11  -9  503.25   38.70
   8 -13  -9   62.59    8.40
 -13   5  -9   71.59   15.70
   5   8  -9   71.29   14.40
   5   8  -9   29.10   17.20
 -13   5  -9   63.19   19.70
  13  -5   9   53.19   19.80
 -13   8  -9  491.55   33.50
   8   5  -9  538.85   37.80
 -13   8  -9  535.25   37.40
   8   5  -9  496.45   25.80
  13  -8   9  521.85   22.20
  13  -8   9  530.65   40.80
  11   2  -9  241.28   30.90
 -13  11  -9  211.18   25.50
   2 -13  -9  242.38   23.20
 -13  11  -9  326.37   33.50
  11   2  -9  265.67   21.60
  13 -11   9  276.47   32.60
  13 -11   9  233.48   20.10
 -13  14  -9  157.18   24.80
  -1 -13  -9  194.88   22.60
  14  -1  -9  214.08   20.40
 -13  14  -9  190.18   26.70
  14  -1  -9  199.38   26.00
  13 -14   9  168.68   18.40
  13 -14   9  164.58   27.20
  17  -4  -9   83.09   21.40
 -13  17  -9   55.69   23.70
 -13  17  -9   45.70   21.80
  -4 -13  -9  102.59   23.40
  13 -17   9   80.79   17.80
  13 -17   9   49.00   25.20
 -13  20  -9   26.20   25.70
  20  -7  -9    4.90   19.30
  20  -7  -9   38.60   16.10
 -13  20  -9   14.80   25.30
  -7 -13  -9   41.30   23.60
  13 -20   9   18.30   16.60
  13 -20   9  -31.30   27.90
   7  13   9   31.40   11.80
 -14  -8  -9  476.35   50.19
  22 -14  -9  492.45   35.90
  22 -14  -9  472.95   29.10
  -8  22  -9  566.24   48.60
   8 -22   9  370.46   50.99
   8 -22   9  501.75   36.10
  19 -14  -9  140.89   17.50
  -5  19  -9  115.29   28.30
 -14  -5  -9  124.39   28.70
  -5  19  -9  144.09   25.40
  19 -14  -9  151.58   19.20
   5 -19   9  177.08   32.70
  -2  16  -9  191.18   24.60
  16 -14  -9  180.58   14.60
  -2  16  -9  243.18   30.80
  16 -14  -9  203.78   16.40
 -14  -2  -9  157.58   27.30
  16 -14  -9  176.48   15.40
   2 -16   9  164.48   21.80
   2 -16   9  196.18   19.30
   2 -16   9  224.08   32.30
   1  13  -9  557.44   32.90
   1  13  -9  521.85   41.40
 -14   1  -9  577.14   40.70
  -1 -13   9  535.35   43.20
  14  -1   9  544.35   38.30
   4  10  -9  339.97   26.50
  10 -14  -9  330.07   12.00
 -14   4  -9  363.26   36.80
   4  10  -9  264.67   33.10
  14  -4   9  298.37   34.90
 -14   7  -9  349.77   35.10
 -14   7  -9  284.07   29.90
   7   7  -9  445.16   36.00
   7   7  -9  373.76   26.00
   7 -14  -9  329.87   14.50
  14  -7   9  387.16   37.40
  14  -7   9  352.76   20.60
  10   4  -9  640.44   39.70
  10   4  -9  703.43   29.20
 -14  10  -9  656.33   38.80
 -14  10  -9  653.53   41.30
  14 -10   9  665.73   27.70
  14 -10   9  663.13   46.20
   1 -14  -9  159.58   20.60
 -14  13  -9  128.09   24.20
  13   1  -9  137.29   23.60
  13   1  -9  164.78   17.50
 -14  13  -9  150.78   24.50
  14 -13   9  165.88   21.40
  14 -13   9  147.29   27.30
 -14  16  -9   93.79   24.80
  -2 -14  -9  139.09   23.00
 -14  16  -9  115.79   25.70
  16  -2  -9  134.29   23.10
  14 -16   9  135.09   26.90
  14 -16   9  128.89   19.60
  19  -5  -9  215.78   26.60
 -14  19  -9  235.78   33.20
 -14  19  -9  207.68   31.20
  19  -5  -9  244.28   29.30
  -5 -14  -9  216.88   29.60
  14 -19   9  266.37   37.70
  14 -19   9  249.68   30.00
  22  -8  -9  392.96   42.70
 -14  22  -9  364.76   48.40
  22  -8  -9  381.96   32.70
  -8 -14  -9  504.05   49.90
   8  14   9  429.36   23.20
  14 -22   9  555.94   53.49
 -15  -6  -9  229.88   35.50
  21 -15  -9  185.78   20.50
  -6  21  -9  150.98   28.70
  21 -15  -9  207.48   23.90
  -6  21  -9  138.09   29.20
  21 -15  -9  196.98   26.40
   6 -21   9  152.48   36.20
  15   6   9  184.08   26.30
   6 -21   9  167.38   23.00
  18 -15  -9   63.99   12.80
  -3  18  -9   58.39   21.50
  -3  18  -9   46.80   25.10
  18 -15  -9   71.59   12.50
  18 -15  -9   50.39   11.40
  15   3   9   63.99   20.90
   3 -18   9   59.99   14.70
   3 -18   9   45.80   25.60
 -15   0  -9    2.20   20.50
  15 -15  -9   -8.70    7.40
   0  15  -9    6.70   21.50
   0  15  -9  -26.10   14.70
   0 -15   9    9.30   22.40
   0 -15   9    6.50   10.80
  15   0   9   37.00   20.30
   0 -15   9    9.90    9.60
  12 -15  -9   96.09   12.50
   3  12  -9  109.79   18.50
   3  12  -9   42.50   20.20
 -15   3  -9   58.89   21.90
  15  -3   9  117.09   24.10
 -15   6  -9  168.18   25.70
   9 -15  -9  178.18   12.00
   6   9  -9  203.98   28.70
   6   9  -9  199.48   23.80
  15  -6   9  172.08   18.30
  15  -6   9  205.88   27.90
 -15   9  -9   84.19   23.50
   9   6  -9  107.79   17.30
 -15   9  -9  112.99   19.80
   9   6  -9  104.59   22.60
   6 -15  -9  111.49   13.10
  15  -9   9  134.19   15.90
  15  -9   9  177.88   26.40
  12   3  -9   39.10   19.00
 -15  12  -9  104.09   23.60
 -15  12  -9   43.90   18.70
  12   3  -9   70.09   15.10
  15 -12   9   77.49   24.90
  15 -12   9   82.39   15.00
 -15  15  -9   30.20   20.70
  15   0  -9   16.90   13.20
  15   0  -9    0.30   17.70
   0 -15  -9  -16.20   17.00
 -15  15  -9    3.00   19.50
  15 -15   9  -22.90   13.60
  15 -15   9  -23.00   20.90
  -3 -15  -9  223.48   28.70
 -15  18  -9  294.07   40.30
  18  -3  -9  264.47   31.20
 -15  18  -9  256.77   33.00
  15 -18   9  227.38   33.40
  15 -18   9  249.97   29.80
  21  -6  -9  456.55   42.80
 -15  21  -9  391.16   43.80
  21  -6  -9  391.76   33.00
  -6 -15  -9  420.96   46.40
 -15  21  -9  348.47   38.40
  20 -16  -9   84.39   15.10
  20 -16  -9  103.49   15.10
  -4  20  -9   80.59   25.00
  20 -16  -9   85.59   15.30
  -4  20  -9   59.79   26.40
 -16  -4  -9   72.19   28.10
   4 -20   9   77.69   18.40
   4 -20   9   30.10   29.40
  16   4   9   96.29   23.50
  -1  17  -9  116.89   28.80
  17 -16  -9  101.59   12.40
  -1  17  -9   95.19   22.00
 -16  -1  -9   77.39   25.50
  16   1   9  137.19   24.50
   1 -17   9   89.59   15.30
   1 -17   9   83.59   28.10
   1 -17   9  143.19   17.90
 -16   2  -9  173.28   28.70
   2  14  -9  141.99   26.00
  14 -16  -9  135.99   13.20
   2  14  -9  167.48   22.10
  -2 -14   9  133.09   13.30
  -2 -14   9  167.38   15.00
  16  -2   9  173.18   27.00
  11 -16  -9  198.18   13.40
   5  11  -9  263.97   26.90
   5  11  -9  275.77   36.30
 -16   5  -9  233.78   29.50
  16  -5   9  320.27   38.30
   8   8  -9   49.99   21.90
   8   8  -9   29.60   14.50
 -16   8  -9   54.19   21.90
   8 -16  -9   35.60    8.40
  16  -8   9   45.00   13.30
  16  -8   9   42.20   21.80
 -16  11  -9  116.69   25.50
   5 -16  -9  113.49   15.10
 -16  11  -9  112.89   21.80
  11   5  -9   83.09   22.90
  11   5  -9  168.08   24.40
  16 -11   9   79.99   25.20
  16 -11   9   91.89   15.90
 -16  14  -9   79.49   22.70
   2 -16  -9  117.99   15.00
  14   2  -9  126.09   17.40
  14   2  -9  140.49   24.20
 -16  14  -9   72.19   24.70
  16 -14   9  133.59   19.50
  16 -14   9   84.89   26.10
  -1 -16  -9  115.79   24.00
 -16  17  -9   94.19   27.20
  17  -1  -9   41.30   21.00
 -16  17  -9  157.88   29.90
  16 -17   9   67.99   27.90
  16 -17   9   98.09   19.50
  -4 -16  -9   19.80   24.30
  20  -4  -9   44.50   23.80
 -16  20  -9   49.99   27.60
 -16  20  -9   56.69   26.20
  16 -20   9   31.30   28.60
  16 -20   9   -6.80   16.60
 -17  -2  -9   68.49   29.00
  19 -17  -9   75.69   14.00
  -2  19  -9   86.99   28.50
  -2  19  -9  115.59   24.80
  19 -17  -9   72.99   11.00
   2 -19   9   96.39   33.50
  17   2   9  103.79   25.90
   2 -19   9  128.39   21.30
  16 -17  -9   78.69   11.10
 -17   1  -9   31.60   25.70
   1  16  -9   98.39   26.50
   1  16  -9  104.19   22.20
  -1 -16   9   91.69   14.60
  -1 -16   9   83.19   13.30
  17  -1   9  111.99   25.80
   4  13  -9  118.19   20.40
   4  13  -9   88.29   24.00
  13 -17  -9  117.69   13.80
 -17   4  -9  102.39   26.50
  17  -4   9  146.79   27.20
   7  10  -9   59.39   23.50
   7  10  -9   16.70   15.70
  10 -17  -9   47.30    9.40
 -17   7  -9   31.90   22.80
  17  -7   9   42.80   13.70
  17  -7   9   69.89   24.90
  10   7  -9  375.56   39.00
   7 -17  -9  427.06   19.50
 -17  10  -9  423.66   42.30
  10   7  -9  439.86   29.70
 -17  10  -9  359.16   35.20
  17 -10   9  433.86   28.30
  17 -10   9  437.16   43.20
  13   4  -9   74.29   22.10
 -17  13  -9   40.30   21.50
 -17  13  -9   67.79   23.30
  13   4  -9   44.50   16.00
   4 -17  -9   55.69   11.90
  17 -13   9   79.89   28.00
  17 -13   9   45.00   16.10
 -17  16  -9  160.88   30.00
  16   1  -9  131.49   24.80
   1 -17  -9  143.99   17.60
   1 -17  -9  135.89   24.00
 -17  16  -9  133.79   26.00
  17 -16   9  127.59   32.60
  17 -16   9  137.29   20.90
 -17  19  -9  340.57   38.40
 -17  19  -9  350.16   44.70
  -2 -17  -9  318.27   33.70
  19  -2  -9  313.67   42.20
  -2 -17  -9  301.57   28.90
   0  18  -9   18.70   26.00
 -18   0  -9  -24.50   26.10
   0  18  -9   -7.80   20.00
  18 -18  -9   12.00   10.90
   0 -18   9  -15.70   14.60
   0 -18   9   40.90   15.10
  18   0   9  -10.90   22.50
  15 -18  -9  139.89   16.10
   3  15  -9  192.78   24.50
 -18   3  -9  136.99   29.30
   3  15  -9  164.98   29.20
  -3 -15   9  124.19   13.70
  18  -3   9  123.19   26.50
  -3 -15   9  107.79   13.00
  12 -18  -9  377.86   18.70
   6  12  -9  389.76   42.30
 -18   6  -9  392.36   43.30
   6  12  -9  332.87   30.20
  18  -6   9  384.56   43.20
  18  -6   9  348.57   26.40
   9 -18  -9  232.38   17.50
 -18   9  -9  255.67   31.40
   9   9  -9  221.48   27.60
   9   9  -9  206.28   30.10
  18  -9   9  217.98   30.40
  12   6  -9  155.48   28.50
 -18  12  -9  177.28   30.10
  12   6  -9  184.88   21.90
   6 -18  -9  165.98   17.80
  18 -12   9  152.38   28.80
  18 -12   9  157.38   20.40
   3 -18  -9  148.09   17.00
 -18  15  -9  209.08   33.10
  15   3  -9  140.79   27.00
 -18  15  -9  171.98   27.40
  15   3  -9  197.58   26.70
  18 -15   9  142.19   30.90
  18 -15   9  197.18   26.90
 -18  18  -9  -44.60   23.90
  18   0  -9  -42.10   20.50
   0 -18  -9    9.00   14.70
   0 -18  -9    3.50   22.10
 -18  18  -9  -28.50   22.90
  18 -18   9    6.50   28.30
  18 -18   9   -7.80   16.60
   1 -20   9  100.89   22.20
   2  17  -9  113.09   23.30
   2  17  -9   51.89   25.70
  17 -19  -9   73.59   13.10
 -19   2  -9   89.89   30.90
  -2 -17   9  102.09   16.70
  19  -2   9   93.19   27.20
  -2 -17   9   96.19   15.30
   5  14  -9  107.69   26.00
 -19   5  -9   98.79   28.20
   5  14  -9  119.49   21.90
  14 -19  -9  177.28   17.90
  19  -5   9  152.38   30.30
  11 -19  -9  541.15   22.50
 -19   8  -9  467.85   47.80
   8  11  -9  541.65   48.30
   8  11  -9  577.14   34.80
  19  -8   9  589.14   49.60
  19  -8   9  426.56   30.60
  11   8  -9  482.65   44.40
 -19  11  -9  425.46   46.30
   8 -19  -9  454.65   22.90
  11   8  -9  488.75   32.90
  19 -11   9  452.35   31.30
  19 -11   9  539.85   48.80
  14   5  -9  160.48   29.50
 -19  14  -9  169.68   26.50
   5 -19  -9  151.88   20.10
 -19  14  -9  200.38   31.40
  14   5  -9  189.88   22.90
  19 -14   9  212.68   34.80
  19 -14   9  194.58   23.00
 -19  17  -9  268.87   36.60
   2 -19  -9  196.18   24.80
 -19  17  -9  326.87   40.70
  17   2  -9  266.27   34.70
  19 -17   9  253.27   38.10
  -1 -19  -9   62.39   28.40
  -1 -19   9  103.79   20.00
 -20   4  -9  -24.70   27.60
  16 -20  -9    3.30   11.30
   4  16  -9  -45.70   23.40
   4  16  -9   33.20   19.70
  -4 -16   9   39.10   13.30
  -4 -16   9   48.40   13.20
  20  -4   9   42.70   25.00
   7  13  -9   42.40   26.20
 -20   7  -9   43.70   25.70
   7  13  -9   41.30   18.50
  13 -20  -9   21.40   11.40
  20  -7   9    6.80   15.70
  20  -7   9   31.00   26.50
  10  10  -9  139.29   28.80
 -20  10  -9  186.28   33.40
  10  10  -9  177.08   23.30
  10 -20  -9  143.39   19.10
  20 -10   9  166.28   22.40
  20 -10   9  196.98   32.40
  13   7  -9  -21.20   22.00
 -20  13  -9   28.80   26.50
   7 -20  -9   40.60   13.10
  13   7  -9   13.70   17.60
 -20  13  -9   20.40   20.80
  20 -13   9   31.20   27.20
  20 -13   9    9.30   17.30
   4 -20  -9   54.89   17.10
  16   4  -9   94.09   26.50
 -20  16  -9   81.69   24.00
 -20  16  -9   99.49   29.40
  20 -16   9   69.79   31.80
   1 -20  -9   78.49   28.30
   6  15  -9  170.78   25.20
   6  15  -9  150.58   31.30
 -21   6  -9  133.29   31.90
  15 -21  -9  161.38   21.40
  -6 -15   9  165.38   17.20
  21  -6   9   95.99   30.50
  21  -6   9  125.19   20.80
  -6 -15   9  184.78   17.40
  12 -21  -9  407.16   23.80
   9  12  -9  401.86   45.10
   9  12  -9  430.66   35.50
 -21   9  -9  434.36   50.89
  21  -9   9  293.27   38.60
  21  -9   9  385.06   33.30
   9 -21  -9  474.15   26.20
 -21  12  -9  408.46   51.09
  12   9  -9  484.05   49.30
  12   9  -9  513.15   36.20
  21 -12   9  405.06   50.99
  21 -12   9  467.55   35.40
  15   6  -9  256.47   33.40
 -21  15  -9  197.88   29.40
   6 -21  -9  263.67   25.80
  15   6  -9  156.78   30.70
 -21  15  -9  222.48   34.20
   8  14  -9  633.04   50.19
   8  14  -9  651.23   40.70
  14 -22  -9  550.44   28.20
 -22   8  -9  459.95   53.89
  22  -8   9  515.15   36.60
  22  -8   9  532.45   55.79
  11  11  -9  865.41   43.50
  11 -22  -9  842.52   32.20
 -22  11  -9  774.92   59.39
  11  11  -9  700.73   54.29
 -22  14  -9  364.96   42.70
   8 -22  -9  298.87   26.70
  14   8  -9  351.26   35.70
  14   8  -9  259.97   35.50
  22 -14   9  310.67   40.60
   1  -1 -10   11.90   11.70
   0   1 -10    9.50   11.60
   0   1 -10    2.30   12.70
   1  -1 -10    8.40   10.60
  -1   0 -10    9.60   12.30
  -1   0 -10   20.10   12.00
  -1   1  10   22.50   13.50
   0  -1  10   28.10   15.10
   1   0  10   26.80   13.90
  -1   3 -10   14.00   12.80
  -2  -1 -10    8.80   11.10
  -2  -1 -10    0.90   12.20
  -1   3 -10   13.40   14.20
   3  -2 -10   18.70   11.70
   3  -2 -10   10.90    9.30
   2   1  10    0.30   13.40
   1  -3  10   37.60   16.40
   0  -2 -10  139.49   16.40
  -2   2 -10  134.09   18.30
   2   0 -10  127.79   17.00
   2   0 -10  145.39   18.60
   0  -2 -10  144.99   15.40
  -2   2 -10  134.19   17.10
   0   2  10   94.19   16.00
   2  -2  10  103.29   18.80
   5  -3 -10  701.43   30.80
  -2   5 -10  749.53   32.20
  -3  -2 -10  715.53   31.00
  -3  -2 -10  722.73   29.30
   5  -3 -10  701.83   21.50
  -2   5 -10  790.92   39.20
   3   2  10  601.04   31.00
   2  -5  10  451.35   59.79
   2  -3 -10   45.40   12.70
  -3   1 -10   36.20   14.10
  -3   1 -10   33.60   13.70
   1   2 -10   53.59   15.30
   1   2 -10   13.20   11.80
   2  -3 -10   28.80   10.30
   3  -1  10   33.90   16.30
  -1  -2  10   29.00   15.90
  -1  -3 -10  340.07   21.70
  -3   4 -10  405.96   26.70
   4  -1 -10  399.46   27.30
  -1  -3 -10  372.16   22.70
   4  -1 -10  388.86   19.60
  -3   4 -10  350.26   29.30
   3  -4  10  309.87   31.70
   1   3  10  292.47   23.70
  -4  -3 -10  338.97   26.70
  -3   7 -10  291.27   31.40
   7  -4 -10  333.07   24.10
  -3   7 -10  366.56   28.20
   7  -4 -10  309.47   14.80
   4   3  10  314.77   25.00
   3  -7  10  259.27   29.10
  -4   0 -10  545.15   28.80
   4  -4 -10  552.64   19.80
   0   4 -10  560.44   34.40
   4  -4 -10  543.65   25.40
  -4   0 -10  541.15   29.40
   0   4 -10  550.04   27.60
   0  -4  10  383.16   33.00
   4   0  10  421.46   30.10
   1  -4 -10  324.27   19.80
   3   1 -10  339.87   20.70
  -4   3 -10  307.37   26.30
   1  -4 -10  324.07   20.10
   3   1 -10  346.87   27.70
  -4   3 -10  262.37   26.90
   4  -3  10  278.97   30.90
  -2  -4 -10  141.19   17.40
   6  -2 -10  127.99   17.60
   6  -2 -10  145.59   14.60
  -4   6 -10  139.19   19.40
  -4   6 -10  141.09   21.50
   2   4  10  132.09   16.30
   4  -6  10  144.69   24.40
  -4   9 -10   67.59   17.10
  -4   9 -10   49.20   19.50
   9  -5 -10   52.29    8.20
  -5  -4 -10   56.99   17.30
   9  -5 -10   66.39   14.40
   5   4  10   49.90   14.10
   4  -9  10   46.70   21.90
  -1   6 -10   18.10   13.70
  -5  -1 -10    9.60   10.50
   6  -5 -10   43.00   11.40
  -1   6 -10   23.50   16.00
  -5  -1 -10   33.80   15.20
   5   1  10   11.20   14.50
   1  -6  10   -9.90   18.10
   2   3 -10  722.53   28.20
   3  -5 -10  701.93   22.50
  -5   2 -10  691.53   32.90
  -5   2 -10  702.83   33.80
   2   3 -10  721.03   38.30
   3  -5 -10  666.63   25.10
   5  -2  10  577.34   34.50
  -5   5 -10 1475.85   44.40
   5   0 -10 1415.56   33.30
   5   0 -10 1425.76   46.30
   0  -5 -10 1357.56   35.80
   0  -5 -10 1369.26   33.50
  -5   5 -10 1412.86   49.10
   5  -5  10 1098.29   78.09
   0   5  10 1368.96   35.00
  -3  -5 -10  253.67   24.90
   8  -3 -10  248.18   24.50
   8  -3 -10  233.98   15.60
  -5   8 -10  296.87   31.90
   3   5  10  313.67   22.20
   5  -8  10  328.47   37.60
  -5  11 -10  552.14   34.50
  11  -6 -10  510.25   16.40
  -6  -5 -10  561.14   35.40
  11  -6 -10  574.74   29.00
  -5  11 -10  567.74   41.50
   5 -11  10  481.25   43.00
   6   5  10  465.85   26.90
  -2   8 -10  869.91   36.20
  -6  -2 -10  852.31   37.30
   8  -6 -10  817.32   29.70
  -2   8 -10  805.32   42.80
   2  -8  10  860.61   46.20
   6   2  10  852.31   36.70
   1   5 -10   32.60   15.70
   5  -6 -10   21.70    9.60
   1   5 -10   11.50   12.80
  -6   1 -10   25.30   15.60
  -6   1 -10   14.60   13.30
   6  -1  10   19.10   14.90
  -1  -5  10    6.00   17.40
  -6   4 -10  149.99   20.60
   2  -6 -10  100.49   13.40
   4   2 -10  130.49   15.10
  -6   4 -10  156.78   20.70
   2  -6 -10  121.39   16.50
   6  -4  10  146.49   23.50
  -1  -6 -10  166.08   17.70
   7  -1 -10  140.29   20.00
   7  -1 -10  129.79   15.80
  -6   7 -10  171.18   23.70
  -6   7 -10  188.18   24.50
   1   6  10  169.48   17.20
   6  -7  10  157.18   24.70
  -6  10 -10  681.73   42.70
  10  -4 -10  666.23   32.90
  -4  -6 -10  660.13   33.60
  10  -4 -10  623.44   19.90
  -6  10 -10  646.94   36.10
   6 -10  10  689.53   46.40
   4   6  10  688.43   27.20
  -6  13 -10  491.25   43.00
  13  -7 -10  442.76   29.50
  -7  -6 -10  425.46   44.60
  -6  13 -10  431.46   35.60
   7   6  10  438.36   27.40
   6 -13  10  383.36   46.10
  -3  10 -10 1331.57   45.20
  -3  10 -10 1341.57   54.89
  10  -7 -10 1361.76   37.80
  -7  -3 -10 1313.27   46.60
   3 -10  10 1290.47   55.59
   7   3  10 1222.18   41.60
  -7   0 -10 1199.38   43.00
   0   7 -10 1238.78   49.90
   0   7 -10 1215.68   39.80
  -7   0 -10 1111.79   38.70
   7  -7 -10 1135.59   30.50
   0  -7  10 1080.79   49.20
   7   0  10 1010.30   41.30
   4  -7 -10  192.18   15.10
  -7   3 -10  185.98   22.30
   4  -7 -10  159.48   13.40
  -7   3 -10  182.98   25.30
   3   4 -10  194.48   21.00
   3   4 -10  181.88   23.20
   7  -3  10  225.18   25.90
   6   1 -10   38.10   29.30
  -7   6 -10   49.30   16.80
   1  -7 -10   57.59   12.90
   6   1 -10   77.29   12.50
  -7   6 -10   75.49   21.00
   7  -6  10   56.59   20.20
  -7   9 -10   91.19   19.20
  -7   9 -10   79.09   19.70
   9  -2 -10   89.39   17.40
  -2  -7 -10   79.69   15.80
   9  -2 -10  102.29   11.70
   7  -9  10   80.99   22.90
   2   7  10  104.29   12.20
  -7  12 -10   94.59   20.80
  12  -5 -10   98.69   10.70
  -5  -7 -10   75.89   19.70
  -7  12 -10  107.89   25.00
  12  -5 -10   94.69   18.10
   7 -12  10  117.99   26.40
   5   7  10  120.29   15.20
  -8  -7 -10  332.37   36.40
  -7  15 -10  429.86   38.30
  15  -8 -10  346.37   18.90
  15  -8 -10  388.66   30.40
  -7  15 -10  306.27   42.10
   7 -15  10  367.36   47.60
   7 -15  10  336.57   17.10
   8   7  10  396.86   27.70
  12  -8 -10  166.18   21.20
  -4  12 -10  192.28   24.30
  -8  -4 -10  238.78   27.40
  -4  12 -10  163.58   26.40
   8   4  10  200.88   26.10
   4 -12  10  279.87   34.40
  -8  -1 -10  457.75   33.70
  -1   9 -10  450.75   38.10
   9  -8 -10  406.86   20.60
  -1   9 -10  369.06   38.40
   8   1  10  366.76   30.90
   1  -9  10  315.87   38.00
   6  -8 -10  881.81   22.20
  -8   2 -10  989.80   40.60
   2   6 -10  976.00   44.70
   2   6 -10  877.51   33.60
   8  -2  10  914.91   41.80
   3  -8 -10  261.67   18.10
  -8   5 -10  325.37   30.20
   5   3 -10  241.08   29.30
   5   3 -10  285.07   21.40
   8  -5  10  337.87   35.30
   8   0 -10  375.86   20.50
   8   0 -10  265.67   35.80
   0  -8 -10  393.66   24.60
  -8   8 -10  415.36   32.20
  -8   8 -10  416.76   34.20
   8  -8  10  350.56   37.80
  -3  -8 -10  705.83   34.30
  11  -3 -10  665.63   23.00
  -8  11 -10  714.73   39.30
  11  -3 -10  729.93   37.70
  -8  11 -10  645.44   41.90
   3   8  10  676.73   22.80
   8 -11  10  743.03   47.60
  -6  -8 -10   57.39   21.80
  14  -6 -10   45.50   16.20
  -8  14 -10   29.00   21.90
  -8  14 -10   43.40   20.40
   6   8  10   26.80   12.10
   8 -14  10   19.90    8.10
   8 -14  10    2.70   24.20
  -8  17 -10  141.49   27.90
  17  -9 -10  139.49   21.60
  -9  -8 -10  140.29   27.60
  -8  17 -10  162.88   28.00
  17  -9 -10  164.18   19.20
   9   8  10  191.68   25.10
   8 -17  10  190.18   21.70
   8 -17  10  194.38   35.30
  14  -9 -10  293.67   24.60
  -5  14 -10  296.67   33.90
  -9  -5 -10  275.57   30.40
  -5  14 -10  276.57   33.30
   5 -14  10  349.17   39.30
   9   5  10  279.47   29.70
  -2  11 -10  210.28   27.40
  11  -9 -10  213.48   18.80
  -9  -2 -10  296.77   33.70
  -2  11 -10  234.28   28.50
   9   2  10  222.28   29.20
   2 -11  10  254.77   31.30
   1   8 -10  236.98   32.10
  -9   1 -10  280.37   30.10
   8  -9 -10  247.18   20.50
   1   8 -10  256.27   27.00
   9  -1  10  244.38   26.80
  -1  -8  10  220.48   28.70
   4   5 -10   24.40   13.00
  -9   4 -10   34.90   15.80
   4   5 -10   29.00   17.40
  -9   4 -10   40.60   17.50
   9  -4  10   48.00   19.70
  -9   7 -10  195.68   23.60
   7   2 -10  205.48   20.00
   2  -9 -10  187.08   19.60
  -9   7 -10  233.98   30.00
   7   2 -10  157.48   22.90
   9  -7  10  181.38   26.90
  -1  -9 -10  194.98   20.60
  10  -1 -10  202.48   24.00
  -9  10 -10  229.28   30.80
  -9  10 -10  203.88   26.10
  10  -1 -10  183.58   18.50
   9 -10  10  198.58   28.70
  -9  13 -10  645.34   41.20
  13  -4 -10  613.94   23.40
  -4  -9 -10  683.83   37.30
  -9  13 -10  628.74   44.50
   4   9  10  618.04   21.80
   9 -13  10  637.04   49.99
   9 -13  10  603.84   18.00
  16  -7 -10  377.16   21.70
  -9  16 -10  340.17   40.50
  -9  16 -10  459.45   45.60
  -7  -9 -10  425.76   39.30
  16  -7 -10  337.87   33.20
   9 -16  10  526.95   52.89
   9 -16  10  461.45   23.70
   7   9  10  430.26   25.30
  19 -10 -10  440.36   24.10
  16 -10 -10 1230.08   30.20
 -10  -6 -10 1301.27   56.09
  16 -10 -10 1324.17   42.20
  -6  16 -10 1388.86   63.29
  -6  16 -10 1340.87   53.59
   6 -16  10 1247.48   31.30
   6 -16  10 1256.67   64.89
  10   6  10 1309.67   44.90
  13 -10 -10 1444.66   36.60
 -10  -3 -10 1578.94   55.49
  -3  13 -10 1496.55   62.19
  -3  13 -10 1452.05   50.79
   3 -13  10 1623.34   67.19
  10   3  10 1587.44   50.69
   0  10 -10 1381.56   56.19
   0  10 -10 1465.65   47.20
 -10   0 -10 1415.16   51.59
  10   0  10 1341.77   49.60
   0 -10  10 1257.67   55.69
   3   7 -10 1352.66   41.40
 -10   3 -10 1390.46   48.80
   3   7 -10 1329.57   52.79
 -10   3 -10 1317.17   45.80
  10  -3  10 1109.99   50.19
 -10   6 -10  415.96   32.80
   6   4 -10  429.56   25.10
 -10   6 -10  473.25   34.80
   6   4 -10  399.46   34.50
   4 -10 -10  442.96   20.80
  10  -6  10  485.55   39.40
 -10   9 -10  108.29   20.90
 -10   9 -10  203.58   26.40
   9   1 -10  107.99   20.60
   9   1 -10  123.29   14.80
   1 -10 -10  104.29   16.30
  10  -9  10  104.69   25.00
  12  -2 -10   70.49   12.50
 -10  12 -10   64.89   22.30
  -2 -10 -10   66.39   19.10
 -10  12 -10   70.99   21.20
  12  -2 -10   84.69   20.20
  10 -12  10   35.80   23.20
 -10  15 -10  320.17   37.60
  -5 -10 -10  325.17   35.50
 -10  15 -10  216.08   29.70
  15  -5 -10  344.47   33.70
   5  10  10  255.07   17.10
  10 -15  10  317.97   40.60
  10 -15  10  245.78   19.80
  18  -8 -10  228.78   22.40
 -10  18 -10  187.08   31.70
  18  -8 -10  271.47   33.20
 -10  18 -10  277.97   32.80
  -8 -10 -10  332.67   42.00
  10 -18  10  278.37   40.30
   8  10  10  284.87   23.80
  10 -18  10  292.17   26.90
 -11  -7 -10  323.87   36.30
  18 -11 -10  270.87   28.50
  -7  18 -10  267.37   36.40
  -7  18 -10  222.18   31.00
  18 -11 -10  275.57   19.40
   7 -18  10  224.58   37.20
   7 -18  10  264.97   24.80
  11   7  10  307.47   31.50
 -11  -4 -10  372.06   41.10
  -4  15 -10  455.95   45.80
  15 -11 -10  419.36   23.90
  -4  15 -10  439.46   38.10
  11   4  10  422.46   33.70
   4 -15  10  436.46   50.09
  -1  12 -10  891.21   39.90
  -1  12 -10  781.42   48.30
 -11  -1 -10  815.02   44.50
  12 -11 -10  789.62   30.20
  11   1  10  774.82   41.30
   1 -12  10  761.62   50.29
 -11   2 -10  234.38   27.50
   2   9 -10  188.78   21.50
   2   9 -10  248.78   30.00
  11  -2  10  234.98   28.50
   5   6 -10  647.14   30.50
   5   6 -10  583.14   39.00
 -11   5 -10  584.94   34.80
 -11   5 -10  657.73   38.80
  11  -5  10  572.44   42.70
   3 -11 -10  774.92   28.50
 -11   8 -10  811.52   41.60
   8   3 -10  754.52   41.80
 -11   8 -10  799.12   42.00
   8   3 -10  812.32   30.30
  11  -8  10  869.81   48.40
 -11  11 -10   60.29   22.50
  11   0 -10   82.89   14.00
  11   0 -10   95.19   21.20
   0 -11 -10   75.19   17.40
 -11  11 -10   54.09   21.00
  11 -11  10  115.69   27.00
  -3 -11 -10  292.67   31.80
  14  -3 -10  313.27   21.70
 -11  14 -10  314.87   38.60
  14  -3 -10  255.57   28.10
 -11  14 -10  217.78   30.30
  11 -14  10  235.18   35.50
  11 -14  10  247.48   19.30
  17  -6 -10   58.79   20.50
 -11  17 -10   58.59   25.00
 -11  17 -10    3.80   23.60
  -6 -11 -10   33.20   24.10
   6  11  10   44.90   10.40
  11 -17  10   37.20   15.10
  11 -17  10    4.40   26.20
  17 -12 -10  123.09   12.70
  -5  17 -10  160.88   30.50
  17 -12 -10  138.99   17.50
  -5  17 -10  143.69   25.40
 -12  -5 -10  140.09   29.50
   5 -17  10  175.88   34.70
   5 -17  10  128.39   14.80
  12   5  10  175.68   23.10
   5 -17  10  130.29   14.40
  14 -12 -10  305.17   17.00
  -2  14 -10  300.27   41.60
  -2  14 -10  354.96   33.30
 -12  -2 -10  311.17   40.00
   2 -14  10  318.47   39.10
  12   2  10  262.47   32.80
   1  11 -10  779.32   47.40
 -12   1 -10  753.92   43.70
   1  11 -10  817.92   38.20
  12  -1  10  812.72   44.40
  -1 -11  10  840.32   51.59
   4   8 -10  104.39   22.50
 -12   4 -10  168.18   24.90
   4   8 -10  120.79   22.70
  12  -4  10  197.98   27.40
   7   5 -10   41.90   14.60
   7   5 -10   56.89   19.50
 -12   7 -10   26.30   16.40
 -12   7 -10   46.30   20.50
   5 -12 -10   24.10   11.80
  12  -7  10   23.10   22.10
   2 -12 -10   45.70   15.50
 -12  10 -10   40.40   18.60
  10   2 -10   39.30   13.80
 -12  10 -10   60.79   19.80
  10   2 -10   59.59   20.50
  12 -10  10   76.89   24.70
 -12  13 -10  133.29   25.80
  13  -1 -10  142.69   16.40
 -12  13 -10  134.99   27.50
  -1 -12 -10  180.48   22.90
  13  -1 -10  106.29   23.90
  12 -13  10  173.08   30.60
  12 -13  10  134.69   17.10
  -4 -12 -10   86.19   23.90
 -12  16 -10  125.39   27.10
  16  -4 -10   87.89   23.00
 -12  16 -10   58.19   24.90
  12 -16  10   62.89   15.10
  12 -16  10   90.39   30.70
  -3  16 -10 1174.48   49.90
 -13  -3 -10 1158.18   56.49
  -3  16 -10 1207.48   60.79
  16 -13 -10 1201.38   30.30
   3 -16  10 1067.39   61.99
   0  13 -10 2725.13   82.99
 -13   0 -10 2896.81   76.79
   0  13 -10 2890.61   68.89
   0 -13  10 2799.22   85.89
  13   0  10 2840.22   74.09
   3  10 -10 1494.85   60.99
   3  10 -10 1545.35   48.00
 -13   3 -10 1543.35   56.19
  13  -3  10 1556.54   57.79
 -13   6 -10  369.16   33.00
 -13   6 -10  388.06   37.20
   6   7 -10  346.07   36.90
  13  -6  10  372.46   40.60
 -13   9 -10  492.35   37.70
   9   4 -10  581.54   41.50
 -13   9 -10  593.24   40.30
   9   4 -10  545.15   28.50
   4 -13 -10  545.75   27.10
  13  -9  10  528.55   46.40
 -13  12 -10   46.00   22.60
   1 -13 -10   65.89   18.20
  12   1 -10   31.50   19.90
 -13  12 -10   71.79   23.70
  12   1 -10   75.09   15.30
  13 -12  10   50.19   11.60
  13 -12  10   93.49   25.40
  -2 -13 -10   46.50   23.70
 -13  15 -10   80.99   25.60
 -13  15 -10   62.79   25.40
  15  -2 -10    6.20   21.10
  13 -15  10   59.79   14.60
  13 -15  10   43.00   29.20
 -13  18 -10   61.99   26.70
  -5 -13 -10   89.69   26.30
 -13  18 -10   80.79   25.90
  18  -5 -10  126.79   25.00
  13 -18  10   67.69   31.70
  18 -14 -10  434.46   21.40
  -4  18 -10  433.56   41.50
  18 -14 -10  430.86   21.20
  -4  18 -10  381.76   47.70
 -14  -4 -10  419.66   49.90
  18 -14 -10  406.86   22.00
   4 -18  10  279.97   38.10
  14   4  10  354.06   38.80
   4 -18  10  319.57   21.50
   4 -18  10  349.57   22.50
 -14  -1 -10  466.05   45.30
  -1  15 -10  475.65   37.60
  -1  15 -10  345.17   45.00
  14   1  10  443.66   38.70
   1 -15  10  494.95   52.89
 -14   2 -10  377.46   41.40
   2  12 -10  427.06   34.40
   2  12 -10  504.85   45.00
  14  -2  10  518.25   41.80
   5   9 -10  297.07   37.70
   5   9 -10  310.57   29.10
 -14   5 -10  278.07   31.10
  14  -5  10  366.36   40.90
   8   6 -10   34.50   25.90
   8   6 -10   42.40   21.70
 -14   8 -10   15.30   21.10
 -14   8 -10    5.40   17.90
  14  -8  10   -5.20   22.50
 -14  11 -10  418.96   40.10
 -14  11 -10  281.17   36.60
   3 -14 -10  347.57   28.40
  11   3 -10  357.26   27.00
  11   3 -10  424.26   39.60
  14 -11  10  292.37   37.20
  14 -11  10  317.87   20.30
 -14  14 -10  200.28   29.20
 -14  14 -10  199.68   31.10
   0 -14 -10  227.48   25.60
  14   0 -10  199.88   27.30
  14   0 -10  191.48   24.50
  14 -14  10  226.08   35.30
  14 -14  10  220.28   22.90
  -3 -14 -10   60.09   24.50
 -14  17 -10   24.60   24.80
 -14  17 -10   50.99   26.90
  17  -3 -10   55.09   23.30
  14 -17  10   42.80   31.70
  -2  17 -10  212.68   29.80
  17 -15 -10  273.27   17.50
  -2  17 -10  311.47   38.30
 -15  -2 -10  303.27   37.00
   2 -17  10  251.17   17.80
   2 -17  10  307.97   39.30
   2 -17  10  306.17   17.20
  15   2  10  304.17   39.90
   1  14 -10  340.77   39.40
 -15   1 -10  475.35   44.50
   1  14 -10  428.86   37.20
  15  -1  10  410.76   40.70
   4  11 -10  337.27   42.70
 -15   4 -10  429.86   42.50
   4  11 -10  387.86   33.70
  15  -4  10  347.17   40.70
   7   8 -10  340.27   40.00
   7   8 -10  315.87   28.80
   8 -15 -10  287.77   14.80
 -15   7 -10  337.37   38.90
  15  -7  10  300.37   42.30
  10   5 -10  229.98   26.20
 -15  10 -10  214.48   28.30
 -15  10 -10  219.48   29.90
  10   5 -10  251.37   31.00
   5 -15 -10  251.07   17.60
  15 -10  10  220.48   19.80
  15 -10  10  230.08   34.20
 -15  13 -10   75.59   24.50
  13   2 -10   74.39   17.10
   2 -15 -10   52.49   20.10
 -15  13 -10   61.99   25.20
  13   2 -10   35.40   23.30
  15 -13  10   12.20   25.90
 -15  16 -10   89.99   28.40
 -15  16 -10   96.39   28.70
  -1 -15 -10  121.09   25.90
  16  -1 -10   52.69   24.40
  15 -16  10   86.69   31.00
  15 -16  10  111.79   25.20
  16 -16 -10 1157.08   27.40
   0  16 -10 1178.88   49.80
 -16   0 -10 1153.48   58.69
   0  16 -10 1122.99   59.39
  16   0  10 1317.47   57.59
   3  13 -10 1353.86   50.19
   3  13 -10 1187.88   61.09
  13 -16 -10 1264.97   26.80
 -16   3 -10 1300.87   59.29
  16  -3  10 1216.68   56.49
   6  10 -10 1087.99   42.90
  10 -16 -10 1037.00   25.10
   6  10 -10 1070.49   55.99
 -16   6 -10 1123.89   53.99
  16  -6  10 1075.99   55.69
   9   7 -10  253.57   29.30
   9   7 -10  268.27   33.70
   7 -16 -10  229.88   16.30
 -16   9 -10  227.18   31.50
 -16   9 -10  283.07   36.90
  16  -9  10  299.47   21.70
  16  -9  10  365.86   47.20
 -16  12 -10   66.59   22.40
   4 -16 -10  101.29   13.50
  12   4 -10   80.09   24.40
   4 -16 -10   65.29   19.50
 -16  12 -10  125.49   27.90
  12   4 -10  140.69   19.80
  16 -12  10   87.29   30.90
  16 -12  10   94.59   16.10
   1 -16 -10   80.89   16.00
  15   1 -10   65.89   18.20
  15   1 -10   50.59   25.10
   1 -16 -10   51.99   23.00
 -16  15 -10  114.39   26.90
 -16  15 -10   62.69   27.10
  16 -15  10   53.29   31.00
 -17   2 -10  306.07   38.00
   2  15 -10  377.36   38.50
  15 -17 -10  325.97   17.20
   2  15 -10  375.86   47.90
  17  -2  10  356.56   45.10
 -17   5 -10  193.28   31.00
  12 -17 -10  158.88   14.40
   5  12 -10  177.28   24.70
   5  12 -10  188.58   33.10
  17  -5  10  159.08   30.40
   8   9 -10   80.39   25.40
   8   9 -10   87.79   20.60
 -17   8 -10   40.60   26.30
   9 -17 -10  130.49   15.30
  17  -8  10   94.39   29.10
  11   6 -10   52.39   25.80
  11   6 -10   69.69   18.40
   6 -17 -10   66.09   12.40
 -17  11 -10   60.39   23.00
 -17  11 -10   58.19   26.80
  17 -11  10   58.29   15.50
  17 -11  10  100.59   32.50
  14   3 -10  103.29   19.80
  14   3 -10   72.69   25.60
 -17  14 -10   85.09   25.60
 -17  14 -10  119.49   30.50
   3 -17 -10   81.29   15.00
   3 -17 -10   85.69   23.00
  17 -14  10   69.09   32.30
  14 -18 -10  222.58   17.20
 -18   4 -10  232.48   34.70
   4  14 -10  248.88   34.50
   4  14 -10  295.87   36.70
  18  -4  10  200.88   32.20
  11 -18 -10  275.07   17.10
   7  11 -10  307.37   34.60
   7  11 -10  237.38   32.90
 -18   7 -10  307.67   37.30
  18  -7  10  231.38   34.80
  10   8 -10  184.68   31.90
  10   8 -10  145.29   22.60
   8 -18 -10  164.18   17.90
 -18  10 -10  176.08   32.60
  18 -10  10  170.08   34.90
  18 -10  10  177.88   20.20
 -18  13 -10   55.09   23.70
   5 -18 -10   71.89   14.00
 -18  13 -10   68.79   28.20
  13   5 -10   51.39   19.30
  13   5 -10  102.29   28.10
  18 -13  10  103.69   29.90
  18 -13  10   -0.20   28.80
  19  -9  10  345.87   29.20
  -1   1 -11   16.80   17.20
  -1   1 -11   22.00   14.90
   0  -1 -11   17.50   13.60
   1   0 -11   20.30   13.90
   0  -1 -11    7.10   13.70
   1   0 -11   14.20   14.70
   1  -1  11  -22.70   15.50
   0   1  11  -22.40   13.50
   0   2 -11    5.80   14.40
   2  -2 -11   17.20   13.20
  -2   0 -11   25.40   15.00
  -2   0 -11   13.00   15.80
   2  -2 -11   14.00   12.40
   0   2 -11   20.10   16.50
   2   0  11   11.90   16.30
   0  -2  11   12.20   16.90
   3  -1 -11   33.20   12.70
  -2   3 -11   30.80   18.00
  -1  -2 -11   24.70   15.30
   3  -1 -11   40.90   16.10
  -1  -2 -11   43.30   13.30
  -2   3 -11   20.90   16.40
   2  -3  11   -7.50   18.90
   1   2  11   17.30   14.20
  -3  -1 -11   -5.70   12.40
  -3  -1 -11   -4.80   15.50
  -1   4 -11   -4.00   15.00
   4  -3 -11  -16.10   12.80
  -1   4 -11  -10.50   16.20
   4  -3 -11    0.40   10.70
   1  -4  11    9.00   19.10
   3   1  11    3.60   14.70
   2   1 -11   21.00   20.30
   2   1 -11   19.90   14.10
  -3   2 -11   13.20   16.90
   1  -3 -11   24.00   13.10
  -3   2 -11   14.90   16.40
   1  -3 -11   33.40   12.80
   3  -2  11  -16.70   16.10
  -3   5 -11   63.29   20.10
  -2  -3 -11   56.89   13.70
  -2  -3 -11   58.29   17.30
  -3   5 -11   53.59   18.20
   5  -2 -11   79.79   12.60
   5  -2 -11   71.79   16.90
   2   3  11   48.90   14.70
   3  -5  11   32.50   20.50
  -2   6 -11  115.59   22.60
   6  -4 -11  104.89   17.40
  -4  -2 -11   97.69   19.80
   6  -4 -11   99.29   12.30
  -2   6 -11   96.39   24.20
   2  -6  11   93.49   25.30
   4   2  11   97.39   18.30
  -4   1 -11    8.30   16.00
   1   3 -11   -4.70   13.40
   3  -4 -11    8.90   11.50
   1   3 -11    1.80   17.10
   3  -4 -11    7.00   12.40
   4  -1  11  -37.30   15.50
  -4   4 -11   17.90   16.00
   0  -4 -11  -10.10   10.70
   4   0 -11   45.20   29.00
  -4   4 -11  -23.00   15.50
   0  -4 -11  -10.70   13.80
   4   0 -11   19.90   12.30
   4  -4  11  -15.60   18.80
  -4   7 -11  152.78   24.40
   7  -3 -11  143.29   19.90
  -4   7 -11  166.08   23.10
   7  -3 -11  151.68   16.90
  -3  -4 -11  167.68   21.70
   4  -7  11  120.09   25.40
   3   4  11  172.28   19.50
  -3   8 -11  293.87   31.80
  -5  -3 -11  250.17   31.50
   8  -5 -11  207.98   24.50
   8  -5 -11  221.48   15.70
  -3   8 -11  266.67   30.90
   3  -8  11  233.18   31.90
   5   3  11  219.48   27.20
  -5   0 -11  -10.00   15.80
   0   5 -11   10.20   14.80
   0   5 -11   -5.20   17.30
   5  -5 -11   -6.60   11.40
   5  -5 -11   14.20   10.20
  -5   0 -11  -16.80   13.20
   0  -5  11  -10.60   18.90
   5   0  11   21.40   16.90
  -5   3 -11   73.79   19.00
   3   2 -11   63.99   19.20
  -5   3 -11   87.49   19.30
   2  -5 -11   46.50   13.80
   3   2 -11   71.99   15.40
   2  -5 -11   50.69   11.50
   5  -3  11   54.99   20.90
  -5   6 -11  179.18   23.50
  -1  -5 -11  194.48   20.80
   6  -1 -11  206.28   28.80
  -5   6 -11  157.78   24.70
   6  -1 -11  183.38   19.50
   5  -6  11  174.98   27.30
   1   5  11  148.89   16.30
   9  -4 -11  686.53   22.60
  -5   9 -11  791.82   46.50
  -4  -5 -11  716.73   38.00
   9  -4 -11  719.93   36.10
  -5   9 -11  691.23   40.90
   4   5  11  636.04   29.70
   5  -9  11  649.54   49.40
  -4  10 -11  126.79   27.80
  -4  10 -11   32.10   19.50
  10  -6 -11   55.09   16.10
   6   4  11   77.49   17.10
   4 -10  11   47.70   25.60
  -1   7 -11  238.58   24.70
  -1   7 -11  275.37   31.10
  -6  -1 -11  240.88   32.70
   7  -6 -11  215.98   21.40
   6   1  11  200.18   24.00
   1  -7  11  216.18   30.00
   2   4 -11  183.68   20.50
  -6   2 -11  192.48   22.40
   2   4 -11  174.68   24.30
   4  -6 -11  160.08   17.90
   4  -6 -11  187.08   18.10
   6  -2  11  166.68   40.80
   1  -6 -11  182.58   22.40
   5   1 -11  174.28   24.20
   5   1 -11  163.38   21.60
  -6   5 -11  180.78   24.60
  -6   5 -11  175.48   23.20
   6  -5  11  151.28   27.00
  -6   8 -11  457.15   39.80
   8  -2 -11  520.85   36.30
   8  -2 -11  475.15   22.50
  -6   8 -11  530.55   37.70
  -2  -6 -11  492.75   32.10
   6  -8  11  452.05   44.80
   2   6  11  409.46   22.40
  11  -5 -11  940.01   39.50
  11  -5 -11  925.31   24.90
  -5  -6 -11  945.31   63.89
  -6  11 -11  965.50   46.60
  -6  11 -11  974.30   53.29
   5   6  11  855.01   32.60
   6 -11  11  880.21   56.49
  -7  -5 -11  686.83   44.20
  -5  12 -11  679.23   44.20
  12  -7 -11  660.53   33.10
  -5  12 -11  803.32   52.29
   5 -12  11  620.54   52.89
   7   5  11  603.04   32.50
   9  -7 -11  630.44   28.30
  -2   9 -11  680.03   38.20
  -2   9 -11  698.63   47.10
  -7  -2 -11  695.33   41.40
   7   2  11  586.44   35.60
   2  -9  11  594.44   47.90
   1   6 -11  402.66   29.90
   6  -7 -11  363.06   19.90
  -7   1 -11  357.26   33.40
   1   6 -11  341.07   37.50
   7  -1  11  354.16   34.60
   4   3 -11  129.19   24.20
   4   3 -11  131.59   18.00
  -7   4 -11  142.39   22.70
   3  -7 -11  143.29   19.20
  -7   4 -11  146.39   22.60
   7  -4  11  183.28   27.40
   0  -7 -11  -32.60   14.00
  -7   7 -11   -0.50   19.60
   7   0 -11   21.80   17.80
  -7   7 -11   26.50   19.70
   7   0 -11   16.40   11.80
   7  -7  11   11.10   21.60
  -7  10 -11   49.30   24.30
  -3  -7 -11   54.79   19.70
  10  -3 -11   90.29   12.70
  -7  10 -11   76.99   23.30
   3   7  11   77.19   12.60
   7 -10  11   62.19   27.40
  13  -6 -11   -6.00   16.50
  -6  -7 -11   22.20   22.90
  13  -6 -11   49.40   10.30
  -7  13 -11    8.70   22.40
  -7  13 -11   40.20   26.20
   7 -13  11   23.30   29.00
   6   7  11   40.30   13.50
  -8  -6 -11  344.87   35.70
   8   6  11  371.16   29.20
  -8  -3 -11  295.17   38.20
  11  -8 -11  230.78   23.10
  -3  11 -11  249.58   33.50
  -3  11 -11  213.88   33.20
   8   3  11  288.77   31.70
   3 -11  11  230.18   35.90
  -8   0 -11   -0.80   19.10
   0   8 -11    1.30   15.80
   8  -8 -11    3.50    9.40
   0   8 -11    5.40   20.60
   8   0  11  -12.10   17.30
   0  -8  11   -7.10   21.70
   3   5 -11  231.68   28.80
   5  -8 -11  255.37   18.30
  -8   3 -11  249.88   27.50
   3   5 -11  227.98   27.90
  -8   3 -11  263.97   31.20
   8  -3  11  218.88   28.40
  -8   6 -11  661.73   40.80
   6   2 -11  688.53   29.50
   2  -8 -11  656.23   28.60
   6   2 -11  687.03   41.50
  -8   6 -11  710.33   42.80
   8  -6  11  598.54   44.80
   9  -1 -11  987.80   30.70
  -1  -8 -11  998.50   39.10
  -8   9 -11 1056.29   48.70
  -8   9 -11 1011.70   51.39
   9  -1 -11  979.40   45.10
   8  -9  11 1101.09   57.49
  -8  12 -11  665.93   44.90
  -4  -8 -11  746.73   49.30
  12  -4 -11  583.64   46.60
  12  -4 -11  705.93   24.50
  -8  12 -11  682.63   49.70
   8 -12  11  717.03   57.49
   4   8  11  691.33   23.50
  -9  -4 -11   19.00   24.20
  -4  13 -11   23.60   26.10
  13  -9 -11   15.80   13.60
  -4  13 -11   16.10   21.00
   4 -13  11   26.00   30.60
   9   4  11   12.80   16.70
  -1  10 -11  296.57   35.30
  -9  -1 -11  363.56   38.50
  10  -9 -11  317.37   18.50
  -1  10 -11  299.97   33.60
   1 -10  11  280.67   35.30
   9   1  11  263.27   32.90
  -9   2 -11  799.22   43.10
   2   7 -11  788.42   37.50
   2   7 -11  756.42   46.90
   9  -2  11  745.93   44.10
   5   4 -11  646.34   42.90
   5   4 -11  701.83   32.30
  -9   5 -11  638.04   41.90
  -9   5 -11  693.73   40.70
   4  -9 -11  684.63   26.00
   9  -5  11  711.13   46.20
   8   1 -11 1071.39   49.50
   1  -9 -11 1095.39   37.10
  -9   8 -11 1267.67   54.09
  -9   8 -11 1159.58   50.59
   8   1 -11 1153.88   34.80
   9  -8  11 1133.49   57.29
  -9  11 -11  732.63   46.80
  -2  -9 -11  735.23   38.00
  -9  11 -11  687.63   49.20
  11  -2 -11  751.42   27.90
  11  -2 -11  719.53   42.40
   9 -11  11  748.13   54.69
 -10  -2 -11  322.27   33.70
  -2  12 -11  295.07   37.00
  -2  12 -11  246.48   32.80
  12 -10 -11  278.17   17.40
   2 -12  11  223.88   34.90
  10   2  11  263.17   28.20
   1   9 -11  367.76   32.40
   1   9 -11  293.67   40.90
 -10   1 -11  308.87   37.70
  10  -1  11  340.67   36.10
 -10   4 -11   44.50   22.20
 -10   4 -11   10.80   17.80
   4   6 -11   24.80   21.00
  10  -4  11   48.00   22.20
   7   3 -11   40.50   21.10
 -10   7 -11   44.70   22.00
   3 -10 -11   44.70   14.90
 -10   7 -11   32.30   22.90
   7   3 -11   67.49   16.00
  10  -7  11   51.89   24.50
 -10  10 -11   10.20   22.10
  10   0 -11  -21.50   19.00
   0 -10 -11   20.00   17.00
  10   0 -11    4.40   13.40
 -10  10 -11   35.10   22.60
  10 -10  11   25.30   25.50
 -10  13 -11   24.40   24.20
 -10  13 -11   13.10   25.40
  13  -3 -11   49.10   13.10
  13  -3 -11   61.29   21.60
  10 -13  11   60.29   31.10
   0  11 -11  -27.40   23.50
 -11   0 -11   32.50   24.00
   0  11 -11  -11.00   18.70
   0 -11  11    5.30   26.60
  11   0  11    8.40   20.90
 -11   3 -11  218.98   29.10
   3   8 -11  168.08   28.10
   3   8 -11  233.58   30.40
  11  -3  11  197.68   28.10
   6   5 -11  802.32   47.80
 -11   6 -11  706.23   42.70
 -11   6 -11  751.22   46.60
   6   5 -11  738.63   38.90
   5 -11 -11  711.93   26.90
  11  -6  11  746.23   48.50
 -11   9 -11  798.22   47.70
 -11   9 -11  791.02   48.40
   9   2 -11  761.02   46.50
   9   2 -11  766.32   32.40
   2 -11 -11  752.62   33.70
  11  -9  11  746.33   52.59
  12  -1 -11 1278.07   37.20
  -1 -11 -11 1263.77   47.60
 -11  12 -11 1294.57   57.29
 -11  12 -11 1273.87   62.09
  12  -1 -11 1256.67   54.69
  11 -12  11 1165.48   64.89
   2  10 -11  277.77   33.30
   2  10 -11  271.77   33.50
 -12   2 -11  378.46   42.90
  12  -2  11  244.28   31.20
   5   7 -11  730.93   37.20
 -12   5 -11  720.93   42.50
 -12   5 -11  676.93   47.20
   5   7 -11  641.84   47.70
  12  -5  11  624.44   47.30
 -12   8 -11  732.83   46.90
   8   4 -11  808.82   36.10
 -12   8 -11  899.51   50.69
   8   4 -11  905.41   50.89
   4 -12 -11  875.71   31.70
  12  -8  11  859.41   54.79
  11   1 -11 1259.27   39.10
  11   1 -11 1250.07   55.89
 -12  11 -11 1296.67   59.99
 -12  11 -11 1261.57   56.89
   1 -12 -11 1225.88   43.50
  12 -11  11 1226.08   64.99
   4   9 -11   17.50   23.30
 -13   4 -11   74.99   26.10
   4   9 -11   65.69   20.00
  13  -4  11   43.80   25.20
   7   6 -11   58.79   18.90
   7   6 -11   26.00   23.70
 -13   7 -11   10.50   20.00
   6 -13 -11   36.40   13.20
 -13   7 -11   -2.00   24.80
  13  -7  11   20.80   23.50
   3 -13 -11   42.90   17.20
  10   3 -11   38.90   20.20
 -13  10 -11   25.10   24.90
  10   3 -11   58.59   24.30
 -13  10 -11   28.50   22.40
  13 -10  11   83.29   29.60
   6   8 -11  518.45   48.50
  14  -6  11  488.55   49.70
   0   0 -12 1785.02   49.00
   0   0 -12 1764.02   55.89
  -1  -1 -12  425.96   32.90
   2  -1 -12  396.86   28.40
   2  -1 -12  428.46   39.20
  -1   2 -12  391.46   37.50
  -1   2 -12  341.27   33.70
  -1  -1 -12  412.26   32.50
   1   1  12  389.66   33.00
   1  -2  12  481.15   38.70
  -2   1 -12  381.56   35.90
   1  -2 -12  403.56   31.30
   1   1 -12  348.97   35.90
   1   1 -12  321.07   30.20
  -2   1 -12  360.66   33.60
   1  -2 -12  331.07   28.10
   2  -1  12  425.36   37.50
  -2  -2 -12  240.78   27.30
  -2  -2 -12  260.97   31.80
   4  -2 -12  232.38   30.60
   4  -2 -12  313.97   24.10
  -2   4 -12  300.17   34.50
  -2   4 -12  295.27   38.00
   2   2  12  328.17   30.40
   2  -4  12  320.37   39.60
   3  -3 -12 1213.88   35.80
   0   3 -12 1193.38   52.59
   0   3 -12 1269.87   44.90
   3  -3 -12 1203.78   42.40
  -3   0 -12 1183.38   45.50
  -3   0 -12 1246.48   46.70
   3   0  12 1296.27   49.40
   3   0 -12 1287.27   50.19
   3   0 -12 1255.07   38.90
   0  -3 -12 1325.17   41.80
  -3   3 -12 1284.37   53.49
  -3   3 -12 1253.47   47.10
   0  -3 -12 1256.37   40.60
   3  -3  12 1329.77   54.59
  -4   2 -12  369.36   37.30
   2  -4 -12  388.46   26.20
   2  -4 -12  372.26   26.70
   2   2 -12  386.96   39.90
   2   2 -12  417.86   30.80
  -4   2 -12  411.16   36.80
   4  -2  12  418.26   38.60
   0   0   0    0.00    0.00

_computing_structure_solution     'SHELXT 2014/5 (Sheldrick, 2014)'
;
_shelx_hkl_checksum              88381
_olex2_submission_special_instructions 'No special instructions were received'
loop_
_space_group_symop_operation_xyz
'x, y, z'
'-y, x-y, z'
'-x+y, -x, z'
'x+2/3, y+1/3, z+1/3'
'-y+2/3, x-y+1/3, z+1/3'
'-x+y+2/3, -x+1/3, z+1/3'
'x+1/3, y+2/3, z+2/3'
'-y+1/3, x-y+2/3, z+2/3'
'-x+y+1/3, -x+2/3, z+2/3'
loop_
_atom_site_label
_atom_site_type_symbol
_atom_site_fract_x
_atom_site_fract_y
_atom_site_fract_z
_atom_site_U_iso_or_equiv
_atom_site_adp_type
_atom_site_occupancy
_atom_site_site_symmetry_order
_atom_site_calc_flag
_atom_site_refinement_flags_posn
_atom_site_refinement_flags_adp
_atom_site_refinement_flags_occupancy
_atom_site_disorder_assembly
_atom_site_disorder_group
Zn2 Zn 0.66319(4) 0.64215(4) 0.03334(8) 0.0169(3) Uani 1 1 d . . . . .
Zn1 Zn 0.32823(4) 0.35285(4) -0.13413(8) 0.0175(3) Uani 1 1 d . . . . .
O4 O 0.9158(2) 0.6357(3) 0.2171(6) 0.0231(14) Uani 1 1 d . . . . .
O2 O 0.5931(3) 0.6646(3) 0.2319(6) 0.0247(15) Uani 1 1 d . . . . .
O5 O 0.9299(3) 0.5969(3) 0.3925(6) 0.0238(14) Uani 1 1 d . . . . .
O1 O 0.5847(3) 0.6145(3) 0.0545(7) 0.0257(14) Uani 1 1 d . . . . .
O3 O 0.4615(3) 0.5452(3) 0.2938(7) 0.0386(19) Uani 1 1 d . . . . .
N6 N 0.8047(3) 0.5664(3) 0.2542(7) 0.0222(16) Uani 1 1 d . . . . .
H6 H 0.7971 0.5687 0.1713 0.027 Uiso 1 1 calc R . . . .
O6 O 0.7873(3) 0.5740(4) 0.4669(7) 0.0385(19) Uani 1 1 d . . . . .
N3 N 0.4718(3) 0.5708(3) 0.0816(8) 0.0218(16) Uani 1 1 d . . . . .
H3 H 0.4615 0.5603 0.0001 0.026 Uiso 1 1 calc R . . . .
N5 N 0.6892(3) 0.6359(3) 0.3148(7) 0.0241(17) Uani 1 1 d . . . . .
N4 N 0.6953(3) 0.6262(3) 0.1861(7) 0.0216(17) Uani 1 1 d . . . . .
N2 N 0.3589(3) 0.3865(3) 0.1446(8) 0.0222(16) Uani 1 1 d . . . . .
N1 N 0.3615(3) 0.4017(3) 0.0172(7) 0.0231(17) Uani 1 1 d . . . . .
C3 C 0.4131(4) 0.4765(4) 0.1347(8) 0.0201(18) Uani 1 1 d . . . . .
C4 C 0.4507(4) 0.5332(4) 0.1763(9) 0.0226(19) Uani 1 1 d . . . . .
C10 C 0.7430(4) 0.6003(4) 0.3064(9) 0.0228(19) Uani 1 1 d . . . . .
C12 C 0.8432(4) 0.5486(4) 0.2856(9) 0.026(2) Uani 1 1 d . . . . .
H12 H 0.8320 0.5274 0.3695 0.031 Uiso 1 1 calc R . . . .
C9 C 0.7179(4) 0.6205(4) 0.3867(9) 0.027(2) Uani 1 1 d . . . . .
H9 H 0.7208 0.6228 0.4798 0.032 Uiso 1 1 calc R . . . .
C5 C 0.5109(4) 0.6285(4) 0.1055(10) 0.026(2) Uani 1 1 d . . . . .
H5 H 0.5153 0.6468 0.0185 0.031 Uiso 1 1 calc R . . . .
C6 C 0.5668(4) 0.6358(4) 0.1359(8) 0.0189(18) Uani 1 1 d . . . . .
C1 C 0.3890(4) 0.4301(4) 0.2148(9) 0.025(2) Uani 1 1 d . . . . .
H1 H 0.3938 0.4303 0.3073 0.030 Uiso 1 1 calc R . . . .
C13 C 0.9005(3) 0.5980(4) 0.3011(8) 0.0179(18) Uani 1 1 d . . . . .
C11 C 0.7801(4) 0.5798(4) 0.3492(9) 0.024(2) Uani 1 1 d . . . . .
C2 C 0.3940(4) 0.4559(4) 0.0113(9) 0.025(2) Uani 1 1 d . . . . .
H2 H 0.4027 0.4772 -0.0667 0.030 Uiso 1 1 calc R . . . .
C8 C 0.7270(4) 0.6044(4) 0.1807(9) 0.024(2) Uani 1 1 d . . . . .
H8 H 0.7372 0.5932 0.1027 0.028 Uiso 1 1 calc R . . . .
C14 C 0.8447(4) 0.5131(4) 0.1765(12) 0.034(2) Uani 1 1 d . . . . .
H14A H 0.8076 0.4833 0.1588 0.051 Uiso 1 1 calc GR . . . .
H14B H 0.8678 0.4980 0.2032 0.051 Uiso 1 1 calc GR . . . .
H14C H 0.8598 0.5352 0.0968 0.051 Uiso 1 1 calc GR . . . .
C7 C 0.4905(6) 0.6562(6) 0.1965(15) 0.056(4) Uani 1 1 d . . . . .
H7A H 0.4562 0.6520 0.1623 0.084 Uiso 1 1 calc GR . . . .
H7B H 0.5178 0.6951 0.2027 0.084 Uiso 1 1 calc GR . . . .
H7C H 0.4842 0.6395 0.2839 0.084 Uiso 1 1 calc GR . . . .
loop_
_atom_site_aniso_label
_atom_site_aniso_U_11
_atom_site_aniso_U_22
_atom_site_aniso_U_33
_atom_site_aniso_U_23
_atom_site_aniso_U_13
_atom_site_aniso_U_12
Zn2 0.0210(5) 0.0223(6) 0.0078(5) 0.0006(4) 0.0002(4) 0.0112(4)
Zn1 0.0209(5) 0.0206(5) 0.0087(5) -0.0003(4) 0.0005(4) 0.0087(4)
O4 0.018(3) 0.030(3) 0.017(3) 0.007(3) 0.001(2) 0.008(3)
O2 0.033(4) 0.032(4) 0.014(3) -0.005(3) -0.007(3) 0.020(3)
O5 0.032(4) 0.028(3) 0.014(3) -0.004(2) -0.005(3) 0.017(3)
O1 0.020(3) 0.033(4) 0.020(3) -0.009(3) -0.003(3) 0.010(3)
O3 0.048(5) 0.031(4) 0.013(3) -0.003(3) -0.011(3) 0.001(3)
N6 0.023(4) 0.032(4) 0.010(3) 0.000(3) -0.002(3) 0.013(3)
O6 0.049(5) 0.076(6) 0.013(3) 0.001(3) -0.003(3) 0.047(4)
N3 0.021(4) 0.024(4) 0.014(4) -0.003(3) 0.000(3) 0.007(3)
N5 0.032(4) 0.034(4) 0.009(4) -0.002(3) 0.001(3) 0.018(4)
N4 0.025(4) 0.035(4) 0.008(4) 0.001(3) 0.002(3) 0.016(4)
N2 0.030(4) 0.028(4) 0.012(4) 0.002(3) 0.002(3) 0.017(4)
N1 0.030(4) 0.025(4) 0.012(4) 0.000(3) 0.001(3) 0.011(3)
C3 0.019(4) 0.026(5) 0.012(4) -0.001(3) 0.000(3) 0.009(4)
C4 0.023(5) 0.026(5) 0.015(5) -0.002(4) -0.001(3) 0.010(4)
C10 0.023(5) 0.031(5) 0.014(4) 0.003(4) -0.001(3) 0.013(4)
C12 0.030(5) 0.028(5) 0.017(5) 0.005(4) 0.001(4) 0.013(4)
C9 0.034(5) 0.041(6) 0.011(4) -0.005(4) -0.004(4) 0.024(5)
C5 0.023(5) 0.025(5) 0.026(5) 0.000(4) 0.004(4) 0.009(4)
C6 0.020(4) 0.020(4) 0.013(4) 0.004(3) 0.002(3) 0.008(4)
C1 0.033(5) 0.029(5) 0.008(4) 0.000(4) -0.003(4) 0.013(4)
C13 0.020(4) 0.028(5) 0.012(4) -0.002(3) 0.001(3) 0.016(4)
C11 0.021(4) 0.036(5) 0.014(5) -0.001(4) -0.004(4) 0.014(4)
C2 0.024(5) 0.025(5) 0.016(5) 0.000(4) -0.002(4) 0.005(4)
C8 0.031(5) 0.040(5) 0.009(4) 0.001(4) -0.001(4) 0.024(4)
C14 0.034(6) 0.032(5) 0.040(6) -0.012(5) -0.008(5) 0.019(5)
C7 0.047(8) 0.062(9) 0.064(9) -0.016(7) -0.005(7) 0.032(7)
loop_
_atom_type_symbol
_atom_type_description
_atom_type_scat_dispersion_real
_atom_type_scat_dispersion_imag
_atom_type_scat_source
C C 0.0033 0.0016 'International Tables Vol C Tables 4.2.6.8 and 6.1.1.4'
H H 0.0000 0.0000 'International Tables Vol C Tables 4.2.6.8 and 6.1.1.4'
N N 0.0061 0.0033 'International Tables Vol C Tables 4.2.6.8 and 6.1.1.4'
O O 0.0106 0.0060 'International Tables Vol C Tables 4.2.6.8 and 6.1.1.4'
Zn Zn 0.2839 1.4301 'International Tables Vol C Tables 4.2.6.8 and 6.1.1.4'
loop_
_geom_angle_atom_site_label_1
_geom_angle_atom_site_label_2
_geom_angle_atom_site_label_3
_geom_angle
_geom_angle_site_symmetry_1
_geom_angle_site_symmetry_3
_geom_angle_publ_flag
O2 Zn2 N5 113.8(3) 8_654 8_654 ?
O1 Zn2 O2 105.3(3) . 8_654 ?
O1 Zn2 N5 107.4(3) . 8_654 ?
O1 Zn2 N4 112.5(3) . . ?
N4 Zn2 O2 101.3(3) . 8_654 ?
N4 Zn2 N5 116.1(3) . 8_654 ?
O4 Zn1 O5 104.0(3) 7_444 6_564 ?
O4 Zn1 N2 106.5(3) 7_444 9_554 ?
O5 Zn1 N2 111.8(3) 6_564 9_554 ?
N1 Zn1 O4 114.1(3) . 7_444 ?
N1 Zn1 O5 102.7(3) . 6_564 ?
N1 Zn1 N2 117.1(3) . 9_554 ?
C13 O4 Zn1 117.5(6) . 4 ?
C6 O2 Zn2 140.9(6) . 6_565 ?
C13 O5 Zn1 142.5(6) . 8_655 ?
C6 O1 Zn2 121.5(6) . . ?
C12 N6 H6 119.3 . . ?
C11 N6 H6 119.3 . . ?
C11 N6 C12 121.4(7) . . ?
C4 N3 H3 118.1 . . ?
C4 N3 C5 123.8(8) . . ?
C5 N3 H3 118.1 . . ?
N4 N5 Zn2 121.5(6) . 6_565 ?
C9 N5 Zn2 130.5(6) . 6_565 ?
C9 N5 N4 107.9(8) . . ?
N5 N4 Zn2 126.5(6) . . ?
C8 N4 Zn2 125.0(6) . . ?
C8 N4 N5 108.4(7) . . ?
N1 N2 Zn1 121.3(6) . 5 ?
C1 N2 Zn1 130.2(6) . 5 ?
C1 N2 N1 108.5(8) . . ?
N2 N1 Zn1 126.5(6) . . ?
C2 N1 Zn1 125.7(6) . . ?
C2 N1 N2 107.6(7) . . ?
C1 C3 C4 126.9(8) . . ?
C2 C3 C4 129.6(8) . . ?
C2 C3 C1 103.4(8) . . ?
O3 C4 N3 121.9(9) . . ?
O3 C4 C3 121.2(9) . . ?
N3 C4 C3 116.8(8) . . ?
C9 C10 C11 126.5(8) . . ?
C9 C10 C8 104.8(8) . . ?
C8 C10 C11 128.7(9) . . ?
N6 C12 H12 109.4 . . ?
N6 C12 C13 110.1(8) . . ?
N6 C12 C14 110.2(8) . . ?
C13 C12 H12 109.4 . . ?
C14 C12 H12 109.4 . . ?
C14 C12 C13 108.2(8) . . ?
N5 C9 C10 109.7(8) . . ?
N5 C9 H9 125.2 . . ?
C10 C9 H9 125.2 . . ?
N3 C5 H5 105.0 . . ?
N3 C5 C6 109.9(8) . . ?
N3 C5 C7 114.2(9) . . ?
C6 C5 H5 105.0 . . ?
C7 C5 H5 105.0 . . ?
C7 C5 C6 116.6(9) . . ?
O2 C6 O1 124.8(8) . . ?
O2 C6 C5 119.1(8) . . ?
O1 C6 C5 115.9(8) . . ?
N2 C1 C3 110.4(8) . . ?
N2 C1 H1 124.8 . . ?
C3 C1 H1 124.8 . . ?
O4 C13 C12 117.5(8) . . ?
O5 C13 O4 124.7(8) . . ?
O5 C13 C12 117.7(8) . . ?
N6 C11 C10 117.3(8) . . ?
O6 C11 N6 121.1(9) . . ?
O6 C11 C10 121.6(9) . . ?
N1 C2 C3 110.0(8) . . ?
N1 C2 H2 125.0 . . ?
C3 C2 H2 125.0 . . ?
N4 C8 C10 109.2(8) . . ?
N4 C8 H8 125.4 . . ?
C10 C8 H8 125.4 . . ?
C12 C14 H14A 109.5 . . ?
C12 C14 H14B 109.5 . . ?
C12 C14 H14C 109.5 . . ?
H14A C14 H14B 109.5 . . ?
H14A C14 H14C 109.5 . . ?
H14B C14 H14C 109.5 . . ?
C5 C7 H7A 109.5 . . ?
C5 C7 H7B 109.5 . . ?
C5 C7 H7C 109.5 . . ?
H7A C7 H7B 109.5 . . ?
H7A C7 H7C 109.5 . . ?
H7B C7 H7C 109.5 . . ?
loop_
_geom_bond_atom_site_label_1
_geom_bond_atom_site_label_2
_geom_bond_distance
_geom_bond_site_symmetry_2
_geom_bond_publ_flag
Zn2 O2 1.968(6) 8_654 ?
Zn2 O1 1.961(7) . ?
Zn2 N5 1.983(8) 8_654 ?
Zn2 N4 1.962(8) . ?
Zn1 O4 1.968(6) 7_444 ?
Zn1 O5 1.969(6) 6_564 ?
Zn1 N2 1.992(8) 9_554 ?
Zn1 N1 1.966(8) . ?
O4 Zn1 1.968(6) 4 ?
O4 C13 1.262(11) . ?
O2 Zn2 1.968(6) 6_565 ?
O2 C6 1.249(11) . ?
O5 Zn1 1.969(6) 8_655 ?
O5 C13 1.258(11) . ?
O1 C6 1.269(11) . ?
O3 C4 1.238(12) . ?
N6 H6 0.8800 . ?
N6 C12 1.445(13) . ?
N6 C11 1.348(12) . ?
O6 C11 1.238(12) . ?
N3 H3 0.8800 . ?
N3 C4 1.333(12) . ?
N3 C5 1.462(12) . ?
N5 Zn2 1.983(8) 6_565 ?
N5 N4 1.365(10) . ?
N5 C9 1.316(13) . ?
N4 C8 1.319(12) . ?
N2 Zn1 1.992(8) 5 ?
N2 N1 1.356(11) . ?
N2 C1 1.304(13) . ?
N1 C2 1.337(13) . ?
C3 C4 1.476(13) . ?
C3 C1 1.397(13) . ?
C3 C2 1.375(13) . ?
C10 C9 1.378(13) . ?
C10 C11 1.496(13) . ?
C10 C8 1.381(12) . ?
C12 H12 1.0000 . ?
C12 C13 1.528(13) . ?
C12 C14 1.511(14) . ?
C9 H9 0.9500 . ?
C5 H5 1.0000 . ?
C5 C6 1.521(13) . ?
C5 C7 1.500(16) . ?
C1 H1 0.9500 . ?
C2 H2 0.9500 . ?
C8 H8 0.9500 . ?
C14 H14A 0.9800 . ?
C14 H14B 0.9800 . ?
C14 H14C 0.9800 . ?
C7 H7A 0.9800 . ?
C7 H7B 0.9800 . ?
C7 H7C 0.9800 . ?
