#------------------------------------------------------------------------------
#$Date: 2016-03-23 22:33:44 +0200 (Wed, 23 Mar 2016) $
#$Revision: 179485 $
#$URL: svn://www.crystallography.net/cod/cif/4/33/82/4338279.cif $
#------------------------------------------------------------------------------
#
# This file is available in the Crystallography Open Database (COD),
# http://www.crystallography.net/
#
# All data on this site have been placed in the public domain by the
# contributors.
#
data_4338279
loop_
_publ_author_name
'Lin, Lang'
'Yu, Rongmin'
'Wu, Xiao-Yuan'
'Yang, Wen-Bin'
'Zhang, Jian'
'Guo, Xiang-Guang'
'Lin, Zu-Jin'
'Lu, Can-Zhong'
_publ_section_title
;
 Enantioselective inclusion of alcohols by solvent-controlled assembled
 flexible metal-organic frameworks.
;
_journal_issue                   10
_journal_name_full               'Inorganic chemistry'
_journal_page_first              4794
_journal_page_last               4796
_journal_paper_doi               10.1021/ic500436g
_journal_volume                  53
_journal_year                    2014
_chemical_absolute_configuration ad
_chemical_formula_moiety         'C19 H24 Cu2 N6 O6'
_chemical_formula_sum            'C19 H24 Cu2 N6 O6'
_chemical_formula_weight         559.52
_chemical_name_systematic
;
 ?
;
_space_group_crystal_system      tetragonal
_space_group_IT_number           96
_space_group_name_Hall           'P 4nw 2abw'
_space_group_name_H-M_alt        'P 43 21 2'
_symmetry_space_group_name_Hall  'P 4nw 2abw'
_symmetry_space_group_name_H-M   'P 43 21 2'
_atom_sites_solution_hydrogens   mixed
_atom_sites_solution_primary     direct
_audit_creation_method           SHELXL-2013
_cell_angle_alpha                90
_cell_angle_beta                 90
_cell_angle_gamma                90
_cell_formula_units_Z            4
_cell_length_a                   13.5050(4)
_cell_length_b                   13.5050(4)
_cell_length_c                   14.9246(10)
_cell_measurement_reflns_used    7343
_cell_measurement_temperature    293(2)
_cell_measurement_theta_max      27.4740
_cell_measurement_theta_min      2.5322
_cell_volume                     2722.0(2)
_computing_cell_refinement       'CrystalClear (Rigaku Inc., 2008)'
_computing_data_collection       'CrystalClear (Rigaku Inc., 2008)'
_computing_data_reduction        'CrystalClear (Rigaku Inc., 2008)'
_computing_molecular_graphics    DIAMOND
_computing_publication_material  'SHELXL-2013 (Sheldrick, 2013)'
_computing_structure_refinement  'SHELXL-2013 (Sheldrick, 2013)'
_computing_structure_solution    'SHELXL-2013 (Sheldrick, 2013)'
_diffrn_ambient_temperature      293(2)
_diffrn_detector_area_resol_mean 14.6306
_diffrn_measured_fraction_theta_full 0.998
_diffrn_measured_fraction_theta_max 1.000
_diffrn_measurement_method       CCD_Profile_fitting
_diffrn_radiation_type           MoK\a
_diffrn_radiation_wavelength     0.71073
_diffrn_reflns_av_R_equivalents  0.0347
_diffrn_reflns_av_unetI/netI     0.0239
_diffrn_reflns_Laue_measured_fraction_full 0.998
_diffrn_reflns_Laue_measured_fraction_max 1.000
_diffrn_reflns_limit_h_max       17
_diffrn_reflns_limit_h_min       -17
_diffrn_reflns_limit_k_max       17
_diffrn_reflns_limit_k_min       -17
_diffrn_reflns_limit_l_max       19
_diffrn_reflns_limit_l_min       -18
_diffrn_reflns_number            21279
_diffrn_reflns_point_group_measured_fraction_full 0.998
_diffrn_reflns_point_group_measured_fraction_max 1.000
_diffrn_reflns_theta_full        25.242
_diffrn_reflns_theta_max         27.473
_diffrn_reflns_theta_min         2.532
_exptl_absorpt_coefficient_mu    1.603
_exptl_absorpt_correction_T_max  0.0852
_exptl_absorpt_correction_T_min  0.0852
_exptl_absorpt_correction_type   multi-scan
_exptl_crystal_colour            blue
_exptl_crystal_density_diffrn    1.365
_exptl_crystal_description       block
_exptl_crystal_F_000             1144
_exptl_crystal_size_max          0.100
_exptl_crystal_size_mid          0.100
_exptl_crystal_size_min          0.100
_refine_diff_density_max         0.285
_refine_diff_density_min         -0.351
_refine_diff_density_rms         0.052
_refine_ls_abs_structure_details
;
 Flack x determined using 1167 quotients [(I+)-(I-)]/[(I+)+(I-)]
 (Parsons and Flack (2004), Acta Cryst. A60, s61).
;
_refine_ls_abs_structure_Flack   0.024(7)
_refine_ls_extinction_method     none
_refine_ls_goodness_of_fit_ref   1.019
_refine_ls_hydrogen_treatment    mixed
_refine_ls_matrix_type           full
_refine_ls_number_parameters     150
_refine_ls_number_reflns         3123
_refine_ls_number_restraints     0
_refine_ls_restrained_S_all      1.019
_refine_ls_R_factor_all          0.0339
_refine_ls_R_factor_gt           0.0322
_refine_ls_shift/su_max          0.000
_refine_ls_shift/su_mean         0.000
_refine_ls_structure_factor_coef Fsqd
_refine_ls_weighting_details
;
 w=1/[\s^2^(Fo^2^)+(0.0568P)^2^+0.5922P]
 where P=(Fo^2^+2Fc^2^)/3
;
_refine_ls_weighting_scheme      calc
_refine_ls_wR_factor_gt          0.0883
_refine_ls_wR_factor_ref         0.0896
_reflns_Friedel_coverage         0.699
_reflns_Friedel_fraction_full    0.998
_reflns_Friedel_fraction_max     0.999
_reflns_number_gt                3018
_reflns_number_total             3123
_reflns_threshold_expression     'I > 2\s(I)'
_cod_data_source_file            ic500436g_si_001.cif
_cod_data_source_block           D-2
_cod_depositor_comments
'Adding full bibliography for 4338272--4338281.cif.'
_cod_database_code               4338279
#BEGIN Tags that were not found in dictionaries:
_shelx_space_group_comment
;
The symmetry employed for this shelxl refinement is uniquely defined
by the following loop, which should always be used as a source of
symmetry information in preference to the above space-group names.
They are only intended as comments.
;
_shelx_estimated_absorpt_t_min   0.856
_shelx_estimated_absorpt_t_max   0.856
_shelxl_version_number           2013-2
_shelx_res_file
;
TITL a in P4(3)2(1)2
CELL 0.71073 13.5050 13.5050 14.9246 90.000 90.000 90.000
ZERR 4.0000 0.0004 0.0004 0.0010 0.000 0.000 0.000
LATT -1
SYMM 0.5-Y, 0.5+X, 0.75+Z
SYMM -X, -Y, 0.5+Z
SYMM 0.5+Y, 0.5-X, 0.25+Z
SYMM 0.5+X, 0.5-Y, 0.25-Z
SYMM 0.5-X, 0.5+Y, 0.75-Z
SYMM Y, X, -Z
SYMM -Y, -X, 0.5-Z
SFAC C H N O CU
UNIT 76 96 24 24 8
MERG 2
FMAP 2
GRID
PLAN 5

BOND
L.S. 30
size 0.1 0.1 0.1
acta
WGHT    0.056800    0.592200
FVAR       0.22640
CU1   5    0.295311    0.026865    0.035241    11.00000    0.03320    0.03427 =
         0.02681    0.00016   -0.00053    0.00736
O1    4    0.204905    0.116950    0.104364    11.00000    0.04601    0.04920 =
         0.02678    0.00047   -0.00273    0.01990
O2    4    0.360308   -0.053863   -0.059825    11.00000    0.03743    0.03863 =
         0.03201   -0.00253   -0.00133    0.01053
O3    4    0.434421    0.118996    0.043463    11.00000    0.04562    0.05196 =
         0.03333   -0.00769   -0.00355   -0.01664
C1    1    0.167586    0.153202   -0.050144    11.00000    0.03175    0.03540 =
         0.02505   -0.00068   -0.00002    0.00428
C2    1    0.258858    0.048294   -0.154960    11.00000    0.03650    0.04142 =
         0.02506   -0.00258   -0.00107    0.00650
AFIX  13
H2A   2    0.285831    0.102962   -0.190581    11.00000   -1.20000
AFIX   0
C3    1    0.171653    0.002532   -0.204786    11.00000    0.05113    0.11008 =
         0.05657   -0.04108   -0.01962    0.01694
AFIX  33
H3A   2    0.121458    0.051853   -0.213878    11.00000   -1.50000
H3B   2    0.144907   -0.051033   -0.170110    11.00000   -1.50000
H3C   2    0.193655   -0.022054   -0.261762    11.00000   -1.50000
AFIX   0
C4    1    0.340084   -0.029814   -0.140464    11.00000    0.03417    0.03042 =
         0.02959   -0.00461    0.00113    0.00271
C5    1    0.289789   -0.162955    0.139211    11.00000    0.03790    0.03796 =
         0.03599   -0.00036    0.00046   -0.00748
C6    1    0.327925   -0.205517    0.217522    11.00000    0.03234    0.03199 =
         0.03794    0.00694    0.00391   -0.00557
C7    1    0.385438   -0.133301    0.256318    11.00000    0.04219    0.05134 =
         0.03797    0.01578   -0.00544   -0.01626
C8    1    0.224863   -0.207190    0.069507    11.00000    0.10580    0.06765 =
         0.05573    0.00826   -0.02944   -0.04077
AFIX  33
H8A   2    0.211934   -0.158992    0.023697    11.00000   -1.50000
H8B   2    0.163505   -0.227546    0.096256    11.00000   -1.50000
H8C   2    0.257203   -0.263611    0.043534    11.00000   -1.50000
AFIX   0
C9    1    0.447419   -0.131587    0.339002    11.00000    0.09527    0.09415 =
         0.07167    0.04309   -0.04581   -0.05656
AFIX  33
H9A   2    0.478089   -0.067803    0.345006    11.00000   -1.50000
H9B   2    0.497652   -0.181681    0.334931    11.00000   -1.50000
H9C   2    0.406413   -0.144173    0.390295    11.00000   -1.50000
AFIX   0
C10   1    0.310201   -0.310201    0.250000    10.50000    0.03675    0.03675 =
         0.05595    0.01052    0.01052   -0.00475
AFIX   3
H10A  2    0.355401   -0.325010    0.298000    11.00000   -1.20000
AFIX   0
N1    3    0.320634   -0.069062    0.132358    11.00000    0.04196    0.02985 =
         0.03234    0.00183   -0.00270   -0.00098
N2    3    0.377913   -0.052435    0.203883    11.00000    0.05305    0.03869 =
         0.03035    0.00435   -0.00787   -0.01442
AFIX  43
H2B   2    0.406477    0.003124    0.215056    11.00000   -1.20000
AFIX   0
N3    3    0.232376    0.084610   -0.067295    11.00000    0.03631    0.03762 =
         0.02675   -0.00347   -0.00037    0.00901

HKLF 4

REM  a in P4(3)2(1)2
REM R1 =  0.0322 for    3018 Fo > 4sig(Fo)  and  0.0339 for all    3123 data
REM    150 parameters refined using      0 restraints

END

WGHT      0.0417      0.5519

REM Highest difference peak  0.285,  deepest hole -0.351,  1-sigma level  0.052
Q1    1   0.3198 -0.2064  0.1832  11.00000  0.05    0.23
Q2    1   0.2453  0.0778 -0.0425  11.00000  0.05    0.22
Q3    1   0.4749 -0.2001  0.1439  11.00000  0.05    0.22
Q4    1   0.3424 -0.0413 -0.0385  11.00000  0.05    0.22
Q5    1   0.2037  0.1015  0.1301  11.00000  0.05    0.21
;
_shelx_res_checksum              16526
_shelx_hkl_file
;
   0   0   2    0.64    0.27
   0   0  -2    0.22    0.13
   0   0   2   -0.05    0.23
   0   0   3    0.51    0.40
   0   0  -3   -0.30    0.33
   0   0  -4  225.38    3.22
   0   0  -5    0.53    0.42
   0   0   5   -0.02    0.71
   0   0  -6    0.47    0.49
   0   0   6    1.03    0.70
   0   0  -7    0.27    0.50
   0   0   7    0.33    0.63
   0   0  -8  311.65    6.53
   0   0   8  296.87    7.06
   0   0  -9    0.63    0.55
   0   0 -10    0.11    0.46
   0   0  10    0.25    0.59
   0   0 -11    1.65    0.80
   0   0  11    0.73    0.70
   0   0 -12  863.25   28.51
   0   0  12  875.46    9.36
   0   0 -13   -0.02    0.76
   0   0  13   -0.07    0.66
   0   0 -14   -0.32    0.58
   0   0  14    0.76    0.58
   0   0 -15   -0.53    0.57
   0   0  15    0.81    0.77
   0   0  16  126.13    4.52
   0   0  17    2.62    0.93
   0   0  18   -0.01    0.68
   0   0  19    2.98    1.27
   0  -1   2  382.89    4.47
   0   1  -2  378.75    4.44
   1   0  -2  368.72    4.61
   0   1   2  385.11    4.48
   0  -1  -2  372.76    4.41
  -1   0  -2  376.95    4.49
   0  -1   2  378.86    4.62
  -1   0   2  376.40    4.32
   0   1  -3   92.91    3.80
   1   0   3   93.66    3.67
   1   0  -3   91.18    3.81
  -1   0  -3   91.57    3.60
   0  -1  -3   92.70    3.77
  -1   0  -3   96.19    4.07
  -1   0   3   90.16    3.66
   0  -1   3   88.95    3.73
   1   0   4  432.62    4.99
   0   1  -4  420.73    5.23
   1   0  -4  422.59    5.57
  -1   0  -4  423.98    4.88
   0  -1  -4  425.31    5.27
  -1   0  -4  427.98    5.88
  -1   0   4  431.46    5.38
   0  -1   4  415.27    5.60
   0   1  -5   54.82    2.47
   1   0  -5   52.52    2.46
  -1   0  -5   53.52    2.35
   0  -1  -5   51.85    2.34
  -1   0  -5   51.07    2.47
  -1   0   5   52.83    2.44
   0  -1   5   52.55    2.58
   0   1  -6    0.38    0.58
   1   0  -6    0.48    0.48
  -1   0  -6    1.21    0.53
   0  -1  -6    1.43    0.46
  -1   0   6    1.41    0.90
   0  -1   6    1.51    1.10
   0   1  -7   11.58    2.85
   1   0  -7   12.72    1.40
  -1   0  -7   10.57    2.07
   0  -1  -7   11.74    2.78
  -1   0   7   11.78    3.09
   0  -1   7   10.07    2.30
   0   1  -8  200.02    4.67
   1   0  -8  208.50    4.88
  -1   0  -8  212.80    4.62
   0  -1  -8  207.70    5.05
   1   0   8  205.98    5.16
  -1   0   8  208.05    4.94
   0  -1   8  206.36    5.26
   0   1  -9  389.99    8.67
   1   0  -9  386.91    8.72
  -1   0  -9  388.61    8.61
   0  -1  -9  396.80    8.76
   0   1   9  390.10    9.12
   1   0   9  402.86    9.54
  -1   0   9  399.42    9.15
   0  -1   9  392.17    9.20
   0   1 -10   41.44    4.31
   1   0 -10   38.21    1.69
  -1   0 -10   36.51    2.71
   0  -1 -10   42.64    3.84
   0   1  10   37.28    2.04
   1   0  10   37.73    3.40
  -1   0  10   34.73    1.99
   0  -1  10   40.11    4.30
   0   1 -11   24.77    1.59
   1   0 -11   29.82    2.19
  -1   0 -11   22.89    1.35
   0  -1 -11   23.04    4.87
   0   1  11   24.33    6.46
   1   0  11   29.20    3.17
  -1   0  11   25.12    3.39
   0  -1  11   24.25    5.74
   0   1 -12  169.53    7.00
   1   0 -12  168.05    6.58
  -1   0 -12  173.36    7.11
   0  -1 -12  170.03    6.48
   0   1  12  158.09    8.19
   1   0  12  168.08    7.18
  -1   0  12  161.59    6.50
   0  -1  12  176.45    7.22
   0   1 -13   94.92    3.23
   1   0 -13   90.70    3.73
  -1   0 -13   90.50    3.28
   0  -1 -13  102.48    3.09
   0   1  13   90.78    3.17
   1   0  13   95.62    6.40
   0  -1  13   95.62    3.73
  -1   0  13   86.10    3.06
   0   1 -14   11.17    2.44
   1   0 -14   10.46    2.43
  -1   0 -14   10.33    1.97
   0  -1 -14   12.61    1.80
   0   1  14   11.24    2.71
   1   0  14   12.94    3.22
   0  -1  14   15.64    3.05
  -1   0  14   13.78    3.48
   0   1 -15   26.29    4.50
   1   0 -15   33.79    2.50
   0  -1 -15   28.13    1.76
   0   1  15   29.33    3.87
   1   0  15   28.18    7.67
   0  -1  15   31.73    8.09
  -1   0  15   28.80    7.05
   1   0 -16    8.11    1.44
   1   0  16    9.21    3.21
   0   1  16    4.93    1.79
   0  -1  16    9.65    2.33
  -1   0  16    7.71    1.94
   1   0  17    7.01    1.90
   0   1  17    6.35    1.77
   0  -1  17    2.16    1.18
  -1   0  17    5.69    1.19
   1   0  18    3.12    1.35
   0   1  18    3.24    1.75
   0  -1  18    0.57    0.82
  -1   0  18    0.51    0.53
   1   0  19    4.77    0.93
   0  -1  19    0.96    1.39
  -1  -1   1 2315.85   23.97
  -1   1   1 2300.63   23.80
   1  -1   1 2365.79   66.88
  -1   1  -1 2347.55   66.32
   1   1   2  992.39   10.40
   1  -1   2  985.76   10.38
  -1   1  -2  947.07    9.99
   1   1  -2  956.54   10.50
   1  -1  -2  943.70   10.33
  -1   1   2  960.55   10.38
   1   1   2  997.00   10.56
  -1  -1  -2  972.70   10.36
  -1   1  -2  938.60   10.35
   1  -1   2  958.11   10.76
  -1  -1   2  994.79   10.97
   1   1   3  369.13    4.29
   1  -1   3  370.57    4.43
  -1   1  -3  361.78    4.25
   1   1  -3  367.42    4.81
   1  -1  -3  369.45    4.80
   1   1   3  372.19    4.29
  -1   1  -3  362.13    4.84
  -1  -1  -3  365.21    4.55
   1  -1   3  363.97    4.99
  -1  -1   3  358.12    4.61
   1  -1   4   32.90    1.99
  -1   1  -4   30.79    1.40
   1   1  -4   30.46    1.63
   1   1   4   30.21    1.39
   1  -1  -4   28.92    1.53
  -1  -1  -4   30.30    1.38
  -1   1  -4   30.20    2.73
  -1  -1  -4   30.30    2.59
   1  -1   4   31.88    2.74
  -1  -1   4   29.81    1.61
  -1   1  -5  603.86    7.03
   1   1  -5  585.73    7.40
   1  -1  -5  594.12    7.42
  -1  -1  -5  596.37    6.89
  -1   1  -5  587.85    7.66
  -1  -1  -5  580.73    7.20
   1  -1   5  596.11    7.81
  -1  -1   5  589.69    7.58
  -1   1  -6    3.38    0.69
   1   1  -6    3.98    0.96
   1  -1  -6    2.50    1.07
  -1  -1  -6    3.34    0.51
  -1   1  -6    3.20    1.25
   1  -1   6    2.24    0.91
  -1  -1   6    4.40    1.10
  -1   1  -7  405.81    7.87
   1   1  -7  394.75    8.10
   1  -1  -7  400.91    8.15
  -1  -1  -7  410.09    7.90
  -1   1   7  417.88    8.53
   1  -1   7  399.71    8.45
  -1  -1   7  413.14    8.47
   1   1  -8   13.09    1.19
  -1   1  -8   14.01    1.08
   1  -1  -8   13.60    1.20
  -1  -1  -8   14.25    2.50
  -1   1   8   12.94    3.18
   1  -1   8   12.81    4.13
  -1  -1   8   12.54    3.18
   1   1  -9   78.50    4.81
  -1   1  -9   76.44    3.87
   1  -1  -9   79.97    4.22
  -1  -1  -9   72.81    3.67
  -1   1   9   73.40    3.85
   1  -1   9   70.48    4.09
  -1  -1   9   78.86    4.27
   1   1 -10    1.15    0.72
  -1   1 -10    0.87    0.45
   1  -1 -10    0.43    0.59
  -1  -1 -10    0.47    0.47
  -1   1  10    0.67    0.36
   1  -1  10    1.17    1.21
  -1  -1  10    0.68    0.45
   1   1 -11  731.59   15.67
  -1   1 -11  762.00    6.42
   1  -1 -11  765.39    7.40
  -1  -1 -11  767.66    6.63
   1   1  11  744.02   17.26
  -1   1  11  748.40   16.41
   1  -1  11  729.17   15.96
  -1  -1  11  749.81    8.55
   1   1 -12   78.00    3.80
  -1   1 -12   87.07    4.99
   1  -1 -12   89.55    4.14
  -1  -1 -12   82.48    4.20
   1   1  12   78.78    5.58
  -1   1  12   81.44    3.87
   1  -1  12   79.25    4.18
  -1  -1  12   78.98    5.51
   1   1 -13   22.35    1.87
  -1   1 -13   19.82    3.82
   1  -1 -13   18.00    4.46
  -1  -1 -13   19.81    3.32
   1   1  13   23.92    2.35
  -1   1  13   19.03    4.85
   1  -1  13   25.25    7.03
  -1  -1  13   20.95    4.52
   1   1 -14   66.87    4.38
  -1   1 -14   63.87    3.35
   1  -1 -14   65.67    3.70
  -1  -1 -14   62.02    2.67
   1   1  14   65.39    2.98
   1  -1  14   61.87    6.30
  -1   1  14   63.26    2.84
  -1  -1  14   60.81    8.14
   1   1 -15    1.37    0.67
   1  -1 -15    0.50    0.92
   1   1  15    1.99    1.05
   1  -1  15    2.20    1.61
  -1   1  15    1.17    0.86
  -1  -1  15    1.63    0.43
   1   1 -16    7.47    1.32
   1  -1 -16    6.44    1.14
   1   1  16    2.83    1.40
   1  -1  16   10.27    2.82
  -1   1  16    6.09    1.89
  -1  -1  16    8.51    1.59
   1   1  17   74.26    7.36
   1  -1  17   77.61    6.39
  -1   1  17   72.55    3.29
  -1  -1  17   76.65    5.87
   1   1  18    5.22    1.34
   1  -1  18    3.22    1.11
  -1  -1  18    2.37    1.17
   1   1  19   17.35    5.04
   1  -1  19   16.85    5.96
  -1  -1  19   15.10    5.27
   1   2   0  588.09    6.77
   2  -1   0  604.85    6.81
  -2   1   0  603.43    6.99
  -2   1  -1 1258.55   13.26
   2  -1  -1 1267.49   13.72
   1   2   1 1284.22   13.24
  -2   1   1 1297.52   14.04
  -1  -2  -1 1231.74   12.65
  -2   1  -1 1240.25   13.48
  -1  -2   1 1310.86   14.20
   2  -1   2  892.56    9.54
  -2   1  -2  910.67    9.65
   1   2   2  862.90    9.50
   1   2  -2  899.29   10.22
   2  -1  -2  869.59    9.88
  -2   1   2  870.23    9.98
   1   2   2  911.28    9.51
  -2   1  -2  901.18   10.26
  -1  -2  -2  909.49    9.54
  -1  -2   2  859.94   10.00
   1   2   3    8.78    1.89
  -2   1   3   10.03    2.20
  -1  -2   3    9.41    1.99
   1   2   4  148.20    2.35
   2  -1   4  157.05    2.23
  -2   1  -4  154.04    2.07
   1   2  -4  147.24    2.75
   2  -1  -4  152.11    2.91
  -2   1   4  152.10    3.46
  -2   1  -4  149.97    2.84
  -2   1   4  156.34    2.29
  -1  -2   4  154.49    2.94
   1   2   5   81.73    3.45
   2  -1   5   82.88    3.38
   1   2  -5   68.17    3.12
  -2   1  -5   68.63    2.83
   2  -1  -5   68.52    3.16
  -2   1   5   75.03    3.42
  -2   1  -5   67.96    3.20
  -2   1   5   79.71    3.37
  -1  -2   5   78.05    3.58
   1   2  -6   93.27    4.13
  -2   1  -6   92.96    3.81
   2  -1  -6   90.52    4.28
  -1  -2  -6   91.71    3.86
  -2   1  -6   92.36    4.21
  -2   1   6   98.72    4.16
  -1  -2   6   96.67    4.40
   1   2  -7  150.01    4.61
  -2   1  -7  149.00    3.36
   2  -1  -7  155.78    4.09
  -1  -2  -7  152.41    3.51
  -2   1  -7  149.26    4.00
   2  -1   7  155.42    4.30
  -2   1   7  155.80    3.74
  -1  -2   7  152.68    4.04
   1   2  -8   67.55    2.79
  -2   1  -8   68.90    2.56
   2  -1  -8   66.97    3.05
  -1  -2  -8   67.68    2.74
  -2   1  -8   66.41    3.18
   2  -1   8   61.07    3.06
  -2   1   8   67.83    2.78
   1   2  -9  311.51    7.63
  -2   1  -9  310.09    6.78
   2  -1  -9  301.33    7.25
  -1  -2  -9  306.16    6.91
   2  -1   9  282.67    7.32
  -2   1   9  287.41    6.96
  -1  -2   9  280.74    7.08
   1   2 -10  123.16    3.18
  -2   1 -10  128.20    2.69
   2  -1 -10  124.76    4.37
  -1  -2 -10  120.15    4.71
   2  -1  10  129.07    3.76
  -2   1  10  131.82    3.26
  -1  -2  10  126.68    3.92
   1   2 -11   10.04    1.89
  -2   1 -11   10.34    1.88
   2  -1 -11   15.53    3.15
  -1  -2 -11   11.40    2.41
   2  -1  11   10.86    2.16
  -2   1  11   13.05    2.27
  -1  -2  11   13.38    3.82
   1   2 -12   16.03    3.97
  -2   1 -12   13.99    3.36
   2  -1 -12   18.88    4.19
  -1  -2 -12   16.12    1.34
   2  -1  12   17.83    4.11
  -2   1  12   16.30    3.61
  -1  -2  12   16.98    3.34
   1   2 -13  138.13    8.32
  -2   1 -13  133.90    2.83
   2  -1 -13  129.62    8.41
  -1  -2 -13  138.32    3.28
   1   2  13  127.97    6.64
   2  -1  13  126.25    6.35
  -2   1  13  138.91    3.73
  -1  -2  13  134.04    3.93
   1   2 -14   27.80    6.56
   2  -1 -14   35.40    2.59
  -1  -2 -14   33.57    2.38
   1   2  14   28.21    6.95
   2  -1  14   30.61    7.01
  -2   1  14   29.46    2.93
  -1  -2  14   29.20    5.68
   1   2 -15   25.38    3.39
   2  -1 -15   21.80    3.03
   1   2  15   21.44    7.12
   2  -1  15   24.70    5.85
  -2   1  15   18.52    5.33
  -1  -2  15   21.05    4.37
   1   2 -16    8.49    1.71
   1   2  16    9.52    3.18
   2  -1  16    4.38    2.28
  -2   1  16    7.20    1.96
  -1  -2  16    9.36    2.14
   1   2  17    6.73    2.23
   2  -1  17    7.90    2.20
  -1  -2  17    3.21    1.42
  -2   1  18   13.30    4.39
   1   2  18   12.74    3.73
   2  -1  18   15.34    5.27
  -1  -2  18   12.05    2.97
  -2   1  19   25.89    8.06
   1   2  19   21.07    8.32
   2  -1  19   28.74    6.09
  -1  -2  19   24.60    7.26
   0   2   0  203.37    2.80
   2   0   0  212.28    2.73
  -2   0   0  209.47    2.90
   0   2   0  208.55    2.54
   0  -2   0  203.20    2.81
   0   2   1   60.82    2.57
   0   2  -1   58.45    2.48
   2   0  -1   64.48    2.70
   2   0   1   60.41    2.49
  -2   0   1   63.08    2.69
   0  -2  -1   63.76    2.47
  -2   0  -1   61.20    2.58
   0   2   1   62.93    2.44
   0   2  -1   63.90    2.64
   0  -2   1   59.71    2.56
   0   2   2   77.69    3.23
   0   2  -2   75.25    3.16
   2   0  -2   75.91    3.22
   0   2   2   74.54    2.94
  -2   0   2   73.19    3.14
  -2   0  -2   75.42    3.18
   0   2  -2   73.71    3.12
   0  -2   2   71.63    3.09
   2   0  -2   73.40    2.93
  -2   0   2   75.01    3.03
   0   2   3   39.96    1.96
   0   2  -3   37.79    1.86
   2   0  -3   39.47    1.96
  -2   0   3   43.40    2.48
  -2   0  -3   41.06    2.04
   2   0  -3   43.28    1.95
   0  -2   3   40.67    2.96
  -2   0   3   40.42    1.84
   2   0   4   20.45    1.05
   0   2  -4   19.66    1.15
   2   0  -4   20.69    1.36
  -2   0  -4   20.86    0.99
   0  -2  -4   20.78    2.21
  -2   0  -4   18.33    1.20
   0  -2   4   18.80    1.41
  -2   0   4   19.81    1.44
   2   0   5  634.93    6.96
   0   2  -5  629.59    7.73
   2   0  -5  623.16    8.06
  -2   0  -5  631.76    6.88
   0  -2  -5  643.35    7.87
  -2   0  -5  622.07    7.96
   0  -2   5  628.26    8.22
  -2   0   5  632.21    7.57
   2   0  -6  306.38    5.23
  -2   0  -6  311.56    4.15
   0  -2  -6  307.69    4.56
  -2   0  -6  309.65    4.89
   0  -2   6  310.48    5.16
  -2   0   6  313.91    4.61
   0   2  -7   83.64    3.49
   2   0  -7   81.38    3.19
  -2   0  -7   84.15    2.79
   0  -2  -7   85.38    3.09
  -2   0  -7   87.10    3.39
   0  -2   7   88.72    3.51
  -2   0   7   82.81    4.26
   0   2  -8   13.63    3.66
   2   0  -8   14.27    3.30
  -2   0  -8   15.30    1.04
   0  -2  -8   13.85    3.25
  -2   0  -8   15.05    3.03
   0  -2   8   14.31    4.20
  -2   0   8   14.44    2.74
   0   2  -9  104.76    5.20
   2   0  -9   99.68    5.27
  -2   0  -9  102.39    4.87
   0  -2  -9  102.00    6.73
   0  -2   9  100.56    5.36
  -2   0   9  100.08    5.03
   0   2 -10  594.33    5.96
   2   0 -10  591.46    7.95
  -2   0 -10  597.51    5.10
   0  -2 -10  591.30    7.87
   2   0  10  589.82    9.01
   0  -2  10  594.85    7.87
  -2   0  10  590.49    8.10
   0   2 -11  231.26    5.77
   2   0 -11  231.26    6.32
  -2   0 -11  238.03    6.79
   0  -2 -11  237.82    5.82
   2   0  11  242.51    7.13
   0  -2  11  240.19    7.07
  -2   0  11  231.21    7.19
   0   2 -12    6.90    1.13
   2   0 -12    7.09    1.20
  -2   0 -12    7.11    1.68
   0  -2 -12    6.45    1.45
   0   2  12    8.20    2.05
   2   0  12   10.69    2.34
   0  -2  12   10.11    1.79
  -2   0  12    9.62    2.79
   0   2 -13    1.97    0.74
   2   0 -13    1.91    1.19
  -2   0 -13    0.81    0.93
   0  -2 -13    1.19    0.56
   0   2  13    1.21    0.64
   2   0  13    1.11    1.18
   0  -2  13    1.67    1.02
  -2   0  13    1.90    0.92
   0   2 -14    0.37    0.73
   2   0 -14    1.53    1.14
   0  -2 -14    1.71    1.08
   0   2  14    1.33    0.60
   2   0  14    0.44    1.12
   0  -2  14    1.63    0.71
  -2   0  14    1.38    1.15
   0   2 -15   41.09    7.65
   2   0 -15   45.06    3.64
   0  -2 -15   45.14    4.55
   0   2  15   48.70    6.75
   2   0  15   44.82    4.61
   0  -2  15   43.15    8.88
  -2   0  15   45.30    6.89
   2   0 -16    0.68    1.12
   0   2  16    1.74    1.11
   2   0  16   -1.46    1.27
   0  -2  16    2.60    1.17
  -2   0  16    1.29    0.59
   0   2  17   30.04    9.49
   2   0  17   33.47    8.75
   0  -2  17   33.28    7.51
  -2   0  17   32.55    8.36
   0   2  18   28.12    4.88
   2   0  18   38.78    9.77
   0  -2  18   33.49    8.50
  -2   0  19    2.67    1.43
   2   0  19    1.93    1.09
   0  -2  19   -0.01    1.25
  -1   2   0  595.81    6.86
   2   1   0  613.76    6.92
  -2  -1   0  597.11    6.79
  -1   2   0  614.55    6.85
  -1   2   0  618.54    6.91
   1  -2   0  596.27    6.73
  -1   2   1 1222.05   13.29
  -1   2  -1 1282.10   13.73
   2   1   1 1260.28   13.24
   2   1  -1 1302.97   14.08
  -2  -1   1 1215.02   13.18
  -1   2   1 1216.67   12.81
  -2  -1  -1 1291.32   13.75
   1  -2   1 1229.19   13.37
  -1   2   1 1250.58   13.15
   1  -2  -1 1263.95   13.24
  -2  -1  -2  891.39    9.42
  -1   2  -2  875.84    9.71
   2   1   2  898.26    9.44
   2   1  -2  857.76    9.80
   1  -2  -2  860.59    9.78
  -2  -1   2  883.85   10.08
  -1   2   2  887.02    9.65
  -2  -1  -2  874.70    9.75
  -1   2  -2  873.07    9.98
   1  -2   2  899.62   10.23
  -2  -1   2  899.37    9.92
  -1   2  -3    8.98    1.95
   2   1  -3    7.70    2.12
   1  -2  -3    8.76    1.97
  -1   2  -3    9.28    2.32
   2   1   4  150.50    1.95
  -1   2  -4  159.13    2.61
   2   1  -4  156.57    3.12
   2   1   4  154.35    2.37
   1  -2  -4  152.42    2.76
  -1   2   4  154.73    2.62
  -2  -1  -4  150.14    2.59
  -1   2  -4  153.04    3.10
   1  -2   4  148.83    2.95
  -2  -1   4  148.98    2.59
   2   1   5   74.21    3.05
  -1   2  -5   82.36    3.58
   2   1  -5   78.26    3.53
   2   1   5   69.95    3.19
   1  -2  -5   78.83    3.48
  -2  -1  -5   83.79    3.89
  -1   2  -5   84.84    3.88
   1  -2   5   65.28    3.14
  -2  -1   5   69.03    3.08
  -1   2  -6   97.83    4.12
   2   1  -6   98.92    4.39
   1  -2  -6  100.71    4.39
  -2  -1  -6  100.29    4.07
  -2  -1  -6   96.56    4.22
  -1   2  -6   94.07    4.29
   1  -2   6   91.53    4.18
  -2  -1   6   93.64    4.81
  -1   2  -7  148.92    3.61
   2   1  -7  150.81    3.91
   1  -2  -7  148.94    5.12
  -2  -1  -7  149.31    3.19
  -2  -1  -7  148.47    4.20
   1  -2   7  150.78    4.11
  -2  -1   7  157.39    3.92
  -1   2  -8   64.41    2.49
   2   1  -8   65.61    3.81
   1  -2  -8   64.00    2.68
  -2  -1  -8   66.88    3.01
   1  -2   8   67.21    3.14
  -2  -1   8   70.40    3.89
  -1   2  -9  289.35    6.87
   2   1  -9  282.41    6.95
   1  -2  -9  289.24    7.54
  -2  -1  -9  290.99    6.90
   1  -2   9  301.71    7.72
  -2  -1   9  298.20    7.17
  -1   2 -10  127.52    4.28
   2   1 -10  134.96    3.46
   1  -2 -10  130.69    3.51
  -2  -1 -10  132.90    2.62
  -1   2  10  127.14    3.34
   1  -2  10  124.43    3.74
  -2  -1  10  123.55    3.19
  -1   2 -11   12.07    2.83
   2   1 -11   13.19    1.66
   1  -2 -11   12.70    3.44
  -2  -1 -11   11.86    0.96
  -1   2  11   10.56    2.53
   1  -2  11   13.09    4.33
  -2  -1  11   10.10    2.74
  -1   2 -12   12.70    2.55
   2   1 -12   17.07    4.75
   1  -2 -12   17.16    3.87
  -2  -1 -12   15.57    3.69
   2   1  12   15.11    4.37
  -1   2  12   11.75    3.19
   1  -2  12   17.92    4.82
  -2  -1  12   18.19    4.24
  -1   2 -13  137.23    3.52
   2   1 -13  128.31    6.15
   1  -2 -13  127.40    5.61
  -2  -1 -13  134.46    3.45
   2   1  13  126.48    4.22
  -1   2  13  128.15    3.59
   1  -2  13  128.81    6.24
  -2  -1  13  122.79    3.60
  -1   2 -14   32.60    1.83
   2   1 -14   25.83    3.41
   1  -2 -14   30.36    2.09
   2   1  14   30.87    5.97
  -1   2  14   34.28    7.02
   1  -2  14   29.88    8.73
  -2  -1  14   28.65    6.22
   2   1 -15   20.75    4.71
   1  -2 -15   21.73    4.41
   2   1  15   21.66    6.59
  -1   2  15   23.08    5.47
   1  -2  15   26.70    6.59
  -2  -1  15   23.62    5.65
   2   1 -16    7.58    1.39
   2   1  16    7.09    1.85
  -1   2  16    6.42    1.74
   1  -2  16    9.92    1.67
  -2  -1  16    9.40    1.85
   2   1  17    2.53    1.35
  -1   2  17    1.70    1.05
   1  -2  17    6.60    1.40
  -2  -1  17    6.54    1.50
   2   1  18   18.73    5.46
   1  -2  18   13.14    3.72
  -1   2  19   17.21    7.58
   2   1  19   22.12    7.10
   1  -2  19   21.97    7.15
   2   2   0 2152.79   22.68
  -2  -2   0 2150.40   22.50
  -2   2   0 2168.14   22.93
  -2   2   0 2253.52   23.45
   2  -2   0 2115.59   21.98
  -2   2  -1  935.83   10.41
   2   2   1  901.09    9.98
   2   2  -1  898.53   10.26
   2  -2  -1  923.21   10.50
  -2  -2   1  914.52   10.32
   2   2   1  947.16   10.24
  -2  -2  -1  934.61   10.18
  -2   2  -1  913.97   10.40
   2  -2   1  904.71   10.13
  -2   2   1  945.53   10.15
   2  -2  -1  887.55    9.46
  -2   2  -2  389.91    4.83
   2   2   2  391.77    4.82
   2   2  -2  384.22    5.29
   2  -2  -2  386.09    5.39
  -2   2   2  393.66    5.12
   2   2   2  394.35    4.66
  -2  -2  -2  392.75    4.67
  -2   2  -2  383.33    5.22
   2  -2   2  388.94    5.32
  -2   2   2  392.26    4.32
  -2  -2   2  393.03    5.34
   2   2   3  106.41    4.30
  -2   2  -3  105.84    4.28
   2   2  -3  109.21    4.62
   2  -2  -3  106.97    4.52
  -2   2   3  108.04    4.49
  -2  -2  -3  107.28    4.38
  -2   2  -3  106.78    5.13
   2  -2   3  109.80    4.68
  -2  -2   3  105.41    4.86
   2   2   4  107.64    4.36
  -2   2  -4  106.63    4.34
   2   2  -4  105.68    4.56
   2  -2  -4  105.44    4.54
  -2   2   4  104.00    4.39
  -2  -2  -4  109.11    4.61
  -2   2  -4  108.01    4.78
   2  -2   4  108.95    5.20
  -2  -2   4  104.40    5.36
   2   2   5   31.23    1.53
  -2   2  -5   29.26    1.56
   2   2  -5   26.99    2.69
   2  -2  -5   31.62    2.15
  -2   2   5   28.62    2.54
  -2   2  -5   29.30    1.83
  -2  -2  -5   28.65    1.49
   2  -2   5   28.79    1.92
  -2  -2   5   27.78    4.05
   2   2   6   79.56    3.58
  -2   2  -6   80.83    3.46
   2   2  -6   76.69    3.58
   2  -2  -6   78.93    3.63
  -2   2   6   76.58    3.55
  -2   2  -6   78.58    3.74
  -2  -2  -6   76.23    3.39
   2  -2   6   76.37    3.67
  -2  -2   6   75.98    3.55
   2   2   7  216.45    4.47
  -2   2  -7  214.23    4.51
   2   2  -7  213.05    5.14
   2  -2  -7  208.54    5.22
  -2   2   7  210.60    5.28
  -2   2  -7  216.60    5.37
  -2  -2  -7  202.57    4.58
  -2   2   7  212.00    4.73
   2  -2   7  212.42    5.39
  -2  -2   7  216.82    5.26
   2   2   8   15.83    2.11
  -2   2  -8   15.25    1.16
   2   2  -8   13.61    1.58
   2  -2  -8   14.81    1.36
  -2   2   8   14.00    2.62
  -2   2  -8   17.25    4.32
  -2   2   8   15.09    3.42
   2  -2   8   14.10    3.92
  -2  -2   8   14.45    3.61
   2   2   9   19.66    1.32
  -2   2  -9   17.62    3.45
   2   2  -9   18.11    3.80
   2  -2  -9   20.24    4.82
  -2   2   9   16.25    4.07
   2  -2   9   16.15    4.54
  -2  -2   9   17.57    4.54
   2   2  10    0.47    0.23
  -2   2 -10    0.39    0.35
   2   2 -10    0.66    0.70
   2  -2 -10   -0.42    0.91
  -2   2  10   -0.81    0.77
   2  -2  10    0.48    1.40
  -2  -2  10   -1.02    0.88
   2   2  11   69.50    3.05
   2   2 -11   63.98    4.01
  -2   2 -11   68.50    3.05
   2  -2 -11   76.24    8.53
  -2   2  11   63.09    5.64
   2  -2  11   66.18    5.69
  -2  -2  11   71.06    4.36
   2   2  12  220.46    4.32
   2   2 -12  211.27    5.93
  -2   2 -12  210.73    7.81
   2  -2 -12  210.19    5.04
  -2   2  12  209.60    5.78
   2  -2  12  213.24    5.88
  -2  -2  12  212.05    5.31
   2   2 -13  106.87    3.59
  -2   2 -13  109.43    2.65
   2  -2 -13  109.94    3.35
  -2   2  13  105.79    3.07
   2  -2  13  111.71    4.23
  -2  -2  13  108.32    3.60
   2   2 -14   39.99    2.79
   2  -2 -14   35.46    4.38
   2   2  14   42.47    6.80
   2  -2  14   39.93    9.63
  -2   2  14   36.28    4.06
  -2  -2  14   42.61    6.86
   2   2 -15   29.30    2.61
   2  -2 -15   26.53    1.93
  -2   2  15   22.88    6.56
   2   2  15   23.63    6.24
   2  -2  15   27.27    4.69
  -2   2  15   23.36    6.27
  -2  -2  15   26.38    5.44
   2   2 -16   94.58    8.83
   2  -2 -16   80.78   11.41
  -2   2  16   99.57    4.33
   2   2  16   94.09    7.75
   2  -2  16  104.20    4.39
  -2  -2  16   91.37    6.27
  -2   2  17    2.94    1.43
   2   2  17    2.94    0.97
   2  -2  17    3.69    1.56
  -2  -2  17    3.65    1.26
  -2   2  18    2.94    1.35
   2   2  18    2.12    0.95
   2  -2  18    2.01    1.41
  -2  -2  18    2.89    1.19
  -2   2  19    0.84    0.83
   2   2  19    1.27    0.52
   2  -2  19    1.92    1.07
   2   3   0   23.76    2.52
   3  -2   0   20.16    1.50
  -2  -3   0   19.62    1.25
  -3   2   0   20.23    2.48
   3  -2   0   19.91    1.09
   2   3  -1 1203.69   13.67
   2   3   1 1179.79   12.55
  -2  -3  -1 1194.24   12.73
  -3   2  -1 1194.70   13.67
   3  -2   1 1152.13   12.77
  -3   2  -2  404.56    5.34
   2   3   2  393.80    5.18
   2   3  -2  399.92    5.56
   3  -2  -2  393.93    5.47
   2   3   2  402.27    4.68
  -3   2   2  389.27    5.37
  -2  -3  -2  403.40    4.67
  -3   2  -2  394.07    5.54
   3  -2   2  406.26    5.72
   3  -2  -2  406.91    4.29
  -2  -3   2  391.02    5.50
  -3   2  -3  232.41    3.45
   2   3   3  214.33    3.28
   2   3  -3  232.38    4.23
   2   3   3  222.82    3.17
  -3   2  -3  234.73    3.97
  -2  -3  -3  232.79    2.95
   3  -2   3  214.16    3.72
   2   3   4  724.26    8.50
  -3   2  -4  689.66    7.79
   2   3  -4  699.99    9.35
  -3   2   4  697.77    8.82
  -3   2  -4  696.40    9.01
  -2  -3  -4  703.98    7.96
   3  -2   4  732.25    9.53
  -3   2   4  707.98    7.41
  -2  -3   4  720.23    9.25
   2   3   5  212.21    3.28
  -3   2  -5  203.21    3.23
   2   3  -5  204.07    4.45
   3  -2  -5  200.53    3.96
  -3   2   5  208.76    3.82
  -3   2  -5  196.64    3.85
  -2  -3  -5  200.33    3.07
   3  -2   5  209.92    4.39
  -3   2   5  216.38    2.85
  -2  -3   5  212.32    3.95
   2   3   6  175.93    3.86
  -3   2  -6  175.84    3.59
   2   3  -6  173.59    4.39
   3  -2  -6  178.09    5.79
  -3   2   6  176.42    4.45
  -3   2  -6  174.54    4.56
  -2  -3  -6  172.24    3.78
   3  -2   6  177.88    4.61
  -3   2   6  177.30    3.69
  -2  -3   6  174.92    4.41
   2   3   7  109.76    3.78
  -3   2  -7  111.29    3.59
   2   3  -7  105.50    3.95
   3  -2  -7  109.89    4.10
  -3   2   7  108.54    4.37
  -3   2  -7  110.12    4.34
   3  -2   7  108.40    7.18
  -3   2   7  106.90    3.79
  -2  -3   7  107.52    4.08
   2   3   8  366.16    8.42
   2   3  -8  374.36    8.74
  -3   2  -8  385.43    8.20
   3  -2  -8  364.66    8.92
  -3   2  -8  378.13    9.03
   3  -2   8  362.87    8.94
  -3   2   8  368.62    8.03
   2   3   9   88.85    2.34
   2   3  -9   77.02    4.26
  -3   2  -9   76.94    1.83
   3  -2  -9   77.66    3.38
  -3   2   9   85.65    4.08
  -3   2  -9   82.02    2.97
   3  -2   9   86.34    3.06
  -3   2   9   86.64    2.67
  -2  -3   9   90.10    3.71
   2   3  10    2.89    0.82
   2   3 -10    1.48    0.55
  -3   2 -10    3.15    0.54
   3  -2 -10    1.96    0.92
  -3   2  10    2.37    0.65
  -3   2 -10    3.07    1.31
   3  -2  10    2.53    0.88
  -3   2  10    1.91    0.95
  -2  -3  10    3.62    1.75
   2   3  11   15.12    3.31
   2   3 -11   16.52    2.64
  -3   2 -11   13.99    1.88
   3  -2 -11   14.57    1.56
  -3   2  11   17.04    3.85
   3  -2  11   18.77    5.12
  -3   2  11   16.86    4.05
  -2  -3  11   18.31    4.50
   2   3  12  118.05    3.73
   2   3 -12  101.56    5.82
  -3   2 -12  100.53    2.85
   3  -2 -12  102.63    5.04
  -3   2  12  112.93    3.85
   3  -2  12  115.91    5.76
  -3   2  12  113.06    3.56
  -2  -3  12  108.96    3.85
   2   3  13   23.54    3.09
   2   3 -13   31.48    5.33
   3  -2 -13   28.92    6.09
  -3   2  13   29.87    6.21
   3  -2  13   25.83    5.92
  -3   2  13   23.81    5.78
  -2  -3  13   24.43    6.68
   2   3 -14    1.50    0.74
   3  -2 -14    2.09    0.94
  -3   2  14    2.86    0.85
   3  -2  14    4.34    1.94
  -3   2  14    2.07    0.62
  -2  -3  14    2.61    0.89
   2   3 -15   53.74    6.10
   3  -2 -15   51.73    3.44
  -3   2  15   39.03    9.59
   2   3  15   46.26    4.57
   3  -2  15   49.19   10.75
  -2  -3  15   50.13    7.81
   2   3 -16   26.91    3.56
   3  -2 -16   21.27    3.83
  -3   2  16   23.84    6.80
   2   3  16   24.72    6.69
   3  -2  16   30.07    7.37
  -2  -3  16   31.97    5.00
   3  -2 -17    7.15    2.17
  -3   2  17   10.40    3.06
   2   3  17    7.78    3.20
   3  -2  17   11.68    2.47
  -2  -3  17   10.01    2.24
  -3   2  18    1.13    0.88
   2   3  18   -0.74    0.83
   3  -2  18    0.50    0.85
  -2  -3  18    1.84    0.78
   1   3   0  342.12    4.77
   3  -1   0  347.85    4.52
  -3   1   0  340.38    4.90
   1   3   1  179.33    3.11
   3  -1   1  176.52    2.58
  -1  -3   1  179.02    3.27
  -3   1  -2  561.40    6.36
   1   3   2  546.11    6.78
   1   3  -2  550.51    6.98
   3  -1  -2  547.60    6.95
  -3   1  -2  555.27    6.39
  -3   1   2  537.39    8.01
  -3   1  -2  552.62    7.05
  -1  -3   2  537.76    6.99
   3  -1  -2  547.81    5.78
   1   3   3  205.01    3.18
  -3   1  -3  201.35    2.53
   1   3  -3  194.83    3.40
   3  -1  -3  194.55    3.76
  -3   1  -3  196.16    2.56
  -3   1   3  201.20    3.48
  -3   1  -3  191.22    3.35
   3  -1  -3  199.56    2.37
  -1  -3   3  199.08    3.52
   3  -1   4  148.86    2.27
   1   3   4  142.55    5.81
  -3   1  -4  152.37    2.17
   1   3  -4  149.55    3.32
   3  -1  -4  147.01    2.99
  -3   1   4  137.85    5.81
  -3   1  -4  153.87    3.11
   1   3   4  145.71    4.43
  -1  -3   4  140.46    6.65
  -3   1   4  142.23    5.57
   1   3   5  332.42    4.84
   3  -1   5  334.47    3.87
  -3   1   5  332.73    5.29
  -3   1  -5  365.63    5.68
  -1  -3   5  336.87    5.38
   1   3   6  362.25    7.21
   3  -1   6  365.14    6.69
   1   3  -6  344.39    7.31
  -3   1  -6  352.90    6.42
   3  -1  -6  357.47    7.66
  -3   1   6  357.76    7.89
  -3   1  -6  350.10    7.49
  -3   1   6  362.82    6.97
  -1  -3   6  354.81    7.57
   1   3  -7   31.81    2.24
   3  -1  -7   31.33    2.27
  -3   1   7   41.42    4.84
  -1  -3   7   43.13    2.61
   1   3   8   13.30    2.80
   1   3  -8    6.56    1.77
  -3   1  -8    5.48    1.13
   3  -1  -8    7.71    2.11
  -3   1   8   11.69    3.83
  -3   1  -8    5.44    1.30
  -3   1   8   13.94    3.25
  -1  -3   8   11.82    3.40
   1   3   9    5.96    1.32
   1   3  -9    6.79    1.15
  -3   1  -9    4.56    0.96
   3  -1  -9    6.43    1.53
  -3   1   9    2.85    1.62
  -3   1  -9    6.21    1.57
   3  -1   9    5.32    0.98
  -3   1   9    5.01    1.25
  -1  -3   9    3.33    1.78
   1   3  10  127.48    3.05
   1   3 -10  117.45    3.13
  -3   1 -10  123.33    2.66
   3  -1 -10  115.66    3.25
  -3   1  10  118.20    3.66
  -3   1 -10  126.10    3.73
   3  -1  10  125.30    3.83
  -3   1  10  124.04    3.23
  -1  -3  10  120.30    6.48
   1   3  11  187.80    6.91
   1   3 -11  198.20    7.52
   3  -1 -11  202.16    7.85
  -3   1 -11  198.43    6.98
  -3   1  11  185.79    7.57
   3  -1  11  185.22    7.50
  -3   1  11  185.33    7.04
  -1  -3  11  186.73    7.50
   1   3  12   90.81    3.28
   1   3 -12   88.71    6.30
   3  -1 -12   88.24    3.25
  -3   1 -12   87.82    2.35
  -3   1  12   93.46    3.71
   3  -1  12   92.43    6.12
  -3   1  12   89.08    3.07
  -1  -3  12   85.35    8.35
   1   3  13    2.16    0.95
   1   3 -13    7.56    1.81
   3  -1 -13    6.11    1.17
  -3   1  13    3.30    1.21
   3  -1  13    1.82    1.46
  -3   1  13    4.35    1.58
  -1  -3  13    3.46    1.39
   1   3  14    5.32    1.82
   1   3 -14    7.37    1.74
   3  -1 -14    9.01    1.62
  -3   1  14    9.13    2.71
   1   3  14    7.41    2.70
   3  -1  14    5.42    3.52
  -3   1  14    8.25    1.36
  -1  -3  14    7.96    2.01
   1   3 -15   45.28    3.37
   3  -1 -15   39.15    7.32
  -3   1  15   33.92    9.54
   1   3  15   35.35    6.73
   3  -1  15   36.09    7.79
  -3   1  15   34.66    3.74
  -1  -3  15   32.76    7.75
   1   3 -16   18.33    4.81
   3  -1 -16   18.09    4.61
  -3   1  16   17.55    4.02
   1   3  16   15.30    4.50
   3  -1  16   20.39    3.76
  -1  -3  16   11.27    2.16
   3  -1 -17   33.61    5.92
  -3   1  17   32.24    9.23
   1   3  17   33.68    9.76
   3  -1  17   29.10    8.90
  -1  -3  17   32.34    9.17
  -3   1  18    9.46    3.21
   1   3  18    6.98    2.99
   3  -1  18   10.46    4.05
  -1  -3  18   11.05    3.91
  -3   1  19    0.27    1.26
   3  -1  19    0.10    1.12
  -1  -3  19    2.47    1.11
   0   3   0    0.29    0.42
   3   0   0    2.01    0.86
  -3   0   0    0.73    0.89
   0  -3   0    0.93    0.36
   0   3   0    0.41    0.41
   0  -3   0    0.82    0.49
   0   3   1   63.76    2.92
   0   3  -1   65.58    3.26
   3   0  -1   65.89    2.91
   3   0   1   65.83    2.77
  -3   0   1   61.11    3.65
  -3   0  -1   61.43    2.82
   0  -3  -1   66.04    2.63
   0   3   1   63.52    2.52
   0   3  -1   65.92    2.82
   0  -3   1   64.20    2.94
   0   3   2  143.23    5.94
   0   3  -2  140.26    5.77
  -3   0  -2  146.78    1.97
   3   0  -2  138.18    5.84
   3   0   2  142.73    5.57
   0  -3  -2  148.70    1.77
  -3   0   2  139.09    5.82
   0   3   2  145.39    4.20
  -3   0  -2  139.90    5.74
   0   3  -2  136.69    5.59
   0  -3   2  144.74    4.76
   3   0  -2  135.89    5.35
   0   3   3  181.35    3.11
  -3   0  -3  179.90    2.02
   3   0  -3  176.30    3.15
   0   3   3  178.15    2.35
  -3   0   3  172.13    3.18
  -3   0  -3  177.59    3.10
   0  -3   3  179.61    3.31
   3   0  -3  181.60    2.60
  -3   0   3  178.61    2.91
   0   3   4  196.20    3.55
   0   3  -4  197.19    3.38
   3   0  -4  198.48    3.63
  -3   0   4  199.83    3.69
  -3   0  -4  196.87    3.42
   0  -3   4  205.53    3.75
  -3   0   4  200.67    3.01
   0   3   5  478.49    6.95
   0   3  -5  487.19    6.58
   3   0  -5  479.00    6.82
  -3   0   5  480.35    6.86
  -3   0  -5  479.59    6.69
   0  -3   5  485.82    7.00
  -3   0   5  490.87    6.25
   0   3   6  170.71    4.06
   3   0   6  169.04    3.08
   0   3  -6  171.89    4.09
   3   0  -6  170.73    4.38
  -3   0   6  174.96    5.69
  -3   0  -6  167.82    4.17
   0  -3   6  168.23    4.29
  -3   0   6  174.44    3.84
   3   0   7  237.26    4.44
   0   3  -7  231.08    5.22
   3   0  -7  236.08    5.62
  -3   0  -7  238.67    4.45
   0  -3  -7  235.29    5.21
  -3   0   7  234.77    5.94
  -3   0  -7  226.17    5.31
   0  -3   7  226.41    6.72
  -3   0   7  232.68    5.52
   3   0   8    4.15    0.92
   0   3  -8    5.56    1.12
   3   0  -8    6.15    1.43
  -3   0  -8    3.99    0.90
   0  -3  -8    5.02    1.04
  -3   0  -8    6.03    1.74
   0  -3   8    2.46    1.32
  -3   0   8    3.78    1.21
   0   3  -9   63.78    6.66
   3   0  -9   61.90    3.65
  -3   0  -9   63.76    3.95
   0  -3  -9   63.09    3.65
  -3   0  -9   63.65    3.70
   0  -3   9   66.84    5.82
  -3   0   9   65.20    3.52
   0   3 -10  204.73    4.50
   3   0 -10  200.82    6.74
  -3   0 -10  208.64    2.91
   0  -3 -10  207.99    4.06
  -3   0 -10  199.82    5.76
   0  -3  10  196.66    4.63
  -3   0  10  203.61    3.97
   0   3 -11   56.96    3.60
   3   0 -11   58.85    2.78
  -3   0 -11   57.40    1.79
   0  -3 -11   58.70    2.95
   3   0  11   57.83    5.60
   0  -3  11   53.36    2.85
  -3   0  11   52.48    2.13
   0   3 -12   11.77    2.91
   3   0 -12   14.57    3.39
   0  -3 -12   11.63    2.39
   3   0  12   10.53    2.62
   0  -3  12   11.29    3.64
  -3   0  12   11.19    2.77
   0   3 -13    4.51    0.87
   3   0 -13    6.25    1.77
   0  -3 -13    3.14    1.08
   0   3  13    1.88    1.19
   3   0  13    4.89    1.62
   0  -3  13    2.04    0.78
  -3   0  13    2.82    0.72
   0   3 -14   44.84    2.56
   3   0 -14   45.27    7.67
   0  -3 -14   45.45    5.67
   0   3  14   39.11    5.65
   3   0  14   48.94   11.08
   0  -3  14   47.44    7.14
  -3   0  14   41.47    5.78
   0   3 -15    0.52    0.49
   3   0 -15    1.50    0.82
   0  -3 -15    0.36    0.28
   0   3  15    1.52    0.71
   3   0  15    2.10    0.74
   0  -3  15    1.34    0.81
  -3   0  15    2.60    0.84
   3   0 -16    7.48    2.15
  -3   0  16    7.53    3.01
   0   3  16   10.41    2.66
   3   0  16    7.44    1.29
   0  -3  16    4.95    1.26
  -3   0  16    6.26    2.00
   3   0 -17    7.10    1.51
  -3   0  17    3.00    1.89
   0   3  17    6.91    1.44
   3   0  17    9.76    1.84
   0  -3  17    7.67    3.04
  -3   0  18   60.82   15.08
   3   0  18   56.49    9.56
   0  -3  18   60.20   13.52
  -3   0  19   15.87    3.98
   3   0  19    7.06    3.73
   0  -3  19   14.83    3.66
  -1   3   0  344.73    4.79
   3   1   0  341.95    4.46
  -3  -1   0  350.40    5.02
  -1   3   0  358.06    4.50
   1  -3   0  352.16    4.68
   3   1  -1  177.46    2.98
   1  -3  -1  178.02    2.54
  -3  -1  -1  176.09    2.94
   1  -3  -1  175.31    2.71
  -1   3   2  550.13    7.01
  -1   3  -2  540.26    6.75
  -3  -1  -2  553.68    6.18
   3   1   2  555.21    6.19
   3   1  -2  549.61    7.02
  -3  -1   2  554.38    7.12
   1  -3  -2  549.75    6.43
  -1   3   2  552.34    6.26
  -3  -1  -2  535.70    6.60
  -1   3  -2  540.41    6.79
   1  -3   2  560.63    7.16
  -1   3   3  194.68    3.38
  -3  -1  -3  206.23    2.51
  -1   3  -3  203.19    3.24
   3   1   3  198.55    2.43
   3   1  -3  205.29    3.49
  -3  -1   3  193.83    3.58
  -1   3   3  196.91    2.75
  -3  -1  -3  206.20    3.23
  -1   3  -3  206.72    3.46
   1  -3   3  193.09    3.41
  -3  -1   3  191.70    3.41
  -1   3  -4  141.24    5.79
   3   1   4  149.60    1.80
   3   1  -4  135.74    5.72
   3   1   4  147.52    1.78
   1  -3  -4  138.63    5.77
  -3  -1   4  146.76    3.06
  -1   3   4  146.46    2.42
  -3  -1  -4  145.17    4.68
  -1   3  -4  141.48    6.14
   1  -3   4  141.97    5.99
  -3  -1   4  150.07    2.57
  -1   3  -5  332.58    4.80
  -3  -1   5  362.11    7.30
  -1   3   5  361.22    4.87
   1  -3   5  359.32    5.68
  -3  -1   5  358.81    5.04
  -1   3  -6  370.85    7.48
   3   1   6  347.25    6.26
   3   1  -6  363.65    7.84
   1  -3  -6  377.14    7.81
  -1   3   6  353.38    7.49
  -3  -1  -6  366.05    7.54
  -1   3  -6  355.69    8.03
   1  -3   6  346.46    8.56
  -3  -1   6  353.79    7.17
   3   1   7   32.22    1.43
   1  -3   7   30.97    4.19
   3   1   8    5.29    1.27
  -1   3  -8   13.76    3.02
   3   1  -8   12.74    3.40
   1  -3  -8   13.58    3.31
  -3  -1  -8   14.11    3.37
   1  -3   8    9.99    2.27
  -3  -1   8    6.06    1.65
   3   1   9    5.00    1.06
  -1   3  -9    5.18    0.77
   3   1  -9    3.60    1.36
   1  -3  -9    6.36    1.11
  -3  -1  -9    4.02    0.91
   1  -3   9    5.89    1.82
  -3  -1   9    5.22    0.74
   3   1  10  122.62    2.37
  -1   3 -10  126.60    5.76
   3   1 -10  120.53    4.27
   1  -3 -10  120.18    4.31
   1  -3  10  127.77    5.33
  -3  -1  10  117.15    3.20
   3   1  11  197.05    6.84
  -1   3 -11  193.25    7.10
   3   1 -11  189.80    7.49
   1  -3 -11  182.61    6.93
   1  -3  11  189.56   10.26
  -3  -1  11  194.48    7.39
  -1   3 -12   93.13    2.88
   3   1 -12   98.09    3.72
   1  -3 -12  101.74    4.98
  -1   3  12   81.54    5.77
   1  -3  12   86.35    3.73
  -3  -1  12   87.91    3.13
  -1   3 -13    4.01    0.94
   3   1 -13    3.09    0.98
   1  -3 -13    3.88    1.60
   3   1  13    7.03    2.43
  -1   3  13    6.31    1.21
   1  -3  13    3.31    0.98
  -3  -1  13    8.70    2.03
  -1   3 -14    9.87    1.81
   3   1 -14    9.93    2.04
   1  -3 -14    9.99    1.37
   3   1  14    5.14    2.14
  -1   3  14    8.65    2.06
   1  -3  14    5.14    2.82
  -3  -1  14    8.96    1.56
   3   1 -15   32.68    5.87
   1  -3 -15   33.65    6.52
   3   1  15   34.88    8.58
  -1   3  15   47.98    2.60
   1  -3  15   44.88    6.25
  -3  -1  15   45.40    4.29
   3   1 -16   15.59    4.05
  -1   3  16   18.47    6.09
  -1   3  16   16.62    4.52
   1  -3  16   19.53    4.68
  -3  -1  16   17.92    3.97
   3   1 -17   31.02    7.05
  -1   3  17   24.58    8.65
   3   1  17   33.35    8.77
   1  -3  17   34.90    8.92
  -3  -1  18    9.76    2.85
  -1   3  18    7.89    3.14
   3   1  18   10.08    2.87
   1  -3  18   10.64    3.38
  -3  -1  19    0.34    0.97
   3   1  19    1.74    1.43
   1  -3  19   -0.55    1.14
  -2   3   0   23.16    2.22
   3   2   0   20.55    1.48
  -3  -2   0   21.28    3.00
  -2   3   0   23.11    1.39
   2  -3   0   21.68    1.78
  -2   3   1 1214.08   13.78
  -2   3  -1 1140.98   12.97
   3   2  -1 1188.02   13.49
  -3  -2   1 1208.43   13.79
  -3  -2  -1 1156.37   12.88
  -2   3   1 1195.58   13.15
  -2   3  -1 1136.59   12.81
   2  -3   1 1187.71   13.29
   2  -3  -1 1151.56   12.57
  -2   3   2  399.88    5.63
  -2   3  -2  394.14    5.42
   3   2   2  396.86    4.87
   3   2  -2  398.74    5.53
  -3  -2   2  405.72    5.63
  -2   3   2  402.23    5.10
  -3  -2  -2  391.90    4.98
  -2   3  -2  400.41    6.55
   2  -3   2  392.78    5.43
  -2   3   2  402.92    4.73
  -3  -2   2  392.73    5.27
  -2   3  -3  219.62    3.40
   3   2  -3  220.62    3.86
   2  -3  -3  215.44    3.72
  -3  -2   3  230.91    3.91
  -2   3   3  234.17    3.44
   2  -3   3  239.50    4.00
  -3  -2   3  238.45    3.77
  -2   3   3  235.45    3.49
   3   2   4  695.33    7.73
  -2   3  -4  714.02    8.51
   3   2  -4  694.63    8.93
   2  -3  -4  702.05    9.17
  -3  -2   4  709.71    9.36
  -2   3   4  703.07    8.53
  -3  -2  -4  719.97    8.57
  -2   3  -4  726.14    9.48
   2  -3   4  698.38    9.20
  -3  -2   4  706.68    8.87
   3   2   5  195.93    2.67
  -2   3  -5  213.85    3.43
   3   2  -5  212.57    4.10
   2  -3  -5  215.06    5.52
   3   2   5  202.60    2.97
  -2   3   5  200.37    3.42
  -3  -2  -5  210.82    3.45
  -2   3  -5  206.82    4.48
   2  -3   5  198.05    3.93
  -3  -2   5  202.92    3.75
   3   2   6  178.71    3.73
  -2   3  -6  176.58    4.18
   3   2  -6  173.78    4.44
   2  -3  -6  179.07    4.45
  -2   3   6  179.17    4.72
  -3  -2  -6  175.82    5.45
  -2   3  -6  173.24    4.50
   2  -3   6  181.20    4.95
  -3  -2   6  172.69    4.21
   3   2   7  112.08    3.56
  -2   3  -7  107.51    4.54
   3   2  -7  103.99    3.98
   2  -3  -7  104.12    3.89
  -2   3   7  104.99    3.81
  -3  -2  -7  112.53    5.10
  -2   3  -7  105.16    4.82
   2  -3   7  103.17    4.15
  -3  -2   7  110.48    4.05
   3   2   8  370.30    7.70
  -2   3  -8  371.35    8.09
   3   2  -8  368.12    8.68
   2  -3  -8  366.40    8.61
  -2   3   8  379.74    8.70
  -3  -2  -8  372.75    8.48
  -2   3  -8  362.87    8.88
   2  -3   8  359.56    8.91
  -3  -2   8  376.38    9.60
   3   2   9   78.12    2.39
  -2   3  -9   86.18    2.20
   3   2  -9   86.74    3.21
   2  -3  -9   87.84    4.25
  -2   3   9   78.69    2.50
  -3  -2  -9   99.10    6.81
  -2   3  -9   91.71    5.62
   2  -3   9   74.11    3.37
  -3  -2   9   81.87    2.68
   3   2  10    2.85    0.78
  -2   3 -10    4.15    0.78
   3   2 -10    4.22    1.13
   2  -3 -10    2.33    1.14
  -2   3  10    2.13    0.85
  -2   3  10    2.86    1.27
   2  -3  10    3.06    1.85
  -3  -2  10    2.46    0.60
   3   2  11   12.34    2.76
  -2   3 -11   17.25    2.79
   3   2 -11   18.32    4.69
   2  -3 -11   17.38    3.65
  -2   3  11   13.62    2.89
  -2   3  11   10.66    2.02
   2  -3  11   12.07    3.36
  -3  -2  11   13.51    3.67
  -2   3 -12  112.75    5.31
   3   2 -12  119.50    4.12
   2  -3 -12  114.41    6.64
  -2   3  12  102.62    3.52
  -2   3  12  101.63    3.40
   2  -3  12   95.33    6.76
  -3  -2  12  103.74    3.55
  -2   3 -13   21.81    4.66
   3   2 -13   28.01    4.38
   2  -3 -13   29.16    2.72
  -2   3  13   29.97    7.39
  -2   3  13   32.30    3.42
   2  -3  13   31.08    8.37
  -3  -2  13   27.13    7.46
   3   2 -14    3.56    1.38
   2  -3 -14    2.81    0.54
  -2   3  14    3.03    1.03
  -2   3  14    1.45    0.45
   2  -3  14    2.00    1.75
  -3  -2  14    1.10    1.22
   3   2 -15   50.24    4.11
   2  -3 -15   50.38    4.01
  -2   3  15   59.99    3.14
   3   2  15   51.73    4.92
  -2   3  15   48.67    2.32
   2  -3  15   44.27    4.22
  -3  -2  15   41.82    3.70
   3   2 -16   29.57    3.31
   2  -3 -16   32.94    2.93
  -2   3  16   21.88    3.77
   3   2  16   28.93    7.40
   2  -3  16   23.20    7.10
  -3  -2  16   26.47    6.69
   3   2 -17    8.99    3.18
   3   2  17    6.96    3.13
   2  -3  17   10.62    2.35
  -3  -2  17    9.05    3.92
  -2   3  18    0.95    0.99
   3   2  18    2.01    1.35
   2  -3  18   -0.16    1.54
  -3   3   0 2368.56   67.35
   3   3   0 2322.56   24.93
  -3  -3   0 2307.39   24.77
  -3   3   0 2302.99   24.92
   3  -3   0 2270.97   23.93
  -3   3   1  211.66    3.74
  -3   3  -1  210.51    3.44
   3   3   1  207.11    3.35
   3   3  -1  205.87    3.57
  -3  -3   1  206.39    3.74
  -3  -3  -1  208.65    3.12
  -3   3   1  210.26    3.45
  -3   3  -1  209.78    3.56
   3  -3   1  217.47    3.46
   3  -3  -1  211.38    2.93
  -3   3  -2   51.77    2.51
   3   3   2   48.52    2.28
   3   3  -2   48.88    2.45
   3  -3  -2   51.40    3.22
  -3  -3   2   52.68    2.57
  -3   3   2   50.19    2.52
  -3  -3  -2   54.18    3.45
  -3   3  -2   49.08    2.50
   3  -3   2   50.43    2.65
  -3   3   2   55.51    2.48
   3  -3  -2   50.81    2.29
  -3  -3   2   50.43    2.50
  -3   3  -3    8.83    1.31
   3   3   3    9.32    1.80
   3   3  -3    9.96    1.29
   3  -3  -3    9.03    2.27
  -3  -3   3    7.47    1.86
  -3   3   3    7.57    1.87
  -3  -3  -3    7.99    0.61
  -3   3  -3   10.25    2.35
   3  -3   3    8.28    2.94
  -3   3   3    7.99    1.08
  -3  -3   3   10.17    2.92
  -3   3  -4   36.61    1.81
   3   3   4   37.96    1.82
   3   3  -4   38.48    2.18
   3  -3  -4   35.57    2.06
  -3   3   4   37.32    2.07
  -3  -3  -4   39.87    1.86
  -3   3  -4   38.80    2.32
   3  -3   4   41.55    4.74
  -3  -3   4   36.02    2.06
  -3   3   4   39.63    1.69
   3   3   5  560.08   10.56
  -3   3  -5  556.90   10.57
   3   3  -5  551.15   11.08
   3  -3  -5  549.41   11.02
  -3   3   5  541.58   10.56
  -3  -3  -5  545.54   10.37
  -3   3  -5  547.16   11.10
   3  -3   5  550.31   11.07
  -3  -3   5  555.33   10.99
   3   3   6   27.08    1.23
  -3   3  -6   27.10    1.28
   3   3  -6   29.37    2.50
   3  -3  -6   25.95    1.85
  -3   3   6   35.85    2.64
  -3   3  -6   28.04    1.82
  -3  -3  -6   29.83    2.02
   3  -3   6   25.58    2.13
  -3  -3   6   29.88    3.52
   3   3   7  368.43    7.44
  -3   3  -7  383.52    8.07
   3   3  -7  379.11    8.37
   3  -3  -7  364.43    8.03
  -3   3   7  375.08    8.08
  -3   3  -7  371.35    8.32
  -3  -3  -7  378.28    7.68
  -3   3   7  390.72    7.66
   3  -3   7  374.70    8.50
  -3  -3   7  379.12    8.15
   3   3   8   63.81    3.42
  -3   3  -8   63.64    3.30
   3   3  -8   57.20    3.35
   3  -3  -8   60.12    5.48
  -3   3   8   61.05    3.46
  -3   3  -8   57.33    3.47
  -3  -3  -8   63.80    3.36
  -3   3   8   58.44    3.04
   3  -3   8   62.69    6.58
  -3  -3   8   61.74    3.56
   3   3   9   69.72    1.93
  -3   3  -9   74.17    2.13
   3   3  -9   73.21    2.90
   3  -3  -9   72.76    5.76
  -3   3   9   68.02    3.14
  -3   3  -9   69.11    2.79
  -3   3   9   71.19    2.04
   3  -3   9   70.15    3.64
  -3  -3   9   70.18    2.58
   3   3  10   21.54    2.20
  -3   3 -10   22.93    1.21
   3   3 -10   21.84    3.86
   3  -3 -10   22.93    4.88
  -3   3  10   21.67    4.22
  -3   3 -10   21.59    5.97
  -3   3  10   20.12    2.23
   3  -3  10   19.75    5.15
  -3  -3  10   20.32    5.53
   3   3  11   38.86    2.01
  -3   3 -11   38.47    1.60
   3   3 -11   41.99    4.32
   3  -3 -11   40.88    3.80
  -3   3  11   41.13    3.22
  -3   3  11   37.75    1.68
   3  -3  11   35.78    3.42
  -3  -3  11   38.46    2.72
   3   3 -12  142.23    3.87
  -3   3 -12  136.69    2.91
   3  -3 -12  139.31    3.94
  -3   3  12  136.07    6.07
  -3   3  12  141.12    3.48
   3  -3  12  146.71    6.23
  -3  -3  12  137.65    4.44
   3   3 -13    3.19    1.17
   3  -3 -13    2.80    1.27
  -3   3  13    2.59    1.38
   3  -3  13    2.31    1.65
  -3   3  13    2.60    0.84
  -3  -3  13    1.76    1.61
   3   3 -14    2.39    1.05
   3  -3 -14    1.20    0.74
  -3   3  14    0.79    0.68
   3  -3  14    1.05    1.82
  -3  -3  14    1.78    0.72
   3   3 -15    3.60    1.94
   3  -3 -15    5.35    1.17
  -3   3  15    4.01    1.83
   3  -3  15    2.72    1.41
  -3  -3  15    5.05    2.10
   3   3 -16   30.23    6.76
   3  -3 -16   34.63    6.19
   3   3  16   32.22    9.35
   3  -3  16   33.99    7.84
  -3  -3  16   32.43    8.16
   3   3 -17    9.74    2.91
   3  -3 -17   18.39    3.07
  -3   3  17   12.69    4.77
   3   3  17   12.22    3.96
   3  -3  17   20.15    3.96
  -3   3  18    0.98    0.52
   3   3  18    1.57    0.99
   3  -3  18   -0.60    1.39
  -3  -3  18    0.75    0.55
  -4   3   0  590.25    7.82
   3   4   0  593.79    7.84
  -3  -4   0  607.70    7.45
  -4   3   0  600.87    8.12
   4  -3   0  603.83    7.45
  -4   3  -1  256.11    4.10
  -4   3  -1  252.83    4.29
   4  -3  -1  254.57    3.39
   3   4   2  490.81    7.02
   3   4  -2  525.66    8.77
   4  -3  -2  529.84    7.36
  -4   3   2  491.27    7.07
  -3  -4  -2  529.74    6.24
  -4   3  -2  526.94    7.42
   4  -3   2  490.77    6.85
  -3  -4   2  493.45    7.19
  -4   3  -3  604.26    7.59
   3   4   3  591.83    7.88
   3   4  -3  586.70    8.12
   4  -3  -3  600.07    8.27
  -4   3   3  603.49    8.08
  -3  -4  -3  609.32    7.21
  -4   3  -3  599.85    8.32
   4  -3   3  614.39    8.31
  -3  -4   3  602.75    8.35
  -4   3  -4   98.07    3.32
   3   4   4  101.41    3.52
   3   4  -4   97.22    3.74
   4  -3  -4   97.74    3.68
  -4   3   4  106.05    3.85
  -3  -4  -4   96.80    3.28
  -4   3  -4   94.70    3.63
   4  -3   4  100.16    3.77
  -3  -4   4   99.05    3.72
   3   4   5   68.12    2.81
  -4   3  -5   73.16    2.56
   3   4  -5   75.31    4.18
   4  -3  -5   70.87    3.08
  -4   3   5   70.18    6.56
  -4   3  -5   73.62    3.19
  -3  -4  -5   72.57    2.88
   4  -3   5   70.86    3.06
  -3  -4   5   68.79    2.92
   3   4   6  343.72    6.96
  -4   3  -6  335.38    6.79
   3   4  -6  319.25    7.27
   4  -3  -6  325.28    7.44
  -4   3   6  341.56    7.47
  -4   3  -6  332.76    7.58
  -3  -4  -6  343.84    6.76
   4  -3   6  340.59    7.92
  -4   3   6  353.53    6.47
  -3  -4   6  337.13    7.53
   3   4   7  113.37    3.49
  -4   3  -7  115.75    3.02
   3   4  -7  125.63    4.01
   4  -3  -7  120.10    3.89
  -4   3   7  107.48    6.06
  -4   3  -7  116.33    4.37
  -3  -4  -7  115.61    3.03
   4  -3   7  104.18    5.75
  -4   3   7  107.91    5.08
  -3  -4   7  109.64    5.68
   3   4   8   34.51    1.38
  -4   3  -8   30.48    1.71
   3   4  -8   29.52    3.22
   4  -3  -8   29.00    1.97
  -4   3   8   35.23    2.73
  -4   3  -8   34.29    5.50
   4  -3   8   34.36    4.68
  -4   3   8   33.45    1.06
  -3  -4   8   33.82    4.23
   3   4   9  101.32    2.62
  -4   3  -9  108.65    2.21
   3   4  -9   99.06    3.18
   4  -3  -9   97.22    4.22
  -4   3   9  100.71    4.64
  -4   3  -9  102.71    4.69
   4  -3   9  103.31    3.55
  -4   3   9   99.71    2.29
  -3  -4   9  108.58    3.53
   3   4  10  154.37    6.27
  -4   3 -10  151.57    5.42
   3   4 -10  151.57    6.27
   4  -3 -10  140.91    8.45
  -4   3  10  160.24    6.46
  -4   3 -10  142.60    6.09
   4  -3  10  154.89    6.54
  -4   3  10  161.03    6.49
  -3  -4  10  153.98    9.31
   3   4  11   14.58    3.07
   3   4 -11   16.12    3.24
  -4   3 -11   14.09    2.74
   4  -3 -11   17.32    4.50
  -4   3  11   16.43    3.72
  -4   3 -11   15.68    3.24
   4  -3  11   17.56    4.32
  -4   3  11   14.45    3.87
  -3  -4  11   15.12    3.55
   3   4 -12   20.55    3.23
   4  -3 -12   20.40    1.64
  -4   3  12   18.05    4.52
  -4   3 -12   19.88    3.57
   4  -3  12   23.86    5.62
  -4   3  12   19.35    2.67
  -3  -4  12   20.71    5.86
   3   4 -13  157.29    4.27
   4  -3 -13  163.79    4.43
  -4   3  13  170.73    4.65
   4  -3  13  172.36    5.11
  -3  -4  13  171.99    5.17
   3   4 -14   87.68   12.00
   4  -3 -14   81.92    4.82
  -4   3  14   73.23    5.44
   4  -3  14   89.58    4.02
  -3  -4  14   74.22    6.20
   3   4 -15  125.57    4.46
   4  -3 -15  123.86    7.78
  -4   3  15  118.84    7.89
   4  -3  15  115.05    4.84
  -3  -4  15  120.10    4.45
   3   4 -16    4.18    1.36
   4  -3 -16    2.96    1.32
  -4   3  16    3.51    1.25
   4  -3  16    2.82    2.33
  -3  -4  16    4.06    1.09
   3   4 -17    4.25    1.40
   4  -3 -17    2.57    0.87
  -4   3  17    1.99    1.72
   3   4  17    3.90    1.65
   4  -3  17    7.89    2.40
  -3  -4  17    5.96    1.76
   4  -3 -18    4.89    1.98
  -4   3  18    6.71    2.55
   3   4  18    7.04    2.61
   4  -3  18    7.20    2.14
  -3  -4  18    4.51    2.17
   2   4   0  303.96    4.70
   4  -2   0  298.34    4.79
  -2  -4   0  297.73    3.97
  -4   2   0  288.00    4.56
   2   4   1   26.25    1.83
   2   4  -1   22.88    1.86
   4  -2  -1   24.25    1.52
   4  -2   1   27.14    1.65
  -2  -4  -1   23.58    1.37
  -4   2   1   26.29    1.84
  -4   2  -1   27.44    3.29
  -2  -4   1   26.12    1.58
  -4   2  -2   83.61    3.54
   2   4   2   96.31    4.45
   2   4  -2   79.11    3.67
   4  -2  -2   82.69    3.91
   2   4   2   96.46    3.95
  -4   2   2   94.72    4.20
  -2  -4  -2   81.09    3.23
  -4   2  -2   84.96    3.87
   4  -2  -2   83.19    3.51
  -2  -4   2   96.20    4.30
  -4   2  -3  144.84    4.55
   2   4  -3  138.54    6.79
   4  -2  -3  149.69    3.27
   2   4   3  126.33    5.02
  -4   2  -3  143.08    6.10
  -2  -4  -3  147.77    2.12
  -2  -4   3  123.88    5.97
   2   4   4  351.77    5.12
  -4   2  -4  348.63    4.54
   2   4  -4  346.42    5.62
   4  -2  -4  361.11    5.71
  -4   2   4  357.54    5.67
   2   4   4  367.58    4.42
  -4   2  -4  347.63    5.53
  -2  -4  -4  354.87    4.18
  -2  -4   4  357.88    5.68
   2   4   5  216.33    5.05
  -4   2  -5  222.63    4.35
   2   4  -5  218.12    6.42
   4  -2  -5  219.90    5.33
  -4   2   5  217.42    6.15
  -4   2  -5  220.30    5.31
  -2  -4   5  214.55    5.13
   2   4   6  673.68   12.75
  -4   2  -6  682.03   12.29
   2   4  -6  692.99   13.69
   4  -2  -6  676.34   13.39
  -4   2   6  668.10   13.40
  -4   2  -6  657.72   13.50
   4  -2   6  672.93   13.87
  -4   2   6  685.49   12.31
  -2  -4   6  666.71   13.39
   2   4   7   80.70    4.10
  -4   2  -7   99.59    4.76
   2   4  -7   96.81    4.98
   4  -2  -7   91.65    4.79
  -4   2  -7  103.19    5.41
   4  -2   7   86.58    4.81
  -4   2   7   82.63    3.89
  -2  -4   7   79.81    5.94
   2   4   8   85.28    4.56
   2   4  -8   98.86    7.55
  -4   2  -8   99.26    4.61
   4  -2  -8   91.16    4.83
  -4   2   8   84.91    4.65
  -4   2  -8   93.22    6.26
   4  -2   8   79.40    4.55
  -4   2   8   88.54    4.42
  -2  -4   8   85.88    4.78
   2   4   9   58.44    1.98
   2   4  -9   58.90    5.03
  -4   2  -9   51.21    1.19
   4  -2  -9   56.25    6.17
  -4   2   9   59.55    2.63
  -4   2  -9   54.27    6.36
   4  -2   9   54.31    2.83
  -4   2   9   56.42    1.91
  -2  -4   9   59.41    7.05
   2   4  10   90.74    3.44
   2   4 -10   93.40    3.50
   4  -2 -10   94.55    4.25
  -4   2  10   97.29    3.86
  -4   2 -10   91.91    3.87
   4  -2  10   88.15    4.02
  -4   2  10   85.14    3.49
  -2  -4  10   87.40    3.73
   2   4  11  275.97   10.45
   2   4 -11  263.97   10.05
   4  -2 -11  253.24   11.83
  -4   2  11  292.32   11.09
  -4   2 -11  282.28   10.80
   4  -2  11  290.99   11.18
  -4   2  11  276.74   10.10
  -2  -4  11  290.90   11.05
   2   4  12   12.00    3.67
   2   4 -12   23.49    5.56
   4  -2 -12   21.38    1.85
  -4   2  12   21.13    4.71
  -4   2 -12   28.21    5.43
   4  -2  12   19.33    3.05
  -4   2  12   16.19    3.33
  -2  -4  12   18.81    4.79
   2   4  13    4.74    1.09
   2   4 -13    5.47    1.23
   4  -2 -13    8.40    1.40
  -4   2  13    7.91    1.75
   4  -2  13    7.46    1.40
  -4   2  13    5.64    1.65
  -2  -4  13    5.90    1.88
   2   4 -14    7.74    1.42
   4  -2 -14    7.02    1.59
  -4   2  14    4.52    1.64
   4  -2  14    3.83    1.07
  -2  -4  14    5.69    1.39
   2   4 -15    2.03    0.80
   4  -2 -15    6.03    1.56
  -4   2  15    3.35    1.26
   4  -2  15    5.10    2.20
  -2  -4  15    3.55    1.43
   2   4 -16    3.26    1.36
   4  -2 -16    3.16    1.46
  -4   2  16    2.39    1.27
   4  -2  16    3.55    1.35
  -2  -4  16    2.15    0.93
   4  -2 -17   19.46    1.85
  -4   2  17   10.46    3.00
   2   4  17   12.02    3.85
   4  -2  17   12.97    3.14
  -2  -4  17   16.61    4.96
   2   4  18    5.61    1.66
   4  -2  18    8.25    1.94
  -2  -4  18    7.03    1.60
   1   4   0    4.38    1.33
   4  -1   0    5.10    1.33
  -4   1   0    2.83    0.81
  -1  -4   0    4.29    0.78
  -1  -4   0    4.08    0.88
   1   4   1  300.82    4.56
   1   4  -1  295.97    4.55
   4  -1  -1  300.74    4.48
   4  -1   1  302.67    4.08
  -4   1   1  303.86    4.67
  -4   1  -1  300.97    4.76
  -1  -4  -1  304.36    3.56
  -1  -4   1  303.44    4.76
   1   4   2  253.49    4.02
   1   4  -2  260.33    4.26
   4  -1  -2  257.83    4.24
   4  -1   2  253.74    3.52
  -4   1   2  241.43    4.10
  -4   1  -2  257.74    4.22
  -1  -4   2  250.54    4.31
  -4   1  -3  208.87    2.79
   1   4  -3  200.72    3.70
  -4   1  -3  210.38    2.92
   4  -1  -3  207.54    3.86
   4  -1  -3  204.52    2.59
   1   4   4   89.17    3.95
  -4   1  -4   96.40    3.89
   1   4  -4   98.00    4.42
   4  -1  -4   92.47    4.17
  -4   1  -4   96.26    3.86
  -4   1   4   89.45    4.07
   1   4   4   98.18    3.93
  -4   1  -4   91.12    4.16
   4  -1  -4   96.35    3.81
  -1  -4   4   86.81    4.53
   1   4   5  116.40    4.99
  -4   1  -5  112.75    4.37
   1   4  -5  112.70    5.15
   4  -1  -5  107.16    4.90
  -4   1  -5  115.42    4.48
  -4   1   5  117.51    5.37
  -4   1  -5  117.54    5.47
  -1  -4   5  116.23    5.17
  -4   1   5  120.13    4.89
   1   4   6   71.01    2.84
   1   4  -6   60.67    2.63
   4  -1  -6   60.42    2.89
  -4   1   6   67.92    3.36
  -4   1  -6   64.44    3.73
  -1  -4   6   72.25    3.14
  -4   1   6   69.57    2.39
   1   4   7  459.79    9.67
   1   4  -7  452.89    9.44
   4  -1  -7  448.81    9.65
  -4   1  -7  465.86    8.14
  -4   1   7  462.93   10.14
  -4   1  -7  449.27    9.75
  -1  -4   7  445.91    9.92
  -4   1   7  462.45    8.77
   1   4   8   46.71    3.61
   4  -1   8   45.08    2.10
   1   4  -8   41.66    3.88
   4  -1  -8   37.03    4.76
  -4   1  -8   39.06    1.81
  -4   1   8   50.23    3.31
  -4   1  -8   39.65    3.73
  -1  -4   8   45.69    3.16
  -4   1   8   44.79    2.65
   1   4   9  184.30    3.60
   4  -1   9  180.99    2.08
   1   4  -9  172.92    3.94
   4  -1  -9  175.11    4.09
  -4   1   9  183.90    4.43
  -4   1  -9  172.66    4.09
  -4   1   9  181.30    3.55
  -1  -4   9  180.11    4.44
   1   4  10   81.09    3.11
   1   4 -10   72.95    2.92
   4  -1 -10   79.49    3.90
  -4   1 -10   83.89    2.19
  -4   1  10   82.18    3.81
  -4   1 -10   85.40    3.40
   4  -1  10   81.03    8.21
  -4   1  10   78.55    2.60
  -1  -4  10   85.92    5.09
   1   4  11   11.62    3.11
   1   4 -11   16.20    3.82
   4  -1 -11   20.31    5.63
  -4   1  11   16.85    4.77
  -4   1 -11   17.71    4.35
   4  -1  11   16.99    3.08
  -4   1  11   13.10    3.66
  -1  -4  11   16.88    3.96
   1   4  12    7.98    2.07
   1   4 -12   16.58    1.90
   4  -1 -12   15.20    3.48
  -4   1  12   11.11    2.45
  -4   1 -12   15.80    1.58
   4  -1  12   11.90    2.88
  -4   1  12    9.20    1.80
  -1  -4  12    8.30    1.83
   1   4  13    9.11    2.20
   1   4 -13   11.61    1.93
   4  -1 -13   12.71    3.03
   4  -1  13   12.44    2.37
  -4   1  13    8.78    2.74
   1   4  14    9.47    1.97
   1   4 -14   11.21    1.24
   4  -1 -14    9.63    1.62
  -4   1  14    9.59    2.40
   4  -1  14    8.16    2.43
  -4   1  14   11.12    2.85
  -1  -4  14    8.57    2.49
   1   4 -15   11.67    1.54
   4  -1 -15   13.66    3.20
  -4   1  15   13.22    3.67
   4  -1  15   19.02    5.66
  -1  -4  15   15.02    2.16
   1   4 -16   38.95    2.99
   4  -1 -16   45.06    4.19
  -4   1  16   33.87    7.36
   1   4  16   30.31    8.89
   4  -1  16   39.77   10.54
  -1  -4  16   41.07    8.69
   4  -1 -17    4.33    1.78
  -4   1  17    9.41    2.50
   4  -1  17   10.16    2.61
  -1  -4  17    8.86    2.26
   4  -1 -18    5.55    1.59
  -4   1  18    5.45    2.16
   1   4  18    4.56    2.21
   4  -1  18    2.40    0.95
  -1  -4  18    7.31    1.68
   0   4   0   53.94    3.69
   4   0   0   52.40    2.38
  -4   0   0   53.14    2.57
   0   4   0   53.45    2.28
   0  -4   0   53.69    2.57
   0   4   1  451.42    6.10
   0   4  -1  463.32    6.27
   4   0  -1  463.61    6.19
   4   0   1  456.33    5.58
  -4   0   1  453.95    6.20
  -4   0  -1  460.08    6.24
   0  -4  -1  466.18    5.21
   0   4   1  462.27    5.21
   0   4  -1  464.62    5.75
   0  -4   1  458.89    6.20
   0   4   2   37.09    2.00
   0   4  -2   36.63    1.97
   4   0  -2   37.80    2.03
   4   0   2   35.97    1.62
   0  -4  -2   36.80    1.50
  -4   0   2   36.94    2.21
  -4   0  -2   35.32    2.01
   0   4   2   38.97    1.60
   0   4  -2   36.26    1.81
   0  -4   2   37.80    2.12
   0   4   3  316.61    4.80
   0   4  -3  312.75    4.80
  -4   0  -3  330.14    3.86
   4   0  -3  327.69    5.12
   4   0   3  326.63    3.80
  -4   0   3  315.09    5.01
   0   4   3  326.24    3.62
  -4   0  -3  315.17    4.84
   0  -4   3  316.68    5.02
   0   4   4   52.78    3.51
   0   4  -4   51.56    2.57
   4   0  -4   48.79    2.78
  -4   0   4   49.31    2.64
   0   4   4   52.06    2.18
  -4   0  -4   49.62    3.37
   0  -4   4   49.57    2.62
  -4   0   4   49.79    2.18
   0   4   5   62.63    3.01
   0   4  -5   62.70    3.43
   4   0  -5   67.11    3.29
   0   4   5   63.83    2.72
  -4   0   5   65.47    3.27
  -4   0  -5   60.73    2.99
   0  -4   5   62.29    3.13
  -4   0   5   63.56    2.81
   0   4   6  164.16    4.18
   0   4  -6  172.47    4.36
   4   0  -6  158.02    5.38
   0   4   6  171.54    3.73
  -4   0   6  167.55    4.51
  -4   0  -6  160.58    4.10
   0  -4   6  168.59    4.54
  -4   0   6  169.18    3.69
   0   4   7   42.40    2.70
   0   4  -7   37.85    1.91
   4   0  -7   44.58    5.66
  -4   0   7   46.41    5.21
  -4   0  -7   42.63    2.21
   0  -4   7   39.23    3.24
  -4   0   7   40.00    1.80
   0   4   8   19.47    2.03
   0   4  -8   19.25    1.62
   4   0  -8   21.77    2.62
  -4   0   8   17.81    4.52
  -4   0  -8   19.17    1.76
   0  -4   8   18.88    5.50
  -4   0   8   19.12    4.03
   0   4   9    2.52    0.89
   0   4  -9    2.30    0.93
   4   0  -9    4.37    0.93
  -4   0   9    2.71    1.24
  -4   0  -9    3.78    1.35
   0  -4   9    3.05    1.98
  -4   0   9    4.05    0.97
   0   4  10    0.69    0.73
   0   4 -10    0.72    0.74
   4   0 -10   -1.16    1.03
  -4   0  10    0.67    0.74
  -4   0 -10    1.73    0.96
   0  -4  10    1.62    1.30
  -4   0  10    0.46    0.57
   0   4  11  179.19    7.04
   0   4 -11  174.33    8.72
   4   0 -11  169.51    6.86
  -4   0  11  179.33    7.61
  -4   0 -11  181.63    7.36
   0  -4  11  182.06    7.52
  -4   0  11  178.58    6.72
   0   4  12   46.94    4.06
   0   4 -12   50.58    2.71
   4   0 -12   52.84    3.04
  -4   0  12   48.96    8.45
   4   0  12   49.90    7.50
   0  -4  12   51.79    4.11
  -4   0  12   49.14    2.28
   0   4  13   32.33    3.16
   0   4 -13   24.08    4.56
   4   0 -13   28.26    7.43
  -4   0  13   36.36    4.97
   4   0  13   26.81    5.43
   0  -4  13   30.37    8.74
  -4   0  13   26.66    6.16
   0   4  14    3.82    1.03
   0   4 -14    5.72    1.17
   4   0 -14    3.80    1.39
  -4   0  14    3.01    2.29
   4   0  14    5.95    2.10
   0  -4  14    1.38    0.79
  -4   0  14    3.20    1.09
   0   4 -15   68.26    4.63
   4   0 -15   69.92    3.87
  -4   0  15   58.52    6.04
   0   4  15   74.71    3.28
   4   0  15   73.47    3.77
   0  -4  15   65.17   13.21
   4   0 -16   70.03   10.20
  -4   0  16   75.48    3.79
   0   4  16   61.79    6.14
   4   0  16   74.90    6.54
   0  -4  16   69.35   13.20
   4   0 -17   19.00    4.04
  -4   0  17   23.10    4.96
   4   0  17   20.92    5.46
   0  -4  17   22.43    5.22
   4   0 -18    1.07    0.86
  -4   0  18    0.05    1.25
   4   0  18    0.47    1.65
   0  -4  18    0.42    0.54
  -1   4   0    3.94    1.33
   4   1   0    5.37    1.13
  -4  -1   0    3.31    1.03
  -1   4   0    5.04    1.29
   1  -4   0    4.17    1.60
  -1   4   1  305.42    4.64
  -1   4  -1  296.10    4.51
   4   1   1  306.66    4.13
   4   1  -1  298.83    4.43
  -4  -1   1  299.23    4.79
  -4  -1  -1  288.63    4.33
  -1   4   1  308.13    3.90
  -1   4  -1  305.16    4.23
   1  -4   1  302.05    4.55
   1  -4  -1  297.16    4.19
  -1   4   2  258.84    4.25
  -1   4  -2  252.07    4.08
   4   1   2  261.33    3.46
   4   1  -2  251.59    4.10
  -4  -1   2  257.56    4.28
   1  -4  -2  261.14    3.53
  -4  -1  -2  248.76    3.95
  -1   4   2  258.72    3.45
  -1   4  -2  248.56    3.90
   1  -4   2  256.97    4.33
  -1   4   3  208.72    3.79
  -1   4  -3  226.06    3.78
  -1   4   3  209.39    3.08
  -4  -1  -3  224.83    3.68
  -1   4  -3  228.04    4.51
  -1   4   4   95.98    4.38
  -4  -1  -4   93.25    3.66
  -1   4  -4   92.16    4.05
   4   1   4   98.25    3.85
   4   1  -4   92.56    4.20
  -4  -1   4   88.46    4.28
  -1   4   4   94.24    3.88
  -4  -1  -4   88.34    3.90
  -1   4  -4   88.72    4.59
   1  -4   4   90.51    4.26
  -4  -1   4   93.69    3.97
  -1   4   5  115.98    5.14
  -1   4  -5  119.52    5.13
   4   1  -5  120.88    6.14
  -4  -1   5  116.83    6.33
  -1   4   5  115.34    4.75
  -4  -1  -5  117.61    5.33
  -1   4  -5  119.45    5.27
   1  -4   5  113.34    5.10
  -4  -1   5  113.16    4.96
  -1   4   6   63.33    2.66
  -1   4  -6   69.17    2.74
   4   1  -6   68.63    4.78
  -4  -1   6   65.28    3.81
  -1   4   6   64.55    3.42
  -4  -1  -6   69.68    2.83
  -1   4  -6   64.10    2.86
   1  -4   6   58.96    2.88
  -4  -1   6   63.90    2.57
  -1   4   7  462.38    9.65
  -1   4  -7  443.78    9.01
   4   1  -7  450.12    9.59
  -4  -1   7  445.74    9.68
  -1   4   7  455.84    9.06
  -4  -1  -7  459.90    9.88
   1  -4   7  442.51    9.82
  -4  -1   7  446.81    9.23
  -1   4  -8   43.66    3.21
   4   1  -8   45.49    3.63
   1  -4  -8   48.45    2.92
  -4  -1   8   47.44    5.97
  -1   4   8   37.34    2.68
  -4  -1  -8   47.47    3.34
   1  -4   8   38.79    4.95
  -4  -1   8   38.36    3.73
  -1   4  -9  186.75    3.79
   4   1  -9  185.23    4.64
   1  -4  -9  178.60    3.84
  -4  -1   9  171.88    4.40
  -1   4   9  167.07    4.08
  -4  -1  -9  175.98    5.24
   1  -4   9  169.09    6.96
  -4  -1   9  174.34    3.63
   4   1  10   80.93    1.80
  -1   4 -10   80.98    3.44
   4   1 -10   82.19    3.64
   1  -4 -10   79.29    3.03
  -4  -1  10   87.07    3.55
  -1   4  10   83.84    5.10
  -4  -1 -10   90.11    5.17
   1  -4  10   85.44    4.48
  -4  -1  10   82.95    4.99
  -1   4 -11   12.85    2.72
   4   1 -11   13.48    1.79
   1  -4 -11   13.37    1.36
  -4  -1  11   16.04    3.42
  -1   4  11   15.92    4.26
  -4  -1 -11   16.73    1.58
   1  -4  11   17.84    3.95
  -4  -1  11   15.73    3.70
  -1   4 -12    6.23    0.99
   4   1 -12    3.54    1.63
   1  -4 -12    8.64    1.39
  -4  -1  12   15.00    3.13
  -1   4  12   15.62    3.93
   1  -4  12   14.64    3.36
  -4  -1  12   18.01    3.50
  -1   4 -13    9.60    1.97
   4   1 -13   10.38    2.65
   1  -4 -13    9.41    1.83
  -4  -1  13   12.53    2.97
  -1   4  13   10.63    2.64
  -1   4  13    8.77    2.48
   1  -4  13   11.51    2.86
  -4  -1  13   13.71    4.06
  -1   4 -14    9.38    1.13
   4   1 -14    9.02    1.90
  -4  -1  14   11.42    2.62
   4   1  14    5.47    2.25
  -1   4  14    7.28    1.85
   1  -4  14    9.46    1.33
  -4  -1  14   11.30    2.14
  -1   4  15   10.88    3.07
   4   1 -15   15.68    1.85
  -4  -1  15   15.55    3.07
  -1   4  15   10.75    3.39
   4   1  15    9.72    3.16
  -1   4  15   10.64    2.87
   1  -4  15   11.95    2.65
  -4  -1  15   11.88    2.97
   4   1 -16   41.33    2.97
  -4  -1  16   39.45   10.78
  -1   4  16   38.22    4.08
   4   1  16   45.67    9.86
   1  -4  16   46.29    4.49
   4   1 -17    7.13    2.19
  -4  -1  17    9.80    2.19
   4   1  17    7.03    1.98
   1  -4  17   10.88    2.06
   4   1 -18    7.19    1.59
  -4  -1  18    7.05    1.84
   4   1  18    4.69    2.39
   1  -4  18    4.26    1.22
  -2   4   0  292.95    4.56
   4   2   0  293.12    4.29
  -4  -2   0  300.19    4.65
  -2   4   0  297.43    4.23
   2  -4   0  291.48    4.27
  -2   4   1   23.69    1.51
  -2   4  -1   29.46    1.91
   4   2   1   24.42    2.36
   4   2  -1   27.80    1.71
  -4  -2   1   23.89    1.58
  -4  -2  -1   26.83    1.74
  -2   4   1   23.54    1.28
  -2   4  -1   27.80    1.56
   2  -4   1   24.37    2.18
   2  -4  -1   27.94    2.73
  -2   4   2   78.26    3.61
  -2   4  -2  100.31    4.33
   4   2   2   84.91    3.56
   4   2  -2  100.51    4.46
  -4  -2   2   85.24    3.87
  -2   4   2   78.91    3.87
  -2   4  -2  100.78    4.52
   2  -4   2   81.41    3.68
  -2   4   3  145.94    4.96
  -2   4  -3  125.04    5.44
   4   2   3  140.09    5.59
   4   2  -3  133.59    5.78
  -4  -2   3  146.68    3.22
  -2   4   3  149.07    2.55
  -4  -2  -3  125.14    5.22
  -2   4  -3  128.41    5.51
   2  -4   3  144.01    6.17
  -2   4   4  357.50    5.66
  -2   4  -4  352.59    5.13
   4   2   4  354.52    4.46
   4   2  -4  353.65    5.62
  -4  -2   4  356.53    5.86
  -2   4   4  353.65    4.92
  -4  -2  -4  355.75    5.50
  -2   4  -4  359.41    5.63
   2  -4   4  342.93    5.62
  -4  -2   4  360.74    5.88
  -4  -2  -5  221.75    4.25
  -2   4  -5  225.92    4.98
   4   2   5  219.15    4.21
   4   2  -5  224.01    5.39
   2  -4  -5  221.68    5.21
  -4  -2   5  212.30    5.23
  -2   4   5  218.85    4.75
  -4  -2  -5  217.61    4.91
  -2   4  -5  212.47    5.11
   2  -4   5  219.43    6.82
  -4  -2   5  212.82    4.80
   4   2   6  667.89   11.87
  -2   4  -6  677.42   12.90
   4   2  -6  665.47   13.24
   4   2   6  678.99   12.07
   2  -4  -6  674.18   13.28
  -4  -2   6  681.70   13.85
  -2   4   6  700.72   13.30
  -4  -2  -6  669.38   13.47
  -2   4  -6  693.28   14.04
   2  -4   6  658.92   13.33
  -4  -2   6  686.67   13.57
   4   2   7   98.16    4.44
  -2   4  -7   81.52    4.38
   4   2  -7   77.41    4.72
   2  -4  -7   81.89    4.31
  -4  -2   7  100.29    5.39
  -2   4   7  100.10    4.92
  -4  -2  -7   81.61    4.19
  -2   4  -7   79.66    4.58
   2  -4   7  100.76    5.43
  -4  -2   7   94.46    4.73
   4   2   8   96.54    4.37
  -2   4  -8   94.00    6.52
   4   2   8   96.97    4.47
   4   2  -8   83.17    4.70
   2  -4  -8   83.99    4.53
  -4  -2   8   93.87    5.16
  -2   4   8   94.64    6.21
  -4  -2  -8   86.04    4.42
  -2   4  -8   82.62    4.92
   2  -4   8   97.25    6.01
  -4  -2   8   96.11    4.94
   4   2   9   50.79    1.20
  -2   4  -9   52.88    3.19
   4   2   9   51.42    1.05
   4   2  -9   60.66    2.85
   2  -4  -9   63.29    7.00
  -2   4   9   55.10    2.67
  -4  -2  -9   54.23    2.30
  -2   4  -9   55.68    3.00
   2  -4   9   52.38    2.85
  -4  -2   9   54.52    2.12
   4   2  10   90.27    2.18
  -2   4 -10   89.60    2.95
   4   2 -10   87.47    5.01
   2  -4 -10   82.65    3.67
  -2   4  10   91.35    3.39
  -4  -2 -10   86.56    4.16
   2  -4  10   95.53    3.86
  -4  -2  10   88.55    5.01
  -2   4 -11  289.54   13.82
   4   2 -11  279.41   10.51
   2  -4 -11  284.84   10.49
  -2   4  11  277.10   10.18
   2  -4  11  255.07    9.89
  -4  -2  11  268.66    9.79
  -2   4 -12   17.88    3.02
   4   2 -12   18.14    4.40
   2  -4 -12   20.29    4.63
  -2   4  12   25.47    4.50
  -2   4  12   22.53    3.23
   2  -4  12   24.81    6.66
  -4  -2  12   23.52    5.10
  -2   4 -13    4.18    0.78
   4   2 -13    5.17    1.28
   2  -4 -13    7.38    1.15
  -2   4  13    2.98    1.01
  -2   4  13    3.12    0.73
   2  -4  13    4.80    1.31
  -4  -2  13    6.63    1.68
   4   2 -14    8.72    1.97
   2  -4 -14    6.89    1.31
  -2   4  14    5.41    2.32
  -2   4  14    3.92    1.55
   2  -4  14    6.24    2.33
   4   2 -15    5.82    1.22
   2  -4 -15    3.74    1.41
  -4  -2  15    0.89    2.68
  -2   4  15    3.00    0.99
   2  -4  15    4.82    2.13
  -4  -2  15    4.94    1.01
   4   2 -16    0.67    0.99
   2  -4 -16    2.19    0.74
  -4  -2  16    2.45    1.15
  -2   4  16    0.67    0.72
   4   2  16    0.62    0.92
   2  -4  16    0.45    0.87
  -4  -2  16    0.52    0.78
   4   2 -17    8.75    1.97
  -4  -2  17   20.13    3.55
  -2   4  17   11.40    3.35
   4   2  17   16.54    4.06
   2  -4  17   15.59    3.48
   4   2 -18    3.60    1.03
  -4  -2  18    9.79    2.44
   4   2  18    6.85    3.46
   2  -4  18    5.78    2.53
  -3   4   0  607.72    8.06
   4   3   0  590.48    7.87
  -4  -3   0  613.35    7.87
  -3   4   0  600.00    7.69
   3  -4   0  623.53    7.89
  -3   4   1  253.92    4.43
  -3   4  -1  230.00    4.57
   4   3  -1  227.18    4.04
  -3   4  -2  505.68    7.33
   4   3  -2  508.36    7.18
  -4  -3   2  536.22    7.74
  -3   4   2  539.16    7.23
  -3   4  -2  500.64    6.93
   3  -4   2  529.59    7.23
  -3   4   3  588.27    8.21
  -3   4  -3  601.77    7.80
   4   3   3  609.66    7.45
   4   3  -3  604.78    8.37
  -4  -3   3  608.33    8.59
  -3   4   3  600.94    7.73
  -4  -3  -3  607.74    7.54
  -3   4  -3  598.74    8.22
   3  -4   3  597.74    8.32
  -4  -3   3  606.27    8.42
  -3   4  -4  107.71    3.72
   4   3   4   94.01    3.17
   4   3  -4  104.61    5.07
   3  -4  -4   99.64    3.76
  -4  -3   4   89.34    4.90
  -3   4   4   96.42    3.50
  -4  -3  -4  101.52    3.53
  -3   4  -4  101.67    3.81
   3  -4   4   94.51    4.00
  -4  -3   4   99.39    3.65
  -3   4  -5   67.65    2.58
   4   3   5   71.97    2.54
   4   3  -5   68.38    3.06
   3  -4  -5   67.84    3.01
  -4  -3   5   73.56    4.02
  -3   4   5   73.45    3.78
  -4  -3  -5   67.58    2.64
  -3   4  -5   70.69    3.09
   3  -4   5   76.75    3.72
  -4  -3   5   69.27    2.83
   4   3   6  329.84    6.48
  -3   4  -6  347.84    7.42
   4   3  -6  331.50    7.55
   3  -4  -6  341.63    8.77
  -4  -3   6  342.74    7.94
  -3   4   6  341.33    7.23
  -4  -3  -6  355.08    8.02
  -3   4  -6  346.57    7.85
   3  -4   6  325.00    7.58
  -4  -3   6  344.22    7.51
   4   3   7  112.63    1.78
  -3   4  -7  106.47    5.15
   4   3  -7  111.01    5.73
   3  -4  -7  109.79    5.63
  -3   4   7  115.21    3.87
  -4  -3  -7  111.78    2.42
  -3   4  -7  110.09    5.74
   3  -4   7  118.41    4.06
  -4  -3   7  111.32    5.66
   4   3   8   30.07    1.91
  -3   4  -8   34.69    1.70
   4   3  -8   38.22    4.90
   3  -4  -8   35.09    2.48
  -3   4   8   29.10    4.77
  -4  -3  -8   34.39    1.55
  -3   4  -8   36.08    4.32
   3  -4   8   31.64    3.31
  -4  -3   8   27.53    2.31
   4   3   9  100.77    2.45
  -3   4  -9  106.85    4.62
   4   3  -9  101.68    3.60
   3  -4  -9   95.00    3.10
  -3   4   9  103.66    3.26
  -4  -3  -9  104.08    2.73
  -3   4  -9   98.37    3.61
   3  -4   9   99.41    3.79
  -4  -3   9   94.52    4.16
   4   3  10  150.24    5.46
  -3   4 -10  164.67    6.33
   4   3 -10  153.73    6.38
   3  -4 -10  160.53    6.45
  -3   4  10  154.55    6.26
  -3   4 -10  145.54    8.71
  -4  -3 -10  160.29    7.92
  -3   4  10  156.66    6.48
   3  -4  10  161.20    7.74
  -4  -3  10  150.39    6.05
  -3   4 -11   14.46    1.97
   4   3 -11   14.24    2.96
   3  -4 -11   15.31    3.07
  -3   4  11   13.68    3.70
  -3   4  11   13.33    3.59
   3  -4  11   14.26    4.10
  -4  -3  11   15.76    4.18
  -3   4 -12   20.11    1.90
   4   3 -12   22.67    5.39
   3  -4 -12   20.60    6.46
  -3   4  12   21.25    5.10
  -3   4  12   17.46    2.86
   3  -4  12   20.32    6.33
  -4  -3  12   20.23    5.54
   4   3 -13  164.80    5.20
   3  -4 -13  166.07    4.81
  -3   4  13  159.63    4.63
   3  -4  13  175.14    5.28
  -4  -3  13  167.67    4.43
   4   3 -14   80.26   11.48
   3  -4 -14   83.78    3.49
  -3   4  14   90.25    4.00
   3  -4  14   91.68    9.37
  -4  -3  14   79.61    5.18
   4   3 -15  119.89    7.64
   3  -4 -15  118.45    9.49
  -3   4  15  123.98    4.98
   3  -4  15  125.05    8.42
  -4  -3  15  121.82    4.65
   4   3 -16    3.19    0.69
   3  -4 -16    2.84    1.73
  -3   4  16    1.45    0.71
   3  -4  16    4.85    1.96
  -4  -3  16    2.60    1.16
   4   3 -17    1.46    0.86
   3  -4 -17    2.67    1.08
  -4  -3  17    3.35    1.39
  -3   4  17    4.34    1.30
   4   3  17    8.95    2.52
   3  -4  17    3.14    1.71
  -4  -3  17    3.34    1.79
   4   3 -18    9.42    1.67
  -4  -3  18    3.39    2.19
   4   3  18    4.20    0.99
   3  -4  18    4.88    2.25
  -4   4   0   23.75    3.12
   4   4   0   26.20    2.87
  -4  -4   0   27.79    1.78
  -4   4   0   28.98    2.85
   4  -4   0   25.83    1.44
  -4   4   1 2162.49   24.73
  -4   4  -1 2152.01   24.13
   4   4   1 2108.69   23.35
   4   4  -1 2151.37   23.99
  -4  -4   1 2145.69   23.77
  -4  -4  -1 2136.87   23.41
  -4   4   1 2095.89   23.14
  -4   4  -1 2131.58   24.08
   4  -4   1 2131.73   23.73
   4  -4  -1 2150.63   23.07
  -4   4   2  164.09    3.65
  -4   4  -2  165.18    3.22
   4   4   2  171.85    3.24
   4   4  -2  169.92    3.83
  -4  -4   2  167.12    3.38
  -4  -4  -2  161.00    2.76
  -4   4   2  163.39    3.29
  -4   4  -2  164.20    4.02
   4  -4   2  174.99    3.43
   4  -4  -2  173.89    2.55
  -4   4  -3   38.62    2.38
   4   4   3   37.82    1.92
   4   4  -3   39.72    4.53
   4  -4  -3   38.83    2.04
  -4  -4   3   38.87    3.56
  -4   4   3   38.20    1.87
  -4  -4  -3   42.14    1.70
  -4   4  -3   37.86    1.97
  -4   4   3   38.11    1.65
   4  -4   3   36.69    2.06
  -4  -4   3   39.03    1.96
  -4   4  -4  251.34    5.66
   4   4   4  253.77    5.54
   4   4  -4  243.35    5.92
   4  -4  -4  253.03    5.99
  -4  -4   4  256.42    7.67
  -4   4   4  253.70    6.21
  -4  -4  -4  253.51    5.28
  -4   4  -4  247.61    6.33
   4  -4   4  253.26    5.93
  -4   4   4  254.97    4.67
  -4  -4   4  249.32    5.80
  -4   4  -5  226.47    4.96
   4   4   5  223.15    4.83
   4   4  -5  215.01    5.66
   4  -4  -5  220.92    5.60
  -4  -4   5  222.29    5.63
  -4   4   5  223.38    5.26
  -4  -4  -5  223.11    4.92
  -4   4  -5  221.47    5.64
   4  -4   5  212.77    5.40
  -4   4   5  228.14    4.18
  -4  -4   5  231.87    5.72
   4   4   6  113.41    2.98
  -4   4  -6  120.05    5.47
   4   4  -6  118.20    4.04
   4  -4  -6  106.54    5.54
  -4   4   6  119.13    3.66
  -4  -4  -6  118.21    3.11
  -4   4  -6  115.13    5.52
   4  -4   6  107.83    6.32
  -4   4   6  114.32    2.73
   4   4   7  169.36    4.54
  -4   4  -7  164.45    4.48
   4   4  -7  162.76    5.59
   4  -4  -7  165.44    4.88
  -4   4   7  173.97    5.13
  -4   4  -7  168.70    5.06
  -4  -4  -7  169.24    4.24
  -4   4   7  167.58    3.84
   4  -4   7  165.94    5.05
  -4  -4   7  170.10    5.21
   4   4   8    1.98    0.83
  -4   4  -8    1.61    0.32
   4   4  -8    2.64    1.07
   4  -4  -8    1.63    0.92
  -4   4   8    1.43    1.20
  -4   4  -8    1.51    0.84
  -4  -4  -8    1.77    0.63
  -4   4   8    2.92    0.44
   4  -4   8    1.02    0.49
  -4  -4   8    1.85    1.03
   4   4   9   20.15    2.98
  -4   4  -9   21.56    1.17
   4   4  -9   22.24    4.21
   4  -4  -9   21.38    4.48
  -4   4   9   21.42    5.11
  -4   4  -9   21.07    6.11
  -4  -4  -9   19.75    1.19
  -4   4   9   20.89    1.03
   4  -4   9   20.69    4.26
  -4  -4   9   18.03    5.00
   4   4  10   22.60    2.75
  -4   4 -10   22.39    4.30
   4   4 -10   22.89    4.92
   4  -4 -10   25.69    5.81
  -4   4  10   23.31    6.29
  -4   4 -10   24.78    2.31
  -4   4  10   20.55    1.28
   4  -4  10   22.86    5.73
  -4  -4  10   22.93    6.81
  -4   4 -11  152.19    4.17
   4   4 -11  144.68    4.53
   4  -4 -11  154.18    4.54
  -4   4  11  153.05    4.35
  -4   4 -11  154.16    4.91
  -4   4  11  149.95    3.36
   4  -4  11  147.59    6.04
  -4  -4  11  156.88    4.46
   4   4 -12   11.23    1.85
   4  -4 -12    8.59    1.59
  -4   4  12    8.81    2.30
  -4   4 -12    7.96    1.47
   4  -4  12   11.83    3.02
  -4  -4  12   13.28    2.53
   4   4 -13   29.98    7.72
   4  -4 -13   34.26    6.82
  -4   4  13   33.47    7.51
   4  -4  13   34.10    8.89
  -4  -4  13   27.51    7.25
   4   4 -14   73.88    4.56
   4  -4 -14   67.95    9.61
  -4   4  14   68.83    3.21
   4  -4  14   76.37    5.08
  -4  -4  14   81.54    3.73
   4   4 -15   10.31    2.04
   4  -4 -15   10.54    2.11
  -4   4  15   10.89    2.36
   4  -4  15   14.11    2.87
  -4  -4  15    8.52    2.46
   4   4 -16    8.53    1.70
   4  -4 -16   10.96    1.93
  -4   4  16    7.19    2.11
   4  -4  16    6.43    2.30
  -4  -4  16    5.48    2.71
   4   4 -17   47.48    4.82
   4  -4 -17   39.72    9.30
  -4   4  17   41.95    7.17
   4  -4  17   43.64   11.34
  -4  -4  17   50.19    2.99
   4   4 -18    2.10    1.29
   4  -4 -18    3.12    1.07
  -4  -4  18    4.65    1.84
   4   4  18    1.01    1.76
   4  -4  18    2.15    0.98
  -5   4   0  910.78   40.70
   4   5   0  874.62   17.04
  -4  -5   0  876.61   16.28
  -5   4   0  865.42   16.71
   5  -4   0  856.44   15.77
  -5   4   1   64.08    4.62
  -5   4  -1   57.49    2.47
   4   5   1   61.20    2.84
   4   5  -1   59.41    2.65
  -4  -5   1   55.99    2.34
  -4  -5  -1   58.45    2.29
  -5   4   1   58.34    2.55
  -5   4  -1   56.75    2.57
   5  -4   1   58.12    2.41
   5  -4  -1   60.00    2.17
  -5   4  -2  301.28    6.50
   4   5   2  312.57    6.71
   4   5  -2  299.67    6.91
   5  -4  -2  299.41    6.74
  -4  -5   2  316.98    7.24
  -4  -5  -2  299.54    6.28
  -5   4   2  315.40    7.06
  -5   4  -2  297.00    7.38
   5  -4   2  321.87    7.21
   5  -4  -2  300.95    5.81
  -5   4  -3   78.30    3.19
   4   5   3   78.72    3.09
   4   5  -3   72.61    3.53
   5  -4  -3   78.50    5.50
  -4  -5   3   70.30    3.73
  -5   4   3   75.31    3.18
  -4  -5  -3   83.52    4.24
  -5   4  -3   72.56    3.14
   5  -4   3   75.30    3.10
   5  -4  -3   75.56    2.35
  -4  -5   3   81.49    3.41
  -5   4  -4  328.12    7.45
   4   5   4  306.17    6.52
   4   5  -4  327.11    7.68
   5  -4  -4  322.17    7.45
  -4  -5   4  307.32    7.19
  -5   4   4  313.34    7.12
  -4  -5  -4  327.96    6.39
  -5   4  -4  321.77    8.87
   5  -4   4  311.68    7.19
  -4  -5   4  317.44    7.40
  -5   4  -5  264.66    6.03
   4   5   5  273.25    6.32
   4   5  -5  259.11    6.81
   5  -4  -5  260.18    8.82
  -5   4   5  272.33    6.68
  -4  -5  -5  273.56    6.28
  -5   4  -5  258.54    6.81
   5  -4   5  273.07    7.26
  -4  -5   5  270.20    6.95
   4   5   6  141.02    3.75
  -5   4  -6  126.68    3.53
   4   5  -6  131.80    4.30
   5  -4  -6  134.13    4.36
  -5   4   6  142.73    4.25
  -5   4  -6  124.73    5.35
  -4  -5  -6  131.87    3.27
   5  -4   6  145.94    4.57
  -4  -5   6  139.35    4.44
   4   5   7  210.16    3.91
  -5   4  -7  197.90    3.56
   4   5  -7  188.65    5.81
   5  -4  -7  200.85    5.96
  -5   4   7  203.85    6.94
  -5   4  -7  195.44    6.04
  -4  -5  -7  198.81    3.78
   5  -4   7  209.14    5.03
  -4  -5   7  198.45    4.90
   4   5   8  176.86    4.71
  -5   4  -8  191.04    4.81
   4   5  -8  188.35    5.55
   5  -4  -8  199.34    7.61
  -5   4   8  173.84    7.87
  -5   4  -8  194.81    5.98
  -4  -5  -8  198.08    4.77
   5  -4   8  165.25    6.33
  -5   4   8  176.52    3.41
  -4  -5   8  181.93    5.42
  -5   4   8  177.99    3.44
   4   5   9   50.45    1.65
  -5   4  -9   43.96    2.07
   4   5  -9   46.23    2.80
   5  -4  -9   44.33    3.13
  -5   4   9   50.76    2.38
  -5   4  -9   47.70    4.09
   5  -4   9   53.25    5.84
  -5   4   9   51.53    1.27
  -4  -5   9   49.62    3.52
   4   5  10   16.77    1.61
  -5   4 -10   12.77    2.10
   4   5 -10   15.58    2.97
   5  -4 -10   13.14    3.70
  -5   4  10   17.83    4.29
  -5   4 -10   12.13    3.56
   5  -4  10   16.63    5.12
  -4  -5  10   16.98    3.96
   4   5 -11  131.56    4.04
   5  -4 -11  134.79    6.51
  -5   4  11  136.99    3.92
  -5   4 -11  127.21    4.12
   5  -4  11  141.12    4.55
  -4  -5  11  133.79    7.05
   4   5 -12   80.29    3.44
   5  -4 -12   81.90    4.62
  -5   4  12   89.94    5.13
  -5   4 -12   93.33    6.15
   5  -4  12   85.71    9.16
  -4  -5  12   88.74    3.93
   4   5 -13    1.46    0.99
   5  -4 -13    0.39    0.99
  -5   4  13    1.45    0.67
  -5   4 -13    0.68    1.25
   5  -4  13   -0.81    1.54
  -4  -5  13    0.20    1.05
   4   5 -14   19.58    5.38
   5  -4 -14   27.54    3.36
  -5   4  14   18.83    7.33
   5  -4  14   20.20    7.06
  -4  -5  14   21.83    6.13
   4   5 -15    1.74    1.14
   5  -4 -15   -0.56    1.11
  -5   4  15    0.88    0.98
   5  -4  15    1.19    2.00
  -4  -5  15    1.83    1.17
   4   5 -16    8.88    1.83
   5  -4 -16    8.22    1.61
  -5   4  16    9.92    2.46
   5  -4  16   12.29    2.70
  -4  -5  16    9.54    2.37
   4   5 -17   20.87    4.31
   5  -4 -17   22.41    5.98
  -5   4  17   23.05    6.63
   5  -4  17   22.76    5.72
  -4  -5  17   18.13    6.32
   4   5 -18    2.50    1.21
   5  -4 -18    1.48    1.34
   5  -4  18    4.14    1.74
  -4  -5  18    4.58    2.50
   3   5   0   69.82    4.08
   5  -3   0   69.46    3.29
  -3  -5   0   70.28    3.10
  -5   3   0   69.64    3.36
   5  -3   0   69.39    3.10
  -5   3  -1   91.76    4.51
   3   5   1   84.29    4.24
   3   5  -1   93.99    4.30
   5  -3  -1   92.77    4.19
  -3  -5   1   86.25    3.79
  -3  -5  -1   95.04    5.12
  -5   3   1   84.71    3.92
  -5   3  -1   97.41    4.68
   5  -3   1   86.62    3.81
   5  -3  -1   97.51    4.02
  -5   3  -2  164.67    3.10
   3   5   2  171.94    4.28
   3   5  -2  156.19    3.68
   5  -3  -2  165.45    3.49
  -3  -5  -2  167.86    3.45
  -5   3   2  163.14    3.41
  -5   3  -2  160.01    3.49
   5  -3   2  175.59    3.40
   5  -3  -2  160.91    2.49
  -3  -5   2  174.33    3.72
  -5   3  -3  302.95    6.34
   3   5   3  283.14    6.24
   3   5  -3  297.99    6.86
   5  -3  -3  301.77    6.73
   3   5   3  286.64    5.50
  -5   3   3  278.33    6.33
  -3  -5  -3  314.96    6.64
  -5   3  -3  316.12    7.15
   5  -3   3  274.40    6.10
  -3  -5   3  285.40    6.71
  -5   3  -4   38.15    3.55
   3   5   4   50.33    2.22
   3   5  -4   38.57    2.44
   5  -3  -4   37.85    3.63
   3   5   4   45.55    1.85
  -5   3   4   44.13    2.50
  -5   3  -4   40.02    2.28
  -3  -5  -4   41.68    2.06
   5  -3   4   44.05    3.84
  -3  -5   4   45.99    4.67
  -5   3  -5  159.05    3.54
   3   5   5  165.92    4.14
   3   5  -5  154.74    4.44
   5  -3  -5  158.12    4.96
  -5   3   5  161.53    4.31
  -5   3  -5  163.33    5.29
  -3  -5  -5  162.49    3.83
   5  -3   5  169.45    6.95
  -3  -5   5  164.49    4.58
   3   5   6  682.57   14.28
  -5   3  -6  695.89    4.43
   3   5  -6  692.52    7.52
   5  -3  -6  702.86    7.73
  -5   3  -6  685.27    7.60
  -3  -5  -6  680.26   14.01
   5  -3   6  659.29   14.89
  -3  -5   6  659.33   14.64
   3   5   7   52.81    2.93
  -5   3  -7   55.25    2.78
   3   5  -7   54.39    3.46
   5  -3  -7   61.44    7.31
  -5   3   7   46.25    2.96
  -5   3  -7   57.50    3.66
   5  -3   7   49.80    5.24
  -3  -5   7   49.40    3.81
   3   5   8   54.89    1.90
  -5   3  -8   53.92    2.87
   3   5  -8   53.32    4.68
   5  -3  -8   54.10    7.14
  -5   3   8   55.00    2.47
  -5   3  -8   50.25    2.45
   5  -3   8   58.53    2.70
  -5   3   8   55.81    1.01
  -3  -5   8   54.35    5.65
   3   5   9   97.86    3.11
  -5   3  -9   91.90    2.54
   3   5  -9   89.90    6.04
   5  -3  -9   94.20    7.81
  -5   3   9   89.74    3.57
  -5   3  -9   94.23    4.20
   5  -3   9   92.63    3.78
  -5   3   9   92.65    2.62
  -3  -5   9   95.93    3.91
   3   5  10  141.92    5.50
   3   5 -10  147.00    6.51
  -5   3 -10  147.32    5.11
   5  -3 -10  148.79    6.28
  -5   3  10  132.90    5.77
  -5   3 -10  145.85    6.30
   5  -3  10  142.48    7.38
  -5   3  10  144.02    5.25
  -3  -5  10  134.17    6.08
   3   5  11   14.25    3.23
   3   5 -11   17.39    3.89
   5  -3 -11   14.57    4.10
  -5   3  11   17.94    3.53
  -5   3 -11   14.18    3.19
   5  -3  11   17.07    4.72
  -3  -5  11   16.74    4.14
   3   5 -12   31.89    5.73
   5  -3 -12   33.62    7.20
  -5   3  12   35.43    8.84
  -5   3 -12   32.87    6.97
   5  -3  12   33.57    5.91
  -3  -5  12   35.36    2.57
   3   5 -13   67.70    4.08
   5  -3 -13   78.55    8.85
  -5   3  13   61.89   12.41
  -5   3 -13   76.23    5.53
   5  -3  13   75.41    6.43
  -3  -5  13   71.24    5.74
   3   5 -14    4.57    1.51
   5  -3 -14    4.03    1.32
  -5   3  14    6.93    2.45
   5  -3  14    3.69    1.44
  -3  -5  14    3.61    1.27
   3   5 -15   52.76    3.76
   5  -3 -15   54.13    7.32
  -5   3  15   50.69   10.99
   5  -3  15   51.01   11.22
  -3  -5  15   48.08   10.07
   3   5 -16    3.79    1.44
   5  -3 -16    3.29    1.43
  -5   3  16    2.91    1.01
   5  -3  16    2.97    1.60
  -3  -5  16    1.57    0.85
   3   5 -17    5.09    1.71
   5  -3 -17    7.76    2.72
  -5   3  17    8.84    2.28
   5  -3  17    5.75    1.68
  -3  -5  17    8.67    2.72
   5  -3 -18   17.99    3.88
  -5   3  18   20.91    6.07
   3   5  18   19.14    9.21
   5  -3  18   24.67    4.45
  -3  -5  18   24.64    7.67
   2   5   0  114.10    4.98
   5  -2   0  112.83    4.89
  -5   2   0  112.40    4.97
   2   5   1  118.43    5.16
   2   5  -1   93.87    4.25
   5  -2  -1  100.92    4.44
   5  -2   1  116.94    4.93
  -2  -5  -1   99.44    4.03
  -5   2   1  120.48    5.28
  -5   2  -1   98.71    4.45
  -2  -5   1  110.87    4.93
   2   5   2  890.15   11.10
   2   5  -2  867.93   11.07
   5  -2  -2  858.69   10.76
  -5   2   2  880.30   11.15
  -2  -5  -2  887.42    9.42
  -5   2  -2  873.73   11.24
  -2  -5   2  880.95   11.33
  -5   2  -3   69.43    3.07
   2   5   3   65.60    3.26
   2   5  -3   66.62    3.31
   5  -2  -3   66.18    3.24
  -5   2   3   65.06    3.20
  -5   2  -3   65.24    3.64
   5  -2  -3   66.52    2.63
  -2  -5   3   65.65    3.26
   5  -2  -3   65.19    2.58
  -5   2  -4   37.03    1.47
   2   5   4   37.07    2.02
   2   5  -4   41.67    5.45
   5  -2  -4   40.61    3.75
   2   5   4   37.26    1.24
  -5   2   4   37.11    3.79
  -5   2  -4   35.29    2.12
  -2  -5   4   38.05    3.00
   2   5   5  422.62    8.60
  -5   2  -5  440.60    8.16
   2   5  -5  426.85    9.06
   5  -2  -5  429.00   10.27
  -5   2   5  412.40    8.99
   2   5   5  427.77    7.79
  -5   2  -5  418.22    8.96
  -2  -5   5  407.43    8.84
   2   5   6  140.58    4.05
  -5   2  -6  133.39    3.05
   2   5  -6  131.51    4.05
   5  -2  -6  127.73    4.08
  -5   2   6  143.08    4.43
  -5   2  -6  134.69    4.18
  -2  -5   6  145.94    4.53
   2   5   7   74.31    3.93
  -5   2  -7   60.66    2.92
   2   5  -7   57.20    3.37
   5  -2  -7   61.47    3.63
  -5   2  -7   61.02    2.87
  -5   2   7   68.81    4.05
  -5   2  -7   62.59    5.17
  -2  -5   7   68.12    5.60
  -5   2   7   63.21    2.97
   2   5   8   31.55    2.25
   2   5  -8   37.23    2.03
  -5   2  -8   35.91    0.92
   5  -2  -8   33.94    1.96
  -5   2  -8   34.55    1.39
  -5   2   8   35.78    2.59
  -5   2  -8   33.29    6.45
   5  -2   8   28.59    4.05
  -2  -5   8   33.02    4.14
   2   5   9   11.86    2.90
   2   5  -9   16.31    3.01
   5  -2  -9   16.00    2.84
  -5   2  -9   13.46    0.91
  -5   2   9   10.85    2.48
  -5   2  -9   13.86    3.53
   5  -2   9   12.66    2.75
  -2  -5   9   12.44    3.50
  -5   2   9   11.12    1.64
   2   5  10  231.52    8.57
   2   5 -10  225.17    8.62
   5  -2 -10  223.10    8.65
  -5   2  10  222.12    8.72
  -5   2 -10  211.88   10.79
   5  -2  10  215.32    8.73
  -5   2  10  222.36    7.81
  -2  -5  10  207.40   11.44
   2   5  11   67.29    2.75
   2   5 -11   77.72    5.71
   5  -2 -11   87.11    9.42
  -5   2  11   65.40    5.47
  -5   2 -11   81.30   10.63
   5  -2  11   66.31    3.77
  -5   2  11   64.46    2.35
  -2  -5  11   69.85    3.50
   2   5  12   12.38    3.69
   2   5 -12   19.18    3.36
   5  -2 -12   20.12    4.42
  -5   2  12   13.49    3.04
  -5   2 -12   17.90    3.82
   5  -2  12   12.90    3.89
  -2  -5  12   14.91    4.98
   2   5 -13    6.01    1.21
   5  -2 -13    9.74    1.76
  -5   2  13   12.32    2.83
  -5   2 -13    8.61    1.84
   5  -2  13   10.76    2.64
  -2  -5  13   10.85    2.47
   2   5 -14  115.05    3.81
   5  -2 -14  110.90    6.31
  -5   2  14  108.59    4.70
   5  -2  14  115.06    6.58
  -2  -5  14  105.33    7.75
   2   5 -15    2.99    1.42
   5  -2 -15    3.26    1.41
  -5   2  15    6.95    1.91
   5  -2  15   10.87    3.07
  -2  -5  15   11.11    1.94
   2   5 -16    7.11    1.54
   5  -2 -16   11.64    2.56
  -5   2  16    8.51    2.18
   5  -2  16    8.25    1.45
  -2  -5  16    3.58    1.41
   2   5 -17    6.92    1.56
   5  -2 -17    8.13    1.90
  -5   2  17    9.55    2.54
   2   5  17    7.63    2.46
   5  -2  17   12.85    3.45
  -2  -5  17   12.34    2.61
   5  -2 -18   25.77    5.31
  -5   2  18   18.90    6.02
   2   5  18   22.77    7.83
   5  -2  18   29.56    6.00
  -2  -5  18   20.40    7.38
   1   5   0   42.55    2.39
   5  -1   0   45.92    2.33
  -5   1   0   41.11    2.29
  -1  -5   0   39.10    2.28
   1   5   1   48.54    2.55
   1   5  -1   54.78    2.76
   5  -1  -1   59.92    3.27
   5  -1   1   47.70    2.36
  -5   1   1   47.28    3.74
  -5   1  -1   61.77    3.03
  -1  -5  -1   58.96    2.43
  -1  -5   1   47.21    2.52
   1   5   2   48.27    3.38
   1   5  -2   62.51    3.19
   5  -1  -2   62.62    3.37
   5  -1   2   50.75    2.53
  -5   1   2   51.33    4.80
  -5   1  -2   60.37    3.00
  -1  -5   2   49.17    2.67
   1   5   3   67.56    3.65
   1   5  -3   67.98    3.34
   5  -1  -3   70.92    3.39
   5  -1   3   68.54    2.91
  -5   1   3   68.67    3.33
  -5   1  -3   73.43    3.52
  -1  -5   3   67.47    3.45
   5  -1  -3   70.14    2.88
  -5   1  -4  289.09    5.67
   1   5  -4  282.69    6.41
  -5   1  -4  295.77    5.55
   5  -1  -4  278.85    6.35
  -5   1   4  313.08    6.92
  -5   1  -4  279.76    6.34
   5  -1  -4  289.32    5.38
   1   5   5  441.69    9.01
  -5   1  -5  457.56    8.20
   1   5  -5  451.43    9.39
  -5   1  -5  466.02    8.31
   5  -1  -5  458.97    9.69
  -5   1   5  450.31    9.48
   1   5   5  459.80    8.28
  -5   1  -5  447.94    9.39
   5  -1  -5  462.90    8.58
  -1  -5   5  453.52    9.71
   1   5   6  157.58    4.18
   1   5  -6  150.34    4.12
   5  -1  -6  150.52    4.41
  -5   1   6  152.61    4.46
  -5   1  -6  147.30    4.13
  -1  -5   6  149.24    6.08
  -5   1   6  149.34    3.21
   1   5   7  154.26    4.20
   1   5  -7  152.13    4.44
   5  -1  -7  149.69    4.64
  -5   1   7  155.76    4.82
  -5   1  -7  154.92    7.43
  -1  -5   7  159.79    5.00
  -5   1   7  155.11    3.71
   1   5   8  143.70    3.45
   1   5  -8  159.77    3.82
   5  -1  -8  159.88    4.07
  -5   1   8  149.88    4.02
  -5   1  -8  155.55    4.51
  -1  -5   8  142.47    4.06
  -5   1   8  140.51    2.48
   1   5   9   16.75    4.01
   1   5  -9   17.99    1.65
   5  -1  -9   19.26    3.94
  -5   1   9   16.35    3.79
  -5   1  -9   16.05    3.31
  -1  -5   9   16.04    3.67
  -5   1   9   16.00    1.72
   1   5  10  100.70    4.50
   1   5 -10   96.13    4.28
   5  -1 -10   96.81    4.55
  -5   1  10   98.46    6.46
  -5   1 -10   92.94    6.39
  -1  -5  10   89.14    7.85
  -5   1  10   88.87    3.93
   1   5  11   35.27    4.48
   1   5 -11   45.44    2.69
   5  -1 -11   49.29    8.05
  -5   1  11   37.46    3.04
  -5   1 -11   45.80    3.23
   5  -1  11   41.36    4.82
  -1  -5  11   38.86    8.56
  -5   1  11   37.83    3.54
   1   5  12   80.36    2.87
   1   5 -12   71.45    8.59
   5  -1 -12   68.34    5.11
  -5   1  12   81.96    6.06
  -5   1 -12   71.01    4.17
   5  -1  12   85.01    3.65
  -1  -5  12   79.11    3.55
  -5   1  12   80.17    3.42
   1   5  13    2.83    1.03
   1   5 -13    1.40    0.88
   5  -1 -13    4.44    1.56
  -5   1  13    3.16    2.12
  -5   1 -13    1.36    1.26
   5  -1  13    2.79    1.17
  -1  -5  13    3.16    1.16
   1   5 -14   25.96    4.16
   5  -1 -14   29.60    5.61
  -5   1  14   23.18    3.79
   5  -1  14   21.74    5.43
  -1  -5  14   19.85    5.30
   1   5 -15    3.37    1.13
   5  -1 -15    2.99    2.02
  -5   1  15    2.40    1.77
   5  -1  15    4.98    3.95
  -1  -5  15    3.45    1.38
   1   5 -16   44.27    6.44
   5  -1 -16   44.10   10.10
  -5   1  16   36.45   10.89
   5  -1  16   36.55    9.42
  -1  -5  16   43.92    4.25
   5  -1 -17    7.82    1.43
  -5   1  17    7.78    2.68
   1   5  17    6.44    1.91
   5  -1  17    4.89    2.29
   5  -1 -18    7.92    2.10
  -5   1  18   10.51    3.28
   5  -1  18   11.46    2.47
  -1  -5  18   10.40    2.95
   0   5   0    0.54    0.67
   5   0   0    0.18    0.46
  -5   0   0   -1.79    0.83
   0   5   0    0.43    0.29
   0  -5   0   -0.27    0.75
   0   5   1    8.55    2.10
   0   5  -1   10.29    2.48
   5   0  -1    9.01    1.36
   5   0   1    7.67    0.66
  -5   0   1    8.65    1.91
  -5   0  -1    9.04    1.45
   0  -5  -1    7.49    1.01
   0   5   1    7.84    0.52
   0   5  -1    7.06    1.82
   0  -5   1    7.50    2.05
   0   5   2   35.38    2.00
   0   5  -2   36.25    2.12
   5   0  -2   37.26    2.34
   5   0   2   34.96    1.67
  -5   0   2   34.76    4.46
   0  -5  -2   35.50    1.52
  -5   0  -2   33.21    1.98
   0   5   2   35.47    1.51
   0   5  -2   34.45    2.52
   0  -5   2   32.24    1.97
   0   5   3  374.46    5.81
   0   5  -3  368.93    5.75
   5   0  -3  365.07    7.33
   5   0   3  378.80    4.75
  -5   0   3  362.58    5.92
  -5   0  -3  372.00    5.76
   0   5   3  380.58    4.09
   0  -5   3  373.22    5.96
   0   5   4  496.88   10.09
   0   5  -4  471.39    9.58
  -5   0  -4  484.90    8.74
   5   0  -4  471.23    9.65
   5   0   4  476.10    8.55
  -5   0   4  470.34    9.83
  -5   0  -4  460.43    9.45
   0  -5   4  465.62    9.62
   0   5   5   58.49    2.75
   0   5  -5   57.12    2.66
   5   0  -5   61.41    2.97
  -5   0   5   57.62    4.21
   0   5   5   59.90    2.02
  -5   0  -5   59.29    2.60
   0   5   5   57.93    2.68
   0   5   6   39.46    2.82
   0   5  -6   39.60    5.18
   5   0  -6   32.56    2.45
   0   5   6   35.06    2.17
  -5   0   6   37.47    2.43
  -5   0  -6   38.55    3.52
   0  -5   6   40.01    4.53
  -5   0   6   35.16    1.59
   0   5   7    6.55    1.37
   0   5  -7    6.16    1.78
   5   0  -7    7.35    1.08
   0   5   7    6.67    1.32
  -5   0   7    8.31    3.32
  -5   0  -7    3.70    1.27
   0  -5   7    5.84    2.14
  -5   0   7    5.55    1.74
   0   5   8  505.13    7.33
   0   5  -8  501.04    7.08
   5   0  -8  494.50    7.53
   0   5   8  504.67    6.41
  -5   0   8  504.60    8.62
  -5   0  -8  504.43    7.58
   0  -5   8  497.73    8.16
  -5   0   8  497.34    6.45
   0   5   9    3.43    1.15
   0   5  -9    4.58    1.61
   5   0  -9    6.92    1.60
   0   5   9    4.11    0.90
  -5   0   9    4.02    1.37
  -5   0  -9    3.87    1.27
   0  -5   9    4.44    1.93
  -5   0   9    5.51    0.88
   0   5  10   42.27    1.98
   0   5 -10   41.78    2.46
   5   0 -10   47.61    7.22
   0   5  10   43.15    3.55
  -5   0  10   48.20    5.02
  -5   0 -10   49.81    7.61
   0  -5  10   41.61    8.70
  -5   0  10   46.44    1.90
   0   5  11    4.65    1.43
   0   5 -11    4.33    0.58
   5   0 -11    4.33    1.67
   0   5  11    5.62    1.31
  -5   0  11    3.16    1.03
  -5   0 -11    4.11    1.45
   0  -5  11    2.73    1.04
  -5   0  11    4.09    1.27
   0   5  12    1.22    0.83
   0   5 -12    1.00    0.65
   5   0 -12    1.45    0.97
   0   5  12    1.28    0.77
  -5   0  12    0.83    0.85
  -5   0 -12    0.00    0.89
   0  -5  12   -0.11    1.48
  -5   0  12    2.13    0.69
   0   5  13    0.16    0.77
   0   5 -13    0.22    0.59
   5   0 -13   -0.10    1.21
   0   5  13    0.05    0.26
  -5   0  13    0.04    0.71
  -5   0 -13   -0.55    0.95
   5   0  13    0.75    0.60
   0  -5  13   -0.27    1.66
  -5   0  13    0.95    0.58
   0   5  14    9.84    3.52
   0   5 -14   12.25    2.66
   5   0 -14   11.82    1.67
   0   5  14   11.21    3.00
  -5   0  14   12.12    3.34
   5   0  14   13.01    2.09
   0  -5  14   18.34    4.12
   0   5 -15   30.10    3.95
   5   0 -15   30.07    6.18
  -5   0  15   32.01    8.97
   5   0  15   33.96    6.57
   0  -5  15   28.51    5.93
   5   0 -16    2.73    1.35
  -5   0  16    2.96    1.87
   0   5  16    2.44    1.51
   5   0  16    4.61    2.28
   0  -5  16    4.52    1.39
   5   0 -17    7.79    1.95
  -5   0  17    7.04    1.82
   5   0  17   10.42    3.68
   0  -5  17    7.73    2.65
   5   0 -18    0.76    0.67
  -5   0  18    1.71    2.67
   5   0  18    4.36    0.83
   0  -5  18    2.24    0.68
  -1   5   0   37.87    3.87
   5   1   0   39.23    2.02
  -5  -1   0   37.71    2.36
  -1   5   0   41.69    2.01
   1  -5   0   43.38    2.22
  -1   5   1   57.05    3.55
  -1   5  -1   49.64    2.59
   5   1  -1   50.59    2.56
   5   1   1   61.38    2.77
  -5  -1   1   55.56    3.11
  -5  -1  -1   48.91    2.50
  -1   5   1   61.46    2.87
  -1   5  -1   50.59    2.72
   1  -5   1   62.31    3.00
   1  -5  -1   46.98    2.55
  -1   5   2   60.26    3.16
  -1   5  -2   51.52    2.72
   5   1  -2   49.62    3.17
   5   1   2   64.13    2.81
  -5  -1   2   63.49    4.04
  -5  -1  -2   50.67    2.68
  -1   5   2   62.46    2.98
  -1   5  -2   52.01    2.79
   1  -5   2   60.68    3.77
  -1   5   3   76.45    3.60
  -1   5  -3   68.78    3.35
   5   1  -3   70.83    3.56
   5   1   3   71.35    3.29
  -5  -1   3   70.13    3.56
  -1   5   3   70.98    3.02
  -5  -1  -3   66.17    3.13
  -1   5  -3   68.34    3.22
   1  -5   3   72.29    3.56
  -1   5   4  291.69    6.48
  -1   5  -4  325.44    7.01
  -5  -1  -4  316.94    6.74
  -1   5  -4  318.43    6.91
   1  -5   4  281.44    7.58
  -1   5   5  443.21    9.20
  -1   5  -5  453.27    9.23
   5   1  -5  438.15    9.32
  -5  -1   5  441.31    9.58
  -1   5   5  447.20    8.40
  -5  -1  -5  456.02    9.33
  -1   5  -5  446.99    9.41
   1  -5   5  439.25   10.43
  -5  -1   5  441.74    8.62
  -1   5   6  147.53    5.64
  -1   5  -6  144.12    3.86
   5   1  -6  146.39    4.25
  -5  -1   6  158.88    4.67
  -1   5   6  149.19    3.35
  -5  -1  -6  150.67    4.00
  -1   5  -6  147.44    4.24
   1  -5   6  146.28    4.40
  -5  -1   6  145.06    3.50
  -1   5  -7  151.78    4.28
   5   1  -7  155.33    4.67
  -5  -1   7  148.97    4.73
  -1   5   7  153.30    4.35
  -5  -1  -7  154.25    5.16
   1  -5   7  154.39    4.80
  -5  -1   7  150.50    4.09
  -1   5   8  156.32    3.95
   5   1  -8  146.25    3.97
  -5  -1   8  162.72    4.63
  -1   5   8  161.54    3.52
  -5  -1  -8  150.11    3.89
   1  -5   8  152.20    4.12
  -5  -1   8  158.17    3.11
  -1   5   9   17.89    3.99
  -1   5  -9   16.28    3.07
   5   1  -9   16.54    3.80
  -5  -1   9   13.28    2.65
  -1   5   9   17.17    1.78
  -5  -1  -9   15.45    3.65
   1  -5   9   15.70    4.10
  -5  -1   9   18.51    4.66
  -1   5  10   96.74    4.36
  -1   5 -10   90.77    4.00
   5   1 -10   97.01    9.11
  -5  -1  10   94.90    4.68
  -1   5  10   97.90    4.98
  -5  -1 -10   89.40    4.89
   1  -5  10   96.05    7.71
  -5  -1  10   92.86    4.05
  -1   5  11   43.30    3.94
  -1   5 -11   42.23    2.38
   5   1 -11   41.12    5.03
  -5  -1  11   44.12    4.24
  -1   5  11   41.84    1.99
  -5  -1 -11   43.29    4.47
   1  -5  11   41.02    9.76
  -5  -1  11   44.33    3.04
  -1   5  12   69.36    5.02
  -1   5 -12   79.52    2.73
   5   1 -12   80.75    9.00
  -5  -1  12   70.76    7.40
  -1   5  12   66.52    2.41
  -5  -1 -12   76.63    3.04
   1  -5  12   70.93   10.73
  -5  -1  12   70.81    2.64
  -1   5  13    5.69    1.83
  -1   5 -13    4.29    0.80
   5   1 -13    3.66    2.24
  -5  -1  13    4.29    1.38
  -1   5  13    3.29    1.01
   1  -5  13    3.33    1.49
  -5  -1  13    3.64    0.95
  -1   5  14   29.58    3.82
  -1   5 -14   22.34    4.00
   5   1 -14   23.09    4.93
  -5  -1  14   31.76    7.21
  -1   5  14   23.65    3.39
   1  -5  14   26.89    5.11
  -5  -1  14   23.02    6.49
  -1   5  15    2.07    0.70
   5   1 -15    7.40    1.34
  -5  -1  15    3.16    1.38
  -1   5  15    4.86    1.04
   5   1  15    4.68    1.87
  -1   5  15    2.59    1.50
   1  -5  15    5.07    2.00
   5   1 -16   43.31    7.00
  -5  -1  16   42.51    5.19
   5   1  16   49.38    4.16
   1  -5  16   53.87   11.40
   5   1 -17    6.66    1.42
  -5  -1  17    7.02    1.57
   5   1  17    7.59    1.43
   1  -5  17    6.37    1.31
   5   1 -18    9.83    2.60
   5   1  18    8.75    2.44
   1  -5  18    4.70    2.04
  -2   5   0  107.01    4.77
   5   2   0  115.83    4.99
  -5  -2   0  116.47    5.07
  -2   5   0  115.06    4.81
   2  -5   0  117.19    4.98
  -2   5   1   98.21    4.44
  -2   5  -1  115.17    5.04
   5   2   1  103.08    4.40
   5   2  -1  119.97    5.16
  -5  -2   1  103.77    4.65
  -5  -2  -1  116.13    5.00
  -2   5   1   99.06    4.27
  -2   5  -1  116.33    5.50
   2  -5   1   95.26    4.23
   2  -5  -1  117.40    5.45
  -2   5   2  863.52   11.02
  -2   5  -2  885.90   11.02
   5   2  -2  885.17   11.30
  -5  -2   2  865.97   11.05
  -5  -2  -2  873.04   10.64
  -2   5   2  909.28   10.47
  -2   5  -2  873.51   10.94
   2  -5   2  904.68   12.04
  -2   5   3   67.49    3.35
  -2   5  -3   67.84    3.25
   5   2   3   66.45    2.99
   5   2  -3   71.33    3.43
  -5  -2   3   65.65    3.34
  -2   5   3   67.06    2.92
  -5  -2  -3   68.31    3.21
  -2   5  -3   70.90    3.43
   2  -5   3   65.45    3.30
  -2   5   4   38.63    2.06
  -2   5  -4   37.56    3.46
   5   2  -4   38.40    3.03
  -5  -2   4   37.55    2.41
  -2   5   4   36.52    2.14
  -5  -2  -4   37.72    3.09
  -2   5  -4   38.99    2.33
   2  -5   4   36.62    2.17
  -2   5   5  422.86    9.16
  -5  -2  -5  418.57    7.79
  -2   5  -5  413.76    8.64
   5   2   5  423.33    7.91
   5   2  -5  408.33    8.82
  -5  -2   5  432.11    9.35
  -2   5   5  437.49    8.51
  -5  -2  -5  422.15    8.67
  -2   5  -5  407.09    8.88
   2  -5   5  425.51    9.21
  -5  -2   5  418.68    8.66
  -2   5   6  128.62    4.27
  -2   5  -6  138.40    3.87
   5   2   6  134.44    2.89
   5   2  -6  143.74    4.55
   5   2   6  128.77    2.85
  -5  -2   6  130.30    4.31
  -5  -2  -6  136.90    3.95
  -2   5  -6  143.19    4.47
   2  -5   6  128.54    7.07
  -5  -2   6  130.02    3.78
  -2   5   7   55.50    3.43
  -2   5  -7   61.47    3.80
   5   2  -7   64.23    3.71
  -5  -2   7   56.09    3.69
  -2   5   7   61.91    3.33
  -5  -2  -7   66.22    3.58
  -2   5  -7   66.30    3.90
   2  -5   7   60.87    3.84
  -5  -2   7   61.02    3.32
  -2   5   8   35.27    2.09
  -2   5  -8   31.75    1.98
   5   2  -8   27.22    2.83
  -5  -2   8   34.42    3.37
  -2   5   8   35.64    2.39
  -5  -2  -8   29.25    2.75
  -2   5  -8   33.21    6.39
   2  -5   8   36.99    2.81
  -5  -2   8   31.42    1.54
  -2   5   9   16.50    4.71
  -2   5  -9   12.14    2.74
   5   2  -9   13.59    1.60
  -5  -2   9   15.92    2.99
  -2   5   9   13.42    2.34
  -5  -2  -9   11.69    2.50
   2  -5   9   14.16    3.52
  -5  -2   9   15.31    2.94
  -2   5  10  220.58    8.51
  -2   5 -10  226.65    8.35
   5   2 -10  203.09    7.97
  -5  -2  10  210.88   10.84
  -2   5  10  212.97    7.85
  -5  -2 -10  221.07    8.24
   2  -5  10  205.61   10.39
  -5  -2  10  218.76    8.04
  -2   5  11   79.49    3.13
  -2   5 -11   68.24    3.45
   5   2 -11   67.10    4.29
  -5  -2  11   77.90    3.91
  -2   5  11   84.95    3.30
  -5  -2 -11   70.82    2.88
   2  -5  11   67.91    6.62
  -5  -2  11   81.98    4.09
  -2   5  12   18.08    5.22
  -2   5 -12   13.71    1.31
   5   2 -12    9.73    1.84
  -5  -2  12   21.82    5.14
  -2   5  12   17.37    3.97
  -5  -2 -12   11.48    2.33
   2  -5  12   15.36    4.14
  -5  -2  12   15.31    4.29
  -2   5  13    6.08    1.49
  -2   5 -13    8.95    1.98
   5   2 -13    6.77    2.06
  -5  -2  13    9.27    1.38
  -2   5  13    7.37    1.87
  -2   5  13    7.71    1.87
   2  -5  13    7.82    1.09
  -5  -2  13    7.94    1.55
  -2   5  14  109.21    4.04
   5   2 -14  109.77    8.67
  -5  -2  14  115.24    4.54
  -2   5  14  114.53    4.52
   2  -5  14  113.15    4.74
  -5  -2  14  112.00    3.60
  -2   5  15    5.69    2.39
   5   2 -15   10.25    2.96
  -5  -2  15    5.33    1.84
  -2   5  15    6.05    2.19
   2  -5  15    4.98    2.36
  -5  -2  15    6.90    1.56
  -2   5  16    6.24    2.20
   5   2 -16    5.31    1.83
  -5  -2  16    9.54    2.03
   5   2  16    8.54    3.43
   5   2 -17   11.19    2.19
  -5  -2  17    6.03    2.06
   5   2  17    8.54    2.29
   2  -5  17    9.88    2.04
   5   2 -18   25.34    6.89
  -5  -2  18   32.08    8.44
   5   2  18   28.65    8.66
   2  -5  18   29.50    7.77
  -3   5   0   66.66    3.51
   5   3   0   67.59    3.17
  -5  -3   0   71.48    3.35
  -3   5   0   70.42    3.26
   3  -5   0   70.55    4.85
  -3   5   1   92.44    4.32
  -3   5  -1   86.98    4.02
   5   3   1   90.78    4.02
   5   3  -1   80.69    4.37
  -5  -3   1   90.51    5.42
  -5  -3  -1   86.08    3.87
  -3   5   1   93.17    4.10
  -3   5  -1   83.64    4.35
   3  -5   1   93.12    4.14
   3  -5  -1   85.73    3.79
  -3   5   2  158.65    3.50
  -3   5  -2  173.61    3.46
   5   3   2  164.94    3.08
   5   3  -2  175.35    3.59
  -5  -3   2  166.65    3.71
  -5  -3  -2  176.50    3.27
  -3   5   2  163.64    3.08
  -3   5  -2  173.84    3.44
   3  -5   2  164.81    4.31
   3  -5  -2  170.19    3.16
  -3   5   3  306.38    6.95
  -3   5  -3  281.33    6.38
   5   3   3  307.92    6.35
   5   3  -3  280.55    6.35
  -5  -3   3  312.03    7.05
  -3   5   3  311.25    6.41
  -5  -3  -3  279.88    5.94
  -3   5  -3  283.41    6.28
   3  -5   3  294.27    6.76
  -3   5   4   37.29    2.06
  -3   5  -4   46.81    2.21
   5   3   4   39.11    1.73
   5   3  -4   51.50    3.28
  -5  -3   4   42.98    5.36
  -3   5   4   41.42    2.60
  -5  -3  -4   46.26    1.98
  -3   5  -4   48.69    2.89
  -3   5   5  163.42    4.89
  -3   5  -5  160.52    4.04
   5   3   5  162.43    3.57
   5   3  -5  157.89    5.07
  -5  -3   5  162.33    4.66
  -3   5   5  158.93    4.06
  -5  -3  -5  157.62    3.96
  -3   5  -5  158.49    4.45
   3  -5   5  157.57    5.56
  -5  -3   5  170.14    4.39
  -3   5   6  682.59   16.11
  -3   5  -6  672.38   14.58
   5   3   6  706.31    4.23
   5   3  -6  689.53    8.18
  -5  -3   6  670.77   14.91
  -3   5   6  688.93    6.60
  -5  -3  -6  672.25   14.24
  -3   5  -6  675.96   15.02
   3  -5   6  680.29   15.22
  -5  -3   6  703.40    6.55
  -3   5  -7   54.34    3.55
   5   3   7   56.43    2.73
   5   3  -7   52.10    3.90
   3  -5  -7   53.04    7.49
  -5  -3   7   54.28    3.50
  -3   5   7   55.16    3.04
  -5  -3  -7   50.20    3.31
  -3   5  -7   49.84    4.90
   3  -5   7   59.66    6.25
  -5  -3   7   52.43    3.10
   5   3   8   52.39    1.08
  -3   5  -8   55.58    2.37
   5   3  -8   62.11    2.82
   3  -5  -8   60.86    7.81
  -5  -3   8   57.78    5.84
  -3   5   8   51.16    1.96
  -5  -3  -8   62.63    3.17
  -3   5  -8   54.78    5.86
   3  -5   8   50.09    4.18
  -5  -3   8   49.94    2.36
   5   3   9   91.47    2.31
  -3   5  -9   91.15    2.98
   5   3  -9   95.49    4.08
   3  -5  -9   93.01    3.61
  -5  -3   9   95.36    3.86
  -3   5   9   94.67    3.17
  -5  -3  -9  101.23    6.68
  -3   5  -9   96.33    3.95
   3  -5   9   94.49    3.88
  -5  -3   9   92.57    3.24
  -3   5 -10  139.39    6.41
   5   3 -10  145.41    6.89
   3  -5 -10  144.51    6.13
  -5  -3  10  154.61    6.71
  -3   5  10  144.79    5.79
  -5  -3 -10  142.77    6.63
  -3   5 -10  142.21    6.20
   3  -5  10  143.22    6.27
  -5  -3  10  147.26    6.41
  -3   5 -11   14.48    2.51
   5   3 -11   16.09    3.28
   3  -5 -11   13.75    2.71
  -5  -3  11   15.21    3.74
  -3   5  11   15.35    3.92
  -5  -3 -11   10.47    2.45
   3  -5  11   15.68    3.31
  -5  -3  11   13.75    3.24
  -3   5 -12   36.99    2.01
   5   3 -12   36.54    7.41
   3  -5 -12   34.30    6.98
  -5  -3  12   34.02    7.61
  -3   5  12   26.13    6.90
  -3   5  12   29.72    1.92
   3  -5  12   34.20    7.81
  -5  -3  12   31.63    2.12
   5   3 -13   71.50    6.56
   3  -5 -13   67.16    3.86
  -5  -3  13   75.23    5.45
  -3   5  13   65.69    6.07
   3  -5  13   71.58    8.91
   5   3 -14    4.51    1.25
   3  -5 -14    4.50    1.40
  -5  -3  14    4.05    1.87
  -3   5  14    5.52    1.71
   3  -5  14    5.87    2.42
  -5  -3  14    3.19    1.20
   5   3 -15   51.30    4.03
  -5  -3  15   62.02   11.63
  -3   5  15   57.78    4.62
   3  -5  15   58.41    5.03
  -5  -3  15   61.27    2.90
  -3   5  16    1.84    1.19
   5   3 -16    1.13    1.00
  -5  -3  16    1.16    1.63
   3  -5  16    3.47    1.63
  -3   5  17    7.22    2.89
   5   3 -17    7.55    2.01
  -5  -3  17   12.06    2.73
   5   3  17    9.45    3.81
   3  -5  17   11.05    2.31
   5   3 -18   24.38    3.80
  -5  -3  18   20.68    6.23
   5   3  18   19.59    8.33
   3  -5  18   26.42    7.21
  -4   5   0  865.40   17.07
   5   4   0  878.44   38.84
  -5  -4   0  866.18   16.40
  -4   5   0  864.22   16.45
   4  -5   0  877.29   16.35
  -4   5   1   57.05    2.54
  -4   5  -1   56.65    2.53
   5   4   1   61.53    2.67
   5   4  -1   58.62    2.56
  -5  -4   1   57.59    2.50
  -5  -4  -1   57.21    3.00
  -4   5   1   58.44    2.92
  -4   5  -1   58.79    2.52
   4  -5   1   61.08    2.55
   4  -5  -1   56.61    2.27
  -4   5   2  306.18    7.07
  -4   5  -2  313.11    6.88
   5   4   2  308.37    6.61
   5   4  -2  316.97    7.07
  -5  -4   2  312.70    7.05
  -5  -4  -2  310.99    6.43
  -4   5   2  302.99    7.24
  -4   5  -2  325.92    7.21
   4  -5   2  308.26    6.73
   4  -5  -2  316.67    6.24
  -4   5   3   79.94    3.50
  -4   5  -3   75.43    4.72
   5   4   3   78.47    2.94
   5   4  -3   77.65    3.31
  -5  -4   3   80.35    4.88
  -4   5   3   83.14    3.71
  -5  -4  -3   79.03    2.95
  -4   5  -3   78.25    3.97
   4  -5   3   77.67    3.96
  -4   5   4  328.40    7.57
  -4   5  -4  318.70    7.59
   5   4   4  328.44    6.81
   5   4  -4  309.39    7.29
  -5  -4   4  327.95    7.62
  -4   5   4  335.64    7.18
  -5  -4  -4  310.52    6.62
  -4   5  -4  302.83    7.00
   4  -5   4  317.48    7.20
  -4   5  -5  263.22    6.26
   5   4   5  255.49    6.17
   5   4  -5  270.91    7.25
   4  -5  -5  259.33    6.76
  -5  -4   5  257.03    8.39
  -4   5   5  264.77    6.32
  -5  -4  -5  267.98    6.12
  -4   5  -5  268.00    6.97
   4  -5   5  252.45    8.22
  -4   5  -6  133.28    3.69
   5   4   6  125.40    3.55
   5   4  -6  140.94    4.48
   4  -5  -6  141.49    4.45
  -5  -4   6  136.41    4.50
  -4   5   6  129.32    3.77
  -5  -4  -6  143.64    4.42
  -4   5  -6  136.96    4.44
   4  -5   6  124.26    4.56
  -5  -4   6  127.62    3.99
   5   4   7  200.06    3.08
  -4   5  -7  204.27    3.71
   5   4  -7  202.05    4.85
   4  -5  -7  208.48    4.65
  -5  -4   7  200.06    4.73
  -4   5   7  205.49    4.27
  -5  -4  -7  200.34    3.78
  -4   5  -7  199.21    4.64
   4  -5   7  199.62    4.72
  -5  -4   7  197.15    4.30
   5   4   8  199.77    4.62
  -4   5  -8  172.45    4.38
   5   4  -8  177.27    5.40
   4  -5  -8  171.16    6.80
  -5  -4   8  201.14    6.18
  -4   5   8  188.82    6.09
  -5  -4  -8  176.69    5.46
  -4   5  -8  176.59    5.40
   4  -5   8  200.62    6.06
  -5  -4   8  189.58    5.30
   5   4   9   41.20    1.75
  -4   5  -9   51.04    2.77
   5   4  -9   49.54    3.23
   4  -5  -9   50.48    3.42
  -5  -4   9   45.20    5.59
  -4   5   9   40.27    4.78
  -5  -4  -9   60.21    5.09
  -4   5  -9   48.35    2.69
  -4   5   9   44.70    1.72
   4  -5   9   45.24    5.29
  -5  -4   9   42.12    2.22
  -4   5 -10   14.53    2.74
   5   4 -10   19.86    2.28
   4  -5 -10   14.96    2.78
  -5  -4  10   14.41    3.81
  -4   5  10   13.60    2.89
  -4   5 -10   19.98    3.50
  -5  -4 -10   15.14    2.37
  -4   5  10   11.58    2.53
   4  -5  10   11.76    3.61
  -5  -4  10   16.97    4.29
  -4   5 -11  139.31    3.38
   5   4 -11  128.67    3.98
   4  -5 -11  138.79    6.07
  -5  -4  11  130.41    6.85
  -4   5  11  129.55    4.47
  -4   5 -11  142.62    4.50
  -5  -4 -11  144.65    4.95
   4  -5  11  124.95    5.72
  -5  -4  11  128.83    7.04
   5   4 -12   82.86    4.17
   4  -5 -12   92.86    6.53
  -5  -4  12   89.16    5.88
  -4   5  12   75.65    6.50
  -4   5 -12   78.71    5.24
   4  -5  12   81.61    3.94
  -5  -4  12   80.70    3.12
   5   4 -13    0.89    1.31
   4  -5 -13    1.73    0.67
  -5  -4  13   -0.68    1.68
   4  -5  13    2.34    1.25
  -5  -4  13    1.90    0.87
   5   4 -14   28.53    4.03
   4  -5 -14   21.58    5.19
  -5  -4  14   19.22    3.46
  -4   5  14   22.48    6.48
   4  -5  14   22.38    5.46
  -5  -4  14   22.23    6.87
   5   4 -15   -0.86    1.18
   4  -5 -15    3.25    1.09
  -5  -4  15    3.96    1.75
  -4   5  15    3.01    1.46
   4  -5  15    1.94    1.28
  -5  -4  15   -0.79    0.84
   5   4 -16   12.56    1.78
   4  -5 -16    9.27    2.07
  -5  -4  16    9.12    3.11
   4  -5  16   10.10    2.22
  -5  -4  16   10.65    3.11
   5   4 -17   24.34    5.34
  -5  -4  17   23.45    6.06
   4  -5  17   29.54    6.00
   5   4 -18    4.24    2.41
  -5  -4  18    3.00    1.66
   5   4  18    2.75    1.46
   4  -5  18    2.25    1.25
  -5   5   0  872.34   17.26
   5   5   0  873.46   16.99
  -5  -5   0  888.04   39.39
  -5   5   0  883.66   39.38
   5  -5   0  874.24   16.70
  -5   5   1  117.15    4.43
  -5   5  -1  122.62    6.04
   5   5   1  117.39    4.80
   5   5  -1  118.77    5.35
  -5  -5   1  117.12    4.22
  -5  -5  -1  124.72    6.02
  -5   5   1  126.06    6.16
  -5   5  -1  128.99    4.14
   5  -5   1  120.50    5.76
   5  -5  -1  115.25    4.00
  -5   5   2    7.32    2.18
  -5   5  -2    8.46    2.12
   5   5   2    5.12    1.38
   5   5  -2    2.83    1.06
  -5  -5   2    7.91    1.75
  -5  -5  -2    6.37    2.16
  -5   5   2    7.91    1.62
  -5   5  -2    6.06    1.73
   5  -5   2    7.35    1.22
   5  -5  -2    6.16    1.14
  -5   5   3  295.49    7.04
  -5   5  -3  313.35    6.92
   5   5   3  303.60    6.62
   5   5  -3  305.66    7.21
  -5  -5   3  306.20    7.07
  -5   5   3  287.71    6.43
  -5  -5  -3  313.91    6.46
  -5   5  -3  299.76    7.01
   5  -5   3  306.15    6.90
   5  -5  -3  294.80    5.84
  -5   5  -4   68.76    3.86
   5   5   4   69.29    4.62
   5   5  -4   70.50    4.49
   5  -5  -4   68.33    5.23
  -5  -5   4   70.75    3.92
  -5   5   4   67.77    4.64
  -5  -5  -4   72.89    4.10
  -5   5  -4   67.30    3.91
   5  -5   4   67.04    6.18
  -5   5  -5    1.68    0.68
   5   5   5    1.78    0.74
   5   5  -5    2.46    2.12
   5  -5  -5    2.44    1.00
  -5  -5   5    0.76    0.85
  -5   5   5    1.28    1.00
  -5  -5  -5    2.51    0.50
  -5   5  -5    1.53    0.68
   5  -5   5    3.61    1.23
  -5  -5   5    4.09    1.38
  -5   5  -6   26.08    1.51
   5   5   6   30.12    1.42
   5   5  -6   28.48    2.18
   5  -5  -6   29.70    2.92
  -5  -5   6   32.63    5.50
  -5   5   6   28.53    3.26
  -5  -5  -6   29.10    1.54
  -5   5  -6   26.67    6.15
   5  -5   6   26.92    2.15
  -5  -5   6   29.63    4.17
   5   5   7   16.27    2.58
  -5   5  -7   12.95    3.04
   5   5  -7   17.73    3.37
   5  -5  -7   16.71    3.22
  -5  -5   7   17.05    4.27
  -5   5   7   18.24    4.05
  -5  -5  -7   16.72    1.25
  -5   5  -7   16.94    1.89
   5  -5   7   16.51    2.96
  -5  -5   7   15.86    3.45
   5   5   8    3.85    1.00
  -5   5  -8    4.70    0.80
   5   5  -8    3.08    1.49
   5  -5  -8    4.33    1.17
  -5  -5   8    4.72    1.79
  -5   5   8    6.18    1.11
  -5   5  -8    3.78    1.26
  -5  -5  -8    5.26    0.71
   5  -5   8    5.85    1.31
  -5  -5   8    5.78    1.36
   5   5   9   70.85    2.91
  -5   5  -9   75.99    3.40
   5   5  -9   78.83   11.02
   5  -5  -9   77.98    4.03
  -5  -5   9   67.83    4.75
  -5   5   9   72.79    3.57
  -5   5  -9   75.27    6.44
  -5  -5  -9   80.21    4.38
   5  -5   9   74.95    9.40
  -5  -5   9   72.85    4.01
  -5   5 -10   59.17    2.20
   5   5 -10   59.70    3.65
   5  -5 -10   59.88    9.76
  -5  -5  10   62.25   11.96
  -5   5  10   59.51    5.11
  -5   5 -10   66.74    7.71
  -5  -5 -10   53.88    2.34
   5  -5  10   56.87    8.58
  -5  -5  10   56.00    2.74
   5   5 -11    1.00    0.67
   5  -5 -11    0.49    0.60
  -5   5  11    0.63    0.77
  -5   5 -11    0.73    0.72
   5  -5  11    1.16    1.08
  -5  -5  11    0.35    0.49
   5   5 -12   93.28    4.90
   5  -5 -12  100.94    4.00
  -5   5  12  105.55    3.72
  -5   5 -12   95.04    8.31
   5  -5  12   96.59    6.53
  -5  -5  12  102.69    6.14
   5   5 -13   33.33    7.96
   5  -5 -13   30.48    5.28
  -5  -5  13   31.67    8.01
  -5   5  13   27.48    6.38
  -5   5 -13   28.67    6.59
   5  -5  13   36.08    9.14
  -5  -5  13   29.74    8.13
   5   5 -14   14.66    3.94
   5  -5 -14   16.74    4.56
  -5  -5  14   16.58    3.95
  -5   5  14   14.04    3.20
   5  -5  14   17.09    3.96
  -5  -5  14   13.39    2.44
   5   5 -15   15.95    2.12
   5  -5 -15   14.74    2.99
  -5  -5  15   13.14    2.83
  -5   5  15   10.25    2.78
   5  -5  15   16.03    3.51
  -5  -5  15   14.63    3.98
   5   5 -16   52.34    3.48
   5  -5 -16   56.98    5.09
  -5  -5  16   46.89   13.07
  -5   5  16   41.45   12.13
   5  -5  16   43.94    8.76
  -5  -5  16   52.63    6.89
   5   5 -17    4.47    1.27
   5  -5 -17    3.61    1.23
  -5  -5  17    8.93    1.74
   5  -5  17    1.98    1.99
  -6   5   0   83.65    4.49
   5   6   0   80.58    4.43
  -5  -6   0   79.43    4.07
  -6   5   0   79.40    4.36
   6  -5   0   78.85    3.97
  -6   5   1  386.42    9.40
  -6   5  -1  405.06    9.60
   5   6  -1  392.11    9.54
  -5  -6   1  401.44    9.07
  -5  -6  -1  400.55    9.29
  -6   5   1  376.90    9.04
  -6   5  -1  389.75    9.41
   6  -5   1  382.71    8.73
   6  -5  -1  398.45    8.70
  -6   5   2   52.37    5.48
  -6   5  -2   58.18    4.30
   5   6   2   52.95    3.65
   5   6  -2   56.49    4.65
  -5  -6   2   46.50    4.53
  -5  -6  -2   57.52    3.13
  -6   5   2   46.97    2.90
  -6   5  -2   56.57    3.47
   6  -5   2   49.54    3.60
   6  -5  -2   59.69    2.98
  -6   5  -3   37.73    2.39
   5   6   3   40.47    4.85
   5   6  -3   42.74    5.98
   6  -5  -3   42.69    2.92
  -5  -6   3   38.13    3.34
  -6   5   3   37.97    2.56
  -5  -6  -3   36.52    2.04
  -6   5  -3   39.58    2.88
   6  -5   3   40.87    4.98
   6  -5  -3   35.98    2.56
  -6   5  -4   47.01    4.95
   5   6   4   44.31    2.60
   5   6  -4   45.20    4.55
   6  -5  -4   45.13    3.14
  -5  -6   4   52.22    5.99
  -6   5   4   46.25    2.91
  -5  -6  -4   45.43    2.97
  -6   5  -4   43.17    3.13
   6  -5   4   50.64    6.34
  -6   5  -5   63.93    5.74
   5   6   5   72.86    2.40
   5   6  -5   59.61    4.19
   6  -5  -5   66.51    5.43
  -5  -6   5   73.73    3.06
  -6   5   5   67.53    4.76
  -5  -6  -5   64.63    1.66
  -6   5  -5   63.38    2.64
   6  -5   5   74.54    5.54
  -5  -6   5   71.74    3.22
  -6   5  -6   83.47    3.43
   5   6   6   88.12    2.52
   5   6  -6   92.21    4.41
   6  -5  -6   77.61    3.06
  -5  -6   6   87.11    4.15
  -6   5   6   83.24    3.96
  -6   5  -6   85.12    3.22
  -5  -6  -6   84.46    1.96
   6  -5   6   83.17    4.65
  -5  -6   6   85.78    4.40
  -6   5  -7   24.99    1.49
   5   6   7   24.10    1.42
   5   6  -7   22.12    2.72
   6  -5  -7   22.65    4.82
  -5  -6   7   23.77    6.07
  -6   5   7   23.48    6.15
  -6   5  -7   24.80    5.75
  -5  -6  -7   24.00    1.82
   6  -5   7   24.94    5.80
  -5  -6   7   25.14    6.33
   5   6   8   29.66    1.64
  -6   5  -8   32.02    1.83
   5   6  -8   38.77    3.17
   6  -5  -8   34.56    8.78
  -5  -6   8   29.04    7.50
  -6   5   8   31.70    6.23
  -6   5  -8   30.58    7.54
  -5  -6  -8   34.66    2.57
   6  -5   8   28.56    7.21
  -5  -6   8   32.86    5.39
   5   6   9   21.63    2.99
  -6   5  -9   23.06    3.28
   5   6  -9   27.28    3.38
   6  -5  -9   24.82    5.01
  -6   5   9   22.46    4.43
  -6   5  -9   25.08    5.40
  -5  -6  -9   29.30    2.70
   6  -5   9   23.55    4.57
  -5  -6   9   20.94    5.63
   5   6 -10   99.94    3.71
   6  -5 -10  104.44    9.67
  -6   5  10   95.96    3.46
  -6   5 -10   92.91    3.76
   6  -5  10   98.41    3.89
  -5  -6  10   96.32    3.60
   5   6 -11   31.91    6.43
   6  -5 -11   26.88    8.09
  -6   5  11   47.93    9.70
  -6   5 -11   29.55    8.27
   6  -5  11   39.43    9.56
  -5  -6  11   44.88    2.68
   5   6 -12   29.45    6.13
   6  -5 -12   28.10    7.92
  -6   5  12   29.28    5.92
  -6   5 -12   24.99    5.64
   6  -5  12   29.23    7.15
  -5  -6  12   25.27    8.52
   5   6 -13   60.84    3.32
   6  -5 -13   57.27    4.50
  -6   5  13   60.27    3.27
  -6   5 -13   53.78   10.23
   6  -5  13   60.92   13.83
  -5  -6  13   66.60    3.56
   5   6 -14   17.43    3.43
   6  -5 -14   12.56    2.05
  -6   5  14   12.84    2.95
  -6   5 -14   10.72    3.75
   6  -5  14   11.86    4.01
  -5  -6  14   14.22    4.49
   5   6 -15   35.24    6.72
   6  -5 -15   30.41    6.09
  -5  -6  15   33.85    5.28
  -6   5  15   27.94    6.60
   6  -5  15   35.14    8.06
  -5  -6  15   29.56    7.05
   5   6 -16   15.51    2.09
   6  -5 -16   15.00    2.24
  -5  -6  16   11.86    3.00
  -6   5  16   12.29    3.35
   6  -5  16    9.60    3.32
  -5  -6  16   10.24    3.14
   5   6 -17   15.56    3.21
   6  -5 -17   12.55    3.23
  -5  -6  17   14.39    6.21
   6  -5  17   12.20    3.18
  -5  -6  17   14.32    4.09
  -6   4   0   86.29    3.42
   4   6   0   89.71    3.67
  -4  -6   0   93.95    4.93
  -6   4   0   85.60    3.70
   6  -4   0   92.71    3.38
  -6   4  -1    7.25    1.75
   4   6   1   12.77    3.23
   4   6  -1    8.30    1.84
   6  -4  -1    7.00    1.74
  -4  -6   1   13.38    2.84
  -4  -6  -1    7.03    1.65
  -6   4   1   14.47    3.04
  -6   4  -1    8.14    1.41
   6  -4  -1    6.57    1.49
  -6   4  -2  150.36    5.66
   4   6   2  139.61    3.87
   4   6  -2  141.10    4.26
   6  -4  -2  133.95    6.16
  -4  -6   2  141.52    5.32
  -4  -6  -2  151.19    4.96
  -6   4   2  144.83    4.13
  -6   4  -2  146.68    4.30
   6  -4   2  147.29    3.99
   6  -4  -2  146.38    4.17
  -6   4  -3   39.13    2.74
   4   6   3   34.53    2.31
   4   6  -3   41.52    3.16
   6  -4  -3   39.72    4.27
  -4  -6   3   33.42    2.38
  -6   4   3   33.92    3.82
  -4  -6  -3   42.04    2.20
  -6   4  -3   39.53    2.76
   6  -4   3   33.56    3.61
   6  -4  -3   39.18    2.17
  -4  -6   3   31.48    2.45
  -6   4  -4  301.88    6.99
   4   6   4  297.55    7.11
   4   6  -4  279.10    8.94
   6  -4  -4  297.93    7.59
  -4  -6   4  291.38    7.32
  -6   4   4  303.06    7.52
  -4  -6  -4  291.74    6.33
  -6   4  -4  293.74    7.50
   6  -4   4  304.10    7.68
  -4  -6   4  298.30    7.66
  -6   4  -5  116.46    4.52
   4   6   5  106.59    5.36
   4   6  -5  120.33    4.24
   6  -4  -5  112.97    4.95
  -6   4   5  108.63    5.72
  -6   4  -5  112.71    3.28
  -4  -6  -5  113.67    2.78
   6  -4   5  104.54    5.57
  -4  -6   5  106.80    5.75
  -6   4  -6   27.06    1.57
   4   6   6   25.16    1.64
   4   6  -6   25.39    5.89
   6  -4  -6   25.99    1.96
  -6   4   6   23.55    7.04
  -6   4  -6   25.06    1.78
  -4  -6  -6   27.23    1.00
   6  -4   6   28.72    6.12
  -4  -6   6   25.71    4.42
   4   6   7   30.85    3.45
  -6   4  -7   29.76    2.11
   4   6  -7   28.94    2.02
   6  -4  -7   29.44    6.40
  -6   4   7   33.90    2.75
  -6   4  -7   34.36    5.48
  -4  -6  -7   31.97    2.22
   6  -4   7   35.70    3.55
  -4  -6   7   35.20    6.73
   4   6   8  254.83    6.42
  -6   4  -8  255.99    5.68
   4   6  -8  240.98    6.75
   6  -4  -8  236.93    6.70
  -6   4   8  262.69    7.26
  -6   4  -8  253.62    7.06
   6  -4   8  249.13    7.54
  -4  -6   8  248.76    6.95
   4   6   9   48.97    3.75
  -6   4  -9   57.64    2.95
   4   6  -9   59.80    2.95
   6  -4  -9   49.36    2.62
  -6   4   9   45.46    3.08
  -6   4  -9   57.67   10.14
   6  -4   9   51.38   10.95
  -4  -6   9   55.66    3.73
   4   6  10    0.96    0.86
   4   6 -10    0.53    1.09
   6  -4 -10    0.97    0.82
  -6   4  10    0.71    0.70
  -6   4 -10    1.73    0.89
   6  -4  10    2.24    1.41
  -4  -6  10    0.78    0.85
   4   6  11   42.97    2.01
   4   6 -11   45.98    3.59
   6  -4 -11   40.70    3.48
  -6   4  11   40.81    3.02
  -6   4 -11   39.58    7.61
   6  -4  11   42.87    3.35
  -4  -6  11   39.94    2.77
   4   6 -12   56.23    3.42
   6  -4 -12   51.96    3.20
  -6   4  12   47.01   10.24
  -6   4 -12   51.37    3.03
   6  -4  12   44.69   11.68
  -4  -6  12   45.57    6.46
   4   6 -13    2.12    1.23
   6  -4 -13    3.78    1.66
  -6   4  13    3.42    1.60
  -6   4 -13    4.61    1.64
   6  -4  13    1.17    1.25
  -4  -6  13    2.76    1.41
   4   6 -14   26.32    5.28
   6  -4 -14   24.32    5.19
  -6   4  14   22.16    5.37
  -6   4 -14   29.06    7.03
   6  -4  14   22.65    3.63
  -4  -6  14   21.34    6.49
   4   6 -15   12.98    3.43
   6  -4 -15   16.58    3.11
  -6   4  15   11.88    2.04
   6  -4  15    9.48    2.17
  -4  -6  15   10.29    4.13
   4   6 -16   12.84    1.79
   6  -4 -16    7.66    2.25
  -6   4  16    8.96    2.67
   6  -4  16    8.70    2.25
  -4  -6  16    9.02    2.14
   4   6 -17   12.00    3.51
   6  -4 -17   14.62    3.64
  -6   4  17   16.02    2.85
   6  -4  17   19.81    4.24
  -4  -6  17   10.94    5.20
   3   6   0  464.50    9.75
   6  -3   0  454.46    9.36
  -3  -6   0  465.70    9.09
  -6   3   0  456.85    9.61
   6  -3   0  472.24    9.24
   3   6   1   11.30    2.85
   3   6  -1   13.17    3.08
   6  -3  -1   11.30    3.04
   6  -3   1   11.35    2.79
  -3  -6   1   13.11    1.58
  -3  -6  -1   12.03    0.81
  -6   3   1   14.39    2.89
  -6   3  -1   13.12    1.44
   6  -3   1   12.26    1.11
   6  -3  -1   11.05    2.44
  -6   3  -2   30.88    1.58
   3   6   2   32.27    4.06
   3   6  -2   38.95    2.48
   6  -3  -2   30.23    2.28
  -3  -6  -2   34.18    1.34
  -6   3   2   31.93    2.67
  -6   3  -2   31.73    2.31
   6  -3   2   31.80    2.55
   6  -3  -2   31.19    1.28
  -3  -6   2   32.16    5.48
  -6   3  -3  255.28    5.92
   3   6   3  247.75    5.88
   3   6  -3  253.50    6.20
   6  -3  -3  253.12    6.09
  -6   3   3  248.08    6.00
  -3  -6  -3  262.29    4.92
  -6   3  -3  244.47    6.00
   6  -3   3  256.50    6.11
   6  -3  -3  257.94    4.76
  -3  -6   3  240.88    5.99
  -6   3  -4  372.68    7.47
   3   6   4  349.45    7.56
   3   6  -4  363.23    8.28
   6  -3  -4  359.37    8.14
  -6   3   4  355.21    8.55
  -6   3  -4  361.59    8.68
  -3  -6  -4  362.73    6.50
   6  -3   4  348.08   10.26
  -3  -6   4  349.55    8.10
  -6   3  -5  337.55    7.72
   3   6   5  346.59    8.01
   3   6  -5  331.55    8.64
   6  -3  -5  333.32   10.10
   3   6   5  340.74    6.80
  -6   3   5  344.72    8.40
  -6   3  -5  331.22    8.34
   6  -3   5  351.91    8.89
  -3  -6   5  346.91    8.69
   3   6   6   -0.12    0.76
  -6   3  -6    0.57    0.33
   3   6  -6    3.70    1.63
   6  -3  -6    0.98    0.66
  -6   3   6    1.64    0.96
   3   6   6    0.42    0.21
  -6   3  -6    1.85    0.62
   6  -3   6   -0.64    0.94
  -3  -6   6    1.83    1.46
   3   6   7  119.15    3.04
  -6   3  -7  107.38    1.98
   3   6  -7   99.75    7.01
   6  -3  -7   97.68    3.87
  -6   3   7  116.69    3.52
   6  -3   7  119.16    3.67
  -3  -6   7  114.77    4.73
   3   6   8   59.13    2.45
  -6   3  -8   47.98    1.79
   3   6  -8   51.75    3.01
   6  -3  -8   46.17    3.00
  -6   3   8   53.97    2.68
  -6   3  -8   48.56    3.33
   6  -3   8   57.66    3.02
  -3  -6   8   54.32    2.66
   3   6   9  147.16    6.68
   3   6  -9  141.08    6.01
   6  -3  -9  148.48    6.34
  -6   3   9  147.16    6.29
  -6   3  -9  156.02    6.60
   6  -3   9  149.69    9.80
  -3  -6   9  136.73    6.06
   3   6  10   18.11    3.39
   3   6 -10   24.40    6.55
   6  -3 -10   23.85    6.44
  -6   3  10   19.76    5.12
  -6   3 -10   17.00    3.99
   6  -3  10   22.66    5.05
  -3  -6  10   22.67    6.08
   3   6  11   18.99    4.63
   3   6 -11   23.99    5.55
   6  -3 -11   24.59    4.49
  -6   3  11   20.33    5.28
  -6   3 -11   24.47    5.34
   6  -3  11   17.73    4.68
  -3  -6  11   18.60    5.49
   3   6 -12  126.59    4.51
   6  -3 -12  119.67    7.26
  -6   3  12  130.82    4.26
  -6   3 -12  118.51    4.14
   6  -3  12  133.42   12.74
  -3  -6  12  133.54    4.54
   3   6 -13   12.74    2.34
   6  -3 -13   12.53    3.39
  -6   3  13   16.01    3.62
  -6   3 -13   13.99    3.34
   6  -3  13   18.48    5.40
  -3  -6  13   15.45    3.72
   3   6 -14    7.24    1.86
   6  -3 -14   10.96    1.99
  -6   3  14   11.90    2.48
  -6   3 -14    9.70    2.83
   6  -3  14   12.46    2.15
  -3  -6  14    8.45    2.63
   3   6 -15   11.31    2.02
   6  -3 -15   14.21    2.50
  -6   3  15    8.95    1.46
   6  -3  15    9.80    2.41
  -3  -6  15    7.35    1.98
   3   6 -16   23.68    3.54
   6  -3 -16   25.48    4.68
  -6   3  16   30.54    7.99
   6  -3  16   22.53    5.46
  -3  -6  16   20.34    6.23
   3   6 -17    2.79    1.22
   6  -3 -17    2.75    1.83
  -6   3  17    7.23    1.58
   6  -3  17    4.88    1.86
  -3  -6  17    2.72    1.67
   2   6   0    7.04    1.77
   6  -2   0    6.26    1.56
  -6   2   0    5.46    1.12
   2   6   1  443.13    9.19
   2   6  -1  421.18    9.02
   6  -2  -1  423.05    8.75
   6  -2   1  434.25    8.64
  -2  -6  -1  431.29    8.05
  -6   2   1  420.86    8.89
  -6   2  -1  421.60    9.04
  -2  -6   1  444.09    9.34
   2   6   2  128.49    3.58
   2   6  -2  131.82    3.82
   6  -2  -2  138.60    3.74
   6  -2   2  125.22    6.05
  -2  -6  -2  134.79    2.73
  -6   2   2  128.84    3.77
  -6   2  -2  136.22    3.94
  -2  -6  -2  137.51    2.80
  -2  -6   2  127.90    3.80
  -6   2  -3   86.71    3.05
   2   6   3   85.45    3.33
   2   6  -3   86.41    6.78
   6  -2  -3   81.35    3.83
  -6   2   3   86.13    5.49
  -6   2  -3   84.63    3.56
  -2  -6   3   89.63    4.60
  -6   2  -4  132.04    3.26
   2   6   4  126.48    3.56
   2   6  -4  119.12    5.93
   6  -2  -4  124.77    8.36
  -6   2   4  121.95    6.16
  -6   2  -4  126.75    3.91
  -2  -6   4  131.68    4.10
  -6   2  -5  142.28    3.61
   2   6   5  141.73    4.10
   2   6  -5  150.51    4.63
   6  -2  -5  142.70    4.38
  -6   2   5  145.33    4.52
  -6   2  -5  148.12    4.54
  -2  -6   5  138.99    4.50
   2   6   6   42.56    3.13
  -6   2  -6   43.68    2.17
   2   6  -6   48.97    6.93
   6  -2  -6   46.94    3.95
   2   6   6   39.01    2.01
  -6   2   6   37.61    2.71
   2   6   6   38.73    1.84
  -6   2  -6   42.17    3.29
  -2  -6   6   43.64    5.60
   2   6   7   16.25    3.95
  -6   2  -7   20.75    0.74
   2   6  -7   21.11    5.03
   6  -2  -7   19.89    2.03
  -6   2   7   16.60    4.52
  -6   2  -7   19.87    1.85
  -2  -6   7   19.90    4.47
   2   6   8    0.18    0.76
   2   6  -8    0.21    0.56
   6  -2  -8    0.65    0.89
  -6   2   8    0.15    0.96
  -6   2  -8    1.07    0.38
  -2  -6   8    1.29    0.62
   2   6   9   58.87    5.12
   2   6  -9   49.30    4.82
   6  -2  -9   53.58    6.68
  -6   2   9   51.42   10.67
  -6   2  -9   52.93    4.83
   6  -2   9   55.51   10.73
  -2  -6   9   56.61    2.94
  -6   2   9   56.30    1.64
   2   6  10   41.90    3.71
   2   6 -10   57.34    4.33
   6  -2 -10   58.50    3.27
  -6   2  10   40.86    3.65
  -6   2 -10   52.51    2.84
   6  -2  10   47.37    5.63
  -2  -6  10   42.31    2.94
   2   6  11   62.41    2.47
   2   6 -11   54.55    2.64
   6  -2 -11   61.74    5.08
  -6   2  11   61.73    4.70
  -6   2 -11   59.85    4.17
   6  -2  11   69.60    4.62
  -2  -6  11   52.05    3.97
   2   6  12    7.31    1.83
   2   6 -12    9.24    2.08
   6  -2 -12    9.88    2.18
  -6   2 -12    5.81    1.79
   6  -2  12    7.54    1.43
  -2  -6  12    5.71    1.94
   2   6 -13   72.34    3.61
   6  -2 -13   66.14    4.11
  -6   2  13   60.85    3.98
  -6   2 -13   74.49    5.47
   6  -2  13   67.95    7.90
  -2  -6  13   65.97    3.57
   2   6 -14   85.25    3.58
   6  -2 -14   76.27    6.44
  -6   2  14   75.86    5.16
  -6   2 -14   84.18   12.29
   6  -2  14   86.32    5.27
  -2  -6  14   83.32    3.95
   2   6 -15   95.61    7.20
   6  -2 -15   87.38    6.10
  -6   2  15   83.84    7.95
   6  -2  15   71.36   14.53
  -2  -6  15   88.40    4.14
   2   6 -16    9.02    2.20
   6  -2 -16   11.34    2.85
  -6   2  16   16.64    3.44
   6  -2  16   17.95    3.47
  -2  -6  16    7.97    2.30
   6  -2 -17   29.79    6.04
  -6   2  17   38.45    9.82
   6  -2  17   35.82    8.75
  -2  -6  17   23.67    7.50
   6  -2 -18    3.35    1.09
  -6   2  18    5.13    1.67
   6  -2  18    4.97    1.09
  -2  -6  18    9.84    2.55
   1   6   0    1.08    0.50
   6  -1   0    1.65    0.71
  -6   1   0   -0.62    0.90
   1   6   1   36.03    2.95
   1   6  -1   42.84    2.15
   6  -1  -1   42.00    2.49
   6  -1   1   32.76    1.61
  -6   1   1   36.33    2.18
  -6   1  -1   43.37    2.61
  -1  -6   1   33.99    2.10
   1   6   2    5.20    1.74
   1   6  -2    5.91    1.16
   6  -1  -2    5.51    1.68
   6  -1   2    6.15    1.15
  -1  -6  -2    5.15    0.46
  -6   1   2    6.26    1.13
  -6   1  -2    3.79    1.49
  -1  -6  -2    4.68    0.58
  -1  -6   2    2.73    1.18
   1   6   3  648.01   12.89
   1   6  -3  657.63   13.24
   6  -1  -3  642.47   12.83
   6  -1   3  663.22   12.22
  -6   1   3  651.50   13.20
  -6   1  -3  627.08   12.72
  -1  -6   3  648.97   13.00
  -6   1  -4   22.86    2.35
   1   6   4   22.10    2.53
   1   6  -4   20.26    1.89
   6  -1  -4   21.92    1.80
  -6   1   4   24.06    2.04
  -6   1  -4   20.61    4.72
   6  -1  -4   20.45    0.98
  -1  -6   4   24.89    2.34
  -6   1  -5   40.57    1.52
   1   6   5   38.88    2.07
   1   6  -5   39.72    3.65
  -6   1  -5   42.94    1.62
   6  -1  -5   41.21    2.47
  -6   1   5   38.08    2.81
  -6   1  -5   40.78    4.30
   6  -1  -5   39.28    1.81
  -1  -6   5   34.28    5.38
   1   6   6  310.68    7.43
   1   6  -6  290.31    7.23
   6  -1  -6  315.71    8.17
  -6   1   6  305.73    7.91
   1   6   6  310.30    6.20
   1   6   6  316.72    6.35
  -6   1  -6  296.48    7.34
  -1  -6   6  307.91    7.84
   1   6   7  401.11    6.43
   1   6  -7  384.73    6.85
   6  -1  -7  399.91    6.79
   1   6   7  411.43    4.81
  -6   1   7  396.81   11.63
  -6   1  -7  394.63    6.37
  -1  -6   7  409.32    7.00
   1   6   8   23.70    5.02
   1   6  -8   33.94    3.56
   6  -1  -8   29.96    2.77
   1   6   8   24.06    1.87
  -6   1   8   29.60    2.24
  -6   1  -8   30.34    6.16
  -1  -6   8   21.79    6.42
  -6   1   8   22.25    1.66
   1   6   9  123.00    6.16
   1   6  -9  123.49    7.62
   6  -1  -9  125.79    4.37
   1   6   9  124.97    3.40
  -6   1   9  129.13    5.71
  -6   1  -9  128.70    8.83
  -1  -6   9  119.62    7.01
  -6   1   9  129.24    3.29
   1   6  10   17.31    3.67
   1   6 -10   16.55    2.01
   6  -1 -10   15.46    4.46
   1   6  10   14.97    3.18
  -6   1  10   12.70    2.67
  -6   1 -10   16.15    3.91
  -1  -6  10   19.75    4.86
  -6   1  10   16.35    2.75
   1   6  11    5.97    1.27
   1   6 -11    6.03    1.44
   6  -1 -11    4.68    1.11
   1   6  11    4.62    1.36
  -6   1  11    3.35    1.67
  -6   1 -11    1.99    1.14
  -1  -6  11    2.50    1.35
   1   6  12    1.83    0.62
   1   6 -12    1.58    1.06
   6  -1 -12    0.33    1.13
  -6   1  12   -0.84    1.43
  -6   1 -12    1.52    1.12
   6  -1  12    1.32    0.76
  -1  -6  12    1.80    1.68
   1   6  13   38.20    2.01
   1   6 -13   34.92    6.28
   6  -1 -13   35.36    4.34
  -6   1  13   36.93    9.60
  -6   1 -13   35.81    2.43
   6  -1  13   39.77    9.20
  -1  -6  13   43.43   10.60
   1   6 -14    5.60    1.57
   6  -1 -14    4.03    1.89
  -6   1  14    4.20    1.88
  -6   1 -14    1.93    1.05
   6  -1  14    5.60    2.27
  -1  -6  14    5.92    1.93
   1   6 -15   50.21    9.99
   6  -1 -15   58.69    4.72
  -6   1  15   74.31    3.91
   6  -1  15   67.72    3.94
  -1  -6  15   55.13   12.26
   1   6 -16   17.45    3.65
   6  -1 -16   16.68    4.03
  -6   1  16   19.28    5.58
   6  -1  16   16.07    3.25
  -1  -6  16   21.98    3.75
   6  -1 -17    4.18    1.47
  -6   1  17    1.25    2.32
   6  -1  17    4.80    1.88
  -1  -6  17    2.81    1.68
   6  -1 -18    3.51    1.77
  -6   1  18    1.55    1.41
   6  -1  18    2.81    1.06
  -1  -6  18    2.77    1.04
   0   6   0  257.33    4.66
   6   0   0  256.46    4.30
  -6   0   0  252.56    4.65
   0   6   0  261.55    3.73
   0  -6   0  255.95    4.55
   0   6   1  145.38    5.05
   0   6  -1  146.31    3.73
   6   0  -1  145.22    4.96
   6   0   1  141.56    5.90
  -6   0   1  149.62    3.52
  -6   0  -1  145.84    5.13
   0   6   1  145.60    4.64
   0   6  -1  146.96    3.10
   0  -6   1  149.62    3.44
   0   6   2    0.96    0.82
   0   6  -2    1.37    0.74
   6   0  -2    1.35    0.64
   6   0   2    2.64    0.45
  -6   0   2    1.13    0.64
   0  -6  -2    2.24    0.34
  -6   0  -2    1.93    1.87
   0   6   2    2.06    0.35
   0  -6   2    2.35    0.89
   0   6   3  295.90    6.65
   0   6  -3  298.41    6.78
   6   0  -3  292.87    6.67
   6   0   3  296.69    6.23
  -6   0   3  293.64    6.77
  -6   0  -3  293.82    6.70
   0   6   3  294.17    5.21
   0  -6   3  303.49    6.89
   0   6   4   94.84    3.66
   0   6  -4   93.51    4.09
   6   0  -4   99.33    4.03
   6   0   4   93.22    2.98
  -6   0   4   97.19    4.02
  -6   0  -4  103.05    3.94
   0  -6   4   96.90    4.09
  -6   0  -5  476.76    8.52
   0   6   5  484.81   10.24
   0   6  -5  466.11    9.84
  -6   0  -5  477.92    8.53
   6   0  -5  460.24    9.85
  -6   0   5  463.26   10.07
   0   6   5  485.93    8.64
  -6   0  -5  476.56    9.96
   0   6   5  477.79    8.48
   0  -6   5  471.60   10.28
   0   6  -6  151.08    4.44
   6   0  -6  159.32    4.97
  -6   0   6  151.31    4.76
   0   6   6  157.30    3.62
  -6   0  -6  159.89    5.66
   0   6   6  161.01    3.52
   0  -6   6  161.45    5.02
   0   6   7  458.60   10.70
   0   6  -7  447.37   10.34
   6   0  -7  441.44   10.88
  -6   0   7  458.30   11.02
   0   6   7  449.45    9.42
  -6   0  -7  438.25   10.33
   0  -6   7  458.31   11.05
  -6   0   7  438.04    9.46
   0   6   8   10.60    2.33
   0   6  -8    8.92    1.58
   6   0  -8   10.22    2.94
  -6   0   8    6.78    1.72
   0   6   8    8.89    1.94
  -6   0  -8    8.51    1.36
   0  -6   8    8.00    2.35
  -6   0   8    8.65    2.31
   0   6   9  352.96    8.69
   0   6  -9  344.13    8.34
   6   0  -9  333.32    8.61
   0   6   9  350.92    7.84
  -6   0   9  355.82    9.11
  -6   0  -9  336.96    8.41
   0  -6   9  361.95    9.57
  -6   0   9  344.01    7.50
   0   6  10    0.70    0.52
   0   6 -10    1.46    0.81
   6   0 -10    1.04    0.96
   0   6  10    0.68    0.48
  -6   0  10    0.16    1.30
  -6   0 -10    0.44    0.49
   0  -6  10    1.15    0.74
  -6   0  10   -0.73    0.55
   0   6  11   53.73    2.49
   0   6 -11   53.45    3.04
   6   0 -11   49.78    2.73
   0   6  11   53.86    2.69
  -6   0  11   58.07    4.08
  -6   0 -11   56.66    2.85
   0  -6  11   57.12    6.46
  -6   0  11   53.62    2.02
   0   6  12   73.37    3.00
   0   6 -12   65.33    3.31
   6   0 -12   75.99    6.40
   0   6  12   69.05    2.26
  -6   0  12   74.63    8.44
  -6   0 -12   74.57    3.33
   0  -6  12   68.73    5.53
   0   6  13    0.40    0.85
   0   6 -13    1.01    1.02
   6   0 -13    1.45    1.00
  -6   0  13    1.04    0.82
  -6   0 -13    1.54    0.74
   0  -6  13    2.61    1.17
   0   6  14    1.13    0.52
   0   6 -14    2.90    1.17
   6   0 -14    1.33    1.98
  -6   0  14    1.89    1.48
  -6   0 -14   -0.18    0.94
   6   0  14    2.02    0.80
   0  -6  14    3.60    1.14
   0   6 -15    2.63    0.81
   6   0 -15    2.51    1.24
  -6   0  15    3.18    1.32
   6   0  15    4.89    1.97
   0  -6  15    5.09    1.45
   6   0 -16   11.82    2.69
  -6   0  16   12.75    1.88
   6   0  16   16.13    3.62
   0  -6  16   15.92    4.46
   6   0 -17    1.38    1.01
  -6   0  17    2.12    1.23
   0  -6  17    3.11    1.14
   6   0 -18    0.89    0.61
  -6   0  18    3.09    1.58
   6   0  18    0.90    0.69
   0  -6  18    0.71    1.12
  -1   6   0    0.75    0.49
   6   1   0    1.57    0.72
  -6  -1   0    0.79    0.80
  -1   6   0    0.77    0.31
   1  -6   0    1.29    0.43
  -1   6   1   41.06    2.12
  -1   6  -1   34.76    2.15
   6   1  -1   33.86    2.31
   6   1   1   40.75    1.91
  -6  -1   1   40.82    3.50
  -6  -1  -1   31.09    1.86
  -1   6  -1   32.89    1.78
   1  -6   1   45.86    5.82
   1  -6  -1   34.69    1.96
  -1   6   2    4.79    1.52
  -1   6  -2    5.72    1.24
   6   1  -2    4.30    1.00
   6   1   2    6.22    0.94
  -6  -1   2    4.57    1.33
  -6  -1  -2    6.72    1.08
  -1   6   2    5.39    1.18
  -1   6  -2    5.54    1.21
   1  -6   2    5.54    1.37
  -1   6   3  627.25   13.37
  -1   6  -3  667.54   13.16
   6   1  -3  657.49   12.98
   6   1   3  647.04   11.97
  -6  -1   3  635.34   12.85
  -6  -1  -3  646.28   12.79
  -1   6   3  651.15   11.72
  -1   6  -3  654.84   12.69
   1  -6   3  620.31   12.40
  -1   6   4   21.60    2.07
  -1   6  -4   21.55    1.60
   6   1  -4   21.53    1.80
   6   1   4   20.67    1.41
  -6  -1   4   22.80    5.10
  -1   6   4   20.27    1.32
  -6  -1  -4   24.00    1.56
  -1   6  -4   22.69    2.27
   1  -6   4   22.40    4.94
  -1   6   5   38.18    2.27
  -6  -1  -5   38.90    1.50
  -1   6  -5   40.01    3.34
   6   1  -5   41.20    3.30
   6   1   5   39.37    1.61
  -6  -1   5   36.94    3.66
  -1   6   5   40.27    1.54
  -6  -1  -5   39.80    3.96
  -1   6  -5   36.05    2.37
   1  -6   5   40.59    3.26
  -1   6   6  305.82    7.67
  -1   6  -6  294.74    7.40
   6   1  -6  310.63    7.84
  -6  -1   6  312.19    8.00
  -1   6   6  307.64    6.58
  -6  -1  -6  298.60    7.62
  -1   6  -6  296.98    7.44
   1  -6   6  309.80    9.75
  -1   6   7  398.31    6.66
  -1   6  -7  410.77    6.41
   6   1  -7  399.22    6.95
  -6  -1   7  383.32    7.12
  -1   6   7  395.55    5.20
  -6  -1  -7  397.76    7.47
   1  -6   7  394.98    6.96
  -6  -1   7  395.90    5.28
  -1   6   8   29.07    2.23
  -1   6  -8   25.77    1.85
   6   1  -8   28.27    7.37
  -6  -1   8   28.94    2.11
  -1   6   8   29.75    1.31
  -6  -1  -8   23.09    5.35
   1  -6   8   26.25    6.81
  -6  -1   8   30.01    2.23
  -1   6   9  125.26    4.20
  -1   6  -9  127.99    4.13
   6   1  -9  134.35    4.92
  -6  -1   9  124.26    5.42
  -1   6   9  124.55    3.41
  -6  -1  -9  133.53    4.32
   1  -6   9  123.43    5.01
  -6  -1   9  122.42    3.71
  -1   6  10   11.98    2.17
  -1   6 -10   16.27    3.83
   6   1 -10   19.04    2.20
  -6  -1  10   18.41    4.19
  -1   6  10   13.60    3.28
  -6  -1 -10   18.34    3.01
   1  -6  10   14.29    3.28
  -6  -1  10   11.61    2.99
  -1   6  11    5.60    1.19
  -1   6 -11    4.13    0.82
   6   1 -11    5.14    1.51
  -6  -1  11    5.32    2.07
  -1   6  11    4.96    1.03
  -6  -1 -11    3.70    1.40
   1  -6  11    7.47    2.97
  -6  -1  11    3.87    1.65
  -1   6  12    1.79    0.76
  -1   6 -12    1.56    0.80
   6   1 -12    0.08    1.12
  -6  -1  12    1.41    1.15
  -1   6  12    1.53    1.00
  -6  -1 -12    0.89    0.52
   1  -6  12    1.52    0.96
  -6  -1  12    1.42    0.79
  -1   6  13   25.63    5.85
  -1   6 -13   35.31    6.29
   6   1 -13   39.31    8.35
  -6  -1  13   32.60    7.73
  -6  -1 -13   38.28    3.66
   1  -6  13   31.48    7.42
  -1   6  14    2.89    1.19
  -1   6 -14    4.51    0.98
   6   1 -14    6.28    2.32
  -6  -1  14    6.12    2.67
   1  -6  14    2.30    2.14
  -1   6  15   54.00    5.44
   6   1 -15   63.02    3.44
  -6  -1  15   61.96    7.46
   6   1  15   67.96    9.32
   1  -6  15   54.24   12.69
   6   1 -16   15.16    2.44
  -6  -1  16   15.27    4.62
   6   1  16   17.25    3.09
   1  -6  16   19.47    4.90
   6   1 -17    3.36    1.33
  -6  -1  17    3.38    1.77
   6   1  17    3.30    1.86
   1  -6  17    3.78    1.85
   6   1 -18    2.93    1.86
  -6  -1  18    1.89    0.73
   6   1  18    2.63    1.35
   1  -6  18    4.96    2.02
  -2   6   0    5.96    1.28
   6   2   0    6.76    1.80
  -6  -2   0    8.10    1.54
  -2   6   0    6.94    1.20
   2  -6   0    6.46    1.06
  -2   6   1  423.20    8.94
  -2   6  -1  434.20    9.04
   6   2   1  420.88    8.48
   6   2  -1  438.37    8.95
  -6  -2   1  420.63    9.12
  -6  -2  -1  435.66    8.95
  -2   6   1  427.83    8.44
  -2   6  -1  437.62    9.03
   2  -6   1  420.32    8.70
   2  -6  -1  446.37    9.24
  -2   6   2  141.68    4.07
  -2   6  -2  126.60    5.48
   6   2   2  136.30    3.43
   6   2  -2  128.74    3.55
  -6  -2   2  133.90    3.86
  -6  -2  -2  128.26    3.54
  -2   6   2  139.27    3.47
  -2   6  -2  127.25    3.73
   2  -6   2  139.76    3.86
  -2   6   3   83.48    3.51
  -2   6  -3   89.33    3.50
   6   2   3   83.82    2.91
   6   2  -3   85.41    3.45
  -6  -2   3   81.38    4.15
  -6  -2  -3   89.63    4.07
  -2   6   3   82.39    2.82
  -2   6  -3   85.89    3.30
   2  -6   3   77.77    3.97
  -2   6   4  128.13    3.88
  -2   6  -4  129.95    4.22
   6   2   4  135.20    3.26
   6   2  -4  125.79    6.35
  -6  -2   4  129.26    4.08
  -2   6   4  131.98    3.33
  -6  -2  -4  133.74    4.68
  -2   6  -4  128.45    3.67
   2  -6   4  128.98    4.01
  -2   6   5  144.43    6.34
  -2   6  -5  138.76    4.03
   6   2   5  151.34    3.37
   6   2  -5  151.13    4.66
  -6  -2   5  142.56    4.58
  -2   6   5  151.17    4.01
  -6  -2  -5  139.10    4.02
  -2   6  -5  144.07    5.23
   2  -6   5  148.61    4.73
  -6  -2  -6   38.65    1.87
  -2   6   6   46.72    6.52
  -2   6  -6   37.50    2.46
   6   2  -6   39.19    3.37
   6   2   6   47.18    2.26
  -6  -2   6   47.23    4.81
  -2   6   6   46.04    2.58
  -6  -2  -6   39.69    3.67
  -2   6  -6   37.41    2.68
   2  -6   6   39.57    3.16
  -6  -2   6   43.37    2.58
  -2   6   7   21.71    5.34
  -2   6  -7   16.72    2.94
   6   2  -7   18.81    4.35
  -6  -2   7   23.00    5.03
  -2   6   7   21.13    2.57
  -6  -2  -7   18.54    1.64
  -2   6  -7   16.69    5.35
   2  -6   7   19.67    5.74
  -6  -2   7   21.01    3.02
  -2   6   8    1.27    0.85
  -2   6  -8    0.78    0.60
   6   2  -8    1.89    1.21
  -6  -2   8    2.04    1.15
  -2   6   8   -0.53    0.63
  -6  -2  -8    1.69    1.12
  -2   6  -8    0.46    0.55
   2  -6   8    0.01    0.73
  -6  -2   8    0.22    0.52
  -2   6   9   47.31    6.09
  -2   6  -9   54.85    2.41
   6   2  -9   57.85    2.80
  -6  -2   9   44.20    9.48
  -2   6   9   53.01    2.10
  -6  -2  -9   52.09    2.97
   2  -6   9   47.90    4.38
  -6  -2   9   49.21    2.10
  -2   6  10   46.24    2.77
  -2   6 -10   45.64    2.36
   6   2 -10   44.67    3.09
  -6  -2  10   50.94    6.27
  -2   6  10   45.98    4.20
  -6  -2 -10   43.23    7.92
   2  -6  10   47.41    2.97
  -6  -2  10   51.46    2.34
  -2   6  11   57.59    2.65
  -2   6 -11   62.66    3.00
   6   2 -11   58.52    2.95
  -6  -2  11   51.81    4.04
  -2   6  11   58.11    2.41
  -6  -2 -11   64.33    6.02
   2  -6  11   55.86    4.41
  -6  -2  11   55.56    2.45
  -2   6  12    7.32    1.43
  -2   6 -12    5.49    2.13
   6   2 -12    6.53    1.66
  -6  -2  12    7.60    1.44
  -2   6  12    6.08    1.19
  -6  -2 -12    7.60    1.44
   2  -6  12    4.27    2.01
  -6  -2  12    7.39    1.29
  -2   6  13   69.77    6.77
  -2   6 -13   62.67    3.26
   6   2 -13   68.54    3.85
  -6  -2  13   70.07    6.80
  -2   6  13   68.67    2.74
  -6  -2 -13   62.05    5.52
   2  -6  13   73.19    7.45
  -6  -2  13   71.40    2.88
  -2   6  14   78.25    3.44
   6   2 -14   81.91    7.28
  -6  -2  14   79.49    6.56
   2  -6  14   82.58   10.44
  -2   6  15   77.10    6.60
   6   2 -15   88.09    5.00
  -6  -2  15   82.68   16.89
   2  -6  15   91.75    7.96
  -2   6  16    7.57    3.39
   6   2 -16   12.13    1.69
  -6  -2  16   12.06    2.08
   2  -6  16   11.54    3.36
   6   2 -17   30.47    7.17
  -6  -2  17   32.53    6.72
   6   2  17   29.84    6.63
   2  -6  17   32.33    6.93
   6   2 -18    7.56    1.94
  -6  -2  18    6.33    1.43
   6   2  18    5.26    2.82
   2  -6  18    6.12    2.47
  -3   6   0  454.56    9.69
   6   3   0  479.40   10.30
  -6  -3   0  457.90   10.73
  -3   6   0  463.44    9.40
   3  -6   0  460.65    9.39
  -3   6   1   12.05    4.28
  -3   6  -1    9.91    2.81
   6   3   1   11.84    2.87
   6   3  -1   12.91    3.56
  -6  -3   1   11.55    3.39
  -6  -3  -1   12.08    2.61
  -3   6   1   13.94    2.12
  -3   6  -1   11.87    2.36
   3  -6   1   11.81    2.66
   3  -6  -1   12.63    1.05
  -3   6   2   34.02    2.53
  -3   6  -2   31.85    2.55
   6   3   2   33.67    1.67
   6   3  -2   31.21    2.72
  -6  -3   2   33.15    3.92
  -6  -3  -2   36.86    4.45
  -3   6   2   31.64    2.12
  -3   6  -2   31.55    1.70
   3  -6   2   30.59    1.93
   3  -6  -2   32.53    1.84
  -3   6   3  255.61    6.30
  -3   6  -3  254.11    5.98
   6   3   3  252.25    5.55
   6   3  -3  249.27    6.02
  -6  -3   3  248.99    6.07
  -6  -3  -3  252.61    6.08
  -3   6   3  258.01    5.68
  -3   6  -3  248.46    5.87
   3  -6   3  261.71    6.18
  -3   6   4  353.15    8.04
  -3   6  -4  340.88    7.46
   6   3   4  362.58    7.25
   6   3  -4  355.15    8.12
  -6  -3   4  368.16    8.73
  -3   6   4  379.05    8.28
  -6  -3  -4  349.14    7.51
  -3   6  -4  345.11   10.32
   3  -6   4  364.52    8.22
  -3   6   5  332.72    8.35
  -3   6  -5  332.62    7.79
   6   3   5  334.78    7.31
   6   3  -5  330.49    9.80
  -6  -3   5  336.56    8.52
  -3   6   5  339.52    7.65
  -6  -3  -5  340.90    7.81
  -3   6  -5  343.09    8.43
   3  -6   5  329.41    8.20
  -3   6   6    1.23    0.41
  -3   6  -6    0.78    0.73
   6   3   6    0.91    0.39
   6   3  -6    1.05    0.88
  -6  -3   6   -0.39    0.92
  -3   6   6    0.75    0.39
  -6  -3  -6    0.39    0.73
  -3   6  -6    1.01    0.84
   3  -6   6   -1.54    1.12
  -6  -3   6    0.45    0.44
  -3   6   7  108.21    3.55
   6   3  -7  120.52    3.65
  -6  -3   7  108.26    3.71
  -3   6   7  106.94    2.64
  -6  -3  -7  117.27    2.96
  -3   6  -7  113.79    3.52
   3  -6   7  100.81    3.52
  -6  -3   7   97.65    4.93
  -3   6   8   48.10    3.80
  -3   6  -8   59.17    5.02
   6   3   8   47.38    1.22
   6   3  -8   58.58    4.67
  -6  -3   8   45.47    2.99
  -3   6   8   49.12    2.09
  -6  -3  -8   59.41    3.25
  -3   6  -8   57.49    6.70
   3  -6   8   46.17    3.01
  -6  -3   8   48.93    2.02
  -3   6   9  161.05    6.82
  -3   6  -9  150.92    5.90
   6   3  -9  144.30    6.43
  -6  -3   9  153.97    6.66
  -3   6   9  148.48    5.87
  -6  -3  -9  145.34    7.78
  -3   6  -9  138.82    7.62
   3  -6   9  158.17    6.80
  -6  -3   9  143.39    6.12
  -3   6  10   19.56    4.77
  -3   6 -10   21.31    1.53
   6   3 -10   21.93    5.01
  -6  -3  10   20.73    6.08
  -3   6  10   22.20    4.90
  -6  -3 -10   22.49    4.67
  -3   6 -10   22.42    4.18
   3  -6  10   21.29    5.35
  -6  -3  10   21.88    1.99
  -3   6  11   22.20    6.13
  -3   6 -11   21.62    1.56
   6   3 -11   22.80    5.19
  -6  -3  11   26.90    7.01
  -3   6  11   24.22    5.62
  -6  -3 -11   15.57    4.17
   3  -6  11   25.98    5.46
  -6  -3  11   26.16    5.62
  -3   6  12  121.53    3.98
  -3   6 -12  121.94    9.01
   6   3 -12  131.54    4.33
  -6  -3  12  120.94    8.76
  -3   6  12  123.98    3.72
  -6  -3 -12  125.65    7.01
   3  -6  12  117.51    4.51
  -6  -3  12  121.99    5.81
  -3   6  13   12.56    2.43
   6   3 -13   14.59    3.08
  -6  -3  13   14.30    3.69
  -3   6  13   12.68    2.04
   3  -6  13   15.48    3.91
  -6  -3  13    9.19    2.34
  -3   6  14   10.88    2.94
   6   3 -14    7.12    1.85
  -6  -3  14   11.18    3.10
   3  -6  14    9.83    2.45
  -6  -3  14    8.73    2.95
  -3   6  15   10.57    2.93
   6   3 -15    9.17    1.98
  -6  -3  15   13.45    3.47
   3  -6  15   10.98    3.18
  -3   6  16   23.81    8.14
   6   3 -16   34.34    2.77
  -6  -3  16   33.52    6.16
   3  -6  16   26.25    6.78
  -3   6  17    1.85    0.99
   6   3 -17    2.04    1.04
  -6  -3  17    2.92    1.38
   3  -6  17    2.75    1.59
  -4   6   0   85.99    4.01
   6   4   0   89.90    3.67
  -6  -4   0   90.30    3.53
  -4   6   0   87.96    3.39
   4  -6   0   90.06    3.36
  -4   6   1    8.03    2.68
  -4   6  -1   11.93    3.43
   6   4   1    8.60    1.27
   6   4  -1   14.12    4.09
  -6  -4   1    6.56    1.54
  -6  -4  -1   14.93    3.08
  -4   6   1    6.46    1.83
  -4   6  -1   13.48    3.24
   4  -6   1    7.28    1.78
  -4   6   2  142.33    4.32
  -4   6  -2  141.89    3.87
   6   4   2  146.38    3.90
   6   4  -2  137.55    3.95
  -6  -4   2  143.13    4.00
  -6  -4  -2  143.59    4.87
  -4   6   2  148.50    3.85
  -4   6  -2  138.41    3.84
   4  -6   2  144.87    6.35
   4  -6  -2  146.94    4.11
  -4   6   3   41.01    4.45
  -4   6  -3   32.39    4.36
   6   4   3   41.82    2.38
   6   4  -3   32.55    3.88
  -6  -4   3   37.14    3.74
  -4   6   3   39.79    2.30
  -6  -4  -3   34.93    2.72
  -4   6  -3   33.13    2.45
   4  -6   3   42.51    5.99
  -4   6   4  293.01    7.54
  -4   6  -4  291.47    7.03
   6   4   4  293.42    6.67
   6   4  -4  288.47    8.48
  -6  -4   4  292.35    7.47
  -4   6   4  315.10    7.28
  -6  -4  -4  297.03    6.87
  -4   6  -4  290.09    7.32
   4  -6   4  291.58    7.81
  -4   6   5  116.21    4.11
  -4   6  -5  104.46    5.29
   6   4   5  119.05    3.57
   6   4  -5  100.47    5.42
  -6  -4   5  114.66    4.55
  -4   6   5  113.44    3.49
  -6  -4  -5  105.17    6.33
  -4   6  -5  102.86    5.47
   4  -6   5  117.54    5.46
  -4   6   6   26.79    4.67
  -4   6  -6   25.73    1.88
   6   4   6   25.27    2.29
   6   4  -6   27.42    3.37
  -6  -4   6   27.08    2.65
  -4   6   6   30.72    5.93
  -6  -4  -6   24.78    4.03
  -4   6  -6   25.32    5.43
   4  -6   6   27.50    6.66
  -6  -4   6   26.56    5.51
  -4   6   7   34.19    4.80
  -4   6  -7   33.09    1.70
   6   4   7   31.01    1.75
   6   4  -7   36.67    5.94
  -6  -4   7   32.59    3.10
  -4   6   7   32.47    3.30
  -6  -4  -7   32.70    1.83
  -4   6  -7   34.99    5.00
   4  -6   7   29.11    7.03
  -6  -4   7   29.71    4.08
  -4   6   8  247.86    6.92
  -4   6  -8  255.85    6.22
   6   4   8  240.94    5.27
   6   4  -8  241.51    9.27
  -6  -4   8  240.71    6.97
  -4   6   8  244.59    8.44
  -6  -4  -8  247.96   11.35
  -4   6  -8  254.61    8.28
   4  -6   8  236.35    8.38
  -6  -4   8  241.53    6.75
  -4   6   9   50.16    4.63
  -4   6  -9   49.25    2.28
   6   4  -9   50.23    4.33
  -6  -4   9   56.59   11.72
  -4   6   9   53.58    2.29
  -6  -4  -9   54.85    3.00
  -4   6  -9   48.43    4.74
   4  -6   9   54.86    6.82
  -6  -4   9   58.76    2.69
  -4   6  10    2.00    0.86
  -4   6 -10    0.34    0.50
   6   4 -10    1.79    0.74
  -6  -4  10    2.43    1.71
  -4   6  10    0.51    1.32
  -6  -4 -10    0.24    0.38
  -4   6 -10    3.06    1.20
   4  -6  10    0.74    1.76
  -6  -4  10    1.41    0.97
  -4   6  11   38.50   10.31
  -4   6 -11   39.17    5.19
   6   4 -11   39.49    5.51
  -6  -4  11   45.47    5.04
  -4   6  11   39.45    4.98
  -6  -4 -11   37.82    5.77
  -4   6 -11   43.90    5.43
   4  -6  11   41.07    3.48
  -6  -4  11   42.40    2.54
  -4   6  12   55.49   12.38
   6   4 -12   44.13   10.08
  -6  -4  12   55.92    9.11
  -4   6  12   57.06    2.49
  -6  -4 -12   52.36    2.68
   4  -6  12   53.62    6.30
  -6  -4  12   52.60    2.76
  -4   6  13    3.39    1.58
   6   4 -13    1.65    1.72
  -6  -4  13    1.41    2.25
  -4   6  13    1.94    0.89
   4  -6  13    1.44    1.04
  -6  -4  13    0.69    0.97
  -4   6  14   21.61    5.98
   6   4 -14   21.60    4.51
  -6  -4  14   25.13    4.73
  -4   6  14   21.63    5.16
   4  -6  14   23.05    5.19
  -6  -4  14   19.98    5.58
   6   4 -15    9.55    2.93
  -6  -4  15   13.33    2.70
   4  -6  15    7.31    2.92
  -6  -4  15    8.45    2.82
  -4   6  16    5.54    2.27
   6   4 -16   15.28    2.56
  -6  -4  16   11.49    2.40
   4  -6  16    7.28    3.57
  -4   6  17   13.24    4.68
   6   4 -17   12.90    4.41
  -6  -4  17   17.27    3.95
   4  -6  17   13.13    4.23
  -5   6   0   75.58    6.65
   6   5   0   75.35    4.05
  -6  -5   0   81.08    4.26
   5  -6   0   76.66    4.51
  -5   6   1  405.23    9.81
  -5   6  -1  386.75    9.23
   6   5  -1  380.71    9.25
  -6  -5   1  402.83    9.42
  -6  -5  -1  386.34    9.62
  -5   6   1  403.43    9.27
  -5   6  -1  368.49    8.99
   5  -6   1  394.63    9.44
   5  -6  -1  379.91    8.94
  -5   6   2   54.55    5.57
  -5   6  -2   46.43    2.87
   6   5   2   56.98    3.20
   6   5  -2   49.77    5.35
  -6  -5   2   55.55    3.58
  -6  -5  -2   48.41    2.69
  -5   6   2   59.66    3.94
  -5   6  -2   45.89    3.01
   5  -6   2   59.53    3.84
   5  -6  -2   50.51    2.82
  -5   6   3   39.96    8.12
  -5   6  -3   38.68    3.48
   6   5   3   38.07    2.30
   6   5  -3   40.93    3.63
  -6  -5   3   42.19    3.09
  -6  -5  -3   36.65    2.18
  -5   6   3   36.94    2.34
  -5   6  -3   32.79    2.48
   5  -6   3   41.02    5.64
   5  -6  -3   36.92    1.97
  -5   6   4   47.51    3.26
  -5   6  -4   47.85    3.38
   6   5   4   43.93    2.52
   6   5  -4   50.49    3.40
  -6  -5   4   41.95    3.11
  -5   6   4   44.50    3.35
  -6  -5  -4   50.52    3.22
  -5   6  -4   47.35    3.03
   5  -6   4   45.40    4.65
  -5   6   5   72.48    6.96
  -5   6  -5   71.47    4.66
   6   5   5   62.32    4.12
   6   5  -5   71.85    2.99
  -6  -5   5   61.12    5.98
  -5   6   5   63.33    2.18
  -6  -5  -5   73.43    2.79
  -5   6  -5   68.54    4.26
   5  -6   5   64.13    2.59
  -5   6   6   80.52    3.15
  -5   6  -6   88.21    2.95
   6   5   6   84.34    3.10
   6   5  -6   89.53    3.35
  -6  -5   6   82.45    6.73
  -5   6   6   83.46    2.71
  -6  -5  -6   84.80    2.28
  -5   6  -6   79.07    2.99
   5  -6   6   82.65    3.88
  -5   6   6   84.59    1.37
  -6  -5   6   89.59    3.02
  -5   6   7   21.08    5.73
  -5   6  -7   21.42    3.69
   6   5   7   22.90    2.15
   6   5  -7   22.06    4.66
  -6  -5   7   27.26    4.85
  -5   6   7   21.98    5.58
  -6  -5  -7   20.96    3.88
  -5   6  -7   25.66    2.40
   5  -6   7   23.34    7.17
  -6  -5   7   25.02    2.58
  -5   6  -8   32.26    1.88
   6   5   8   28.78    2.99
   6   5  -8   33.80    6.89
   5  -6  -8   30.72    3.68
  -6  -5   8   36.30    9.19
  -5   6   8   32.41    2.60
  -6  -5  -8   31.95    4.07
  -5   6  -8   32.77    3.81
   5  -6   8   32.78    8.05
  -6  -5   8   33.71    3.49
  -5   6  -9   17.86    3.37
   6   5  -9   23.64    3.52
   5  -6  -9   19.19    3.20
  -6  -5   9   28.52    6.70
  -5   6   9   27.43    5.39
  -6  -5  -9   20.93    1.28
  -5   6  -9   22.62    6.61
   5  -6   9   26.44    5.88
  -6  -5   9   23.57    6.53
  -5   6 -10   91.96    4.03
   6   5 -10   98.69   11.12
   5  -6 -10   92.65    5.12
  -6  -5  10  105.44   11.38
  -5   6  10  102.51    3.26
  -5   6 -10   98.66   12.17
  -6  -5 -10   85.18    4.19
   5  -6  10   94.60    6.05
  -6  -5  10   96.50    3.32
   6   5 -11   42.59    2.69
   5  -6 -11   42.58    4.25
  -6  -5  11   36.83    8.78
  -5   6  11   36.56    3.72
  -5   6 -11   42.42    5.32
  -6  -5 -11   45.47    2.22
   5  -6  11   29.47    6.33
  -6  -5  11   36.94    2.73
   6   5 -12   32.22    4.20
   5  -6 -12   27.97    6.03
  -6  -5  12   26.57    4.90
  -5   6 -12   27.18    7.00
   5  -6  12   31.69    5.93
  -6  -5  12   30.26    2.18
   6   5 -13   67.90    5.21
   5  -6 -13   57.40    4.52
  -6  -5  13   60.82    6.33
  -5   6  13   58.56    2.76
  -5   6 -13   57.79    6.63
   5  -6  13   64.32   14.63
  -6  -5  13   64.02    3.16
   6   5 -14   11.63    2.02
   5  -6 -14   11.48    1.83
  -6  -5  14   16.46    3.80
  -5   6  14   12.00    3.27
   5  -6  14   11.99    2.57
  -6  -5  14   10.45    3.05
  -5   6  15   21.56    8.88
   6   5 -15   35.13    4.38
  -6  -5  15   31.72    6.61
   5  -6  15   32.94    8.04
  -6  -5  15   31.69    4.24
  -5   6  16   10.08    2.91
   6   5 -16   11.49    2.61
  -6  -5  16   14.70    2.96
   5  -6  16   15.70    5.55
  -5   6  17   16.16    3.99
   6   5 -17   15.02    2.26
  -6  -5  17   14.87    3.50
   5  -6  17   17.59    4.22
  -6   6   0   54.73    3.52
   6   6   0   55.63    3.40
  -6  -6   0   56.88    3.91
  -6   6   0   55.10    3.38
   6  -6   0   54.92    3.84
  -6   6   1  186.47    5.55
  -6   6  -1  176.60    7.43
   6   6   1  182.76    5.09
   6   6  -1  180.11    5.45
  -6  -6   1  187.04    5.27
  -6  -6  -1  183.42    4.90
  -6   6   1  188.61    5.32
  -6   6  -1  177.90    5.36
   6  -6   1  186.12    5.02
   6  -6  -1  189.86    4.82
  -6   6   2  460.37   11.08
  -6   6  -2  470.38   10.89
   6   6   2  467.43   10.84
   6   6  -2  459.05   11.53
  -6  -6   2  468.58   11.14
  -6  -6  -2  454.43   10.16
  -6   6   2  461.16   10.99
  -6   6  -2  468.21   11.80
   6  -6   2  476.88   10.97
   6  -6  -2  466.35    9.93
  -6   6   3   84.99    3.23
  -6   6  -3   86.74    3.29
   6   6   3   83.40    2.53
   6   6  -3   88.51    3.11
  -6  -6   3   85.88    6.40
  -6  -6  -3   86.94    3.94
  -6   6   3   86.56    2.84
  -6   6  -3   80.25    2.88
   6  -6   3   81.76    6.30
   6  -6  -3   85.68    2.11
  -6   6   4   16.84    5.27
  -6   6  -4   15.93    3.67
   6   6   4   14.95    1.91
   6   6  -4   17.34    3.32
  -6  -6   4   14.36    3.30
  -6   6   4   16.70    2.34
  -6  -6  -4   17.58    3.00
  -6   6  -4   15.11    3.58
   6  -6   4   15.20    4.85
  -6   6   5   37.02    7.54
  -6   6  -5   41.46    4.83
   6   6   5   33.82    3.06
   6   6  -5   33.10    7.24
  -6  -6   5   38.86    2.55
  -6   6   5   35.86    1.85
  -6  -6  -5   34.89    3.59
  -6   6  -5   35.27    4.22
   6  -6   5   38.72    3.29
  -6   6  -6    6.69    1.22
   6   6   6    7.83    1.59
   6   6  -6    6.35    1.26
   6  -6  -6    6.32    1.53
  -6  -6   6    6.98    1.05
  -6   6   6    5.38    1.40
  -6  -6  -6    5.62    1.44
  -6   6  -6    3.13    1.37
   6  -6   6    3.88    1.71
  -6  -6   6    3.87    1.44
  -6   6  -7  104.69    6.04
   6   6   7   92.77    3.94
   6   6  -7   95.74    4.66
   6  -6  -7   94.93    8.62
  -6  -6   7   95.55    4.64
  -6   6   7   95.40    6.04
  -6  -6  -7   95.93    5.90
  -6   6  -7   96.64    4.64
   6  -6   7  102.06    7.16
  -6  -6   7   96.66    4.76
  -6   6  -8   39.94    1.85
   6   6   8   39.86    1.84
   6   6  -8   39.86    3.42
   6  -6  -8   42.96    7.29
  -6  -6   8   44.90    3.16
  -6   6   8   42.68    5.20
  -6   6  -8   38.93    9.50
  -6  -6  -8   38.27    2.86
   6  -6   8   37.48    7.06
  -6  -6   8   44.20    3.53
   6   6   9   36.71    3.69
  -6   6  -9   41.65    2.34
   6   6  -9   44.91    8.19
   6  -6  -9   41.90    3.08
  -6  -6   9   45.33    2.84
  -6   6   9   39.09    8.28
  -6   6  -9   40.95    3.58
  -6  -6  -9   42.22    2.24
   6  -6   9   40.50    7.62
  -6  -6   9   38.03    4.08
   6   6 -10   34.65    4.60
   6  -6 -10   35.70    3.36
  -6  -6  10   33.66    7.77
  -6   6  10   36.40    7.48
  -6   6 -10   43.66    4.70
  -6  -6 -10   31.94    3.62
   6  -6  10   30.16    7.48
  -6  -6  10   31.01    8.45
   6   6 -11   48.49    5.14
   6  -6 -11   45.93    3.71
  -6  -6  11   49.76   11.60
  -6   6  11   49.77    5.52
  -6   6 -11   46.24    4.22
   6  -6  11   41.26    9.16
  -6  -6  11   44.31    8.03
   6   6 -12    0.40    1.17
   6  -6 -12    2.25    0.96
  -6  -6  12   -0.54    1.39
  -6   6  12   -0.79    1.06
  -6   6 -12    1.63    1.03
   6  -6  12   -0.74    1.70
  -6  -6  12    3.79    1.41
   6   6 -13    0.97    0.93
   6  -6 -13   -0.69    1.17
  -6  -6  13    1.10    1.16
  -6   6  13    1.07    1.16
  -6   6 -13    1.13    0.86
   6  -6  13    0.26    1.47
  -6  -6  13    0.01    1.19
   6   6 -14   64.27    3.82
   6  -6 -14   57.73   11.27
  -6  -6  14   60.12   13.88
  -6   6  14   52.61   11.24
  -6   6 -14   51.29   12.29
   6  -6  14   64.41    5.25
  -6  -6  14   50.77    9.81
   6   6 -15    0.55    1.27
   6  -6 -15    1.88    1.35
  -6  -6  15    1.86    1.04
   6  -6  15    2.01    1.01
  -6  -6  15    0.18    0.64
   6   6 -16    1.38    1.16
  -6  -6  16    0.85    1.15
   6  -6  16    1.10    0.98
  -6  -6  16    1.44    1.02
  -7   6   0  188.32    4.40
   6   7   0  181.04    6.50
  -6  -7   0  181.97    4.18
  -7   6   0  182.59    4.43
   7  -6   0  188.00    4.13
  -7   6   1   83.66    7.26
  -7   6  -1   80.41    3.34
   6   7   1   82.23    3.63
   6   7  -1   77.39    4.02
  -6  -7   1   87.96    2.78
  -6  -7  -1   89.56    2.62
  -7   6   1   78.22    2.92
  -7   6  -1   76.23    2.87
   7  -6   1   85.99    4.75
   7  -6  -1   81.40    5.72
  -7   6   2  100.95    8.71
  -7   6  -2   90.31    2.82
   6   7   2   93.30    3.63
   6   7  -2  101.96    3.30
  -6  -7   2   98.34    6.13
  -6  -7  -2  101.11    4.21
  -7   6   2   87.73    3.07
  -7   6  -2   91.05    5.11
   7  -6   2   92.92    4.40
   7  -6  -2   98.32    2.35
  -7   6   3   23.39    5.79
  -7   6  -3   22.76    1.73
   6   7   3   22.24    2.29
   6   7  -3   21.57    5.06
  -6  -7   3   21.01    3.67
  -6  -7  -3   25.25    1.29
  -7   6   3   21.89    4.85
  -7   6  -3   22.54    5.90
   7  -6   3   19.46    4.61
   7  -6  -3   21.04    2.20
  -7   6   4   -0.36    1.30
  -7   6  -4   -0.07    0.84
   6   7   4    0.49    0.75
   6   7  -4    1.50    0.66
  -6  -7   4    1.62    0.81
  -7   6   4    0.65    0.66
  -6  -7  -4    0.39    0.36
  -7   6  -4    0.62    0.73
   7  -6   4    1.01    0.59
  -7   6  -5   21.85    3.59
   6   7   5   24.06    6.13
   6   7  -5   20.30    3.25
   7  -6  -5   26.16    2.98
  -6  -7   5   21.07    4.54
  -7   6   5   25.20    1.95
  -6  -7  -5   20.92    1.47
  -7   6  -5   22.71    4.74
   7  -6   5   24.93    5.68
  -7   6  -6  166.29    8.55
   6   7   6  166.15    6.66
   6   7  -6  167.27    7.03
   7  -6  -6  156.95    9.71
  -6  -7   6  169.83    7.01
  -7   6   6  161.72    6.46
  -6  -7  -6  162.78    6.36
  -7   6  -6  160.98    6.70
   7  -6   6  181.79    7.89
  -6  -7   6  157.14    9.18
  -7   6  -7   75.58    4.21
   6   7   7   62.82    2.68
   6   7  -7   72.17    3.98
  -6  -7   7   63.68    4.05
  -7   6   7   64.78    2.85
  -7   6  -7   68.84    4.58
  -6  -7  -7   72.90    4.17
   7  -6   7   61.57    3.65
  -6  -7   7   60.39    3.20
  -7   6  -8   27.14    2.03
   6   7   8   26.98    4.02
   6   7  -8   30.41    6.01
   7  -6  -8   31.41    6.47
  -6  -7   8   27.61    7.40
  -7   6   8   30.62    3.53
  -7   6  -8   26.19    5.82
   7  -6   8   26.45    6.47
  -6  -7   8   23.87    6.01
   6   7   9   34.32    1.64
   6   7  -9   31.29    2.35
   7  -6  -9   36.51    7.98
  -6  -7   9   28.90    6.71
  -7   6   9   32.99    2.55
  -7   6  -9   33.60    9.99
  -6  -7   9   27.62    7.47
   6   7 -10   65.35    3.55
   7  -6 -10   77.42    9.39
  -6  -7  10   70.75    7.32
  -7   6  10   73.76    4.29
  -7   6 -10   72.69    6.82
   7  -6  10   72.00    6.67
  -6  -7  10   72.81    3.39
   6   7 -11   41.12    4.84
   7  -6 -11   33.42    5.83
  -6  -7  11   40.54    7.96
  -7   6  11   42.20    3.78
  -7   6 -11   36.95    9.83
   7  -6  11   42.96    9.74
  -6  -7  11   38.65    6.92
   6   7 -12   12.96    4.09
   7  -6 -12   11.17    1.84
  -6  -7  12   12.59    1.99
  -7   6  12   12.19    2.77
  -7   6 -12    9.96    1.35
   7  -6  12   11.06    1.58
  -6  -7  12   10.12    2.03
   6   7 -13   10.46    1.83
   7  -6 -13    8.57    1.93
  -6  -7  13   10.09    2.25
  -7   6  13    7.21    2.42
  -7   6 -13    7.44    1.38
   7  -6  13   13.58    2.61
  -6  -7  13    9.85    2.79
   6   7 -14    2.56    1.47
   7  -6 -14    1.77    0.99
  -6  -7  14    0.72    1.17
  -7   6  14    3.69    1.28
  -7   6 -14    2.02    1.92
   7  -6  14    1.52    1.95
  -6  -7  14    3.97    1.32
   6   7 -15    2.79    1.41
   7  -6 -15    4.45    1.92
  -6  -7  15    3.77    1.30
  -7   6 -15    3.69    2.04
   7  -6  15    4.84    1.81
  -6  -7  15    6.75    1.55
   6   7 -16    6.79    1.94
   7  -6 -16    5.23    1.73
  -6  -7  16    7.26    3.24
   7  -6  16    7.27    0.79
  -6  -7  16    2.17    1.27
  -7   5   0   29.28    2.29
   5   7   0   33.03    7.50
  -5  -7   0   39.51    2.38
  -7   5   0   36.95    2.96
   7  -5   0   33.05    3.19
  -7   5   1  173.92    5.09
  -7   5  -1  183.55    5.24
   5   7   1  192.53    5.56
   5   7  -1  180.28    5.34
  -5  -7   1  184.80    4.89
  -5  -7  -1  175.28    4.66
  -7   5   1  176.18    5.28
  -7   5  -1  172.07    5.20
   7  -5   1  179.99    6.34
   7  -5  -1  175.61    5.85
  -7   5  -2   17.11    3.86
   5   7   2   24.78    1.70
   5   7  -2   18.54    4.42
   7  -5  -2   19.60    1.57
  -5  -7   2   27.69    2.08
  -5  -7  -2   21.14    2.28
  -7   5   2   29.36    2.06
  -7   5  -2   19.49    5.20
   7  -5   2   23.13    1.88
   7  -5  -2   20.67    1.79
  -7   5  -3  156.24    3.56
   5   7   3  139.14    3.73
   5   7  -3  154.26    5.39
   7  -5  -3  148.50    4.75
  -5  -7   3  147.00    3.67
  -5  -7  -3  149.52    2.58
  -7   5  -3  147.17    3.94
   7  -5   3  139.39    3.68
   7  -5  -3  152.73    2.16
  -7   5  -4   10.71    2.28
   5   7   4   14.05    3.48
   5   7  -4   11.90    2.24
   7  -5  -4   11.76    2.92
  -5  -7   4   11.36    2.60
  -7   5   4   15.49    3.41
  -5  -7  -4   11.68    0.93
  -7   5  -4   13.29    2.59
   7  -5   4   14.63    2.86
  -7   5  -5   85.63    3.98
   5   7   5   87.86    3.02
   5   7  -5   83.02    4.65
   7  -5  -5   82.04    3.49
  -5  -7   5   82.59    3.28
  -7   5   5   83.32    3.91
  -5  -7  -5   82.43    2.19
  -7   5  -5   80.01    3.40
   7  -5   5   83.41    3.41
  -5  -7   5   82.53    3.98
  -7   5  -6   59.46    2.30
   5   7   6   49.88    2.72
   5   7  -6   59.08    4.36
   7  -5  -6   59.24    3.86
  -5  -7   6   54.31    5.10
  -7   5   6   53.46    3.93
  -7   5  -6   59.53    3.40
  -5  -7  -6   58.49    1.92
   7  -5   6   53.42    4.12
  -5  -7   6   53.39    2.64
  -7   5  -7   77.46    3.24
   5   7   7   71.61    6.35
   5   7  -7   74.42    5.97
   7  -5  -7   83.02   13.83
  -5  -7   7   73.05    6.21
  -7   5   7   71.15    7.77
  -7   5  -7   78.89    4.35
  -5  -7  -7   75.96    3.02
   7  -5   7   76.37    6.82
  -5  -7   7   69.89    5.10
   5   7   8   56.40    2.92
  -7   5  -8   56.40    2.05
   5   7  -8   56.41    3.90
   7  -5  -8   55.37    9.63
  -7   5   8   59.48    8.67
  -7   5  -8   62.25    4.73
   7  -5   8   50.80    9.03
  -5  -7   8   53.15    3.39
   5   7   9   49.48    3.34
   5   7  -9   53.80    3.25
   7  -5  -9   47.33    3.75
  -7   5   9   52.50    4.12
  -7   5  -9   40.44    9.18
   7  -5   9   44.75    9.68
  -5  -7   9   50.33    4.49
   5   7  10   44.09    1.98
   5   7 -10   48.05    2.78
   7  -5 -10   51.17    4.00
  -7   5  10   40.68    8.75
  -7   5 -10   55.45    9.82
   7  -5  10   39.78    7.59
   5   7 -11   20.35    5.87
   7  -5 -11   21.85    3.60
  -7   5  11   22.56    4.01
  -7   5 -11   19.11    3.17
   7  -5  11   20.40    4.21
  -5  -7  11   24.71    5.99
   5   7 -12    4.49    1.60
   7  -5 -12    4.65    2.35
  -7   5  12    9.98    1.87
  -7   5 -12    5.87    2.03
   7  -5  12    7.39    1.99
  -5  -7  12    5.31    2.56
   5   7 -13   65.57    8.28
   7  -5 -13   66.95    3.77
  -7   5  13   67.13    6.29
  -7   5 -13   64.93    6.44
   7  -5  13   63.96   13.17
  -5  -7  13   58.72    6.71
   5   7 -14    3.27    1.30
   7  -5 -14    2.66    1.30
  -7   5  14    1.83    0.83
  -7   5 -14    3.79    1.31
   7  -5  14    3.92    2.38
  -5  -7  14    0.89    1.28
   5   7 -15   23.49    5.73
   7  -5 -15   20.63    2.60
  -5  -7  15   22.26    5.23
  -7   5  15   19.35    5.30
  -7   5 -15   24.72    4.81
   7  -5  15   27.05    6.13
  -5  -7  15   20.16    5.55
   5   7 -16    2.12    1.14
   7  -5 -16    2.06    0.80
  -5  -7  16   -1.01    1.69
  -7   5  16    2.06    1.10
   7  -5  16    3.72    1.22
  -5  -7  16    2.39    1.21
   4   7   0  137.53    5.82
  -4  -7   0  155.00    4.09
  -7   4   0  144.01    4.60
   7  -4   0  145.93    3.82
  -7   4  -1  117.39    3.66
   4   7   1  118.57    4.16
   4   7  -1  109.97    6.54
   7  -4  -1  122.86    4.02
  -4  -7   1  118.28    5.37
  -4  -7  -1  116.47    3.12
  -7   4   1  121.48    5.00
  -7   4  -1  122.93    4.15
   7  -4   1  119.27    6.53
   7  -4  -1  115.56    3.79
  -7   4  -2   90.63    4.67
   4   7   2   89.31    4.82
   4   7  -2   87.96    5.67
   7  -4  -2   91.87    4.92
  -4  -7   2   87.39    4.58
  -4  -7  -2   96.15    4.55
  -7   4   2   94.77    5.53
  -7   4  -2   91.32    5.00
   7  -4   2   90.08    4.72
   7  -4  -2   93.26    4.42
  -7   4  -3   18.85    4.32
   4   7   3   24.22    2.10
   4   7  -3   20.13    2.31
   7  -4  -3   20.81    5.03
  -4  -7   3   23.85    1.90
  -7   4   3   26.30    4.54
  -4  -7  -3   20.40    2.18
  -7   4  -3   20.65    4.38
   7  -4   3   29.65    3.02
   7  -4  -3   17.59    1.98
  -7   4  -4  233.34    4.12
   4   7   4  225.96    4.39
   4   7  -4  233.94    5.27
   7  -4  -4  225.83    5.02
  -7   4   4  233.37    4.89
  -4  -7  -4  229.16    2.79
   7  -4   4  232.25    4.93
  -4  -7   4  234.54    5.08
  -7   4  -5   45.93    5.24
   4   7   5   48.60    2.98
   4   7  -5   42.50    3.74
   7  -4  -5   45.00    2.33
  -7   4   5   50.09    3.57
  -7   4  -5   43.16    2.40
  -4  -7  -5   44.08    0.94
   7  -4   5   49.37    3.66
  -4  -7   5   53.10    6.31
  -7   4  -6   20.89    1.38
   4   7   6   18.00    3.84
   4   7  -6   19.03    2.47
   7  -4  -6   18.25    5.70
   4   7   6   13.26    1.39
  -7   4   6   18.80    4.17
  -7   4  -6   17.86    3.88
   7  -4   6   19.26    4.00
  -4  -7   6   18.86    4.67
   4   7   7    2.81    0.99
  -7   4  -7    5.27    1.17
   4   7  -7    5.90    1.85
   7  -4  -7    5.43    1.27
  -7   4   7    2.39    1.05
  -7   4  -7    3.06    1.67
   7  -4   7    4.33    1.61
  -4  -7   7    3.37    1.47
   4   7   8   65.97    3.15
  -7   4  -8   58.50    1.66
   4   7  -8   63.30    4.53
   7  -4  -8   59.13    6.00
  -7   4   8   62.93    3.58
  -7   4  -8   57.60    4.47
   7  -4   8   68.95    7.84
  -4  -7   8   66.55    5.02
   4   7   9   23.19    4.01
   4   7  -9   24.62    4.68
   7  -4  -9   22.29    3.29
  -7   4   9   25.16    5.35
  -7   4  -9   24.79    5.88
   7  -4   9   25.20    3.42
  -4  -7   9   25.68    5.89
   4   7  10   24.39    2.84
   4   7 -10   19.12    4.49
   7  -4 -10   17.12    2.35
  -7   4  10   28.06    5.26
  -7   4 -10   16.29    3.80
   7  -4  10   26.48    5.98
  -4  -7  10   24.53    6.52
   4   7  11   58.70    2.81
   4   7 -11   63.15   11.79
   7  -4 -11   73.10    3.33
  -7   4  11   55.35    6.55
  -7   4 -11   56.39   10.37
   7  -4  11   63.78    4.72
  -4  -7  11   61.57    5.23
   4   7 -12   83.97    8.58
   7  -4 -12   79.71    8.13
  -7   4  12   70.44    5.32
  -7   4 -12   74.78    3.59
   7  -4  12   70.96   15.17
  -4  -7  12   79.34    3.60
   4   7 -13   13.89    1.99
   7  -4 -13   12.39    2.69
  -7   4  13   14.70    3.32
  -7   4 -13   12.26    3.01
   7  -4  13   15.35    3.11
  -4  -7  13   14.57    3.85
   4   7 -14   47.06    3.51
   7  -4 -14   43.58    9.42
  -7   4  14   41.18    6.94
  -7   4 -14   40.76    4.00
   7  -4  14   42.81    8.96
  -4  -7  14   41.09    9.42
   4   7 -15   11.01    1.97
   7  -4 -15   12.06    3.39
  -7   4  15    9.07    2.91
  -7   4 -15    8.96    1.64
   7  -4  15   15.40    2.62
  -4  -7  15   10.27    3.08
   4   7 -16   43.13    2.86
   7  -4 -16   35.13    7.00
  -7   4  16   37.05    8.64
   7  -4  16   41.61   10.33
  -4  -7  16   37.12    7.99
   4   7 -17    9.95    2.05
   7  -4 -17    4.25    1.82
  -7   4  17   12.30    3.33
   7  -4  17    9.91    4.32
  -4  -7  17   11.20    4.23
   3   7   0   14.23    4.69
   7  -3   0   13.07    3.03
  -3  -7   0   12.36    0.91
  -7   3   0   14.06    2.69
   3   7   1   59.55    3.71
   3   7  -1   48.03    5.98
   7  -3  -1   49.47    2.93
   7  -3   1   60.39    3.29
  -3  -7   1   60.42    3.18
  -3  -7  -1   47.76    2.47
  -7   3   1   58.10    4.20
  -7   3  -1   46.35    5.48
   7  -3  -1   48.98    2.84
  -7   3  -2  123.23    3.60
   3   7   2  120.68    3.92
   3   7  -2  118.49    4.10
   7  -3  -2  119.58    4.13
  -3  -7  -2  119.39    2.77
  -7   3   2  120.33    4.06
  -7   3  -2  122.37    4.24
   7  -3  -2  122.63    3.32
  -3  -7   2  120.33    4.25
  -7   3  -3  253.86    5.95
   3   7  -3  250.47    6.65
   7  -3  -3  259.87    8.01
  -7   3   3  260.17    6.88
  -3  -7  -3  257.91    5.21
  -7   3  -3  253.36    7.87
  -3  -7  -3  254.64    5.09
   7  -3  -3  255.00    5.54
  -3  -7   3  256.87    6.94
  -7   3  -4  182.59    4.58
   3   7   4  170.41    4.85
   3   7  -4  172.17    6.01
   7  -3  -4  173.91    7.04
  -7   3   4  176.86    8.11
  -7   3  -4  175.48    5.32
  -3  -7   4  176.66    5.37
  -7   3  -5   14.39    2.47
   3   7   5   14.29    2.16
   3   7  -5   14.69    3.89
   7  -3  -5   13.30    4.03
  -7   3   5   13.89    3.65
  -7   3  -5   15.60    3.47
   7  -3   5   12.66    2.23
  -3  -7   5   13.96    3.86
  -7   3  -6   40.63    3.34
   3   7   6   47.58    4.09
   3   7  -6   37.15    7.45
   7  -3  -6   40.33    2.25
  -7   3   6   45.12    4.94
  -7   3  -6   41.49    3.20
   7  -3   6   49.98    6.94
  -3  -7   6   48.90    4.22
   3   7   7   73.85    2.74
  -7   3  -7   63.77    2.28
   3   7  -7   69.20    3.86
   7  -3  -7   61.25    4.69
  -7   3   7   72.08    3.34
  -7   3  -7   69.09    3.26
   7  -3   7   76.57    3.55
  -3  -7   7   72.39    3.37
   3   7   8   58.33    2.21
  -7   3  -8   66.52    2.69
   3   7  -8   59.52    6.29
   7  -3  -8   67.81    3.84
  -7   3   8   61.37    6.16
  -7   3  -8   67.43    4.46
   7  -3   8   61.14    7.04
  -3  -7   8   52.09    3.47
   3   7   9   78.72    3.12
   3   7  -9   70.67    6.06
   7  -3  -9   69.41    3.33
  -7   3   9   71.78    4.32
  -7   3  -9   70.06    8.44
   7  -3   9   76.54    3.94
  -3  -7   9   73.09    8.19
   3   7  10   64.08    4.57
   3   7 -10   79.46    6.82
   7  -3 -10   73.73    8.55
  -7   3  10   65.67    3.97
  -7   3 -10   77.65   10.21
   7  -3  10   70.98    7.64
  -3  -7  10   66.61    3.30
   3   7  11    3.99    1.07
   3   7 -11    2.31    1.05
   7  -3 -11    2.24    1.18
  -7   3  11    4.04    1.64
  -7   3 -11    1.63    0.63
   7  -3  11    3.67    2.19
  -3  -7  11    5.64    1.37
   3   7  12   10.12    2.47
   3   7 -12   16.03    3.62
   7  -3 -12   14.56    4.18
  -7   3  12    8.49    1.54
  -7   3 -12   18.89    2.40
   7  -3  12   11.44    3.03
  -3  -7  12    8.11    2.70
   3   7 -13   32.90    4.31
   7  -3 -13   26.91    6.47
  -7   3  13   26.92    5.81
  -7   3 -13   25.28    6.02
   7  -3  13   34.89    5.60
  -3  -7  13   25.67    7.00
   3   7 -14    1.98    0.85
   7  -3 -14    2.79    1.34
  -7   3  14    1.74    0.83
  -7   3 -14    1.44    0.87
   7  -3  14    1.34    1.24
  -3  -7  14    0.20    1.37
   3   7 -15   17.16    1.94
   7  -3 -15   18.44    4.52
  -7   3  15   21.00    5.34
  -7   3 -15   18.81    2.36
   7  -3  15   22.70    5.10
  -3  -7  15   19.25    6.27
   3   7 -16   23.96    3.75
   7  -3 -16   21.71    4.31
  -7   3  16   24.78    5.27
   7  -3  16   24.95    4.65
  -3  -7  16   25.74    3.05
   3   7 -17    1.17    0.97
   7  -3 -17    1.41    1.22
  -7   3  17    2.23    0.94
   7  -3  17    4.40    1.76
  -3  -7  17    1.43    0.80
   2   7   0    5.98    1.81
   7  -2   0    6.45    1.73
  -7   2   0    5.89    2.35
   2   7   1   45.00    2.70
   7  -2  -1   34.74    3.16
   7  -2   1   39.22    2.38
  -2  -7  -1   32.32    1.93
  -7   2   1   38.33    2.19
  -7   2  -1   34.58    2.48
  -2  -7   1   44.54    2.70
   2   7   2  113.17    5.35
   2   7  -2  112.56    4.59
   7  -2  -2  109.73    5.40
   7  -2   2  111.95    3.92
  -2  -7  -2  106.50    3.33
  -7   2   2  115.28    4.66
  -7   2  -2  107.55    4.38
  -2  -7  -2  108.95    3.30
  -2  -7   2  112.82    4.56
   2   7   3   58.69    3.42
   2   7  -3   57.51    3.58
   7  -2  -3   56.37    3.74
  -7   2   3   58.70    3.64
  -7   2  -3   54.15    3.49
  -2  -7   3   61.47    3.79
  -7   2  -4  395.89    9.39
   2   7  -4  403.53   10.71
   7  -2  -4  398.57    9.56
  -7   2   4  389.01    9.84
  -7   2  -4  392.71   10.65
   7  -2  -4  397.20    7.92
  -2  -7   4  373.79    9.15
  -7   2  -5  643.88   13.34
   2   7   5  661.43   15.24
   2   7  -5  646.57   14.39
   7  -2  -5  637.59   14.18
  -7   2   5  654.28   15.48
  -7   2  -5  632.48   14.28
  -2  -7   5  673.37   15.10
   2   7   6   36.69    2.53
  -7   2  -6   43.00    1.48
   2   7  -6   46.53    2.89
   7  -2  -6   44.51    2.73
  -7   2   6   39.25    4.55
  -7   2  -6   38.95    2.22
  -2  -7   6   41.48    2.43
   2   7   7  302.63    7.56
  -7   2  -7  319.43    6.26
   2   7  -7  306.14    8.01
  -7   2  -7  316.75    6.11
   7  -2  -7  306.39    9.32
  -7   2   7  293.12    8.14
  -7   2  -7  322.86    8.16
  -2  -7   7  297.26    7.77
   2   7   8  204.17    7.06
   2   7  -8  198.08    5.86
   7  -2  -8  201.20    6.09
  -7   2   8  217.97    6.47
  -7   2  -8  194.30    5.85
  -2  -7   8  214.37    6.33
   2   7   9   20.93    4.61
   2   7  -9   25.32    6.03
   7  -2  -9   28.20    5.63
  -7   2   9   22.22    5.06
  -7   2  -9   23.42    6.09
  -2  -7   9   21.71    4.76
   2   7  10   14.23    3.65
   2   7 -10   11.80    2.27
   7  -2 -10    9.19    1.40
  -7   2  10   15.07    3.26
  -7   2 -10    9.59    1.98
   7  -2  10   17.34    2.70
  -2  -7  10   12.85    2.80
   2   7  11   33.07    3.24
   2   7 -11   37.60    7.48
   7  -2 -11   38.54    4.02
  -7   2  11   32.98    9.11
  -7   2 -11   37.82    2.46
   7  -2  11   37.04    6.75
  -2  -7  11   32.67    9.09
   2   7  12    7.20    2.59
   2   7 -12    5.01    1.72
   7  -2 -12    3.33    1.35
  -7   2  12    5.54    2.35
  -7   2 -12    2.11    1.33
   7  -2  12    5.46    2.33
  -2  -7  12    5.99    1.87
   2   7 -13    0.00    0.91
   7  -2 -13    3.01    1.53
  -7   2  13    0.29    0.81
  -7   2 -13    1.35    1.01
   7  -2  13    0.43    1.06
  -2  -7  13   -0.46    1.46
   7  -2 -14    9.97    1.71
  -7   2  14    9.73    1.78
  -7   2 -14    9.34    2.45
   7  -2  14    9.60    1.88
  -2  -7  14    6.93    1.25
   2   7 -15    4.69    1.59
   7  -2 -15    3.83    0.95
  -7   2  15    4.72    2.02
  -7   2 -15    5.90    1.59
   7  -2  15    4.88    1.69
  -2  -7  15    4.04    1.62
   2   7 -16   10.15    2.69
   7  -2 -16    9.65    3.11
  -7   2  16   15.71    3.54
   7  -2  16   17.86    4.14
  -2  -7  16   12.87    2.37
   7  -2 -17    4.02    1.81
   7  -2  17    6.66    2.05
  -2  -7  17    8.56    1.36
   1   7   0   98.62    4.39
   7  -1   0   97.52    3.70
  -7   1   0  102.16    4.17
   1   7   1   89.55    3.83
   1   7  -1   87.88    3.74
   7  -1  -1   92.45    3.52
   7  -1   1   83.08    3.16
  -7   1   1   82.52    3.64
  -7   1  -1   91.39    3.89
  -1  -7   1   80.75    3.50
   1   7   2  309.26    7.13
   1   7  -2  311.62    7.32
   7  -1  -2  308.43    7.04
   7  -1   2  315.99    6.56
  -7   1   2  315.11    7.41
  -7   1  -2  312.40    8.42
  -1  -7  -2  315.54    5.85
  -1  -7   2  310.50    7.31
   1   7   3  110.43    4.70
   1   7  -3  121.29    6.22
   7  -1  -3  125.57    6.39
   7  -1   3  121.46    5.70
  -7   1   3  116.27    6.04
  -7   1  -3  124.37    6.32
  -1  -7   3  118.11    4.76
   1   7   4  176.66    5.32
   1   7  -4  173.79    5.09
   7  -1  -4  182.46    5.85
   7  -1   4  170.53    3.97
  -7   1   4  175.39    5.33
  -7   1  -4  170.83    7.05
  -1  -7   4  181.53    5.45
  -7   1  -5   22.26    2.33
   1   7   5   23.43    5.61
   1   7  -5   26.48    5.75
   7  -1  -5   23.02    6.18
  -7   1   5   23.70    6.69
  -7   1  -5   25.55    3.31
  -1  -7   5   27.90    4.07
  -7   1  -6  326.17    3.45
   1   7  -6  325.67    6.00
  -7   1  -6  323.60    3.36
   7  -1  -6  335.51    6.19
  -7   1   6  320.28    6.13
  -7   1  -6  304.23    7.60
  -1  -7   6  311.12    6.03
   1   7   7   15.73    5.39
   1   7  -7   16.55    3.52
   7  -1  -7   12.20    1.69
  -7   1   7   17.71    4.58
  -7   1  -7   13.08    4.79
  -1  -7   7   18.29    3.18
   1   7   8   88.02    3.44
   1   7  -8   95.10    6.71
   7  -1  -8   90.61    5.04
  -7   1   8   94.95    3.91
   1   7   8   87.86    2.18
  -7   1  -8   92.42    4.03
  -1  -7   8   90.36    3.84
   1   7   9   34.57    3.25
   1   7  -9   35.22    3.00
   7  -1  -9   38.25    4.91
  -7   1   9   37.52    9.44
  -7   1  -9   36.51    7.47
  -1  -7   9   34.59    5.45
   1   7  10   87.75    3.12
   1   7 -10   84.04    4.20
   7  -1 -10   81.81   10.36
  -7   1  10   76.85    4.17
  -7   1 -10   87.43    3.56
  -1  -7  10   79.94    4.55
   1   7  11   28.87    2.43
   1   7 -11   28.63    5.52
   7  -1 -11   24.75    5.58
  -7   1  11   31.54    7.34
  -7   1 -11   29.95    6.11
  -1  -7  11   31.86    3.96
   1   7  12   66.84    4.72
   1   7 -12   71.86    5.63
   7  -1 -12   78.45    4.23
  -7   1  12   77.87    7.32
  -7   1 -12   76.21    3.62
   7  -1  12   77.61   12.10
  -1  -7  12   64.47    9.42
   1   7  13    5.10    1.77
   1   7 -13    3.38    1.62
   7  -1 -13    2.55    1.37
  -7   1  13    3.24    1.12
  -7   1 -13    4.54    1.53
   7  -1  13    5.46    2.82
  -1  -7  13    5.09    1.54
   1   7 -14   72.28    4.43
   7  -1 -14   81.65    7.33
  -7   1  14   87.92   10.91
  -7   1 -14   71.79    5.44
   7  -1  14   72.67   10.44
  -1  -7  14   74.72    7.76
   1   7 -15    4.98    1.24
   7  -1 -15    7.36    2.06
  -7   1  15    5.27    1.85
  -7   1 -15    1.47    2.11
   7  -1  15    5.92    3.02
  -1  -7  15    3.28    3.02
   1   7 -16   16.65    1.56
  -7   1  16   19.67    3.78
   7  -1  16   20.48    6.55
  -1  -7  16   15.40    4.97
   7  -1 -17    6.56    2.71
  -7   1  17   10.38    3.63
   7  -1  17   14.19    3.33
  -1  -7  17    6.91    1.93
   0   7   0    2.57    1.13
   7   0   0   -0.27    0.57
  -7   0   0    0.49    0.72
   0  -7   0    0.40    0.34
   0   7   1   21.69    1.86
   0   7  -1   21.10    2.51
   7   0  -1   19.80    3.47
   7   0   1   20.02    1.40
  -7   0   1   19.05    2.15
  -7   0  -1   24.28    6.26
   0  -7   1   20.55    1.57
   0   7   2  256.38    6.18
   0   7  -2  255.06    6.28
   7   0  -2  252.05    5.99
   7   0   2  259.18    5.59
  -7   0   2  254.38    6.35
   0  -7  -2  263.13    5.08
  -7   0  -2  261.06    6.29
   0  -7   2  252.16    6.18
   0   7   3  151.49    4.37
   0   7  -3  160.27    4.65
   7   0  -3  156.68    5.23
   7   0   3  158.47    3.79
   0  -7  -3  162.00    3.10
  -7   0   3  169.96    4.97
  -7   0  -3  157.79    4.41
   0  -7   3  156.37    4.60
   0   7   4   19.24    2.37
   0   7  -4   20.50    3.86
   7   0  -4   16.37    1.84
   7   0   4   18.00    2.00
  -7   0   4   18.84    5.30
  -7   0  -4   19.31    1.76
   0  -7   4   20.87    4.93
   0   7   5  201.36    5.65
   0   7  -5  202.11    5.57
   7   0  -5  201.97    5.83
  -7   0   5  194.28    5.75
  -7   0  -5  194.56    5.40
   0  -7   5  197.50    5.84
   0   7   6  149.93    3.81
   0   7  -6  154.13    3.91
   7   0  -6  141.63    6.24
  -7   0   6  150.05    4.11
  -7   0  -6  153.25    3.89
   0   7   6  158.96    1.47
   0  -7   6  149.00    4.20
   0   7   7    7.02    1.74
   0   7  -7    6.92    1.30
   7   0  -7    5.92    1.98
  -7   0   7    3.22    2.10
   0   7   7    5.54    1.05
  -7   0  -7    7.14    1.55
   0   7   7    3.88    0.95
   0  -7   7    4.11    1.66
   0   7   8   69.15    2.98
   0   7  -8   71.69    5.33
   7   0  -8   73.57    3.51
  -7   0   8   69.80    3.98
   0   7   8   66.28    2.31
  -7   0  -8   72.35    6.43
   0  -7   8   69.29    6.62
   0   7   9    1.21    0.97
   0   7  -9    0.87    0.77
   7   0  -9    0.96    1.23
  -7   0   9    0.79    1.16
   0   7   9    0.72    0.43
  -7   0  -9    1.15    0.56
   0  -7   9    0.74    1.05
  -7   0   9    0.77    0.54
   0   7  10  128.06    3.98
   0   7 -10  134.14    7.99
   7   0 -10  128.91    5.56
  -7   0  10  133.51    4.76
  -7   0 -10  135.30    4.71
   0  -7  10  134.76    4.84
  -7   0  10  128.82    3.17
   0   7  11   62.39    6.34
   0   7 -11   61.08    3.08
   7   0 -11   61.48    5.96
  -7   0  11   57.71    3.39
  -7   0 -11   63.91    4.20
   0  -7  11   59.37    3.75
   0   7  12    1.50    0.82
   0   7 -12    4.30    1.09
   7   0 -12    0.23    1.19
  -7   0  12    3.31    2.01
  -7   0 -12    1.10    1.16
   0  -7  12    2.98    1.20
   0   7  13   55.31    2.76
   0   7 -13   53.36    3.65
   7   0 -13   56.62    6.72
  -7   0 -13   60.92    4.40
   0  -7  13   55.69    4.18
   0   7  14  185.23    4.83
   0   7 -14  186.49   14.01
   7   0 -14  195.04    5.53
  -7   0  14  190.48    5.96
  -7   0 -14  183.28    8.79
   7   0  14  174.44    9.36
   0  -7  14  188.01    7.09
   0   7 -15   19.97    4.35
   7   0 -15   26.70    4.84
  -7   0  15   23.56    6.52
  -7   0 -15   20.08    4.58
   7   0  15   22.71    5.25
   0  -7  15   25.52    7.71
   7   0 -16    2.92    1.57
  -7   0  16    0.79    0.92
   7   0  16    0.88    1.06
   0  -7  16    0.44    1.48
   7   0 -17    4.94    1.77
  -7   0  17    4.36    1.74
   7   0  17    3.71    1.58
   0  -7  17    4.50    1.69
  -1   7   0  104.16    4.19
   7   1   0   99.33    3.63
  -7  -1   0   96.99    3.94
  -1   7   0   99.42    3.71
   1  -7   0  102.26    3.90
  -1   7   1   89.43    3.75
  -1   7  -1   88.10    3.72
   7   1  -1   83.97    3.28
   7   1   1   97.73    3.63
  -7  -1   1   94.23    4.00
  -7  -1  -1   84.19    3.50
  -1   7   1   96.36    3.23
  -1   7  -1   86.38    3.24
   1  -7   1   92.80    3.64
   1  -7  -1   82.43    3.27
  -1   7   2  307.30    7.10
  -1   7  -2  314.96    7.27
   7   1  -2  313.59    7.06
   7   1   2  320.47    6.70
  -7  -1   2  308.81    7.30
  -7  -1  -2  302.00    6.87
  -1   7   2  310.80    6.25
  -1   7  -2  307.89    6.64
   1  -7   2  309.91    7.15
  -1   7   3  127.11    4.05
  -1   7  -3  120.35    4.64
   7   1  -3  124.98    6.35
   7   1   3  124.03    6.00
  -7  -1   3  120.58    4.78
  -7  -1  -3  119.71    4.47
  -1   7   3  129.47    2.80
  -1   7  -3  119.28    4.32
   1  -7   3  123.07    6.30
  -1   7   4  165.14    4.93
  -1   7  -4  170.56    4.93
   7   1  -4  169.08    4.96
   7   1   4  170.66    4.37
  -7  -1   4  170.91    5.12
  -7  -1  -4  177.53    4.96
  -1   7   4  179.01    3.94
   1  -7   4  171.21    5.07
  -1   7   5   26.40    3.94
  -1   7  -5   30.41    3.34
   7   1  -5   26.75    2.28
   7   1   5   21.40    1.49
  -7  -1   5   22.43    3.16
  -1   7   5   23.13    2.11
  -7  -1  -5   32.70    4.55
  -1   7  -5   22.92    2.29
   1  -7   5   24.01    4.90
  -1   7   6  319.16    5.87
  -1   7  -6  318.83    5.69
   7   1  -6  316.53    6.01
  -7  -1   6  322.09    6.62
  -1   7   6  330.00    4.12
  -7  -1  -6  310.57    5.54
   1  -7   6  321.98    6.38
  -1   7   7   13.92    3.69
  -1   7  -7   20.09    4.15
   7   1  -7   21.17    2.42
  -7  -1   7   13.10    3.42
  -1   7   7   13.33    1.86
  -7  -1  -7   21.85    1.69
   1  -7   7   18.74    4.75
  -1   7   8   86.87    3.55
  -1   7  -8   93.63    7.83
   7   1  -8   90.67    4.41
  -7  -1   8   88.94    3.79
  -1   7   8   90.40    2.59
  -7  -1  -8   91.44    4.41
   1  -7   8   85.23    8.49
  -1   7   9   31.78    2.46
  -1   7  -9   42.36    7.91
   7   1  -9   37.60    3.02
  -7  -1   9   31.75    7.94
  -1   7   9   34.19    1.96
  -7  -1  -9   38.79    3.45
   1  -7   9   34.73    4.03
  -7  -1   9   33.38    1.56
  -1   7  10   91.64    3.53
  -1   7 -10   90.14    7.47
   7   1 -10   87.57    5.96
  -7  -1  10   71.55    8.44
  -1   7  10   86.98    2.53
  -7  -1 -10   93.73    8.06
   1  -7  10   80.46    4.17
  -7  -1  10   79.95    2.65
  -1   7  11   26.28    6.03
  -1   7 -11   32.29    2.39
   7   1 -11   31.92    6.69
  -7  -1  11   21.36    6.84
  -7  -1 -11   33.54    2.77
   1  -7  11   30.41    3.52
  -7  -1  11   26.85    1.55
  -1   7  12   76.67    3.31
  -1   7 -12   66.54    6.37
   7   1 -12   75.45    3.55
  -7  -1  12   74.74    5.59
  -7  -1 -12   65.99   11.10
   1  -7  12   79.53    5.85
  -1   7  13    2.50    1.01
  -1   7 -13    4.10    1.10
   7   1 -13    2.81    1.38
  -7  -1  13    2.05    2.10
  -7  -1 -13    4.48    1.32
   1  -7  13    4.32    1.79
  -1   7  14   63.02   12.81
  -1   7 -14   74.75    6.65
   7   1 -14   88.03    4.05
  -7  -1  14   77.52   10.18
  -7  -1 -14   80.15    4.33
   1  -7  14   77.87    6.10
  -1   7  15    2.77    1.41
   7   1 -15    3.85    1.31
  -7  -1  15    3.57    1.77
   1  -7  15    4.26    1.63
   7   1 -16   27.31    5.69
  -7  -1  16   17.74    3.60
   7   1  16   23.79    4.99
   1  -7  16   23.80    3.85
   7   1 -17    8.23    1.22
  -7  -1  17   10.03    3.13
   7   1  17    8.62    2.51
   1  -7  17   10.07    2.38
  -2   7   0    3.49    2.12
   7   2   0    5.29    0.81
  -7  -2   0    5.32    1.36
  -2   7   0    5.46    1.30
   2  -7   0    5.58    1.37
  -2   7   1   32.65    2.24
  -2   7  -1   39.74    2.24
   7   2   1   33.93    2.11
   7   2  -1   40.14    2.13
  -7  -2   1   34.05    4.42
  -7  -2  -1   42.55    3.95
  -2   7   1   33.43    1.62
  -2   7  -1   41.97    2.09
   2  -7   1   34.34    2.83
   2  -7  -1   44.13    2.57
  -2   7   2  109.59    4.40
  -2   7  -2  111.50    4.41
   7   2   2  110.26    4.08
   7   2  -2  113.37    4.31
  -7  -2   2  112.45    4.50
  -7  -2  -2  114.51    4.71
  -2   7   2  111.39    3.80
  -2   7  -2  112.17    4.10
   2  -7   2  107.20    4.17
  -2   7   3   50.41    4.93
  -2   7  -3   56.64    3.31
   7   2   3   55.26    2.89
   7   2  -3   57.23    3.50
  -7  -2   3   53.79    3.59
  -7  -2  -3   54.81    3.21
  -2   7   3   54.99    3.16
   2  -7   3   58.21    7.20
  -2   7   4  398.73    9.95
  -2   7  -4  360.79   10.86
   7   2  -4  382.75    9.31
   7   2   4  401.18    8.64
  -7  -2   4  419.16   10.04
  -2   7   4  414.95    8.75
  -7  -2  -4  371.82    8.70
  -2   7  -4  371.08    9.45
   2  -7   4  402.84    9.69
  -2   7   5  628.74   14.44
  -2   7  -5  678.36   14.82
   7   2  -5  669.11   16.10
   7   2   5  653.96   13.28
  -7  -2   5  650.78   14.99
  -2   7   5  642.48   13.22
  -7  -2  -5  665.69   14.44
  -2   7  -5  669.25   14.78
   2  -7   5  651.58   14.93
  -2   7   6   42.35    5.32
  -7  -2  -6   42.15    0.88
  -2   7  -6   45.55    3.86
   7   2  -6   40.75    2.80
   7   2   6   40.06    0.97
  -7  -2   6   43.69    5.18
  -2   7   6   42.86    1.34
  -7  -2  -6   43.18    2.31
  -2   7  -6   41.77    4.01
   2  -7   6   36.94    8.36
  -2   7   7  315.25    8.50
  -2   7  -7  297.43    7.37
   7   2  -7  298.87    7.94
  -7  -2   7  312.32    8.25
  -2   7   7  306.86    7.04
  -7  -2  -7  294.54    7.21
  -2   7  -7  302.37    7.90
   2  -7   7  326.04    9.04
  -2   7   8  203.87    8.83
  -2   7  -8  216.30    5.83
   7   2  -8  211.05    6.27
  -7  -2   8  193.97    6.05
  -2   7   8  198.70    5.34
  -7  -2  -8  202.48    5.60
  -2   7  -8  206.22    6.40
   2  -7   8  208.23    6.38
  -7  -2   8  212.16    5.45
  -2   7   9   26.93    7.08
  -2   7  -9   20.31    4.76
   7   2  -9   24.23    2.30
  -7  -2   9   21.59    5.62
  -2   7   9   21.92    4.33
  -7  -2  -9   21.61    5.56
   2  -7   9   24.09    6.81
  -7  -2   9   22.30    2.10
  -2   7  10   10.93    2.12
  -2   7 -10   16.17    3.57
   7   2 -10   14.11    3.85
  -7  -2  10   10.94    2.48
  -2   7  10   11.39    2.93
  -7  -2 -10   14.77    3.83
   2  -7  10   10.96    3.46
  -7  -2  10   10.14    2.92
  -2   7  11   42.83    6.13
  -2   7 -11   33.66    3.10
   7   2 -11   32.42    7.54
  -7  -2  11   32.31    7.87
  -2   7  11   32.86    3.73
  -7  -2 -11   29.02    5.19
   2  -7  11   29.33    7.66
  -7  -2  11   38.14    2.14
  -2   7  12    3.33    1.06
  -2   7 -12    7.69    2.18
   7   2 -12   10.28    1.89
  -7  -2  12    2.26    1.02
  -7  -2 -12    7.04    1.27
   2  -7  12    3.77    1.33
  -7  -2  12    3.08    1.15
  -2   7  13    1.08    0.74
  -2   7 -13    0.66    0.60
   7   2 -13    3.50    1.80
  -7  -2  13    1.64    1.30
  -7  -2 -13   -0.25    0.93
   2  -7  13    2.83    0.81
  -2   7  14    9.22    2.53
   7   2 -14    8.40    1.72
  -7  -2  14   12.10    2.10
  -7  -2 -14    8.39    1.12
   2  -7  14   14.48    3.18
  -2   7  15    3.27    0.96
   7   2 -15    5.78    2.18
  -7  -2  15    4.01    2.06
   2  -7  15    4.54    2.38
  -2   7  16    8.32    3.31
   7   2 -16   11.44    2.02
  -7  -2  16   11.73    3.09
   2  -7  16   12.16    3.51
   7   2 -17    2.89    1.01
  -7  -2  17    3.47    1.94
   7   2  17    5.95    3.69
   2  -7  17    9.45    2.88
  -3   7   0   12.78    2.85
   7   3   0   11.19    3.22
  -7  -3   0   12.76    1.52
  -3   7   0   12.60    1.05
   3  -7   0   14.49    3.77
  -3   7   1   46.65    3.13
  -3   7  -1   57.93    3.50
   7   3   1   44.93    2.93
   7   3  -1   58.77    3.33
  -7  -3   1   46.60    6.41
  -7  -3  -1   55.36    3.78
  -3   7   1   47.21    3.31
  -3   7  -1   58.38    3.25
   3  -7   1   47.29    3.41
   3  -7  -1   57.46    3.39
  -3   7   2  116.78    4.05
  -3   7  -2  118.05    4.71
   7   3   2  119.57    3.43
   7   3  -2  121.58    4.57
  -7  -3   2  117.32    3.94
  -7  -3  -2  119.87    3.70
  -3   7   2  115.92    3.46
  -3   7  -2  123.66    3.69
   3  -7   2  113.60    3.66
   3  -7  -2  118.29    3.30
  -3   7   3  269.05    7.27
  -3   7  -3  256.27    6.74
   7   3   3  257.57    5.95
   7   3  -3  262.87    7.26
  -7  -3   3  260.25    6.81
  -7  -3  -3  262.13    6.45
  -3   7   3  255.61    6.66
   3  -7   3  254.83    6.68
  -3   7   4  182.33    5.42
  -3   7  -4  167.63    4.84
   7   3   4  171.20    4.56
   7   3  -4  172.66    5.26
  -7  -3   4  171.69    5.58
  -3   7   4  175.83    4.56
  -7  -3  -4  164.76    4.60
  -3   7  -4  169.93    4.96
   3  -7   4  180.12    5.24
  -3   7   5   13.03    3.29
  -3   7  -5   14.15    2.69
   7   3   5   12.63    2.65
   7   3  -5   14.09    1.79
  -7  -3   5   13.99    2.72
  -3   7   5   12.95    3.02
  -7  -3  -5   13.08    2.72
  -3   7  -5   12.58    3.55
   3  -7   5   14.40    3.16
  -3   7   6   41.78    4.12
  -3   7  -6   52.93    4.21
   7   3   6   38.98    1.47
   7   3  -6   49.71    2.85
  -7  -3   6   44.47    2.97
  -3   7   6   39.33    1.58
  -7  -3  -6   49.40    2.13
  -3   7  -6   49.26    4.77
   3  -7   6   40.64    2.67
  -3   7   7   73.60    3.24
  -3   7  -7   71.32    2.92
   7   3   7   67.92    1.93
   7   3  -7   75.25    7.78
  -7  -3   7   66.98   11.58
  -3   7   7   68.77    2.70
  -7  -3  -7   72.05    2.78
  -3   7  -7   74.12    3.20
   3  -7   7   71.32    4.03
  -3   7   8   61.41    3.09
  -3   7  -8   59.75    2.86
   7   3  -8   59.08    3.04
  -7  -3   8   69.75    9.46
  -3   7   8   67.66    3.32
  -7  -3  -8   61.94    6.51
  -3   7  -8   59.01    3.57
   3  -7   8   62.95    4.89
  -7  -3   8   65.61    3.27
  -3   7   9   64.16    5.11
  -3   7  -9   82.20    4.76
   7   3  -9   75.02    4.66
  -7  -3   9   71.17    7.11
  -3   7   9   65.91    2.29
  -7  -3  -9   76.73    5.32
  -3   7  -9   68.47    3.25
   3  -7   9   68.20    9.78
  -7  -3   9   68.34    3.00
  -3   7  10   65.08    3.44
  -3   7 -10   64.02    3.48
   7   3 -10   72.38    3.51
  -7  -3  10   72.71    3.61
  -3   7  10   70.95    2.30
  -7  -3 -10   65.27    2.60
  -3   7 -10   68.36    3.22
   3  -7  10   68.87    7.55
  -7  -3  10   73.50    2.86
  -3   7  11    1.25    1.35
  -3   7 -11    3.31    1.53
   7   3 -11    5.83    2.51
  -7  -3  11    0.53    1.09
  -3   7  11    2.09    0.66
  -7  -3 -11    3.09    0.84
   3  -7  11    2.24    1.25
  -7  -3  11    2.96    1.06
  -3   7  12   12.67    2.67
  -3   7 -12    9.31    2.21
   7   3 -12   10.10    2.00
  -7  -3  12   15.94    3.64
  -7  -3 -12    9.08    2.37
   3  -7  12   17.61    5.11
  -7  -3  12   12.04    3.31
  -3   7  13   24.73    7.03
   7   3 -13   25.34    4.73
  -7  -3  13   27.67    7.42
  -7  -3 -13   25.29    6.00
   3  -7  13   24.59    5.49
  -7  -3  13   22.92    5.28
  -3   7  14    2.46    1.60
   7   3 -14    3.09    1.57
  -7  -3  14    2.54    0.84
  -7  -3 -14    1.44    0.85
   3  -7  14    0.46    0.68
  -3   7  15   16.50    5.07
   7   3 -15   21.56    2.95
  -7  -3  15   20.38    5.05
   3  -7  15   21.06    3.56
  -3   7  16   22.83    4.45
   7   3 -16   21.55    2.89
  -7  -3  16   27.42    5.11
   3  -7  16   23.23    5.67
  -3   7  17    1.91    0.59
   7   3 -17    0.99    0.93
  -7  -3  17    5.77    2.72
   3  -7  17    1.70    1.12
  -4   7   0  143.26    6.01
  -7  -4   0  145.40    4.29
  -4   7   0  146.64    4.18
   4  -7   0  145.23    4.13
  -4   7   1  114.28    4.89
  -4   7  -1  113.49    3.79
   7   4   1  110.68    5.53
   7   4  -1  112.92    4.40
  -7  -4   1  109.91    5.65
  -7  -4  -1  113.64    3.67
  -4   7   1  116.39    3.41
  -4   7  -1  114.04    3.60
   4  -7   1  116.29    3.58
   4  -7  -1  109.38    6.15
  -4   7   2   91.60    7.64
  -4   7  -2   87.21    4.67
   7   4   2   92.38    4.70
   7   4  -2   87.61    4.83
  -7  -4   2   97.51    5.22
  -7  -4  -2   88.24    4.57
  -4   7   2   93.18    5.76
  -4   7  -2   91.34    5.45
   4  -7   2   97.82    7.60
   4  -7  -2   93.73    4.66
  -4   7   3   19.94    5.39
  -4   7  -3   23.73    2.88
   7   4   3   18.45    3.76
   7   4  -3   22.68    4.91
  -7  -4   3   19.44    5.17
  -7  -4  -3   24.51    5.23
  -4   7   3   22.50    2.95
  -4   7  -3   23.04    2.04
   4  -7   3   17.11    4.93
  -4   7   4  229.61    5.09
  -4   7  -4  239.54    4.97
   7   4   4  227.46    4.23
   7   4  -4  231.44    6.33
  -7  -4   4  228.69    4.94
  -4   7   4  224.00    5.94
  -7  -4  -4  231.95    4.27
  -4   7  -4  228.36    6.87
   4  -7   4  235.01    5.16
  -4   7   5   43.11    2.38
  -4   7  -5   48.97    2.49
   7   4   5   40.69    1.56
  -7  -4   5   47.23    4.86
  -4   7   5   43.70    1.73
  -7  -4  -5   49.94    3.06
  -4   7  -5   49.84    6.18
   4  -7   5   37.29    4.24
  -4   7   6   18.57    4.39
  -4   7  -6   20.06    4.60
   7   4   6   19.37    1.08
   7   4  -6   16.43    3.06
  -7  -4   6   19.52    5.25
  -4   7   6   19.92    1.77
  -7  -4  -6   20.05    1.44
  -4   7  -6   19.54    5.11
   4  -7   6   19.64    4.32
  -4   7   7    2.31    1.29
  -4   7  -7    3.62    0.86
   7   4   7    4.43    0.95
   7   4  -7    2.73    1.34
  -7  -4   7    2.59    1.82
  -4   7   7    2.20    0.86
  -7  -4  -7    4.88    1.05
  -4   7  -7    2.92    1.02
   4  -7   7    2.95    1.28
  -4   7   8   54.62    6.98
  -4   7  -8   71.30    4.58
   7   4  -8   64.28    3.83
  -7  -4   8   61.91    3.49
  -4   7   8   58.82    2.26
  -7  -4  -8   67.43    3.24
  -4   7  -8   65.86    3.63
   4  -7   8   55.49    3.36
  -7  -4   8   55.11    4.60
  -4   7   9   25.50    5.50
  -4   7  -9   23.41    4.42
   7   4  -9   25.40    4.51
  -7  -4   9   23.16    4.84
  -4   7   9   22.98    1.96
  -7  -4  -9   24.92    5.04
  -4   7  -9   24.93    6.68
   4  -7   9   25.48    5.36
  -7  -4   9   22.66    4.82
  -4   7  10   19.27    5.82
  -4   7 -10   29.14    1.86
   7   4 -10   30.09    6.00
  -7  -4  10   22.08    3.65
  -4   7  10   16.73    3.99
  -7  -4 -10   26.59    5.65
  -4   7 -10   26.58    7.54
   4  -7  10   20.01    4.19
  -7  -4  10   18.91    5.80
  -4   7  11   65.58    6.65
  -4   7 -11   65.03    3.00
   7   4 -11   57.43    3.29
  -7  -4  11   68.41    4.87
  -4   7  11   63.73    2.52
  -7  -4 -11   63.82    3.59
  -4   7 -11   62.15    3.61
   4  -7  11   61.89   12.43
  -7  -4  11   62.82    2.80
  -4   7  12   79.90    7.51
   7   4 -12   81.76   10.75
  -7  -4  12   79.35    4.96
  -4   7  12   78.62    3.16
  -7  -4 -12   76.07    9.81
   4  -7  12   85.70   10.23
  -4   7  13   12.94    3.08
   7   4 -13   11.90    1.80
  -7  -4  13   16.57    3.80
  -7  -4 -13   13.65    2.36
   4  -7  13   15.20    4.55
  -7  -4  13   10.71    3.26
  -4   7  14   39.89   10.78
   7   4 -14   38.17    6.96
  -7  -4  14   38.59    9.64
   4  -7  14   37.16    8.45
  -4   7  15    5.06    2.12
   7   4 -15   17.37    3.16
  -7  -4  15    8.13    2.31
   4  -7  15   11.25    2.65
  -4   7  16   35.26    8.83
   7   4 -16   42.05    8.40
  -7  -4  16   47.14   13.06
   4  -7  16   39.82    9.76
  -4   7  17    7.88    2.39
   7   4 -17   11.63    2.01
  -7  -4  17   11.92    4.98
   4  -7  17   18.36    4.27
  -5   7   0   37.13    4.26
   7   5   0   35.54    2.68
  -7  -5   0   31.26    5.50
  -5   7   0   37.93    2.46
   5  -7   0   37.41    2.65
  -5   7   1  167.49    5.02
  -5   7  -1  179.50    5.28
   7   5   1  167.35    4.87
   7   5  -1  171.15    5.14
  -7  -5   1  173.60    4.91
  -7  -5  -1  182.99    5.11
  -5   7   1  167.95    4.67
  -5   7  -1  171.17    5.05
   5  -7   1  175.77    5.17
   5  -7  -1  177.44    4.63
  -5   7   2   18.85    4.53
  -5   7  -2   22.90    1.79
   7   5   2   21.11    2.80
   7   5  -2   24.66    6.82
  -7  -5   2   21.79    4.44
  -7  -5  -2   24.74    1.47
  -5   7   2   20.59    1.82
  -5   7  -2   21.68    2.14
   5  -7   2   19.65    4.68
   5  -7  -2   27.24    3.99
  -5   7   3  148.70    4.09
  -5   7  -3  146.14    3.67
   7   5   3  149.93    3.34
  -7  -5   3  149.80    3.95
  -7  -5  -3  140.12    5.59
  -5   7   3  155.64    3.90
  -5   7  -3  142.35    3.88
   5  -7   3  148.29    3.79
  -5   7   4   13.05    2.86
  -5   7  -4   14.81    3.35
   7   5   4   10.40    1.06
   7   5  -4   13.24    3.12
  -7  -5   4   10.15    2.91
  -5   7   4   11.72    2.73
  -7  -5  -4   12.43    2.44
  -5   7  -4   11.19    2.68
   5  -7   4   12.57    2.04
  -5   7   5   80.46    3.46
  -5   7  -5   90.97    3.40
   7   5   5   82.20    3.08
   7   5  -5   85.08    3.42
  -7  -5   5   71.87    4.86
  -5   7   5   81.40    2.92
  -7  -5  -5   84.69    4.44
  -5   7  -5   81.11    3.31
   5  -7   5   75.01    5.50
  -5   7   6   58.25    3.76
  -5   7  -6   54.46    5.32
   7   5   6   58.22    3.41
   7   5  -6   54.36    2.75
  -7  -5   6   56.72    3.60
  -5   7   6   58.19    2.46
  -7  -5  -6   53.71    3.46
  -5   7  -6   52.77    2.52
   5  -7   6   61.63    3.14
  -5   7   7   78.91    8.27
  -5   7  -7   75.17    5.73
   7   5   7   78.03    3.23
   7   5  -7   68.33    3.82
  -7  -5   7   80.83    6.17
  -5   7   7   73.05    5.22
  -7  -5  -7   73.62    3.34
  -5   7  -7   73.47    3.93
   5  -7   7   74.45    6.44
  -5   7   8   59.51    6.78
  -5   7  -8   56.18    2.92
   7   5   8   53.60    1.73
   7   5  -8   56.19    3.65
  -7  -5   8   56.52    7.07
  -5   7   8   56.81    2.59
  -7  -5  -8   54.96    5.25
  -5   7  -8   55.39    3.25
   5  -7   8   61.63    4.50
  -7  -5   8   53.32    2.52
  -5   7   9   43.43    7.88
  -5   7  -9   48.73    3.26
   7   5  -9   61.00    6.82
  -7  -5   9   48.31    3.72
  -5   7   9   46.68    2.89
  -7  -5  -9   49.00    7.55
  -5   7  -9   54.25    3.24
   5  -7   9   45.30    9.26
  -7  -5   9   43.84    5.26
  -5   7  10   51.46    8.70
  -5   7 -10   44.80    2.33
   7   5 -10   45.44    3.04
  -7  -5  10   51.37    3.59
  -5   7  10   48.99    2.25
  -7  -5 -10   44.88    2.80
  -5   7 -10   44.35    3.66
   5  -7  10   53.53    3.69
  -7  -5  10   50.74    5.98
  -5   7  11   20.47    6.16
   7   5 -11   20.28    5.44
  -7  -5  11   23.81    6.63
  -5   7  11   21.73    4.64
  -7  -5 -11   19.40    4.49
  -5   7 -11   25.58    5.32
   5  -7  11   24.65    6.68
  -7  -5  11   17.20    4.37
  -5   7  12    5.73    1.24
   7   5 -12   11.08    2.43
  -7  -5  12   11.29    2.59
  -5   7  12    4.53    1.11
  -5   7 -12    9.01    2.39
   5  -7  12    4.28    2.28
  -7  -5  12    5.27    1.61
  -5   7  13   61.12    8.21
   7   5 -13   61.54    4.62
  -7  -5  13   73.30    8.39
   5  -7  13   64.47   12.86
  -7  -5  13   56.74    5.44
  -5   7  14    1.67    1.27
   7   5 -14    1.26    1.16
  -7  -5  14    2.32    1.54
   5  -7  14    1.80    1.22
  -5   7  15   24.14    7.61
   7   5 -15   22.14    3.86
  -7  -5  15   23.80    4.38
   5  -7  15   19.44    5.15
  -5   7  16    0.34    1.27
   7   5 -16    0.89    0.65
  -7  -5  16    2.28    1.07
   5  -7  16    0.96    1.68
  -6   7   0  187.89    6.67
   7   6   0  185.58    4.22
  -7  -6   0  186.93    3.95
  -6   7   0  184.08    4.09
   6  -7   0  177.41    3.64
  -6   7   1   86.83    4.66
  -6   7  -1   79.88    2.94
   7   6   1   78.02    2.71
   7   6  -1   86.67    3.58
  -7  -6   1   77.88    4.98
  -7  -6  -1   82.41    4.37
  -6   7   1   84.48    2.78
  -6   7  -1   80.32    2.87
   6  -7   1   75.50    3.98
   6  -7  -1   81.36    2.20
  -6   7   2  103.71    3.53
  -6   7  -2   90.36    6.25
   7   6   2  105.52    3.02
   7   6  -2   93.82    3.26
  -7  -6   2  104.75    5.71
  -7  -6  -2  104.14    6.47
  -6   7   2   98.59    2.98
  -6   7  -2   99.25    3.22
   6  -7   2   94.66    7.77
   6  -7  -2   99.23    2.52
  -6   7   3   22.05    6.67
  -6   7  -3   18.66    4.91
   7   6   3   20.41    4.64
   7   6  -3   22.38    4.56
  -7  -6   3   20.81    4.66
  -7  -6  -3   22.81    1.54
  -6   7   3   20.47    4.94
  -6   7  -3   24.81    3.35
   6  -7   3   20.37    5.65
   6  -7  -3   20.58    2.04
  -6   7   4    1.32    0.85
  -6   7  -4    0.99    0.73
   7   6   4    1.03    0.51
   7   6  -4   -0.99    1.10
  -7  -6   4    1.65    0.86
  -6   7   4    1.32    0.61
  -7  -6  -4    0.65    0.81
  -6   7  -4    1.04    0.88
   6  -7   4   -0.49    1.15
  -6   7   5   23.06    5.31
  -6   7  -5   31.36    4.67
   7   6   5   21.73    2.66
   7   6  -5   22.59    2.20
  -7  -6   5   23.00    5.75
  -6   7   5   22.19    4.90
  -7  -6  -5   21.60    4.67
  -6   7  -5   21.38    5.72
   6  -7   5   19.93    4.67
  -6   7   6  165.67    8.37
  -6   7  -6  165.44    8.41
   7   6   6  161.90    6.06
   7   6  -6  164.78    6.85
  -7  -6   6  162.78    6.84
  -6   7   6  154.32    6.14
  -7  -6  -6  167.55    6.54
  -6   7  -6  171.88    8.82
   6  -7   6  159.36    6.73
  -6   7   7   73.88    6.21
  -6   7  -7   61.02    2.96
   7   6   7   73.37    3.33
   7   6  -7   70.62    3.98
  -7  -6   7   75.20    8.62
  -6   7   7   73.01    3.18
  -7  -6  -7   64.76    3.02
  -6   7  -7   59.56    3.92
   6  -7   7   70.26    7.33
  -6   7   8   28.96    6.44
  -6   7  -8   29.63    2.25
   7   6   8   22.17    4.65
   7   6  -8   25.54    6.35
  -7  -6   8   27.72    4.44
  -6   7   8   30.66    6.77
  -7  -6  -8   25.87    2.42
  -6   7  -8   28.68    7.28
   6  -7   8   30.03    6.52
  -7  -6   8   30.23    7.03
  -6   7   9   30.59    8.17
  -6   7  -9   29.59    5.30
   7   6  -9   32.33    7.89
  -7  -6   9   30.55    4.71
  -6   7   9   34.68    2.07
  -7  -6  -9   30.71    5.60
  -6   7  -9   35.26    8.48
   6  -7   9   31.86    7.28
  -7  -6   9   27.49    4.04
  -6   7  10   67.59    4.09
   7   6 -10   72.02   10.83
  -7  -6  10   63.78   11.61
  -6   7  10   66.81    5.87
  -6   7 -10   66.12    7.17
   6  -7  10   65.29    4.46
  -7  -6  10   76.17    3.24
  -6   7  11   36.42    9.25
   7   6 -11   41.41    2.88
  -7  -6  11   38.75    9.69
  -6   7  11   41.34    3.16
  -6   7 -11   37.13   11.15
   6  -7  11   37.27    6.75
  -7  -6  11   34.49    3.96
  -6   7  12   12.44    2.75
   7   6 -12   12.10    2.15
  -7  -6  12   13.42    2.00
  -6   7  12   10.03    2.33
  -6   7 -12   13.57    2.65
   6  -7  12   14.38    2.15
  -7  -6  12   13.22    4.29
  -6   7  13    4.60    1.39
   7   6 -13    4.61    1.46
  -7  -6  13    4.21    2.18
  -6   7 -13   14.26    2.42
  -7  -6  13    8.16    2.72
  -6   7  14   -0.48    1.23
   7   6 -14    2.80    0.81
  -7  -6  14    3.96    2.36
  -6   7 -14    6.86    1.57
   6  -7  14    3.54    1.83
  -7  -6  14    1.84    0.70
  -6   7  15    3.64    1.12
   7   6 -15    8.83    1.76
  -7  -6  15    2.56    2.23
   6  -7  15    3.35    0.94
  -7  -6  15    1.84    1.35
  -6   7  16    6.39    1.57
   7   6 -16    8.21    2.91
  -7  -6  16    6.39    1.60
   6  -7  16    4.58    2.93
  -7   7   0  360.66    9.74
   7   7   0  376.08    9.88
  -7  -7   0  372.59    9.20
  -7   7   0  376.57    9.93
   7  -7   0  371.48    9.40
  -7   7   1   74.91    3.44
  -7   7  -1   83.36    5.67
   7   7   1   85.79    3.45
   7   7  -1   84.15    4.68
  -7  -7   1   86.74    7.49
  -7  -7  -1   84.48    7.61
  -7   7   1   78.47    4.79
  -7   7  -1   94.14    3.71
   7  -7   1   91.23    9.08
   7  -7  -1   80.97    3.60
  -7   7   2  135.48    4.71
  -7   7  -2  141.96    4.41
   7   7   2  132.10    4.24
   7   7  -2  136.08    4.62
  -7  -7   2  149.99   12.09
  -7  -7  -2  135.88    4.08
  -7   7   2  125.97    7.26
  -7   7  -2  124.92    6.09
   7  -7   2  134.79    4.18
   7  -7  -2  134.64    3.62
  -7   7   3  139.81    4.78
  -7   7  -3  141.98    4.45
   7   7   3  145.96    4.51
   7   7  -3  153.93    5.07
  -7  -7   3  147.95    4.79
  -7  -7  -3  146.64    4.01
  -7   7   3  148.13    4.68
  -7   7  -3  145.16    4.77
   7  -7   3  141.66    8.52
   7  -7  -3  147.26    3.66
  -7   7   4   51.21    2.99
  -7   7  -4   55.85    3.08
   7   7   4   49.02    4.59
   7   7  -4   48.51    5.82
  -7  -7   4   53.23    3.45
  -7   7   4   52.10    5.89
  -7  -7  -4   46.51    3.01
  -7   7  -4   55.49    6.49
   7  -7   4   49.16    5.26
  -7   7   5   10.38    2.95
  -7   7  -5   11.68    2.39
   7   7   5   10.12    2.33
   7   7  -5   14.58    2.55
  -7  -7   5   10.98    2.42
  -7   7   5   10.69    2.29
  -7  -7  -5   10.28    2.41
  -7   7  -5   10.16    2.50
   7  -7   5   10.67    1.82
  -7   7   6   -0.45    1.48
  -7   7  -6    0.85    0.86
   7   7   6    0.56    0.90
   7   7  -6    0.95    0.78
  -7  -7   6    1.59    0.91
  -7   7   6    1.35    0.94
  -7  -7  -6    0.42    0.32
  -7   7  -6    0.14    0.78
   7  -7   6    1.95    1.21
  -7   7   7    1.90    1.52
  -7   7  -7    0.75    0.57
   7   7   7    1.44    0.85
   7   7  -7    0.32    1.43
  -7  -7   7    1.16    0.71
  -7   7   7    0.11    0.64
  -7  -7  -7    0.43    0.25
  -7   7  -7   -0.16    1.28
   7  -7   7    0.08    0.78
  -7   7   8   58.06   10.38
  -7   7  -8   57.89    3.49
   7   7   8   51.73    2.06
   7   7  -8   56.46    3.15
  -7  -7   8   57.46    3.39
  -7   7   8   52.53    3.79
  -7   7  -8   53.65    5.34
   7  -7   8   53.46    4.04
  -7  -7   8   53.57    6.36
  -7   7   9   61.37    4.49
  -7   7  -9   67.16    3.45
   7   7  -9   72.86    3.93
  -7  -7   9   65.95    5.57
  -7   7   9   66.63    4.83
  -7   7  -9   69.30    5.35
   7  -7   9   70.63    6.87
  -7  -7   9   65.66    3.09
  -7   7  10    0.72    0.60
   7   7 -10    1.58    0.88
  -7  -7  10    0.88    1.08
  -7   7 -10    0.24    0.97
   7  -7  10   -1.07    1.36
  -7  -7  10    1.26    1.01
  -7   7  11   -1.89    1.51
   7   7 -11    0.88    1.38
  -7  -7  11    0.93    0.69
  -7   7  11    0.80    0.54
  -7   7 -11    0.66    1.06
   7  -7  11    2.62    0.99
  -7  -7  11    2.69    1.37
  -7   7  12   34.61    9.20
   7   7 -12   36.04    3.77
  -7  -7  12   37.72    6.22
  -7   7  12   30.61    5.89
  -7   7 -12   40.12   10.04
   7  -7  12   34.81    8.19
  -7  -7  12   35.13    7.30
  -7   7  13   27.47    3.67
   7   7 -13   31.00    6.43
  -7  -7  13   31.32    6.40
  -7   7  13   30.65    7.91
  -7   7 -13   32.42    3.35
   7  -7  13   31.39    6.53
  -7  -7  13   21.87    7.60
  -7   7  14    7.24    3.08
   7   7 -14    7.04    2.27
  -7  -7  14    7.53    2.22
  -7   7 -14   11.27    2.25
   7  -7  14   10.61    3.06
  -7  -7  14    7.52    1.63
  -7   7  15    9.14    2.89
   7   7 -15    7.91    2.14
  -7  -7  15    6.92    2.14
  -7   7 -15    7.96    2.03
   7  -7  15    9.57    2.49
  -7  -7  15    8.51    2.33
  -8   7   0  279.87   10.89
   7   8   0  279.35   11.03
  -7  -8   0  280.10   11.28
  -8   7   0  268.14   10.22
   8  -7   0  284.45   10.26
  -8   7   1  110.90    5.09
  -8   7  -1  124.02    8.39
   7   8   1  115.82    6.28
   7   8  -1  134.50    6.02
  -7  -8   1  122.61    6.98
  -7  -8  -1  128.72    7.96
  -8   7   1  111.70    8.44
  -8   7  -1  133.50    5.88
   8  -7   1  117.96    6.50
   8  -7  -1  127.84    5.84
  -8   7   2    2.55    0.95
  -8   7  -2    1.61    0.49
   7   8   2    0.97    1.32
   7   8  -2    1.07    1.32
  -7  -8   2    0.62    0.69
  -7  -8  -2    1.40    0.70
  -8   7   2    1.62    0.81
  -8   7  -2    2.36    1.59
   8  -7   2    1.87    1.05
   8  -7  -2    2.23    0.90
  -8   7   3   37.94    7.75
  -8   7  -3   41.29    8.03
   7   8   3   35.28    6.16
   7   8  -3   49.84    8.65
  -7  -8   3   42.86    2.78
  -7  -8  -3   42.84    2.68
  -8   7   3   40.45    2.47
  -8   7  -3   44.62    3.06
   8  -7   3   40.05    6.55
   8  -7  -3   45.47    1.71
  -8   7   4   68.49    6.62
  -8   7  -4   68.30    4.59
   7   8   4   71.39    3.97
   7   8  -4   68.69    3.85
  -7  -8   4   74.06    3.23
  -8   7   4   74.60    4.86
  -7  -8  -4   68.99    3.37
  -8   7  -4   68.89    4.65
   8  -7   4   74.25   10.25
  -8   7   5   47.10    3.08
  -8   7  -5   58.27    4.44
   7   8   5   49.28    3.85
   7   8  -5   58.91    6.99
  -7  -8   5   52.12    4.24
  -8   7   5   52.58    2.68
  -7  -8  -5   61.83    2.16
  -8   7  -5   63.90    3.25
   8  -7   5   56.01    4.75
  -8   7   6   18.76    5.34
  -8   7  -6   18.00    2.24
   7   8   6   18.84    4.62
   7   8  -6   19.51    3.91
  -7  -8   6   19.39    3.73
  -8   7   6   19.20    1.77
  -8   7  -6   18.56    2.60
   8  -7   6   16.72    4.07
  -8   7   7   80.12    7.86
  -8   7  -7   71.22    3.21
   7   8   7   70.92    5.06
   7   8  -7   69.19    4.84
  -7  -8   7   75.86    4.55
  -8   7   7   68.50    2.88
  -8   7  -7   72.76    7.39
   8  -7   7   76.36    8.56
  -8   7   8   25.35    4.55
  -8   7  -8   27.51    2.53
   7   8   8   16.91    4.27
   7   8  -8   23.95    4.90
  -7  -8   8   21.59    3.91
  -8   7   8   19.46    3.84
  -8   7  -8   28.32    6.94
   8  -7   8   24.59    4.29
   7   8  -9   18.41    2.16
  -7  -8   9   21.64    4.03
  -8   7   9   20.06    2.29
  -8   7  -9   17.66    6.42
   8  -7   9   20.08    4.21
  -7  -8   9   18.19    4.85
   7   8 -10    0.51    1.23
   8  -7 -10   -0.11    1.17
  -7  -8  10    2.91    2.24
  -8   7  10    2.38    1.67
  -8   7 -10   -0.07    1.73
   8  -7  10    0.78    0.96
  -7  -8  10    2.98    1.44
   7   8 -11  105.75    8.77
   8  -7 -11   97.69    7.83
  -7  -8  11  103.51   11.03
  -8   7  11  105.30    3.89
  -8   7 -11   95.90    4.75
   8  -7  11  109.78   11.56
  -7  -8  11   92.57    7.94
   7   8 -12   53.74    3.40
   8  -7 -12   47.41    4.30
  -7  -8  12   54.34    5.54
  -8   7  12   56.26    2.90
  -8   7 -12   46.19   12.48
   8  -7  12   50.40   11.29
  -7  -8  12   56.33    3.27
   7   8 -13    9.15    1.95
  -7  -8  13    4.80    1.23
  -8   7  13    5.63    1.93
  -8   7 -13    7.51    1.90
   8  -7  13    2.37    1.04
  -7  -8  13    3.33    1.43
  -8   7  14    2.30    1.88
   7   8 -14    2.57    1.30
  -7  -8  14    1.01    1.20
  -8   7 -14    0.46    1.08
   8  -7  14    2.02    1.19
  -7  -8  14    1.16    0.77
  -8   7  15    3.49    1.23
   7   8 -15    5.15    1.56
  -7  -8  15    0.86    1.07
  -8   7 -15    1.86    1.12
   8  -7  15    2.72    1.13
  -7  -8  15   -0.15    0.97
  -8   6   0   92.40    6.98
   6   8   0   87.04    5.37
  -6  -8   0   94.65    5.34
  -8   6   0   88.32    6.51
   8  -6   0   86.96    5.02
  -8   6   1   70.44    4.11
  -8   6  -1   64.40    7.07
   6   8   1   66.28    3.09
   6   8  -1   62.16    4.19
  -6  -8   1   68.65    2.89
  -6  -8  -1   64.51    6.16
  -8   6   1   67.46    5.25
  -8   6  -1   55.77    4.70
   8  -6   1   72.40    3.22
   8  -6  -1   65.13    2.30
  -8   6   2   35.28    7.18
  -8   6  -2   45.27    4.81
   6   8   2   37.98    5.06
   6   8  -2   40.99    3.64
  -6  -8   2   35.05    2.39
  -6  -8  -2   41.52    1.50
  -8   6   2   32.60    4.27
  -8   6  -2   41.46    2.48
   8  -6   2   37.89    2.42
   8  -6  -2   40.84    1.45
  -8   6   3   98.50    4.72
  -8   6  -3  102.84    5.85
   6   8   3   99.61    4.53
   6   8  -3  100.03    4.73
  -6  -8   3   98.46    6.75
  -6  -8  -3   92.80    3.97
  -8   6   3   98.52    4.83
  -8   6  -3   89.89    8.25
   8  -6   3  106.61    6.70
   8  -6  -3   96.36    3.50
  -8   6  -4  122.80    7.51
   6   8   4  131.77    6.40
   6   8  -4  121.26    5.45
  -6  -8   4  127.49    9.15
  -8   6   4  132.21    5.83
  -6  -8  -4  115.84    4.78
  -8   6  -4  116.87    7.56
   8  -6   4  141.02    5.97
  -8   6  -5   33.19    3.48
   6   8   5   27.34    2.26
   6   8  -5   32.31    8.02
   8  -6  -5   30.74    4.12
  -6  -8   5   28.37    5.80
  -8   6   5   27.92    2.20
  -6  -8  -5   30.73    1.68
  -8   6  -5   32.77    5.13
   8  -6   5   29.00    6.15
  -8   6  -6    3.13    1.33
   6   8   6    1.15    1.03
   6   8  -6    3.62    1.61
   8  -6  -6    1.33    0.87
  -6  -8   6    0.94    0.63
  -8   6   6    0.78    1.41
  -8   6  -6    5.98    2.07
   8  -6   6    2.07    1.10
  -8   6  -7   22.09    3.98
   6   8   7   31.11    1.87
   6   8  -7   30.54    7.63
   8  -6  -7   28.42    6.43
  -6  -8   7   32.66    7.57
  -8   6   7   28.35    7.74
  -8   6  -7   24.29    3.21
   8  -6   7   28.80    6.13
  -6  -8   7   31.04    4.53
   6   8   8   81.44    3.25
   6   8  -8   90.68    5.55
   8  -6  -8   89.46    5.21
  -6  -8   8   86.74    4.56
  -8   6   8   82.04    3.28
  -8   6  -8   81.99    5.12
   8  -6   8   87.33    6.06
  -6  -8   8   79.86    5.40
   6   8   9   20.34    4.86
   6   8  -9   21.68    3.71
   8  -6  -9   27.63    5.20
  -6  -8   9   21.19    4.67
  -8   6   9   25.39    7.17
  -8   6  -9   22.82    4.61
   8  -6   9   25.05    5.37
  -6  -8   9   28.80    3.57
   6   8 -10    2.21    1.33
   8  -6 -10   -0.83    1.13
  -6  -8  10    0.73    1.43
  -8   6  10    0.68    0.69
  -8   6 -10   -1.13    1.35
   8  -6  10    2.00    0.92
  -6  -8  10    0.93    0.76
   6   8 -11   28.26    3.08
   8  -6 -11   27.78    4.65
  -6  -8  11   29.27    6.63
  -8   6  11   27.84    6.14
  -8   6 -11   25.48    5.33
   8  -6  11   30.25    5.08
  -6  -8  11   30.66    4.19
   6   8 -12   67.88    8.29
   8  -6 -12   54.67   11.07
  -6  -8  12   61.03   12.15
  -8   6  12   64.96   10.75
  -8   6 -12   60.62    3.55
   8  -6  12   58.71   11.24
  -6  -8  12   62.64    3.41
   6   8 -13   14.78    3.46
   8  -6 -13   17.12    3.50
  -6  -8  13   16.03    4.44
  -8   6  13   14.95    3.80
  -8   6 -13   14.87    2.36
   8  -6  13   14.66    3.94
  -6  -8  13   14.38    4.03
   6   8 -14    8.00    2.34
   8  -6 -14    9.84    1.84
  -6  -8  14   10.26    2.37
  -8   6  14    2.98    1.45
  -8   6 -14    6.45    1.87
   8  -6  14    6.18    2.06
  -6  -8  14    5.99    1.28
   6   8 -15    0.87    1.12
   8  -6 -15    2.44    1.15
  -6  -8  15    1.53    1.17
  -8   6  15    1.61    0.83
  -8   6 -15    0.89    0.87
   8  -6  15    2.27    1.17
  -6  -8  15    0.40    0.94
  -8   5   0  120.07    6.18
   5   8   0  123.11    3.66
  -5  -8   0  132.31    5.98
  -8   5   0  127.10    3.77
   8  -5   0  125.56    2.86
  -8   5   1   59.73    5.88
  -8   5  -1   53.70    9.10
   5   8   1   58.88    3.89
   5   8  -1   58.69    2.58
  -5  -8   1   60.39    2.98
  -5  -8  -1   58.79    2.15
  -8   5   1   55.43    4.58
  -8   5  -1   55.09    3.74
   8  -5   1   54.52    3.87
   8  -5  -1   59.76    2.42
  -8   5  -2   61.95    3.80
   5   8   2   56.75    4.41
   5   8  -2   61.77    4.91
   8  -5  -2   67.06    2.99
  -5  -8   2   52.91    2.53
  -5  -8  -2   61.82    2.54
  -8   5   2   57.39    2.93
  -8   5  -2   60.82    2.88
   8  -5   2   54.93    2.91
   8  -5  -2   62.12    2.17
  -8   5  -3   21.14    4.37
   5   8   3   26.46    4.92
   5   8  -3   22.57    6.06
   8  -5  -3   23.01    4.96
  -5  -8   3   22.76    4.08
  -8   5   3   21.12    4.84
  -5  -8  -3   22.16    1.27
  -8   5  -3   21.16    5.46
   8  -5   3   21.61    1.95
   8  -5  -3   19.42    2.25
  -8   5  -4    0.91    0.44
   5   8   4   -0.23    0.97
   5   8  -4    2.15    0.81
   8  -5  -4    2.84    1.16
  -5  -8   4    0.41    1.14
  -8   5   4    1.87    1.29
  -5  -8  -4    1.91    0.47
  -8   5  -4    1.72    0.72
   8  -5   4   -0.52    0.92
  -8   5  -5  130.10    6.31
   5   8   5  140.66    5.77
   5   8  -5  141.65    7.94
   8  -5  -5  138.34    5.96
  -5  -8   5  129.60    9.21
  -8   5   5  134.80    6.01
  -8   5  -5  129.64    5.67
   8  -5   5  146.36    9.16
  -5  -8   5  128.12    7.85
  -8   5  -6    2.46    1.20
   5   8   6    3.67    0.90
   5   8  -6    2.44    1.06
   8  -5  -6    4.38    1.53
  -5  -8   6    6.19    1.46
  -8   5   6    6.86    1.49
  -8   5  -6    2.35    0.92
   8  -5   6    5.13    1.46
  -5  -8   6    5.15    1.77
  -8   5  -7  145.83    8.03
   5   8   7  149.47    4.15
   5   8  -7  142.11    9.95
   8  -5  -7  146.12    7.05
  -5  -8   7  156.31    5.24
  -8   5   7  154.09    5.20
  -8   5  -7  140.03    8.59
   8  -5   7  159.28    9.10
  -5  -8   7  162.06    6.14
   5   8   8   14.54    3.50
   5   8  -8   15.76    4.01
   8  -5  -8   10.71    1.59
  -8   5   8   13.84    4.00
  -8   5  -8   15.61    3.79
   8  -5   8   15.74    3.75
  -5  -8   8   13.09    3.81
   5   8   9   85.70    2.82
   5   8  -9   87.16    7.42
   8  -5  -9   90.05    7.70
  -8   5   9   84.47    6.20
  -8   5  -9   87.41    4.90
   8  -5   9   89.77    8.65
  -5  -8   9   88.95    3.97
   5   8  10   18.01    5.22
   5   8 -10   21.48    5.15
   8  -5 -10   18.87    2.53
  -8   5  10   22.92    5.16
  -8   5 -10   15.60    1.79
   8  -5  10   22.75    3.88
  -5  -8  10   22.29    4.24
   5   8 -11   91.70    4.29
   8  -5 -11   74.10    3.92
  -8   5  11   73.26    5.37
  -8   5 -11   81.02    6.32
   8  -5  11   75.21    7.69
  -5  -8  11   63.79    6.91
   5   8 -12   10.61    2.64
   8  -5 -12   12.42    2.69
  -8   5  12    9.63    2.74
  -8   5 -12    8.57    1.44
   8  -5  12    9.50    2.25
  -5  -8  12    9.97    2.22
   5   8 -13    0.75    0.76
   8  -5 -13    0.53    1.34
  -8   5  13    4.76    1.33
  -8   5 -13    1.06    1.04
   8  -5  13    2.54    1.10
  -5  -8  13    2.86    1.54
   5   8 -14   -0.14    0.72
   8  -5 -14   -0.27    1.08
  -8   5  14    0.99    0.87
  -8   5 -14   -0.07    0.73
   8  -5  14    0.89    1.28
  -5  -8  14    0.40    1.53
   5   8 -15    2.16    1.76
   8  -5 -15    2.00    1.21
  -8   5  15    2.60    1.42
  -8   5 -15    2.91    1.38
   8  -5  15    3.92    1.84
  -5  -8  15    2.28    1.40
   5   8 -16    6.79    2.61
   8  -5 -16    4.50    1.44
  -5  -8  16    7.27    1.50
  -8   5 -16    6.18    1.03
   8  -5  16    5.72    2.91
  -5  -8  16    7.84    1.91
   4   8   0   -1.43    1.12
   8  -4   0    1.29    0.89
  -4  -8   0   -0.48    0.61
  -8   4   0   -0.11    0.84
   8  -4   0    0.78    0.89
  -8   4  -1  133.16    3.36
   4   8   1  116.97    6.85
   4   8  -1  125.52    3.72
   8  -4  -1  135.92    4.93
  -4  -8   1  117.99    4.79
  -4  -8  -1  129.40    2.84
  -8   4   1  122.06    3.73
   8  -4   1  118.79    2.99
   8  -4  -1  129.22    2.68
  -8   4  -2  187.95    4.05
   4   8   2  195.84    4.57
   4   8  -2  182.98    6.67
   8  -4  -2  185.71    4.52
  -4  -8   2  190.02    6.80
  -4  -8  -2  185.85    5.06
  -8   4   2  196.99    4.75
  -8   4  -2  189.44    4.62
   8  -4   2  185.69    3.96
   8  -4  -2  195.59    3.60
  -8   4  -3   13.42    2.90
   4   8   3   15.47    3.93
   4   8  -3   12.43    3.02
   8  -4  -3   10.30    2.41
  -4  -8   3   12.23    2.79
  -8   4   3    9.83    1.54
  -4  -8  -3   10.39    1.27
  -8   4  -3   12.72    2.11
   8  -4   3   12.29    3.27
   8  -4  -3   10.19    1.63
  -8   4  -4   52.43    5.84
   4   8   4   52.09    2.27
   4   8  -4   54.02    2.82
   8  -4  -4   55.63    2.60
  -8   4   4   52.01    5.77
  -8   4  -4   56.48    2.88
  -4  -8  -4   56.18    1.15
   8  -4   4   56.83    5.49
  -4  -8   4   48.76    6.08
  -8   4  -5    7.36    0.89
   4   8   5    7.37    2.67
   4   8  -5    6.49    1.44
   8  -4  -5    5.85    1.32
  -8   4   5    9.21    2.25
  -8   4  -5    5.88    1.32
   8  -4   5    9.44    1.79
  -4  -8   5    7.89    1.68
  -8   4  -6   31.56    5.03
   4   8   6   34.89    3.98
   4   8  -6   40.46    7.57
   8  -4  -6   38.26    2.50
  -8   4   6   43.74    2.70
  -8   4  -6   38.78    4.17
   8  -4   6   46.29    5.81
  -4  -8   6   36.88    2.51
  -8   4  -7   13.05    2.69
   4   8   7   15.45    3.68
   4   8  -7   15.68    3.69
   8  -4  -7   18.49    3.85
  -8   4   7   15.89    4.78
  -8   4  -7   17.59    3.27
   8  -4   7   15.18    3.64
  -4  -8   7   21.00    4.05
   4   8   8   12.23    2.94
   4   8  -8   14.11    2.15
   8  -4  -8   14.71    3.24
  -8   4   8   10.13    2.98
  -8   4  -8   12.83    2.48
   8  -4   8   10.01    1.53
  -4  -8   8    9.81    2.60
   4   8   9    2.62    0.97
   4   8  -9    6.72    1.30
   8  -4  -9    2.04    1.30
  -8   4   9    2.49    0.72
  -8   4  -9    6.68    1.28
   8  -4   9    2.63    1.45
  -4  -8   9    5.61    1.93
   4   8  10   54.20    2.23
   4   8 -10   50.78    3.19
   8  -4 -10   57.72    9.11
  -8   4  10   50.24    5.11
  -8   4 -10   55.68    4.17
   8  -4  10   49.07   11.28
  -4  -8  10   60.76   10.48
   4   8  11   16.18    2.01
   4   8 -11   13.95    1.78
   8  -4 -11   12.68    1.93
  -8   4  11   13.70    2.86
  -8   4 -11   10.91    2.67
   8  -4  11   12.41    2.39
  -4  -8  11   13.50    2.69
   4   8 -12    1.25    1.28
   8  -4 -12    0.47    1.34
  -8   4  12    0.92    0.82
  -8   4 -12    2.05    1.47
   8  -4  12    2.03    0.59
  -4  -8  12    1.21    1.19
   4   8 -13   25.63    3.85
   8  -4 -13   19.18    3.77
  -8   4  13   23.15    6.19
  -8   4 -13   18.30    3.76
   8  -4  13   25.72    5.95
  -4  -8  13   22.79    4.56
   4   8 -14   63.32    3.63
   8  -4 -14   49.11   10.30
  -8   4  14   53.59   10.30
  -8   4 -14   64.53    5.82
   8  -4  14   57.27    9.90
  -4  -8  14   72.33   11.04
   4   8 -15   13.01    1.96
   8  -4 -15   14.07    2.36
  -8   4  15   11.18    1.38
  -8   4 -15   11.58    2.15
   8  -4  15   13.67    2.60
  -4  -8  15   10.32    2.60
   4   8 -16    2.70    1.34
   8  -4 -16    2.10    0.77
  -8   4  16    2.57    1.03
  -8   4 -16    1.13    0.77
   8  -4  16    2.54    1.55
  -4  -8  16    1.49    1.11
   3   8   0   30.00    2.63
   8  -3   0   34.58    2.95
  -3  -8   0   36.66    3.11
  -8   3   0   34.95    2.92
   3   8   1  212.00    5.97
   3   8  -1  197.01    5.81
   8  -3  -1  193.57    7.33
   8  -3   1  209.79    5.65
  -3  -8   1  210.83    6.03
  -3  -8  -1  196.58    4.65
  -8   3   1  207.56    6.02
  -8   3  -1  191.73    5.71
   3   8   2    4.30    1.65
   3   8  -2    7.48    1.52
   8  -3  -2   10.58    2.93
  -3  -8  -2    5.25    1.19
  -8   3   2    6.13    2.12
  -8   3  -2    5.57    1.33
   8  -3  -2    5.40    1.12
  -8   3  -3  129.16    6.32
   3   8   3  126.11    3.65
   3   8  -3  120.39    3.72
   8  -3  -3  123.90    3.56
  -8   3   3  135.81    3.89
  -8   3  -3  118.30    3.56
   8  -3  -3  125.18    2.23
  -3  -8   3  114.68    3.65
  -8   3  -4  131.39    6.21
   3   8   4  125.82    3.56
   3   8  -4  125.05    4.37
   8  -3  -4  124.82    3.70
  -8   3   4  124.16    4.14
  -8   3  -4  119.84    3.73
   8  -3  -4  125.84    1.27
   8  -3  -4  128.90    1.34
  -3  -8   4  121.35    5.65
  -8   3  -5  111.40    3.37
   3   8   5  119.68    4.15
   3   8  -5  106.32    7.46
   8  -3  -5  107.74    5.44
  -8   3   5  115.24    5.03
  -8   3  -5  110.01    6.00
  -3  -8   5  124.80    4.57
  -8   3  -6  189.18    6.95
   3   8   6  176.69    5.54
   3   8  -6  185.64    5.76
   8  -3  -6  191.11    5.77
  -8   3   6  182.73    5.68
  -8   3  -6  177.65    5.58
  -3  -8   6  194.22    6.32
   3   8   7   37.87    3.43
  -8   3  -7   30.67    1.96
   3   8  -7   31.64    3.31
   8  -3  -7   34.23    7.60
  -8   3   7   34.54    4.29
  -8   3  -7   34.06    7.95
   8  -3   7   36.42    7.18
  -3  -8   7   33.13    7.63
   3   8   8  117.79    5.42
   3   8  -8  119.84    6.52
   8  -3  -8  121.99    4.69
  -8   3   8  123.43    6.49
  -8   3  -8  116.36    4.08
   8  -3   8  128.33   12.07
  -3  -8   8  117.96    4.36
   3   8   9    7.59    1.41
   3   8  -9   11.36    3.33
   8  -3  -9   10.86    1.84
  -8   3   9   10.25    2.47
  -8   3  -9   10.84    2.43
   8  -3   9    6.78    2.03
  -3  -8   9    6.85    1.72
   3   8  10   26.89    4.05
   3   8 -10   32.54    6.63
   8  -3 -10   29.00    5.41
  -8   3  10   29.61    7.73
  -8   3 -10   23.75    5.24
   8  -3  10   34.04    6.91
  -3  -8  10   29.93    3.10
   3   8  11   15.37    3.65
   3   8 -11   14.39    3.89
   8  -3 -11   17.75    2.99
  -8   3  11   15.41    2.87
  -8   3 -11   12.64    2.42
   8  -3  11   17.31    3.13
  -3  -8  11   18.50    5.04
   3   8  12    1.91    0.84
   3   8 -12   -0.02    1.10
   8  -3 -12    1.33    0.78
  -8   3  12    1.65    0.82
  -8   3 -12    1.76    1.35
   8  -3  12    3.49    1.49
  -3  -8  12    1.28    1.14
   3   8 -13   60.30    9.49
   8  -3 -13   56.92    5.69
  -8   3  13   55.97    4.60
  -8   3 -13   53.26    9.14
   8  -3  13   55.83   13.25
  -3  -8  13   60.87    8.56
   3   8 -14    9.17    2.72
   8  -3 -14    3.41    0.88
  -8   3  14    3.44    1.22
  -8   3 -14    5.31    1.19
   8  -3  14    5.70    1.52
  -3  -8  14    3.39    1.56
   3   8 -15   38.85    7.42
   8  -3 -15   37.34    9.00
  -8   3  15   39.66    9.15
  -8   3 -15   39.35    9.16
   8  -3  15   42.43    8.79
  -3  -8  15   39.38   10.97
   3   8 -16    2.58    1.80
   8  -3 -16    4.89    2.61
  -8   3  16    6.35    1.59
  -8   3 -16    3.68    1.68
   8  -3  16    5.12    1.73
  -3  -8  16    2.46    1.83
   2   8   0    3.51    1.48
   8  -2   0    2.89    1.01
  -8   2   0    1.79    1.63
   2   8   1    7.27    2.28
   2   8  -1    3.69    1.01
   8  -2  -1    3.01    1.07
   8  -2   1    6.72    0.99
  -2  -8  -1    3.86    1.03
  -8   2   1    9.25    1.74
  -8   2  -1    4.51    1.41
   2   8   2   18.53    4.69
   2   8  -2   16.89    2.02
   8  -2  -2   16.94    4.47
   8  -2   2   18.98    1.99
  -2  -8  -2   15.11    1.16
  -8   2   2   19.50    4.18
  -8   2  -2   18.48    4.21
  -2  -8  -2   14.57    1.11
  -2  -8   2   19.53    4.85
   2   8   3  239.53    6.55
   2   8  -3  231.71    6.42
   8  -2  -3  226.24    6.20
   8  -2   3  226.12    5.42
  -8   2   3  224.51    6.33
  -8   2  -3  232.45    6.44
  -2  -8   3  231.59    6.58
  -8   2  -4  106.37    3.84
   2   8   4  103.43    3.68
   2   8  -4  111.06    3.59
   8  -2  -4   99.85    3.24
  -8   2   4   94.67    4.80
  -8   2  -4  112.87    3.55
  -2  -8   4   98.91    3.39
  -8   2  -5  293.84    4.19
   2   8   5  308.09    5.77
   2   8  -5  273.65    5.59
   8  -2  -5  289.84    5.74
  -8   2   5  281.24    8.60
  -8   2  -5  288.41    8.09
   8  -2  -5  287.79    2.76
  -2  -8   5  291.12    6.25
  -8   2  -6   16.43    2.17
   2   8   6   20.10    4.89
   2   8  -6   20.23    2.27
   8  -2  -6   19.03    3.92
  -8   2   6   20.81    5.11
  -8   2  -6   17.47    3.20
  -2  -8   6   23.38    2.09
   2   8   7  199.50    8.21
   2   8  -7  187.01    7.52
   8  -2  -7  187.70    7.56
  -8   2   7  189.63   10.29
  -8   2  -7  170.80    9.77
  -2  -8   7  210.76    8.44
   2   8   8   44.50    2.41
   2   8  -8   35.89    8.80
   8  -2  -8   40.11    8.06
  -8   2   8   42.84    4.44
  -8   2  -8   40.50    6.80
  -2  -8   8   42.01    9.35
   2   8   9  100.90    3.30
   2   8  -9  101.07    4.96
   8  -2  -9   86.84    3.50
  -8   2   9   96.50    3.94
  -8   2  -9   90.31    4.29
  -2  -8   9   90.84    8.06
   2   8  10   15.87    3.74
   2   8 -10   25.03    5.13
   8  -2 -10   19.36    4.33
  -8   2  10   18.86    5.54
  -8   2 -10   21.37    4.05
   8  -2  10   13.65    1.95
  -2  -8  10   18.18    4.77
   2   8  11    4.79    1.20
   2   8 -11   10.19    2.59
   8  -2 -11    8.97    1.71
  -8   2  11    3.86    1.89
  -8   2 -11    9.10    1.53
   8  -2  11    2.42    0.80
  -2  -8  11    2.06    1.42
   2   8  12   27.49    5.65
   2   8 -12   35.37    2.50
   8  -2 -12   26.84    7.63
  -8   2  12   29.25    5.42
  -8   2 -12   31.82    8.56
   8  -2  12   30.53    6.58
  -2  -8  12   33.86    6.48
   2   8 -13   20.90    4.75
   8  -2 -13   18.25    2.21
  -8   2  13   20.91    5.49
  -8   2 -13   15.83    4.57
   8  -2  13   19.55    3.49
  -2  -8  13   21.92    5.22
   2   8 -14    7.04    2.95
   8  -2 -14    7.88    1.63
  -8   2  14    8.86    3.02
  -8   2 -14    6.97    1.40
   8  -2  14   10.16    2.80
  -2  -8  14   12.20    3.17
   2   8 -15    8.85    1.74
  -8   2  15   13.03    3.53
  -8   2 -15    3.04    2.40
   8  -2  15    8.84    1.95
  -2  -8  15    6.42    1.93
   2   8 -16   13.50    2.69
   8  -2 -16    9.36    2.39
  -8   2  16    9.86    2.36
  -8   2 -16   12.50    2.11
   8  -2  16   15.65    3.32
  -2  -8  16    9.40    3.41
   8  -2 -17    2.69    1.23
  -8   2  17    1.34    0.87
   8  -2  17    3.52    1.85
  -2  -8  17    2.48    1.75
   1   8   0  191.94    5.49
   8  -1   0  194.48    5.16
  -8   1   0  184.04    5.46
   1   8   1    8.30    2.55
   1   8  -1    9.84    1.74
   8  -1  -1   10.36    2.90
   8  -1   1   11.13    2.90
  -8   1   1   11.69    1.79
  -8   1  -1    6.30    1.29
  -1  -8   1    7.44    1.29
   1   8   2  206.21    5.89
   1   8  -2  204.96    5.94
   8  -1  -2  203.51    5.61
   8  -1   2  206.48    5.25
  -8   1   2  203.65    5.85
  -1  -8  -2  209.86    4.41
  -8   1  -2  205.68    6.31
  -1  -8   2  207.99    8.24
   1   8   3  208.90    5.90
   1   8  -3  195.41    5.67
   8  -1  -3  193.13    5.46
   8  -1   3  206.42    5.19
  -8   1   3  198.90    7.44
  -8   1  -3  204.43    7.13
  -1  -8   3  201.61    5.86
   1   8   4  237.87    4.94
   1   8  -4  223.41    5.76
   8  -1  -4  208.55    6.14
   8  -1   4  234.63    3.66
  -8   1   4  227.13    5.12
  -8   1  -4  216.89    4.77
  -1  -8   4  230.66    5.18
  -8   1  -5   51.51    1.79
   1   8   5   44.63    3.26
   1   8  -5   54.87    4.21
   8  -1  -5   58.48    6.11
  -8   1   5   44.05    5.83
  -8   1  -5   50.15    2.46
  -1  -8   5   52.36    9.28
  -8   1  -6   93.38    2.31
   1   8   6   87.87    4.89
   1   8  -6  102.17    3.88
   8  -1  -6   97.52    6.46
  -8   1   6   89.60    6.81
  -8   1  -6   91.34    4.56
  -1  -8   6   87.85    3.67
   1   8   7   84.90    3.43
   1   8  -7   86.79    3.89
   8  -1  -7   84.07    3.72
  -8   1   7   86.42    4.17
  -8   1  -7   83.23    3.51
  -1  -8   7   80.42    4.72
   1   8   8   65.92    4.14
   1   8  -8   75.48    8.25
   8  -1  -8   76.61    4.08
  -8   1   8   60.41    3.28
  -8   1  -8   73.32    3.89
  -1  -8   8   64.41    4.24
   1   8   9  107.12    3.75
   1   8  -9  101.15    5.62
   8  -1  -9   91.16    6.45
  -8   1   9  105.25    6.94
  -8   1  -9  100.32    3.82
  -1  -8   9  109.12    6.16
   1   8  10   55.95    3.95
   1   8 -10   42.72    3.11
   8  -1 -10   44.00    4.34
  -8   1  10   50.63    7.26
  -8   1 -10   45.62    5.63
  -1  -8  10   40.63    4.75
   1   8  11    1.23    1.25
   1   8 -11    0.56    0.77
   8  -1 -11    2.39    1.05
  -8   1  11    1.35    1.30
  -8   1 -11    1.31    0.84
  -1  -8  11    0.25    1.03
   1   8 -12   74.07    7.92
   8  -1 -12   78.68    6.29
  -8   1  12   60.96    7.64
  -8   1 -12   70.98    5.96
  -1  -8  12   62.00    5.56
   1   8  13   14.42    2.92
   1   8 -13   13.20    1.97
   8  -1 -13   15.62    3.01
  -8   1  13   11.04    2.30
  -8   1 -13   14.46    4.70
   8  -1  13   15.33    4.20
  -1  -8  13   15.36    3.25
   1   8 -14   34.43    2.52
   8  -1 -14   38.92    3.40
  -8   1  14   39.96    9.22
  -8   1 -14   39.22    6.81
   8  -1  14   40.33    9.10
  -1  -8  14   38.02    8.02
   1   8 -15    7.37    2.72
   8  -1 -15    6.99    1.53
  -8   1  15   10.45    3.61
  -8   1 -15    9.77    1.56
   8  -1  15   11.34    2.97
  -1  -8  15    9.48    2.58
   1   8 -16   37.10    2.58
   8  -1 -16   34.61    3.26
  -8   1  16   31.42    8.74
  -8   1 -16   24.94    6.89
   8  -1  16   31.78    6.03
  -1  -8  16   25.90    9.35
   8  -1 -17    4.07    1.80
  -8   1  17    2.17    0.72
   8  -1  17    1.11    1.41
  -1  -8  17    1.81    1.72
   0   8   0  191.87    6.10
   8   0   0  197.02    5.16
  -8   0   0  194.02    5.59
   0  -8   0  193.45    5.34
   0   8   1  138.92    4.54
   0   8  -1  139.62    4.58
   8   0   1  132.49    4.34
  -8   0   1  131.56    4.43
  -8   0  -1  133.31    4.70
   0  -8   1  143.90    4.48
   0   8   2  170.26    5.17
   0   8  -2  174.06    5.20
   8   0  -2  171.15    5.23
   8   0   2  166.01    4.25
  -8   0   2  160.68    5.04
  -8   0  -2  163.66    4.94
   0  -8   2  171.68    5.07
   0   8   3  215.50    5.99
   0   8  -3  211.37    5.93
   8   0  -3  226.97    6.34
   8   0   3  210.50    5.16
   0  -8  -3  214.53    4.48
  -8   0   3  216.13    7.00
  -8   0  -3  212.10    7.22
   0  -8   3  225.99    6.67
   0   8   4    0.73    1.07
   8   0  -4    0.21    0.41
   8   0   4    0.45    0.22
  -8   0   4    1.67    1.21
  -8   0  -4   -0.40    0.93
   0  -8   4   -0.63    1.21
   0   8   5  108.48    3.40
   0   8  -5  118.21    6.54
   8   0  -5  112.63    5.92
   8   0   5  107.40    2.12
  -8   0   5  107.02    3.71
  -8   0  -5  109.72    9.58
   0  -8   5  108.45    3.66
   0   8   6   98.35    3.76
  -8   0  -6   92.80    2.19
   0   8  -6   85.68    4.22
   8   0  -6  102.71    4.04
  -8   0   6  101.84    4.06
  -8   0  -6   90.41    3.77
   0  -8   6  102.76    4.78
   0   8   7    4.57    1.66
   0   8  -7    8.20    2.79
   8   0  -7    6.71    2.25
  -8   0   7    7.95    1.88
  -8   0  -7    6.44    1.87
   0  -8   7   10.22    1.66
   0   8   8    1.54    1.03
   0   8  -8    1.10    1.62
   8   0  -8    1.57    0.87
  -8   0   8    2.53    1.45
  -8   0  -8    1.45    0.75
   0  -8   8    0.45    1.30
   0   8   9   18.63    4.69
   0   8  -9   17.11    3.96
   8   0  -9   18.57    2.85
  -8   0   9   15.75    3.52
  -8   0  -9   19.37    4.31
   0  -8   9   17.96    3.99
   0   8  10   23.96    5.74
   0   8 -10   26.26    6.03
   8   0 -10   21.58    5.90
  -8   0  10   26.02    5.79
  -8   0 -10   21.85    6.94
   0  -8  10   26.50    6.19
   0   8  11   28.11    2.57
   0   8 -11   26.09    5.87
   8   0 -11   29.26    5.35
  -8   0  11   30.59    7.37
  -8   0 -11   29.33    6.43
   0  -8  11   29.56    5.13
   0   8  12   32.35    9.28
   0   8 -12   43.54    3.08
   8   0 -12   33.95    8.74
  -8   0  12   34.35    8.80
  -8   0 -12   34.92    2.86
   0  -8  12   33.03   10.95
   0   8  13   90.79    6.44
   0   8 -13   82.99    4.58
   8   0 -13   83.28    7.71
  -8   0  13   96.62    4.65
  -8   0 -13   87.58    6.09
   0  -8  13   85.23    4.55
   0   8  14    2.12    0.60
   0   8 -14    0.85    0.54
   8   0 -14    1.49    0.97
  -8   0 -14    0.95    0.56
   0  -8  14    1.21    1.67
   0   8 -15   49.71   10.14
   8   0 -15   53.86   11.01
  -8   0  15   60.46    4.43
  -8   0 -15   59.91    4.00
   8   0  15   52.35   17.18
   0  -8  15   47.55   12.19
   8   0 -16    2.96    1.20
  -8   0  16    4.42    1.97
   8   0  16    5.52    1.93
   0  -8  16    1.57    1.11
   8   0 -17    9.88    2.53
  -8   0  17    8.57    2.52
   8   0  17   10.92    2.03
   0  -8  17   13.55    2.37
  -1   8   0  192.58    5.54
   8   1   0  188.28    5.18
  -8  -1   0  183.48    5.28
  -1   8   0  195.50    4.81
   1  -8   0  191.12    5.30
  -1   8   1    6.73    2.01
  -1   8  -1   11.39    3.04
   8   1  -1   12.27    2.28
   8   1   1    7.59    1.72
  -8  -1   1    9.82    2.64
  -8  -1  -1   10.48    1.72
  -1   8   1    7.77    1.74
  -1   8  -1   11.59    2.27
   1  -8   1   10.16    2.37
   1  -8  -1    9.87    2.84
  -1   8   2  193.53    8.33
  -1   8  -2  205.24    5.78
   8   1  -2  206.21    5.76
   8   1   2  206.09    5.48
  -8  -1   2  211.57    6.08
  -8  -1  -2  203.69    5.83
  -1   8   2  204.46    4.65
  -1   8  -2  213.28    5.49
   1  -8   2  214.57    5.95
  -1   8   3  193.21    5.56
  -1   8  -3  210.73    5.86
   8   1  -3  213.53    6.06
   8   1   3  198.81    4.91
  -8  -1   3  199.60    5.83
  -8  -1  -3  203.44    5.71
  -1   8   3  202.03    4.49
  -1   8  -3  203.27    5.31
   1  -8   3  198.88    5.64
  -1   8   4  228.52    5.01
  -1   8  -4  222.45    6.20
   8   1  -4  215.98    4.97
   8   1   4  220.14    3.53
  -8  -1   4  208.01    7.55
  -8  -1  -4  221.34    4.65
  -1   8   4  217.24    2.72
  -1   8  -4  222.51    4.42
   1  -8   4  217.09    4.79
  -1   8   5   51.83    2.79
  -1   8  -5   52.17    3.18
   8   1  -5   51.44    6.75
   8   1   5   54.94    1.83
  -8  -1   5   53.97    5.17
  -8  -1  -5   42.24    7.48
  -1   8   5   52.70    0.93
   1  -8   5   50.72    3.62
  -1   8   6   89.12    3.52
  -1   8  -6   90.11    4.25
   8   1  -6   89.12    4.66
   8   1   6   93.29    2.28
  -8  -1   6   99.65    4.05
  -1   8   6   98.95    2.25
  -8  -1  -6   95.87    6.89
   1  -8   6   99.01    4.66
  -1   8   7   89.45    5.10
  -1   8  -7   86.45    4.51
   8   1  -7   90.05    4.34
  -8  -1   7   80.64    3.92
  -1   8   7   88.65    2.40
  -8  -1  -7   88.69    3.49
   1  -8   7   86.57    4.45
  -1   8   8   79.88    8.00
  -1   8  -8   70.55    4.40
   8   1  -8   67.69    4.00
  -8  -1   8   73.76    6.99
  -8  -1  -8   78.80    8.42
   1  -8   8   66.83    4.85
  -1   8   9   98.97    3.77
  -1   8  -9  108.81    7.80
   8   1  -9  116.08    4.38
  -8  -1   9   96.68    5.34
  -8  -1  -9  110.53    5.50
   1  -8   9  105.29    4.18
  -1   8  10   44.00    2.40
  -1   8 -10   50.90    3.41
   8   1 -10   52.22    2.86
  -8  -1  10   42.25    4.33
  -8  -1 -10   47.48    2.85
   1  -8  10   42.12    9.82
  -1   8  11    2.09    1.07
  -1   8 -11    1.70    0.91
   8   1 -11    2.38    0.96
  -8  -1  11    1.66    1.14
  -8  -1 -11    1.02    1.10
   1  -8  11   -0.12    1.18
  -1   8  12   70.81    8.13
  -1   8 -12   63.01    3.53
   8   1 -12   59.72    6.19
  -8  -1  12   72.51    3.76
  -8  -1 -12   71.80    5.33
   1  -8  12   73.45    5.26
  -1   8  13   15.12    3.37
  -1   8 -13   10.23    2.55
   8   1 -13   10.60    3.05
  -8  -1  13   20.29    5.13
  -8  -1 -13   11.77    3.52
   1  -8  13   15.79    3.64
  -1   8  14   34.97    8.41
  -1   8 -14   33.11    5.18
   8   1 -14   37.16    9.83
  -8  -1  14   40.68    9.06
  -8  -1 -14   41.00    3.06
   1  -8  14   40.49   11.46
  -1   8  15    7.06    2.05
   8   1 -15    8.43    1.63
  -8  -1  15    4.50    2.54
  -8  -1 -15   11.13    2.26
   1  -8  15   12.72    2.93
   8   1 -16   33.50    3.69
  -8  -1  16   36.12    7.42
   8   1  16   29.82    8.36
   1  -8  16   33.02    8.70
   8   1 -17    0.73    1.11
  -8  -1  17    1.59    1.07
   8   1  17    2.41    1.75
   1  -8  17    2.51    1.12
  -2   8   0    2.80    1.58
   8   2   0    2.70    0.73
  -8  -2   0    2.20    1.10
  -2   8   0    2.98    0.64
   2  -8   0    2.10    0.76
  -2   8   1    5.79    1.57
  -2   8  -1    7.20    1.75
   8   2  -1    7.55    2.42
   8   2   1    6.11    1.31
  -8  -2   1    5.64    1.19
  -8  -2  -1    6.93    1.39
  -2   8   1    6.52    1.56
  -2   8  -1    7.34    1.44
   2  -8   1    6.41    1.25
   2  -8  -1    7.86    2.00
  -2   8   2   17.17    5.50
  -2   8  -2   17.04    1.61
   8   2  -2   19.75    2.78
   8   2   2   14.83    3.65
  -8  -2   2   15.49    3.76
  -8  -2  -2   19.35    5.08
  -2   8   2   15.08    1.41
  -2   8  -2   18.43    1.48
   2  -8   2   16.80    3.16
  -2   8   3  234.25    6.71
  -2   8  -3  223.32    6.16
   8   2  -3  221.83    6.18
   8   2   3  232.52    5.90
  -8  -2   3  227.61    6.93
  -8  -2  -3  222.64    7.60
  -2   8   3  237.89    5.50
  -2   8  -3  224.61    5.97
   2  -8   3  231.62    6.42
  -2   8   4   99.30    4.22
  -2   8  -4  102.37    6.91
   8   2  -4   96.37    3.22
   8   2   4  100.87    2.39
  -8  -2   4  106.02    3.57
  -8  -2  -4   95.56    4.41
  -2   8  -4  101.44    4.80
   2  -8   4  106.03    7.43
  -2   8   5  298.19    6.56
  -2   8  -5  291.82    5.98
   8   2  -5  287.81    5.69
   8   2   5  289.11    4.20
  -8  -2   5  287.19    6.10
  -2   8   5  291.09    3.99
  -8  -2  -5  293.53    5.40
  -2   8  -5  292.66    5.59
   2  -8   5  286.78    8.58
  -2   8   6   18.79    4.47
  -2   8  -6   21.62    1.96
   8   2  -6   20.77    4.76
   8   2   6   17.04    1.67
  -8  -2   6   14.65    4.24
  -2   8   6   17.63    1.90
  -8  -2  -6   20.69    1.73
  -2   8  -6   19.18    5.59
   2  -8   6   16.17    4.00
  -2   8   7  188.86    7.57
  -2   8  -7  209.01    7.99
   8   2  -7  204.52    8.10
  -8  -2   7  188.28    7.76
  -2   8   7  193.38    7.00
  -8  -2  -7  207.29    8.03
  -2   8  -7  197.71    7.78
   2  -8   7  190.57    7.93
  -2   8   8   37.92    4.61
  -2   8  -8   47.51    7.83
   8   2  -8   38.44    9.48
  -8  -2   8   31.33    9.31
  -2   8   8   39.53    1.39
  -8  -2  -8   48.40    2.64
   2  -8   8   36.76    8.62
  -2   8   9   97.99    3.62
  -2   8  -9  100.59    6.17
   8   2  -9   97.71    6.16
  -8  -2   9   93.40    8.55
  -8  -2  -9   96.77    4.30
   2  -8   9   87.91    4.08
  -2   8  10   20.83    4.86
  -2   8 -10   20.88    4.39
  -8  -2  10   23.68    5.63
  -8  -2 -10   18.88    1.48
   2  -8  10   23.03    5.68
  -2   8  11   11.51    2.30
  -2   8 -11    5.43    1.18
   8   2 -11    5.48    2.45
  -8  -2  11   10.32    1.92
  -8  -2 -11    5.34    0.90
   2  -8  11    5.09    2.30
  -8  -2  11    7.02    1.88
  -2   8  12   27.28    6.74
  -2   8 -12   29.24    6.34
   8   2 -12   31.68    6.24
  -8  -2  12   28.55    7.37
  -8  -2 -12   27.88    6.08
   2  -8  12   34.72    7.15
  -2   8  13   20.53    5.36
  -2   8 -13   18.55    3.35
   8   2 -13   26.47    3.49
  -8  -2  13   22.81    4.30
  -8  -2 -13   25.33    2.56
   2  -8  13   16.98    6.53
  -2   8  14    6.17    1.70
   8   2 -14    9.28    2.29
  -8  -2  14   12.76    2.36
  -8  -2 -14   11.08    1.97
   2  -8  14    7.21    2.66
  -2   8  15    8.47    1.83
   8   2 -15    6.70    1.76
  -8  -2  15    5.31    2.52
  -8  -2 -15    6.13    1.87
   2  -8  15    6.87    2.37
  -2   8  16   11.61    3.26
   8   2 -16   12.28    3.28
  -8  -2  16    8.43    2.27
   2  -8  16   16.11    4.32
   8   2 -17    2.79    2.29
  -8  -2  17    2.41    0.84
   8   2  17    5.39    2.30
   2  -8  17    3.50    2.47
  -3   8   0   31.97    2.48
   8   3   0   34.42    3.50
  -8  -3   0   34.03    3.39
  -3   8   0   36.17    2.20
   3  -8   0   36.92    2.43
  -3   8   1  197.03    5.72
  -3   8  -1  206.45    5.80
   8   3   1  191.73    5.11
   8   3  -1  206.74    5.68
  -8  -3   1  196.53    5.59
  -8  -3  -1  209.50    6.07
  -3   8   1  199.45    5.01
  -3   8  -1  217.56    5.81
   3  -8   1  190.69    5.27
   3  -8  -1  218.59    5.86
  -3   8   2    3.37    1.79
  -3   8  -2    7.14    1.64
   8   3   2    6.03    2.06
   8   3  -2    5.26    1.79
  -8  -3   2    6.52    1.95
  -8  -3  -2    7.53    1.32
  -3   8   2    7.45    1.66
  -3   8  -2    7.96    2.06
   3  -8   2    7.53    1.33
   3  -8  -2    4.70    0.97
  -3   8   3  115.64    3.63
  -3   8  -3  117.86    3.34
   8   3   3  125.17    3.06
   8   3  -3  128.37    3.73
  -8  -3   3  125.52    7.47
  -8  -3  -3  122.35    3.33
  -3   8   3  121.70    2.81
  -3   8  -3  124.18    3.25
   3  -8   3  124.83    3.59
  -3   8   4  118.82    5.32
  -3   8  -4  120.28    5.65
   8   3   4  123.35    2.56
   8   3  -4  125.45    5.13
  -8  -3   4  123.24    3.78
  -8  -3  -4  122.11    4.91
  -3   8   4  121.60    2.46
  -3   8  -4  123.02    4.32
   3  -8   4  118.97    4.58
  -3   8   5  111.92    4.07
  -3   8  -5  119.23    3.98
   8   3   5  107.13    3.80
   8   3  -5  120.17    4.17
  -8  -3   5  109.72    4.21
  -3   8   5  109.12    3.73
  -8  -3  -5  121.45    3.96
  -3   8  -5  115.86    4.73
   3  -8   5  103.20    7.82
  -3   8   6  181.86    5.57
  -3   8  -6  187.34    5.41
   8   3  -6  177.54    5.50
   8   3   6  182.96    4.18
  -8  -3   6  175.24    7.94
  -3   8   6  190.43    4.56
  -8  -3  -6  180.17    5.13
  -3   8  -6  184.40    5.53
   3  -8   6  183.78    5.83
  -3   8   7   34.98    7.21
  -3   8  -7   35.68    2.16
   8   3  -7   36.08    4.89
  -8  -3   7   34.82    9.31
  -3   8   7   31.74    2.90
  -8  -3  -7   32.57    2.18
  -3   8  -7   34.01    2.51
   3  -8   7   35.07    7.71
  -3   8   8  114.60    4.41
  -3   8  -8  119.00    3.84
   8   3  -8  116.94    6.03
  -8  -3   8  114.45    6.97
  -3   8   8  117.46    2.94
  -8  -3  -8  117.42    3.65
  -3   8  -8  119.32    4.73
   3  -8   8  124.46    9.05
  -3   8   9   11.21    2.80
  -3   8  -9    7.92    1.62
   8   3  -9    9.18    1.72
  -8  -3   9    9.46    3.78
  -3   8   9    9.13    2.91
  -8  -3  -9    8.90    2.01
  -3   8  -9    9.39    1.63
   3  -8   9   11.03    2.33
  -3   8  10   28.29    6.03
  -3   8 -10   29.49    6.11
   8   3 -10   27.10    7.16
  -8  -3  10   22.63    6.44
  -8  -3 -10   24.79    6.18
   3  -8  10   23.31    5.01
  -3   8  11   17.20    4.42
  -3   8 -11   14.22    2.29
   8   3 -11   18.29    2.41
  -8  -3  11   15.90    3.50
  -8  -3 -11   14.73    3.23
   3  -8  11   10.93    2.99
  -8  -3  11   12.21    2.52
  -3   8  12    1.00    0.84
  -3   8 -12    1.56    1.39
   8   3 -12    0.72    0.97
  -8  -3  12    1.80    1.05
  -8  -3 -12    2.12    1.08
   3  -8  12    4.36    2.38
  -3   8  13   56.01    8.51
   8   3 -13   63.29    3.78
  -8  -3  13   55.26   12.07
  -8  -3 -13   55.91    3.69
   3  -8  13   50.77    9.70
  -3   8  14    6.19    1.77
  -8  -3  14    4.69    1.53
  -8  -3 -14    4.82    1.11
   3  -8  14    2.84    1.40
  -3   8  15   42.04    4.68
   8   3 -15   39.64    4.57
  -8  -3  15   51.98   10.80
   3  -8  15   44.03    9.74
  -3   8  16    3.52    1.48
   8   3 -16    1.65    1.56
  -8  -3  16    4.51    1.47
   3  -8  16    4.13    1.33
  -4   8   0    1.69    1.29
   8   4   0    1.02    0.46
  -8  -4   0    0.84    0.73
  -4   8   0   -0.02    0.71
   4  -8   0    1.28    0.65
  -4   8   1  127.37    3.69
  -4   8  -1  117.16    3.42
   8   4   1  127.73    3.19
   8   4  -1  109.86    4.84
  -8  -4   1  127.00    3.67
  -8  -4  -1  117.97    3.24
  -4   8   1  133.11    3.67
  -4   8  -1  123.11    3.19
   4  -8   1  127.47    3.27
   4  -8  -1  118.02    3.16
  -4   8   2  184.93    7.50
  -4   8  -2  188.67    4.41
   8   4   2  196.71    4.15
   8   4  -2  186.43    4.31
  -8  -4   2  188.26    4.72
  -8  -4  -2  189.11    6.37
  -4   8   2  186.43    4.35
  -4   8  -2  194.42    4.86
   4  -8   2  184.40    4.15
   4  -8  -2  187.09    5.11
  -4   8   3   16.26    3.89
  -4   8  -3   13.54    3.55
   8   4   3   12.72    1.75
   8   4  -3   10.87    1.75
  -8  -4   3   10.57    2.08
  -8  -4  -3   12.12    3.09
  -4   8   3   10.64    2.69
  -4   8  -3   11.87    3.60
   4  -8   3   13.53    2.34
  -4   8   4   56.40    3.48
  -4   8  -4   51.19    2.46
   8   4   4   51.37    1.91
   8   4  -4   48.93    2.38
  -8  -4   4   52.18    6.37
  -8  -4  -4   53.98    3.10
  -4   8   4   54.06    2.34
  -4   8  -4   46.91    3.01
   4  -8   4   50.66    2.57
  -4   8   5    4.24    1.44
  -4   8  -5    9.17    1.38
   8   4   5    6.03    1.15
   8   4  -5    7.18    1.92
  -8  -4   5    5.41    1.36
  -4   8   5    5.85    1.06
  -8  -4  -5    9.41    1.91
  -4   8  -5    7.49    2.78
   4  -8   5    6.48    1.11
  -4   8   6   31.46    6.51
  -4   8  -6   39.77    2.69
   8   4   6   34.79    3.42
   8   4  -6   38.60    2.54
  -8  -4   6   33.61    8.81
  -4   8   6   37.00    1.69
  -8  -4  -6   39.44    2.35
  -4   8  -6   42.71    3.50
   4  -8   6   36.81    7.06
  -4   8   7   16.46    4.37
  -4   8  -7   15.19    4.23
   8   4   7   11.64    2.58
   8   4  -7   17.30    3.33
  -8  -4   7   18.18    4.27
  -4   8   7   16.21    1.28
  -8  -4  -7   15.22    3.06
  -4   8  -7   17.40    4.74
   4  -8   7   15.97    3.12
  -4   8   8   10.10    3.95
  -4   8  -8   11.32    2.48
   8   4  -8   11.56    2.39
  -8  -4   8   11.09    2.77
  -4   8   8   11.77    3.11
  -8  -4  -8    9.54    1.70
  -4   8  -8   10.58    2.62
   4  -8   8   11.11    1.94
  -4   8   9    5.65    2.01
  -4   8  -9    2.25    0.67
   8   4  -9    2.00    1.00
  -8  -4   9    2.27    1.56
  -4   8   9    4.57    1.06
  -8  -4  -9    2.79    0.87
  -4   8  -9    1.73    0.93
   4  -8   9    3.92    1.17
  -4   8  10   50.83    4.32
  -4   8 -10   47.26    6.57
   8   4 -10   55.75    4.20
  -8  -4  10   61.54    9.58
  -8  -4 -10   59.37    4.67
  -4   8 -10   51.80    5.96
   4  -8  10   51.85    3.79
  -8  -4  10   53.98    2.53
  -4   8  11   13.72    2.61
  -4   8 -11   15.12    2.17
   8   4 -11   15.27    2.07
  -8  -4  11   15.50    2.96
  -8  -4 -11   13.04    1.90
  -4   8 -11   12.16    2.55
   4  -8  11   14.98    3.32
  -8  -4  11   10.96    2.12
  -4   8  12    1.96    0.91
   8   4 -12    1.56    1.20
  -8  -4  12    4.11    2.33
  -8  -4 -12    1.30    0.69
   4  -8  12    2.22    1.68
  -8  -4  12    0.99    0.66
  -4   8  13   24.11    4.70
   8   4 -13   19.58    3.17
  -8  -4  13   25.06    6.09
  -8  -4 -13   22.03    3.67
   4  -8  13   26.39    5.54
  -4   8  14   57.63   11.69
   8   4 -14   77.02    5.55
  -8  -4  14   55.25   11.91
   4  -8  14   57.67   12.80
  -4   8  15   10.48    4.58
   8   4 -15   17.45    2.86
  -8  -4  15   13.85    3.08
   4  -8  15   12.97    4.42
  -4   8  16    2.18    0.66
   8   4 -16    3.53    1.33
  -8  -4  16    2.43    1.23
   4  -8  16    2.34    1.71
  -5   8   0  113.68    4.45
   8   5   0  124.21    3.53
  -8  -5   0  124.08    3.42
  -5   8   0  127.82    3.27
   5  -8   0  120.12    3.18
  -5   8   1   61.61    3.63
  -5   8  -1   59.54    3.60
   8   5   1   60.18    2.32
   8   5  -1   59.81    2.64
  -8  -5   1   59.77    6.06
  -8  -5  -1   63.90    2.82
  -5   8   1   57.07    4.45
  -5   8  -1   58.74    2.28
   5  -8   1   57.35    3.37
   5  -8  -1   60.68    6.13
  -5   8   2   68.90    7.94
  -5   8  -2   52.91    3.87
   8   5   2   62.29    2.48
   8   5  -2   53.29    2.59
  -8  -5   2   59.37    3.52
  -8  -5  -2   56.42    2.42
  -5   8   2   60.32    2.49
  -5   8  -2   53.06    3.25
   5  -8   2   66.61    6.50
   5  -8  -2   59.61    3.34
  -5   8   3   21.65    4.13
  -5   8  -3   20.23    3.51
   8   5   3   23.37    3.49
   8   5  -3   19.58    4.69
  -8  -5   3   22.76    6.80
  -8  -5  -3   23.01    1.71
  -5   8   3   23.07    1.50
  -5   8  -3   19.06    5.91
   5  -8   3   21.96    4.08
  -5   8   4    1.38    0.66
  -5   8  -4   -1.39    1.01
   8   5   4    1.88    0.88
   8   5  -4   -0.30    1.06
  -8  -5   4    1.32    1.18
  -5   8   4    2.13    0.88
  -8  -5  -4    0.86    0.71
  -5   8  -4    0.45    0.84
   5  -8   4    0.95    0.95
  -5   8   5  128.74    5.73
  -5   8  -5  139.38    7.14
   8   5   5  129.71    5.15
   8   5  -5  137.32    7.61
  -8  -5   5  133.92    5.86
  -5   8   5  129.81    5.13
  -8  -5  -5  140.67    5.56
  -5   8  -5  135.56    5.86
   5  -8   5  123.08    9.31
  -5   8   6    5.00    1.03
  -5   8  -6    5.45    1.00
   8   5   6    3.36    0.82
   8   5  -6    3.80    1.17
  -8  -5   6    1.41    0.88
  -5   8   6    3.09    0.96
  -8  -5  -6    6.41    1.11
  -5   8  -6    6.67    2.30
   5  -8   6    3.24    1.41
  -5   8   7  133.16    4.55
  -5   8  -7  154.15    8.21
   8   5   7  137.56    4.40
   8   5  -7  149.92    4.85
  -8  -5   7  143.30    5.09
  -5   8   7  147.88    3.90
  -8  -5  -7  153.91    3.92
  -5   8  -7  154.39    4.85
   5  -8   7  143.88    4.81
  -5   8   8   10.76    3.34
  -5   8  -8   17.27    2.69
   8   5  -8   13.19    2.46
  -8  -5   8   16.47    4.17
  -5   8   8   11.16    2.86
  -8  -5  -8   15.32    1.19
  -5   8  -8   19.52    3.97
   5  -8   8   10.09    2.38
  -5   8   9   82.10    6.81
  -5   8  -9   86.79   10.14
   8   5  -9   98.49    3.92
  -8  -5   9   93.95    3.96
  -5   8   9   88.90    2.71
  -8  -5  -9   82.00    4.13
  -5   8  -9   74.20    4.53
   5  -8   9   77.98    6.06
  -5   8  10   18.15    4.41
  -5   8 -10   19.80    3.70
   8   5 -10   21.82    4.21
  -8  -5  10   15.81    3.09
  -5   8  10   15.50    4.71
  -8  -5 -10   22.79    2.27
  -5   8 -10   22.27    5.76
   5  -8  10   17.97    3.67
  -8  -5  10   16.54    4.86
  -5   8  11   68.92    7.78
   8   5 -11   73.82    5.84
  -8  -5  11   80.86    9.44
  -8  -5 -11   68.74    6.33
  -5   8 -11   71.46    5.33
   5  -8  11   66.44   14.24
  -8  -5  11   75.93    3.06
  -5   8  12    8.07    1.47
   8   5 -12    8.52    1.85
  -8  -5  12   10.01    3.24
  -5   8 -12    6.79    2.00
   5  -8  12   13.03    3.71
  -8  -5  12    7.25    2.17
  -5   8  13    0.70    0.86
   8   5 -13    0.06    0.78
  -8  -5  13    0.23    1.86
   5  -8  13    2.52    1.30
  -8  -5  13    3.15    1.46
  -5   8  14    0.58    0.67
   8   5 -14    1.82    1.60
  -8  -5  14   -2.34    1.76
   5  -8  14    0.08    1.54
  -5   8  15    6.49    2.16
   8   5 -15    4.52    1.88
  -8  -5  15    3.74    2.34
   5  -8  15    2.65    1.17
  -5   8  16    7.32    2.06
   8   5 -16    8.63    1.93
  -8  -5  16    8.78    2.89
   5  -8  16    7.58    2.17
  -6   8   0   91.47    4.31
   8   6   0   86.07    4.79
  -8  -6   0   93.96    3.44
  -6   8   0   92.56    3.47
   6  -8   0   88.52    4.10
  -6   8   1   65.54    3.87
  -6   8  -1   69.40    6.55
   8   6   1   67.48    3.73
   8   6  -1   64.60    3.14
  -8  -6   1   63.15    2.88
  -8  -6  -1   71.22    3.05
  -6   8   1   71.73    2.99
  -6   8  -1   68.93    3.19
   6  -8   1   62.07    3.12
   6  -8  -1   71.56    4.17
  -6   8   2   36.24    2.44
  -6   8  -2   36.02    2.13
   8   6   2   43.38    3.06
   8   6  -2   38.00    2.90
  -8  -6   2   45.76    3.67
  -8  -6  -2   38.37    4.93
  -6   8   2   39.94    3.25
  -6   8  -2   35.64    6.41
   6  -8   2   39.44    6.85
   6  -8  -2   38.84    1.95
  -6   8   3   97.94    5.01
  -6   8  -3   97.98    8.83
   8   6   3  100.79    4.38
   8   6  -3   99.75    4.74
  -8  -6   3  102.52    5.68
  -8  -6  -3   97.16    5.80
  -6   8   3   97.77    4.26
  -6   8  -3   99.34    4.73
   6  -8   3  101.04   10.66
  -6   8   4  126.40    5.79
  -6   8  -4  121.24    7.10
   8   6   4  118.24    5.00
   8   6  -4  135.23    6.16
  -8  -6   4  116.91    5.36
  -6   8   4  120.40    5.20
  -8  -6  -4  129.52    6.46
  -6   8  -4  123.59    7.23
   6  -8   4  111.77    6.75
  -6   8   5   29.80    6.03
  -6   8  -5   31.91    2.15
   8   6   5   29.08    2.70
   8   6  -5   27.27    2.55
  -8  -6   5   33.78    8.30
  -6   8   5   29.05    5.11
  -8  -6  -5   31.59    3.90
  -6   8  -5   25.33    2.12
   6  -8   5   32.59    5.02
  -6   8   6    1.77    1.31
  -6   8  -6    1.66    0.76
   8   6   6    3.84    0.66
   8   6  -6    4.39    1.75
  -8  -6   6    2.55    1.11
  -6   8   6    2.30    0.83
  -8  -6  -6    4.95    1.06
  -6   8  -6    0.77    1.41
   6  -8   6    3.78    1.50
  -6   8   7   27.96    6.02
  -6   8  -7   28.65    4.89
   8   6   7   25.61    3.02
   8   6  -7   35.13    7.56
  -8  -6   7   28.27    5.90
  -6   8   7   30.04    2.18
  -8  -6  -7   32.53    1.87
  -6   8  -7   33.52    6.45
   6  -8   7   28.57    6.81
  -6   8   8   92.36    3.91
  -6   8  -8   77.64    9.76
   8   6  -8   88.21    3.79
  -8  -6   8   87.22    6.21
  -6   8   8   90.39    2.95
  -8  -6  -8   79.70    2.60
  -6   8  -8   87.20    3.65
   6  -8   8   90.03    4.73
  -6   8   9   20.05    4.93
  -6   8  -9   26.76    2.14
   8   6  -9   23.91    5.24
  -8  -6   9   23.66    5.75
  -6   8   9   20.71    4.60
  -8  -6  -9   26.33    2.70
  -6   8  -9   25.54    5.10
   6  -8   9   25.37    3.92
  -6   8  10    1.09    0.84
  -6   8 -10    1.23    0.72
   8   6 -10   -0.63    1.12
  -8  -6  10    0.77    0.56
  -6   8  10    0.99    0.77
  -6   8 -10   -0.60    1.28
   6  -8  10    0.37    1.07
  -6   8  11   27.66    6.39
   8   6 -11   27.05    4.87
  -8  -6  11   30.70    6.21
  -6   8 -11   27.69    6.90
   6  -8  11   32.08    6.77
  -8  -6  11   25.94    7.03
  -6   8  12   67.62    7.00
   8   6 -12   67.60    5.74
  -8  -6  12   55.66   13.03
  -6   8 -12   70.12    3.97
   6  -8  12   56.94   12.85
  -8  -6  12   68.15    3.09
  -6   8  13   16.05    3.14
   8   6 -13   18.06    3.25
  -8  -6  13   16.89    3.55
  -6   8 -13   17.32    3.91
   6  -8  13   16.56    3.32
  -8  -6  13   12.71    4.72
  -6   8  14    9.19    2.06
   8   6 -14    8.50    2.04
  -8  -6  14    7.71    2.08
   6  -8  14    8.59    2.72
  -6   8  15    1.94    1.11
   8   6 -15    3.17    1.49
  -8  -6  15   -1.72    1.77
   6  -8  15    1.33    1.57
  -7   8   0  270.47   13.00
   8   7   0  289.56   11.28
  -8  -7   0  282.92   10.52
  -7   8   0  274.75   10.93
   7  -8   0  281.23   10.28
  -7   8   1  132.07    5.80
  -7   8  -1  115.97    5.38
   8   7   1  138.04    6.03
   8   7  -1  118.24    8.02
  -8  -7   1  133.43    7.47
  -8  -7  -1  120.07    5.34
  -7   8   1  140.68    5.92
  -7   8  -1  113.04    5.20
   7  -8   1  131.39    5.69
   7  -8  -1  115.46    4.75
  -7   8   2    2.45    1.13
  -7   8  -2    1.39    0.88
   8   7   2    2.57    0.61
   8   7  -2    1.80    0.82
  -8  -7   2    2.45    0.73
  -8  -7  -2    1.29    0.88
  -7   8   2    2.34    0.73
  -7   8  -2    2.36    0.92
   7  -8   2   -0.14    1.03
   7  -8  -2    2.91    0.81
  -7   8   3   36.49    9.26
  -7   8  -3   40.83    3.58
   8   7   3   41.94    2.22
   8   7  -3   38.17    4.11
  -8  -7   3   45.81    3.83
  -8  -7  -3   38.04    2.28
  -7   8   3   38.80    7.91
  -7   8  -3   42.46    2.63
   7  -8   3   44.52    6.84
   7  -8  -3   37.39    1.45
  -7   8   4   75.07    5.72
  -7   8  -4   74.41    4.33
   8   7   4   67.98    4.43
   8   7  -4   78.10    8.32
  -8  -7   4   64.67    7.71
  -7   8   4   70.44    3.63
  -8  -7  -4   68.50    3.74
  -7   8  -4   77.03    3.39
   7  -8   4   62.45    9.25
  -7   8   5   60.76   12.96
  -7   8  -5   58.33    3.71
   8   7   5   57.78    4.56
   8   7  -5   56.81    6.78
  -8  -7   5   60.96   11.27
  -7   8   5   57.17    4.50
  -8  -7  -5   53.46    3.74
  -7   8  -5   53.86    5.17
   7  -8   5   56.12    4.77
  -7   8   6   17.96    4.59
  -7   8  -6   20.65    1.55
   8   7   6   15.96    3.54
   8   7  -6   19.38    5.73
  -8  -7   6   17.33    3.78
  -7   8   6   16.16    4.91
  -8  -7  -6   15.92    2.91
  -7   8  -6   19.92    4.80
   7  -8   6   15.91    3.39
  -7   8   7   71.00    6.52
  -7   8  -7   77.01    8.55
   8   7   7   68.35    2.52
   8   7  -7   71.95    4.68
  -8  -7   7   72.24    4.17
  -7   8   7   72.30    2.88
  -8  -7  -7   72.61    2.95
  -7   8  -7   72.90    3.31
   7  -8   7   74.46    4.70
  -7   8   8   24.65    5.60
  -7   8  -8   19.79    4.78
   8   7  -8   22.27    4.20
  -8  -7   8   23.96    5.34
  -7   8   8   19.81    5.49
  -7   8  -8   22.27    5.56
   7  -8   8   21.54    5.31
  -7   8   9   19.23    4.31
  -7   8  -9   17.64    4.16
   8   7  -9   18.91    3.20
  -8  -7   9   14.13    2.89
  -7   8   9   13.92    4.06
  -7   8  -9   19.03    4.95
   7  -8   9   17.91    4.08
  -7   8  10   -0.62    1.49
   8   7 -10    1.95    1.01
  -8  -7  10    1.45    1.08
  -7   8  10    0.68    0.69
  -7   8 -10    0.13    1.14
   7  -8  10   -0.15    1.66
  -7   8  11  105.12    6.25
   8   7 -11  100.44   11.14
  -8  -7  11  107.02    8.90
  -7   8  11   99.54    3.82
  -7   8 -11   96.19    6.06
   7  -8  11  105.19   11.75
  -8  -7  11   96.56    3.93
  -7   8  12   41.89    9.76
   8   7 -12   58.08   10.96
  -8  -7  12   45.09    9.95
  -7   8 -12   60.14    7.34
   7  -8  12   49.79   10.99
  -8  -7  12   42.63    8.45
  -7   8  13    4.76    1.50
   8   7 -13    4.21    1.47
  -8  -7  13    5.24    1.03
  -7   8 -13    3.49    1.75
   7  -8  13    3.96    1.03
  -7   8  14    0.76    0.97
   8   7 -14    0.70    0.90
  -8  -7  14    2.48    1.30
  -7   8 -14   -0.02    0.68
   7  -8  14    3.61    1.95
  -8  -7  14    0.29    0.62
  -7   8  15    4.03    2.25
   8   7 -15    3.16    1.88
  -8  -7  15    0.76    1.83
   7  -8  15    6.94    2.12
  -8   8   0   42.75    3.34
   8   8   0   38.85    3.87
  -8  -8   0   46.70    3.53
  -8   8   0   39.63    5.80
   8  -8   0   46.14    2.97
  -8   8   1    1.52    0.99
  -8   8  -1    1.75    0.82
   8   8   1    1.94    0.84
   8   8  -1    0.71    1.04
  -8  -8   1    0.75    1.00
  -8  -8  -1    1.08    0.60
  -8   8   1    1.23    1.15
  -8   8  -1    1.52    0.86
   8  -8   1    1.05    0.64
   8  -8  -1    2.04    1.04
  -8   8   2  277.88    6.75
  -8   8  -2  274.82    6.91
   8   8   2  273.07    7.13
   8   8  -2  276.31   11.26
  -8  -8   2  280.07    6.63
  -8  -8  -2  271.83    5.40
  -8   8   2  286.03    5.70
  -8   8  -2  274.48    7.35
   8  -8   2  285.37    5.86
   8  -8  -2  275.06    5.18
  -8   8   3    2.53    1.62
  -8   8  -3    2.42    1.17
   8   8   3    1.55    0.49
   8   8  -3    3.14    1.30
  -8  -8   3    3.86    1.29
  -8  -8  -3    3.22    0.86
  -8   8   3    3.43    1.07
  -8   8  -3    3.34    1.25
   8  -8   3    3.77    0.98
  -8   8   4    1.88    0.69
  -8   8  -4    0.09    1.08
   8   8   4    0.51    0.46
   8   8  -4    2.80    1.95
  -8  -8   4    0.88    0.77
  -8   8   4    1.47    0.86
  -8  -8  -4    0.49    0.48
  -8   8  -4   -0.60    1.20
   8  -8   4    0.57    0.61
  -8   8   5    0.63    0.72
  -8   8  -5    1.62    0.98
   8   8   5    1.63    0.91
   8   8  -5    1.06    1.58
  -8  -8   5   -0.04    1.16
  -8   8   5    0.00    0.93
  -8  -8  -5    0.76    0.43
  -8   8  -5    1.14    0.99
   8  -8   5    2.04    0.57
  -8   8   6    9.57    1.54
  -8   8  -6    8.13    1.42
   8   8   6    7.18    2.02
   8   8  -6   12.75    3.38
  -8  -8   6    9.04    1.86
  -8   8   6    7.33    2.45
  -8   8  -6   10.39    1.57
   8  -8   6    9.64    1.83
  -8   8   7   32.75    8.86
  -8   8  -7   24.36    5.32
   8   8   7   23.22    4.77
   8   8  -7   30.98    7.69
  -8  -8   7   30.27    5.98
  -8   8   7   23.96    6.07
  -8   8  -7   29.04    7.53
   8  -8   7   29.89    7.64
  -8   8   8   48.09   11.89
  -8   8  -8   48.56    3.12
   8   8  -8   43.60    9.68
  -8  -8   8   46.76   10.36
  -8   8   8   46.84    2.87
  -8   8  -8   46.48    7.44
   8  -8   8   37.11    9.18
  -8   8   9   44.03   10.52
   8   8  -9   45.62    9.98
  -8  -8   9   42.64    8.57
  -8   8   9   40.73    2.39
  -8   8  -9   44.15    6.58
   8  -8   9   43.50   10.17
  -8   8  10   53.55   12.60
   8   8 -10   56.95   12.09
  -8  -8  10   61.89   11.11
  -8   8  10   52.23    6.06
  -8   8 -10   60.90    8.29
   8  -8  10   72.47    6.88
  -8   8  11    6.75    3.12
   8   8 -11    4.78    1.37
  -8  -8  11    5.89    3.07
  -8   8  11    5.62    1.67
  -8   8 -11    5.18    2.04
   8  -8  11    5.03    1.75
  -8  -8  11    6.09    1.52
  -8   8  12    7.54    1.84
   8   8 -12    7.59    2.13
  -8  -8  12    7.17    2.07
  -8   8 -12    6.24    0.93
   8  -8  12    6.54    2.10
  -8  -8  12    4.36    1.46
  -8   8  13    9.03    2.56
   8   8 -13   18.65    2.36
  -8  -8  13   14.07    2.66
  -8   8 -13   16.23    3.34
   8  -8  13   15.74    3.20
  -8  -8  13    7.93    2.35
  -8   8  14   31.07    5.91
   8   8 -14   32.63    3.67
  -8  -8  14   34.67    5.47
  -8   8 -14   29.03    6.07
   8  -8  14   33.88    7.56
  -8  -8  14   30.73    2.57
  -9   8   0   -0.05    1.23
   8   9   0   -0.70    1.16
  -8  -9   0    1.90    0.78
  -9   8   0    3.11    1.76
   9  -8   0    1.12    0.76
  -9   8   1  117.24    7.03
  -9   8  -1  115.34   11.42
   8   9   1  124.47    4.02
   8   9  -1  117.10    4.08
  -8  -9   1  117.21    7.22
  -8  -9  -1  110.59    6.97
  -9   8   1  113.71    3.93
  -9   8  -1  104.85    3.78
   9  -8   1  125.68    3.43
   9  -8  -1  102.11    4.22
  -9   8   2    1.06    0.73
  -9   8  -2    1.85    1.16
   8   9   2    1.67    0.68
   8   9  -2   -0.56    1.14
  -8  -9   2    1.21    0.51
  -8  -9  -2    1.22    0.69
  -9   8   2    2.02    0.91
  -9   8  -2    1.07    0.76
   9  -8   2    2.07    1.01
  -9   8   3   11.51    2.46
  -9   8  -3   10.29    2.46
   8   9   3    8.74    2.83
   8   9  -3    7.42    2.22
  -8  -9   3   13.94    3.18
  -8  -9  -3    7.88    1.62
  -9   8   3    9.48    2.83
  -9   8  -3    7.39    2.29
   9  -8   3   10.62    2.75
  -9   8   4    1.06    0.69
  -9   8  -4    4.47    0.89
   8   9   4    1.31    0.88
   8   9  -4    4.66    1.61
  -8  -9   4   -0.38    0.85
  -9   8   4    1.89    1.27
  -9   8  -4    3.09    1.34
   9  -8   4    0.93    0.72
  -9   8   5   25.71    5.92
  -9   8  -5   24.70    5.84
   8   9   5   27.99    7.11
   8   9  -5   27.58    5.08
  -8  -9   5   26.60    6.11
  -9   8   5   25.05    6.04
  -9   8  -5   28.24    3.27
   9  -8   5   27.39    6.82
  -9   8   6  175.87   27.54
  -9   8  -6  151.04   12.07
   8   9   6  156.65    6.73
   8   9  -6  161.62    5.42
  -8  -9   6  161.84    8.73
  -9   8   6  155.29    4.99
  -9   8  -6  148.72    5.82
   9  -8   6  169.02   11.11
  -9   8   7   22.60    6.27
  -9   8  -7   25.13    2.53
   8   9   7   16.58    5.06
   8   9  -7   27.27    4.47
  -8  -9   7   23.99    4.83
  -9   8   7   19.00    6.60
  -9   8  -7   24.44    4.74
   9  -8   7   25.12    4.72
  -9   8   8   21.48    5.23
   8   9  -8   24.23    2.83
  -8  -9   8   23.32    3.77
  -9   8   8   22.69    2.29
  -9   8  -8   19.94    3.78
   9  -8   8   23.31    4.41
  -9   8   9    1.27    1.35
   8   9  -9    3.63    1.64
  -8  -9   9    1.63    0.88
  -9   8   9    2.76    1.13
  -9   8  -9    1.18    1.02
   9  -8   9    2.06    0.84
  -9   8  10   50.98   13.00
   8   9 -10   61.17    3.55
  -8  -9  10   52.46    9.76
  -9   8  10   61.37    3.27
  -9   8 -10   53.96   11.22
   9  -8  10   56.46    9.63
  -9   8  11   18.11    4.40
   8   9 -11   22.37    3.56
  -8  -9  11   19.21    4.68
  -9   8  11   16.68    5.24
  -9   8 -11   17.41    4.74
   9  -8  11   18.40    3.35
  -9   8  12    2.32    1.23
   8   9 -12    6.60    2.29
  -8  -9  12    2.80    1.43
  -9   8 -12    2.52    1.60
   9  -8  12    5.16    1.92
  -8  -9  12    2.09    1.80
  -9   8  13    8.99    1.58
   8   9 -13    5.47    2.16
  -8  -9  13    6.60    1.33
  -9   8 -13    6.16    1.46
   9  -8  13    5.86    1.44
  -8  -9  13    7.89    2.33
  -9   8  14    2.38    1.28
   8   9 -14    1.40    0.90
  -8  -9  14    1.33    1.01
  -9   8 -14    1.30    1.10
   9  -8  14    0.79    0.95
  -8  -9  14    1.76    0.90
  -9   7   0   22.65    5.25
   7   9   0   23.24    5.98
  -7  -9   0   24.50    4.09
  -9   7   0   25.90    5.01
   9  -7   0   21.38    4.47
  -9   7   1   46.15    3.59
  -9   7  -1   41.20    3.70
   7   9   1   47.02    3.70
   7   9  -1   44.22    4.15
  -7  -9   1   41.94    2.46
  -7  -9  -1   41.58    5.74
  -9   7   1   42.40    5.53
  -9   7  -1   44.62    3.69
   9  -7   1   37.37    6.11
   9  -7  -1   44.94    2.15
  -9   7   2   20.12    3.16
  -9   7  -2   24.90    5.75
   7   9   2   21.77    4.85
   7   9  -2   18.97    5.54
  -7  -9   2   16.82    4.74
  -7  -9  -2   21.79    3.76
  -9   7   2   19.35    3.43
  -9   7  -2   22.39    4.76
   9  -7   2   18.53    3.34
   9  -7  -2   21.31    2.10
  -9   7   3   58.87    3.66
  -9   7  -3   51.54    3.53
   7   9   3   53.11    5.13
   7   9  -3   52.69    3.90
  -7  -9   3   58.89    2.90
  -7  -9  -3   49.96    2.98
  -9   7   3   55.27    2.85
  -9   7  -3   50.63    5.79
   9  -7   3   58.66    2.96
  -9   7   4    2.71    1.62
  -9   7  -4    2.34    0.58
   7   9   4    3.00    0.97
   7   9  -4    3.41    1.62
  -7  -9   4    2.89    0.80
  -9   7   4    4.83    1.24
  -9   7  -4    5.35    1.69
   9  -7   4    3.68    1.15
  -9   7   5   53.69    8.79
  -9   7  -5   65.39    3.46
   7   9   5   64.53    2.74
   7   9  -5   68.43   11.90
  -7  -9   5   57.80    3.17
  -9   7   5   57.75    4.00
  -9   7  -5   66.50    3.26
   9  -7   5   56.23    4.30
  -9   7   6   12.11    2.23
  -9   7  -6   15.71    3.49
   7   9   6   14.28    4.50
   7   9  -6   17.12    2.31
  -7  -9   6   14.09    3.00
  -9   7   6   18.14    4.52
  -9   7  -6   19.31    4.93
   9  -7   6   15.98    2.88
  -9   7   7   56.32   10.33
  -9   7  -7   58.43    3.09
   7   9   7   59.39    6.03
   7   9  -7   60.24    7.13
  -7  -9   7   66.03    5.47
  -9   7   7   55.35    2.73
  -9   7  -7   61.49    3.38
   9  -7   7   65.94    4.87
   7   9   8   87.22    4.17
   7   9  -8   97.90   12.65
   9  -7  -8   97.19    6.14
  -7  -9   8   81.85    5.84
  -9   7   8   87.48    4.13
  -9   7  -8   89.53    6.68
   9  -7   8   96.57   12.27
   7   9  -9   57.36   10.96
   9  -7  -9   52.74   11.58
  -7  -9   9   51.43   10.22
  -9   7   9   49.98    4.27
  -9   7  -9   52.68    5.46
   9  -7   9   48.61    8.39
  -7  -9   9   50.24    6.36
   7   9 -10    7.66    1.71
   9  -7 -10    6.53    1.51
  -7  -9  10   10.44    2.05
  -9   7  10    5.68    1.38
  -9   7 -10   12.38    3.00
   9  -7  10    9.41    2.18
  -7  -9  10    9.06    2.21
   7   9 -11    5.98    2.17
   9  -7 -11    4.77    1.08
  -7  -9  11    1.30    1.49
  -9   7  11    1.38    1.04
  -9   7 -11    2.59    2.80
   9  -7  11    3.45    1.01
  -7  -9  11    3.63    1.43
   7   9 -12   12.42    4.56
   9  -7 -12   11.81    2.30
  -7  -9  12   13.30    3.04
  -9   7 -12   11.66    3.47
   9  -7  12    9.87    4.37
  -7  -9  12    8.82    3.72
   7   9 -13   21.08    4.97
   9  -7 -13   22.12    3.57
  -7  -9  13   23.06    4.30
  -9   7  13   20.01    7.17
  -9   7 -13   21.97    7.72
   9  -7  13   25.15    4.76
  -7  -9  13   19.78    6.51
   7   9 -14    2.51    1.75
  -7  -9  14    2.16    1.49
  -9   7 -14    4.26    1.73
   9  -7  14    2.56    1.94
  -7  -9  14    1.76    1.10
  -9   6   0  361.38   13.52
   6   9   0  399.44   14.80
  -6  -9   0  362.87   19.17
  -9   6   0  390.44   14.27
   9  -6   0  362.86   12.76
  -9   6   1   72.33    3.97
  -9   6  -1   69.44    4.59
   6   9   1   68.45    4.10
   6   9  -1   77.87    4.24
  -6  -9   1   68.41    3.38
  -6  -9  -1   66.11    5.35
  -9   6   1   63.46    7.94
  -9   6  -1   65.69    3.71
   9  -6   1   69.24    8.06
   9  -6  -1   67.42    5.01
  -9   6   2   86.22    5.44
  -9   6  -2   95.66    7.62
   6   9   2   93.37    4.60
   6   9  -2  100.18    3.91
  -6  -9   2   94.39    5.35
  -6  -9  -2   97.23    5.00
  -9   6   2   98.66    3.90
  -9   6  -2   97.06    3.83
   9  -6   2  102.06    4.80
   9  -6  -2   96.34    4.05
  -9   6   3    1.83    1.41
  -9   6  -3    4.48    0.72
   6   9   3    3.03    1.27
   6   9  -3    6.44    1.80
  -6  -9   3    2.81    0.91
  -6  -9  -3    5.18    0.75
  -9   6   3    0.75    1.44
  -9   6  -3    8.92    2.11
   9  -6   3    2.73    1.40
  -9   6  -4  190.15    5.10
   6   9   4  188.53    4.88
   6   9  -4  196.66    5.67
   9  -6  -4  186.15    5.32
  -6  -9   4  180.39    5.26
  -9   6   4  190.56    5.46
  -9   6  -4  185.47    5.29
   9  -6   4  181.95    4.92
  -9   6  -5   52.69    2.82
   6   9   5   58.81    2.97
   6   9  -5   53.73    7.79
   9  -6  -5   57.57    4.62
  -6  -9   5   57.08    4.16
  -9   6   5   58.82    3.43
  -9   6  -5   47.60   10.95
   9  -6   5   60.50    4.50
  -9   6  -6    7.69    1.34
   6   9   6    5.27    0.80
   6   9  -6    9.33    2.09
   9  -6  -6    6.40    2.51
  -6  -9   6    6.04    1.59
  -9   6   6    5.71    1.65
  -9   6  -6   11.19    3.20
   9  -6   6    5.06    1.89
  -9   6  -7    6.72    0.93
   6   9   7    6.35    1.58
   6   9  -7    8.85    1.47
   9  -6  -7    6.23    2.44
  -6  -9   7    7.78    1.58
  -9   6   7    6.45    1.84
  -9   6  -7    6.68    1.80
   9  -6   7    5.11    2.12
  -6  -9   7    6.02    2.39
   6   9   8   14.56    1.81
   6   9  -8   17.12    3.55
   9  -6  -8   16.80    5.12
  -6  -9   8   17.19    4.89
  -9   6   8   16.02    2.32
  -9   6  -8   16.99    2.57
   9  -6   8   15.44    3.14
  -6  -9   8   17.38    2.65
   6   9   9   33.97    3.41
   6   9  -9   35.48    8.07
   9  -6  -9   41.21    7.79
  -6  -9   9   35.79    6.54
  -9   6   9   42.53    3.06
  -9   6  -9   44.59    8.38
   9  -6   9   42.12    7.49
  -6  -9   9   40.91    8.15
   6   9 -10   38.89    6.81
   9  -6 -10   32.43    7.29
  -6  -9  10   34.23    7.98
  -9   6  10   32.08    4.54
  -9   6 -10   28.54    8.84
   9  -6  10   35.38    6.70
  -6  -9  10   32.06    4.05
   6   9 -11   11.65    4.52
   9  -6 -11   13.45    3.16
  -6  -9  11   13.78    2.85
  -9   6  11   12.41    3.70
  -9   6 -11   14.01    3.24
   9  -6  11   16.87    2.41
  -6  -9  11   10.67    1.39
   6   9 -12   77.17    3.84
   9  -6 -12   73.80    8.15
  -6  -9  12   71.95   11.67
  -9   6  12   81.85    5.76
  -9   6 -12   76.01    6.89
   9  -6  12   86.91    9.64
  -6  -9  12   85.48    4.05
   6   9 -13    2.25    0.88
   9  -6 -13    2.63    1.67
  -6  -9  13    3.42    1.41
  -9   6 -13    3.52    1.47
   9  -6  13    2.65    2.22
  -6  -9  13    2.90    1.35
   6   9 -14    4.13    1.74
   9  -6 -14    0.99    0.81
  -6  -9  14    1.81    1.55
  -9   6  14    1.15    0.69
  -9   6 -14    0.77    0.99
   9  -6  14    1.92    0.95
  -6  -9  14    3.81    2.11
   6   9 -15    0.42    1.02
   9  -6 -15    2.54    1.74
  -6  -9  15    1.58    1.68
  -9   6  15    1.34    1.07
  -9   6 -15   -0.54    1.34
   9  -6  15   -0.32    1.81
  -6  -9  15    1.01    1.38
  -9   5   0   20.01    4.10
   5   9   0   19.24    4.67
  -5  -9   0   16.67    2.67
  -9   5   0   14.10    3.00
   9  -5   0   15.79    3.59
  -9   5  -1   47.25    2.34
   5   9   1   43.55    2.62
   5   9  -1   53.74    2.69
  -5  -9   1   46.19    2.80
  -5  -9  -1   54.20    3.89
  -9   5   1   45.33    2.69
  -9   5  -1   57.17    7.08
   9  -5   1   42.98    2.47
   9  -5  -1   51.41    1.75
  -9   5  -2   50.89    2.65
   5   9   2   53.13    3.07
   5   9  -2   51.85    3.12
   9  -5  -2   54.95    8.18
  -5  -9   2   63.15    6.61
  -5  -9  -2   53.19    1.61
  -9   5   2   58.71    2.90
  -9   5  -2   52.48    3.30
   9  -5   2   54.72    2.85
   9  -5  -2   50.15    3.39
  -9   5  -3  100.27    9.27
   5   9   3  107.18    5.06
   5   9  -3   90.34    4.45
   9  -5  -3   90.90    4.41
  -5  -9   3  112.33    7.24
  -9   5   3  109.50    5.26
  -5  -9  -3   94.16    3.43
  -9   5  -3   88.09    5.75
   9  -5   3  114.69    8.12
   9  -5  -3   93.74    3.66
  -9   5  -4   73.21    4.33
   5   9   4   60.42    4.40
   5   9  -4   62.64    3.97
   9  -5  -4   69.77    3.95
  -5  -9   4   59.95    4.70
  -9   5   4   64.58    3.87
  -9   5  -4   63.58    3.64
   9  -5   4   61.46    3.05
  -9   5  -5   11.34    2.75
   5   9   5   12.33    3.17
   5   9  -5   14.01    2.38
   9  -5  -5   14.21    3.79
  -5  -9   5   11.00    2.89
  -9   5   5   10.15    2.01
  -9   5  -5   13.52    2.97
   9  -5   5   12.29    2.04
  -5  -9   5   11.43    4.08
  -9   5  -6    6.41    1.48
   5   9   6    7.34    1.96
   5   9  -6    2.61    1.54
   9  -5  -6    7.39    2.00
  -5  -9   6    8.73    1.84
  -9   5   6    9.02    2.45
  -9   5  -6    9.74    1.74
   9  -5   6    8.86    1.17
  -5  -9   6    9.81    2.19
  -9   5  -7   60.76    3.64
   5   9   7   54.04    5.86
   5   9  -7   59.70    6.09
   9  -5  -7   55.16    4.81
  -5  -9   7   52.73    9.28
  -9   5   7   54.31    5.85
  -9   5  -7   68.63    7.76
   9  -5   7   56.09    4.88
  -5  -9   7   53.02    9.57
   5   9   8   61.80    5.20
   5   9  -8   52.20    3.27
   9  -5  -8   52.91    9.38
  -9   5   8   56.71    6.82
  -9   5  -8   49.53    8.60
   9  -5   8   62.06    5.82
  -5  -9   8   56.89    4.03
   5   9   9   56.08    2.38
   5   9  -9   57.13    4.24
   9  -5  -9   59.98    3.51
  -9   5   9   55.08    8.46
  -9   5  -9   63.19    8.16
   9  -5   9   54.25    5.35
  -5  -9   9   59.55    3.55
   5   9  10   13.67    4.03
   5   9 -10   19.86    2.46
   9  -5 -10   23.02    3.52
  -9   5  10   16.85    3.91
  -9   5 -10   15.53    3.58
   9  -5  10   17.85    3.31
  -5  -9  10   19.00    4.67
   5   9 -11   17.59    2.22
   9  -5 -11   12.20    1.62
  -9   5  11   15.11    3.14
  -9   5 -11   13.73    2.11
   9  -5  11   11.35    2.24
  -5  -9  11   10.50    3.58
   5   9 -12   18.51    4.33
   9  -5 -12   15.12    4.05
  -9   5  12   18.95    2.69
  -9   5 -12   16.60    2.41
   9  -5  12   17.10    3.01
  -5  -9  12   13.57    4.36
   5   9 -13   16.83    3.28
   9  -5 -13   23.33    6.29
  -9   5  13   20.03    4.86
  -9   5 -13   20.39    2.43
   9  -5  13   18.75    5.60
  -5  -9  13   15.51    6.21
   5   9 -14    1.85    1.10
   9  -5 -14    0.60    1.09
  -9   5  14    1.66    1.45
  -9   5 -14    1.78    1.24
   9  -5  14    4.81    1.75
  -5  -9  14    1.71    1.01
   5   9 -15   16.17    5.57
   9  -5 -15   22.91    4.36
  -9   5  15   16.22    4.95
  -9   5 -15   19.41    5.48
   9  -5  15   26.43    3.98
  -5  -9  15   14.98    5.06
   4   9   0   16.11    3.61
   9  -4   0   10.13    2.82
  -4  -9   0    8.07    1.68
  -9   4   0   10.42    2.67
   9  -4   0   10.73    2.49
  -9   4  -1   15.78    3.66
   4   9   1   10.16    1.89
   4   9  -1   11.70    2.90
   9  -4  -1   12.16    1.69
  -4  -9   1   10.19    1.77
  -4  -9  -1   11.58    2.45
  -9   4   1   13.38    1.81
  -9   4  -1   13.76    3.52
   9  -4   1   11.08    1.91
   9  -4  -1   10.43    2.32
  -9   4  -2   78.66    4.01
   4   9   2   82.16    3.56
   4   9  -2   73.39   12.39
   9  -4  -2   72.85    6.73
  -4  -9   2   78.86    4.26
  -4  -9  -2   72.36    2.16
  -9   4   2   71.47    5.91
  -9   4  -2   74.31    3.36
   9  -4   2   75.02    3.00
   9  -4  -2   71.78    2.39
  -9   4  -3   49.34    2.27
   4   9   3   42.40    2.80
   4   9  -3   49.25   10.19
   9  -4  -3   44.83    3.40
  -4  -9   3   45.88    2.47
  -9   4   3   41.56    2.40
  -4  -9  -3   48.64    1.03
  -9   4  -3   50.40    4.99
   9  -4   3   52.93    3.75
   9  -4  -3   48.20    1.53
  -9   4  -4   19.41    3.07
   4   9   4   20.83    5.01
   4   9  -4   23.05    6.12
   9  -4  -4   20.81    5.28
  -9   4   4   20.48    3.22
  -9   4  -4   20.81    3.13
   9  -4   4   20.96    2.99
  -4  -9   4   19.45    4.09
  -9   4  -5   52.52    2.05
   4   9   5   48.60    6.60
   4   9  -5   63.05    5.14
   9  -4  -5   52.60    5.37
  -9   4   5   45.40    3.85
  -9   4  -5   51.85    3.62
   9  -4   5   50.52    5.12
  -4  -9   5   47.78    2.86
  -9   4  -6  174.97    3.87
   4   9   6  172.66    4.64
   4   9  -6  168.65    9.72
   9  -4  -6  184.20    5.59
  -9   4   6  179.92    5.45
  -9   4  -6  174.91    5.23
   9  -4   6  166.51    4.94
  -4  -9   6  171.70    5.45
   4   9   7   38.48    2.08
   4   9  -7   28.52    2.96
   9  -4  -7   28.35    6.11
  -9   4   7   32.38    9.17
  -9   4  -7   27.94    8.29
   9  -4   7   39.03    2.93
  -4  -9   7   43.65    5.03
   4   9   8   20.69    5.12
   4   9  -8   22.24    2.29
   9  -4  -8   19.27    6.07
  -9   4   8   26.49    5.80
  -9   4  -8   18.64    3.54
   9  -4   8   20.45    4.30
  -4  -9   8   26.47    5.61
   4   9   9   24.63    6.65
   4   9  -9   29.85    6.93
   9  -4  -9   30.73    6.20
  -9   4   9   33.44    3.73
  -9   4  -9   28.57    7.13
   9  -4   9   27.32    5.68
  -4  -9   9   27.13    5.21
   4   9  10  107.19    5.30
   4   9 -10  122.87    4.50
   9  -4 -10  114.47    5.48
  -9   4  10  102.24    3.91
  -9   4 -10  119.47    4.34
   9  -4  10  107.70    5.29
  -4  -9  10  102.55    6.52
   4   9  11    2.37    0.80
   9  -4 -11    6.69    1.99
  -9   4  11    6.13    1.70
   9  -4  11    7.81    2.37
  -4  -9  11    3.67    1.68
   9  -4 -12    9.35    2.11
  -9   4  12   11.65    2.53
  -9   4 -12    5.93    2.01
   9  -4  12   11.39    2.73
  -4  -9  12    7.80    2.79
   4   9 -13    3.88    1.11
   9  -4 -13    4.83    1.96
  -9   4  13    3.81    2.15
  -9   4 -13    3.25    0.99
   9  -4  13    7.05    1.45
  -4  -9  13    3.09    1.58
   4   9 -14    3.63    0.95
   9  -4 -14    3.62    0.91
  -9   4  14    3.11    1.34
  -9   4 -14    8.22    1.37
   9  -4  14    4.68    1.70
  -4  -9  14    9.20    1.76
   4   9 -15    1.51    1.21
   9  -4 -15    2.37    1.31
  -9   4  15    0.88    1.51
  -9   4 -15    2.44    1.33
   9  -4  15    0.97    1.34
  -4  -9  15    1.88    1.67
   4   9 -16    3.89    1.28
   9  -4 -16    3.22    0.87
  -9   4  16    1.14    0.93
  -9   4 -16    6.55    1.71
   9  -4  16    0.75    1.32
  -4  -9  16    3.27    1.83
   3   9   0  160.94    4.36
   9  -3   0  164.03    4.10
  -3  -9   0  161.34    4.76
  -9   3   0  156.77    4.30
   3   9   1   22.49    3.89
   3   9  -1   16.66    3.83
   9  -3  -1   18.25    3.89
   9  -3   1   18.15    4.35
  -3  -9   1   18.58    3.24
  -3  -9  -1   19.66    1.67
  -9   3   1   19.39    4.28
  -9   3  -1   15.85    3.38
   3   9   2   76.09    3.24
   3   9  -2   86.95    9.09
   9  -3  -2   83.20    3.98
   9  -3   2   75.48    2.68
  -3  -9  -2   77.81    2.25
  -9   3   2   80.10    3.39
  -9   3  -2   78.53    3.57
  -9   3  -3   55.04    3.84
   3   9   3   53.00    3.74
   3   9  -3   51.35    3.23
   9  -3  -3   56.32    6.24
  -9   3   3   57.10    5.35
  -9   3  -3   54.11    3.70
   9  -3  -3   49.47    3.60
  -3  -9   3   54.75    4.00
  -9   3  -4   26.19    1.75
   3   9   4   21.25    2.29
   3   9  -4   26.98    6.62
   9  -3  -4   23.19    5.94
  -9   3   4   18.05    2.07
  -9   3  -4   22.42    4.94
   9  -3  -4   22.00    0.92
  -3  -9   4   21.59    4.36
  -9   3  -5   77.39    3.66
   3   9   5   67.30    4.97
   3   9  -5   76.39    5.17
   9  -3  -5   72.46    3.76
  -9   3   5   81.48    4.34
  -9   3  -5   71.35    5.68
  -3  -9   5   76.33    8.33
  -9   3  -6   93.33    4.04
   3   9   6  102.19    4.69
   3   9  -6   96.60    7.96
   9  -3  -6   86.82    6.07
  -9   3   6  100.96    6.48
  -9   3  -6   93.11    5.56
  -3  -9   6  100.70    5.18
   3   9   7  106.49    3.59
   3   9  -7  104.39    8.93
   9  -3  -7  103.05    4.01
  -9   3   7  104.55    5.33
  -9   3  -7  101.28    7.91
   9  -3   7  103.88    7.41
  -3  -9   7  100.63    4.17
   3   9   8    9.12    1.93
   3   9  -8    9.26    1.63
   9  -3  -8   10.00    1.95
  -9   3   8   10.88    3.80
  -9   3  -8   11.93    2.31
   9  -3   8   10.74    1.98
  -3  -9   8    8.87    3.12
   3   9   9   94.87    3.22
   3   9  -9   97.47    3.87
   9  -3  -9  100.37    4.07
  -9   3   9   96.54    4.06
  -9   3  -9   90.75   12.07
   9  -3   9  101.98    8.01
  -3  -9   9   94.45    6.56
   3   9  10   22.62    6.87
   3   9 -10   18.87    4.80
   9  -3 -10   26.54    6.23
  -9   3  10   22.83    6.97
  -9   3 -10   22.44    5.47
   9  -3  10   29.85    5.88
  -3  -9  10   25.94    7.21
   3   9  11    8.29    2.36
   3   9 -11   13.14    2.78
   9  -3 -11    9.00    2.34
  -9   3  11   11.53    2.31
  -9   3 -11   11.95    2.80
   9  -3  11   11.53    1.99
  -3  -9  11    8.84    2.44
   3   9 -12   18.66    2.73
   9  -3 -12   15.99    2.76
  -9   3  12   14.80    3.14
  -9   3 -12   19.56    2.38
   9  -3  12   14.16    3.35
  -3  -9  12   15.81    3.89
   3   9 -13    0.18    1.17
   9  -3 -13    0.29    0.83
  -9   3  13   -1.01    1.32
  -9   3 -13    1.34    0.99
   9  -3  13    1.07    1.15
  -3  -9  13    4.36    1.67
   3   9 -14   39.56    7.56
   9  -3 -14   44.13   10.46
  -9   3  14   46.23   10.85
  -9   3 -14   45.79    9.46
   9  -3  14   51.80   12.28
  -3  -9  14   51.76    4.97
   3   9 -15    3.43    1.50
   9  -3 -15    0.55    0.73
  -9   3  15    1.80    1.75
  -9   3 -15    2.70    1.41
   9  -3  15    4.80    1.46
  -3  -9  15    1.38    1.64
   3   9 -16    4.60    1.20
   9  -3 -16    3.34    2.47
  -9   3  16    4.18    1.74
  -9   3 -16    3.33    1.65
   9  -3  16    5.22    1.88
  -3  -9  16    5.76    1.87
   2   9   0  130.06    3.85
   9  -2   0  128.02    3.42
  -9   2   0  128.04    3.89
   2   9   1  204.38    4.79
   2   9  -1  181.68    4.61
   9  -2  -1  179.77    4.10
   9  -2   1  196.33    4.59
  -2  -9  -1  183.12    3.73
  -9   2   1  203.96    4.96
  -9   2  -1  185.60    4.70
   2   9   2   14.75    1.46
   2   9  -2   20.58    2.11
   9  -2  -2   18.14    2.44
   9  -2   2   13.41    3.45
  -2  -9  -2   16.50    1.78
  -9   2   2   10.72    2.38
  -9   2  -2   20.75    3.82
  -2  -9  -2   15.33    1.68
  -2  -9   2   16.55    1.79
   2   9   3  186.95    7.29
   2   9  -3  182.05    7.15
   9  -2  -3  176.69    5.25
   9  -2   3  189.84    4.85
  -9   2  -3  180.10    5.62
  -2  -9   3  185.93    5.79
  -9   2  -4   92.41    2.92
   2   9   4   93.88    3.73
   2   9  -4   88.56    3.84
   9  -2  -4   91.28    4.91
  -9   2   4   89.92    3.73
  -9   2  -4   90.17    6.94
  -2  -9   4   90.41    3.83
  -9   2  -5   39.19    1.55
   2   9   5   40.01    2.57
   2   9  -5   43.83    4.12
   9  -2  -5   42.57    3.31
  -9   2   5   46.31    3.67
  -9   2  -5   43.66    2.80
  -2  -9   5   45.21    8.60
  -9   2  -6    8.72    1.47
   2   9   6    4.70    1.62
   2   9  -6    9.10    2.31
   9  -2  -6    7.19    1.81
  -9   2   6    7.74    1.84
  -9   2  -6   10.86    2.19
  -2  -9   6    4.42    1.27
   2   9   7    5.53    1.73
   2   9  -7    3.20    0.92
   9  -2  -7    8.52    1.95
  -9   2   7    8.70    1.52
  -9   2  -7    4.33    1.34
  -2  -9   7    7.90    1.40
   2   9   8   26.27    5.16
   2   9  -8   25.75    6.32
   9  -2  -8   25.49    3.39
  -9   2   8   22.46    6.11
  -9   2  -8   26.23    2.73
  -2  -9   8   24.43    5.81
   2   9   9    6.32    1.98
   2   9  -9    7.88    1.88
   9  -2  -9    7.84    2.04
  -9   2   9    3.60    1.11
  -2  -9   9    4.98    1.64
   2   9  10   31.23    6.69
   2   9 -10   25.46    5.96
   9  -2 -10   23.99    3.47
  -9   2  10   31.00    8.18
  -9   2 -10   26.65    5.62
  -2  -9  10   31.75    6.36
   2   9 -11   47.84    9.09
   9  -2 -11   50.59    3.89
  -9   2  11   52.00   11.88
  -9   2 -11   49.10    9.11
   9  -2  11   55.17   10.30
  -2  -9  11   53.69    8.47
   2   9  12   38.00    8.38
   2   9 -12   24.63    4.87
   9  -2 -12   26.54    5.72
  -9   2  12   35.35    8.04
  -9   2 -12   28.34    5.86
   9  -2  12   35.97    7.26
  -2  -9  12   38.24    8.97
   2   9 -13   52.94    3.72
   9  -2 -13   49.47   10.33
  -9   2  13   50.60   10.49
  -9   2 -13   43.30    6.60
   9  -2  13   41.84    8.42
  -2  -9  13   42.15   11.57
   2   9 -14   11.81    1.88
   9  -2 -14   11.82    2.38
  -9   2  14   11.74    3.40
  -9   2 -14   12.74    2.44
   9  -2  14   14.64    2.64
  -2  -9  14   17.28    4.56
   2   9 -15   41.87    5.10
   9  -2 -15   36.84    7.95
  -9   2  15   38.66   12.07
  -9   2 -15   44.17    7.71
   9  -2  15   44.95   11.61
  -2  -9  15   33.07   13.08
   2   9 -16    8.74    2.00
   9  -2 -16   10.05    2.83
  -9   2  16    9.26    2.73
  -9   2 -16   12.82    2.23
   9  -2  16    9.30    2.63
  -2  -9  16    6.18    2.27
   1   9   0   13.56    2.64
   9  -1   0   13.41    3.66
  -9   1   0   15.63    4.05
   1   9   1  151.92    4.10
   1   9  -1  154.65    4.23
   9  -1  -1  142.01    3.50
   9  -1   1  151.32    3.47
  -9   1   1  144.64    4.04
  -9   1  -1  152.53    4.22
  -1  -9   1  155.35    4.11
   1   9   2   52.59    2.76
   1   9  -2   52.67    2.82
   9  -1  -2   49.10    2.25
   9  -1   2   51.29    1.96
  -9   1   2   57.71    7.06
  -9   1  -2   47.67    2.56
  -1  -9   2   56.83    2.83
   1   9   3    0.90    1.09
   1   9  -3    4.45    1.88
   9  -1  -3    1.37    0.69
   9  -1   3    1.01    0.43
  -9   1   3    1.62    0.94
  -9   1  -3    2.77    1.30
  -1  -9   3    1.58    1.13
   1   9   4  268.82    7.22
   1   9  -4  271.04    7.42
   9  -1  -4  280.29    7.56
   9  -1   4  267.90    6.02
  -9   1   4  271.51    7.43
  -9   1  -4  274.83    7.36
  -1  -9   4  264.94    7.31
  -9   1  -5   62.75    2.94
   1   9   5   56.09    3.11
   1   9  -5   67.94    8.10
   9  -1  -5   60.94    3.54
  -9   1   5   61.06    8.09
  -9   1  -5   68.99    3.52
  -1  -9   5   51.48    3.17
  -9   1  -6    6.44    1.49
   1   9   6   11.96    1.88
   1   9  -6    8.43    1.96
   9  -1  -6    6.51    1.81
  -9   1   6    9.81    2.63
  -9   1  -6    7.19    1.90
  -1  -9   6   12.72    3.06
   1   9   7   11.53    3.22
   1   9  -7    7.56    1.82
   9  -1  -7    9.30    2.84
  -9   1   7   10.77    2.51
  -9   1  -7   10.43    2.07
  -1  -9   7    9.61    2.46
   1   9   8   79.92    4.68
   1   9  -8   83.88    7.01
   9  -1  -8   78.95    3.39
  -9   1   8   82.49    6.39
  -9   1  -8   82.39    7.22
  -1  -9   8   74.89    8.38
   1   9   9    8.02    2.66
   1   9  -9    4.67    1.55
   9  -1  -9    7.71    2.27
  -9   1   9    9.55    1.88
  -9   1  -9    6.28    1.52
  -1  -9   9    5.11    2.08
   1   9  10   20.78    5.48
   1   9 -10   27.98    2.66
   9  -1 -10   21.28    4.81
  -9   1  10   18.60    4.33
  -9   1 -10   21.82    4.12
  -1  -9  10   26.84    3.64
   1   9  11   26.12    7.01
   1   9 -11   31.32    6.80
   9  -1 -11   36.67    6.15
  -9   1  11   28.64    7.15
  -9   1 -11   39.87    4.36
  -1  -9  11   34.20    2.89
   1   9  12   16.24    4.22
   1   9 -12   17.35    4.15
   9  -1 -12   16.31    3.91
  -9   1  12   21.66    3.66
  -9   1 -12   17.97    2.87
  -1  -9  12   15.33    4.51
   1   9  13   22.81    5.91
   1   9 -13   28.98    5.35
   9  -1 -13   28.08    3.89
  -9   1  13   24.92    6.14
  -9   1 -13   21.87    3.32
   9  -1  13   21.69    5.56
  -1  -9  13   24.39    4.43
   1   9 -14   11.96    3.72
   9  -1 -14    7.72    2.04
  -9   1  14   13.64    3.47
  -9   1 -14   10.28    2.00
   9  -1  14   17.37    4.44
  -1  -9  14   12.31    3.29
   1   9 -15   14.04    2.36
   9  -1 -15   20.54    4.81
  -9   1  15   21.91    4.26
  -9   1 -15   20.14    1.97
   9  -1  15   20.88    4.03
  -1  -9  15   20.59    6.48
   1   9 -16   12.06    2.23
   9  -1 -16    9.36    1.61
  -9   1  16    9.48    2.56
  -9   1 -16    9.40    1.33
   9  -1  16   11.48    2.51
  -1  -9  16    8.21    2.22
   0   9   0    0.70    0.78
   9   0   0   -0.19    0.68
  -9   0   0    2.98    1.22
   0  -9   0   -0.30    0.53
   0   9   1  144.01    4.04
   0   9  -1  139.22    3.93
   9   0  -1  148.90    3.95
   9   0   1  148.23    3.33
  -9   0   1  138.10    3.94
  -9   0  -1  143.42    8.11
   0  -9   1  152.02    4.07
   0   9   2    2.47    0.97
   0   9  -2    2.15    1.09
   9   0  -2    0.80    0.85
   9   0   2    2.94    1.52
  -9   0   2    2.94    1.78
  -9   0  -2    4.78    1.13
   0  -9   2    1.75    0.86
   0   9   3  261.08    5.39
   0   9  -3  252.52    5.49
   9   0  -3  263.58    5.47
   9   0   3  266.12    4.42
   0  -9  -3  265.75    2.76
  -9   0   3  255.01    6.01
  -9   0  -3  262.45    5.61
   0  -9   3  258.29    5.54
   0   9   4  118.67    5.33
   0   9  -4  123.15    6.67
   9   0  -4  113.51    4.65
   9   0   4  121.32    4.00
  -9   0   4  125.55    4.58
  -9   0  -4  121.45   11.38
   0  -9   4  114.48    5.98
   0   9   5  228.84    9.28
   0   9  -5  244.75    6.88
   9   0  -5  233.44    6.77
   9   0   5  237.19    5.53
  -9   0   5  243.49    7.30
  -9   0  -5  241.86    6.77
   0  -9   5  230.56   10.15
  -9   0  -6   28.10    1.37
   0   9   6   25.29    7.31
   0   9  -6   25.83    6.02
   9   0  -6   29.21    2.37
  -9   0   6   26.64    5.25
  -9   0  -6   31.56    5.28
   0  -9   6   31.14    7.41
   0   9   7  178.74    7.28
   0   9  -7  182.67    5.21
   9   0  -7  194.69    8.80
  -9   0   7  183.16   11.43
  -9   0  -7  178.50    4.98
   0  -9   7  186.98    5.47
   0   9   8   59.69    3.68
   0   9  -8   57.76   11.27
   9   0  -8   53.40    3.18
  -9   0   8   54.58    4.62
  -9   0  -8   53.47    3.32
   0  -9   8   56.47    3.37
   0   9   9   93.23    3.56
   0   9  -9   87.27    5.81
   9   0  -9   88.34    4.63
  -9   0   9   95.01    4.07
  -9   0  -9   90.13   10.90
   0  -9   9   92.58    4.06
   0   9  10   19.33    3.58
   0   9 -10   20.70    3.42
   9   0 -10   20.12    3.02
  -9   0  10   17.38    3.66
  -9   0 -10   17.26    3.14
   0  -9  10   20.80    4.74
   0   9  11   39.36    8.61
   0   9 -11   45.14    4.26
   9   0 -11   44.33    3.01
  -9   0  11   42.18   10.55
  -9   0 -11   46.67    6.00
   0  -9  11   42.12    4.26
   0   9  12    0.86    1.13
   0   9 -12    1.72    1.09
   9   0 -12    1.18    0.66
  -9   0  12    1.58    1.39
  -9   0 -12    1.12    0.70
   0  -9  12    0.62    1.04
   0   9  13    0.54    0.83
   0   9 -13    1.52    0.81
   9   0 -13    3.37    1.27
  -9   0  13   -2.13    1.73
  -9   0 -13   -0.54    1.04
   0  -9  13    0.24    1.01
   0   9  14    2.30    1.16
   0   9 -14    1.46    1.04
   9   0 -14    3.53    1.23
  -9   0  14    3.43    1.04
  -9   0 -14    1.42    0.88
   0  -9  14    3.29    1.43
   0   9 -15    0.73    1.08
   9   0 -15    0.04    1.08
  -9   0  15    1.78    1.12
  -9   0 -15    1.80    1.10
   9   0  15    1.94    0.93
   0  -9  15    1.11    1.36
   9   0 -16    3.41    2.86
  -9   0  16    3.57    1.40
  -9   0 -16    2.70    1.12
   9   0  16    1.88    2.07
   0  -9  16    3.84    1.51
  -1   9   0   11.58    1.70
   9   1   0   14.35    2.47
  -9  -1   0   13.94    2.27
  -1   9   0   17.65    1.15
   1  -9   0   19.22    3.10
  -1   9   1  151.28    4.12
  -1   9  -1  158.17    4.36
   9   1  -1  157.49    4.02
   9   1   1  149.71    3.60
  -9  -1   1  146.72    6.24
  -9  -1  -1  157.39    4.18
  -1   9   1  155.52    2.91
  -1   9  -1  151.77    3.35
   1  -9   1  156.83    4.08
  -1   9   2   59.58    4.03
  -1   9  -2   51.49    3.98
   9   1  -2   55.82    5.61
   9   1   2   52.57    1.92
  -9  -1   2   60.32    8.11
  -9  -1  -2   47.56    2.18
  -1   9   2   53.23    2.40
  -1   9  -2   52.67    1.92
   1  -9   2   55.38    7.08
  -1   9   3    2.63    1.24
  -1   9  -3    2.70    0.93
   9   1  -3    0.65    0.44
   9   1   3    3.12    0.86
  -9  -1   3    1.30    1.46
  -9  -1  -3   -0.85    0.92
  -1   9   3    2.88    0.66
  -1   9  -3    2.16    1.01
   1  -9   3    2.14    1.18
  -1   9   4  273.01    7.33
  -1   9  -4  267.90    7.19
   9   1  -4  268.55    7.18
   9   1   4  279.31    6.36
  -9  -1   4  278.84    7.89
  -9  -1  -4  262.69    6.97
  -1   9   4  278.95    5.62
   1  -9   4  268.85    7.33
  -1   9   5   67.49    5.25
  -1   9  -5   57.57    4.66
   9   1  -5   54.54    4.77
   9   1   5   59.27    2.35
  -9  -1   5   56.95    4.19
  -9  -1  -5   64.70    6.15
   1  -9   5   63.24    6.18
  -1   9   6    8.50    2.70
  -1   9  -6   11.97    2.33
   9   1  -6   11.06    3.94
   9   1   6    5.57    1.29
  -9  -1   6   10.56    2.19
  -9  -1  -6    9.10    2.08
   1  -9   6    6.78    1.78
  -1   9   7    9.10    1.70
  -1   9  -7   10.79    2.04
   9   1  -7    7.95    1.74
  -9  -1   7    9.69    2.43
  -9  -1  -7    9.24    1.31
   1  -9   7    8.24    1.85
  -1   9   8   75.49    3.86
  -1   9  -8   80.90    6.02
   9   1  -8   72.98    3.51
  -9  -1   8   75.67    8.23
  -9  -1  -8   85.38    6.56
   1  -9   8   78.36    8.62
  -1   9   9    5.04    1.93
  -1   9  -9    7.73    1.99
   9   1  -9    6.38    2.36
  -9  -1   9    4.49    2.28
  -9  -1  -9    7.12    1.65
   1  -9   9    7.91    2.00
  -1   9  10   25.60    4.16
  -1   9 -10   22.53    5.20
   9   1 -10   25.38    4.30
  -9  -1  10   22.26    7.25
  -9  -1 -10   20.94    4.70
   1  -9  10   27.94    5.24
  -1   9  11   37.94    8.60
  -1   9 -11   26.17    5.52
   9   1 -11   25.57    7.25
  -9  -1  11   33.43    8.16
  -9  -1 -11   32.01    3.54
   1  -9  11   41.66    5.30
  -1   9  12   16.78    3.82
  -1   9 -12   20.04    3.03
   9   1 -12   17.15    2.15
  -9  -1  12   17.58    3.63
  -9  -1 -12   17.43    3.00
   1  -9  12   17.30    4.11
  -1   9  13   23.90    6.12
  -1   9 -13   20.56    3.52
   9   1 -13   29.33    2.89
  -9  -1  13   20.87    4.27
  -9  -1 -13   19.96    3.16
   1  -9  13   23.27    5.15
  -1   9  14   12.73    3.29
  -1   9 -14   12.14    2.60
   9   1 -14   13.75    2.21
  -9  -1  14   16.83    2.80
  -9  -1 -14   10.24    2.71
   1  -9  14   14.68    2.97
  -1   9  15   17.11    5.19
   9   1 -15   19.70    5.77
  -9  -1  15   17.94    4.25
  -9  -1 -15   21.38    4.65
   1  -9  15   14.61    6.26
   9   1 -16   11.88    2.54
  -9  -1  16   11.82    2.72
  -9  -1 -16   10.60    2.23
   9   1  16   10.57    2.36
   1  -9  16   13.90    2.73
  -2   9   0  125.36    3.80
   9   2   0  130.01    3.40
  -9  -2   0  125.97    3.60
  -2   9   0  133.71    2.98
   2  -9   0  122.98    3.43
  -2   9   1  183.88    4.61
  -2   9  -1  194.53    4.73
   9   2  -1  204.37    4.52
   9   2   1  180.78    4.34
  -9  -2   1  179.80    5.26
  -9  -2  -1  192.60    6.64
  -2   9   1  188.11    3.29
   2  -9   1  186.03    7.74
   2  -9  -1  197.84    4.24
  -2   9   2   20.83    2.09
  -2   9  -2   10.65    2.76
   9   2  -2   16.96    3.81
   9   2   2   20.45    1.70
  -9  -2   2   18.59    3.79
  -9  -2  -2   13.53    1.53
  -2   9   2   19.14    1.05
  -2   9  -2   10.53    2.30
   2  -9   2   17.91    1.87
  -2   9   3  178.25    5.89
  -2   9  -3  185.83    6.45
   9   2  -3  184.89    5.93
   9   2   3  187.61    4.93
  -9  -2   3  175.33    5.52
  -9  -2  -3  174.80    5.21
  -2   9   3  173.45    4.16
  -2   9  -3  189.05    5.19
   2  -9   3  172.78    5.31
  -2   9   4   95.55    5.00
  -2   9  -4   92.16    3.85
   9   2  -4   92.26    3.67
   9   2   4   89.27    2.68
  -9  -2   4   94.00    7.16
  -9  -2  -4   93.11    7.47
  -2   9   4   90.43    2.49
  -2   9  -4   84.16    4.04
   2  -9   4   89.83    4.36
  -2   9   5   38.31    8.39
  -2   9  -5   46.50    8.65
   9   2  -5   42.88    3.42
   9   2   5   38.72    2.07
  -9  -2   5   45.94    3.21
  -9  -2  -5   46.63    2.40
  -2   9   5   39.09    1.72
  -2   9  -5   42.53    2.43
   2  -9   5   36.01    8.20
  -2   9   6   11.09    2.80
  -2   9  -6    6.09    2.37
   9   2  -6   10.87    1.75
   9   2   6    9.47    1.19
  -9  -2   6   10.39    2.10
  -2   9   6    8.37    1.08
  -9  -2  -6    9.01    2.05
  -2   9  -6    7.83    1.85
   2  -9   6   10.70    2.04
  -2   9   7    5.57    3.51
  -2   9  -7    7.19    1.42
   9   2  -7    9.56    1.49
  -9  -2   7    8.16    1.79
  -9  -2  -7    9.17    2.50
   2  -9   7    5.84    1.95
  -2   9   8   21.67    5.36
  -2   9  -8   24.81    4.25
   9   2  -8   30.13    5.67
  -9  -2   8   20.39    7.21
  -9  -2  -8   27.70    6.23
   2  -9   8   26.96    6.48
  -2   9   9    9.79    1.59
  -2   9  -9    4.68    2.34
   9   2  -9    8.20    2.30
  -9  -2   9    9.45    2.41
  -9  -2  -9    5.96    1.74
   2  -9   9   10.94    2.26
  -2   9  10   24.89    6.64
  -2   9 -10   28.68    7.32
   9   2 -10   31.72    7.30
  -9  -2  10   23.36    5.04
  -9  -2 -10   25.96    6.07
   2  -9  10   23.41    5.63
  -2   9  11   55.70    8.27
  -2   9 -11   55.70    4.35
   9   2 -11   63.32    6.61
  -9  -2  11   52.82   11.00
  -9  -2 -11   53.27    2.90
   2  -9  11   47.13   11.15
  -2   9  12   27.71    7.26
  -2   9 -12   28.69    5.25
   9   2 -12   32.21    9.06
  -9  -2  12   32.67    8.13
  -9  -2 -12   29.63    4.27
   2  -9  12   30.76    6.81
  -2   9  13   45.52   11.03
  -2   9 -13   38.34    6.80
   9   2 -13   42.93   10.85
  -9  -2  13   49.02    9.88
  -9  -2 -13   52.63    3.55
   2  -9  13   47.70    9.40
  -2   9  14   14.94    2.60
   9   2 -14   13.71    2.59
  -9  -2  14   14.54    2.78
  -9  -2 -14   13.72    2.17
   2  -9  14    8.05    4.49
   9   2 -15   40.54    5.11
  -9  -2  15   41.60    7.09
  -9  -2 -15   35.62    8.76
   2  -9  15   45.86   10.79
  -2   9  16   10.53    3.12
   9   2 -16    8.55    2.03
  -9  -2  16   10.61    3.17
  -9  -2 -16    8.68    2.20
   2  -9  16    9.29    2.16
  -3   9   0  161.66    4.39
   9   3   0  159.11    3.83
  -9  -3   0  158.49    4.65
  -3   9   0  161.49    3.96
   3  -9   0  160.67    3.90
  -3   9   1   18.37    3.45
  -3   9  -1   18.06    4.19
   9   3  -1   19.04    4.54
   9   3   1   16.06    4.46
  -9  -3   1   18.74    3.70
  -9  -3  -1   16.05    1.81
  -3   9   1   18.18    4.06
  -3   9  -1   21.57    3.44
   3  -9   1   21.35    2.51
   3  -9  -1   18.65    4.43
  -3   9   2   77.55    4.01
  -3   9  -2   82.24    3.39
   9   3   2   80.01    2.93
   9   3  -2   74.53    4.11
  -9  -3   2   80.67    6.76
  -9  -3  -2   75.89    3.94
  -3   9   2   78.82    3.49
  -3   9  -2   79.23    4.06
   3  -9   2   82.69    3.34
  -3   9   3   49.32    8.82
  -3   9  -3   56.45    3.51
   9   3   3   52.60    2.03
   9   3  -3   57.98    6.96
  -9  -3   3   51.97    3.78
  -9  -3  -3   57.64    3.49
  -3   9   3   53.74    1.93
  -3   9  -3   58.61    3.02
   3  -9   3   56.31    5.60
  -3   9   4   25.25    5.08
  -3   9  -4   23.66    5.58
   9   3  -4   20.65    4.81
   9   3   4   23.89    3.28
  -9  -3   4   20.79    6.33
  -9  -3  -4   22.32    1.78
  -3   9   4   22.49    2.37
  -3   9  -4   19.84    2.60
   3  -9   4   23.38    4.79
  -3   9   5   75.19    4.34
  -3   9  -5   73.98    3.89
   9   3  -5   70.81    3.71
   9   3   5   74.70    3.15
  -9  -3   5   78.85    7.49
  -9  -3  -5   73.91    4.04
  -3   9   5   73.98    3.39
  -3   9  -5   79.11    5.40
   3  -9   5   75.72    5.78
  -3   9   6   97.20    4.74
  -3   9  -6  113.22    9.70
   9   3  -6   99.65    6.04
   9   3   6   94.29    3.75
  -9  -3   6   87.06    5.21
  -3   9   6   93.08    3.74
  -9  -3  -6  100.81    7.59
  -3   9  -6   98.52    5.82
   3  -9   6   93.65   11.31
  -3   9   7  107.58    4.15
  -3   9  -7  108.90    6.67
   9   3  -7  110.88    4.05
  -9  -3   7   92.70    5.89
  -3   9   7   95.78    3.14
  -9  -3  -7  100.97    4.16
  -3   9  -7  106.50    8.10
   3  -9   7  101.24    4.50
  -3   9   8   10.09    2.80
  -3   9  -8   11.92    2.95
   9   3  -8    9.01    2.15
  -9  -3   8   12.00    2.64
  -9  -3  -8    7.73    1.15
  -3   9  -8    8.45    1.93
   3  -9   8   10.49    2.79
  -3   9   9   93.63    7.91
  -3   9  -9  104.08    6.29
   9   3  -9   95.35    3.88
  -9  -3   9   85.66    6.80
  -9  -3  -9   99.18    3.61
  -3   9  -9   97.43    3.79
   3  -9   9  102.35    4.28
  -3   9  10   19.63    5.18
  -3   9 -10   22.97    4.67
   9   3 -10   21.87    3.23
  -9  -3  10   21.29    3.27
  -9  -3 -10   23.89    2.28
   3  -9  10   25.84    5.71
  -3   9  11    9.06    1.46
  -3   9 -11    7.67    1.02
   9   3 -11    9.68    3.41
  -9  -3  11   11.47    1.82
  -9  -3 -11    8.94    2.13
   3  -9  11   11.33    2.00
  -3   9  12   21.34    3.17
  -3   9 -12   16.55    3.71
   9   3 -12   16.07    2.37
  -9  -3 -12   14.09    1.99
   3  -9  12   20.13    4.71
  -3   9  13    1.92    1.04
   9   3 -13   -1.94    1.38
  -9  -3  13    2.69    1.07
  -9  -3 -13    0.68    0.48
   3  -9  13   -2.52    1.69
  -3   9  14   47.18   11.63
   9   3 -14   44.17   13.13
  -9  -3  14   60.64    6.68
  -9  -3 -14   42.40    8.22
   3  -9  14   50.57   13.84
  -3   9  15    2.28    0.89
   9   3 -15    2.87    0.73
  -9  -3  15    1.68    1.10
   3  -9  15    3.05    1.61
  -3   9  16    5.13    2.06
   9   3 -16   13.47    2.59
  -9  -3  16    4.71    3.20
   3  -9  16    3.31    1.38
  -4   9   0   14.88    3.38
   9   4   0   11.37    2.28
  -9  -4   0   13.22    2.90
  -4   9   0   10.59    3.50
   4  -9   0   12.30    1.53
  -4   9   1   12.78    4.37
  -4   9  -1   10.64    2.39
   9   4   1   10.49    2.36
   9   4  -1   10.21    2.43
  -9  -4   1   11.69    1.94
  -9  -4  -1   10.13    2.07
  -4   9   1   14.17    1.25
  -4   9  -1   12.56    3.08
   4  -9   1   12.49    2.88
   4  -9  -1   10.94    1.77
  -4   9   2   69.57    3.69
  -4   9  -2   75.11    6.85
   9   4   2   74.92    2.89
   9   4  -2   68.34    3.92
  -9  -4   2   70.37    5.81
  -9  -4  -2   76.12    5.35
  -4   9   2   70.91    3.02
  -4   9  -2   70.03    4.62
   4  -9   2   74.02    6.08
   4  -9  -2   75.21    3.73
  -4   9   3   51.75    3.92
  -4   9  -3   47.81    2.57
   9   4   3   49.36    2.92
   9   4  -3   44.61    3.07
  -9  -4   3   50.81    2.69
  -9  -4  -3   44.39    2.77
  -4   9   3   50.82    2.09
  -4   9  -3   47.22    2.28
   4  -9   3   51.92    3.26
  -4   9   4   17.96    4.93
  -4   9  -4   23.86    5.93
   9   4   4   18.32    3.35
   9   4  -4   20.70    2.04
  -9  -4   4   21.92    4.84
  -9  -4  -4   21.08    5.14
  -4   9   4   20.71    2.03
  -4   9  -4   19.68    5.66
   4  -9   4   22.10    2.66
  -4   9   5   56.40    4.69
  -4   9  -5   53.08    5.20
   9   4   5   55.18    2.07
   9   4  -5   43.49    3.37
  -9  -4   5   56.28    3.66
  -4   9   5   52.32    4.14
  -9  -4  -5   46.77    5.44
  -4   9  -5   46.56    3.96
   4  -9   5   62.50    4.21
  -4   9   6  173.58    5.48
  -4   9  -6  167.12    4.76
   9   4   6  173.26    3.90
   9   4  -6  165.84    6.56
  -9  -4   6  177.10    5.37
  -4   9   6  181.88    4.26
  -9  -4  -6  167.89    6.70
  -4   9  -6  167.14    4.89
   4  -9   6  188.89    5.76
  -4   9   7   26.29    5.72
  -4   9  -7   40.71    6.09
  -9  -4   7   27.56    6.54
  -4   9   7   27.32    1.52
  -9  -4  -7   34.86    7.01
  -4   9  -7   37.34    4.00
   4  -9   7   25.79    5.50
  -4   9   8   16.17    3.69
  -4   9  -8   21.13    4.15
   9   4  -8   29.12    2.65
  -9  -4   8   18.86    4.56
  -9  -4  -8   24.12    1.75
  -4   9  -8   18.10    6.53
   4  -9   8   20.53    4.10
  -4   9   9   24.40    6.65
  -4   9  -9   25.74    5.52
   9   4  -9   26.43    6.67
  -9  -4   9   25.66    5.27
  -9  -4  -9   28.60    1.87
  -4   9  -9   24.00    5.19
   4  -9   9   23.70    4.77
  -4   9  10  117.12    7.22
  -4   9 -10  113.48    3.88
   9   4 -10  102.50    6.26
  -9  -4  10  109.67    4.61
  -9  -4 -10  107.81    5.81
  -4   9 -10  117.79    4.43
   4  -9  10  119.13    6.13
  -4   9  11    8.32    1.42
  -4   9 -11    7.26    2.22
   9   4 -11    8.96    1.99
  -9  -4  11    8.02    2.26
  -9  -4 -11    4.84    1.36
   4  -9  11    7.15    2.23
  -4   9  12    9.72    2.34
   9   4 -12    9.55    2.50
  -9  -4  12    9.10    3.17
  -9  -4 -12    7.04    1.30
   4  -9  12    9.37    1.94
  -4   9  13    3.06    1.19
   9   4 -13    3.27    1.50
  -9  -4  13    4.01    1.47
  -9  -4 -13    5.62    0.95
   4  -9  13    2.50    1.53
  -4   9  14    5.05    2.53
   9   4 -14    5.05    1.74
  -9  -4  14    7.08    1.91
   4  -9  14    7.85    2.19
  -4   9  15    0.16    0.57
   9   4 -15   -0.17    1.04
  -9  -4  15    0.80    1.07
   4  -9  15    0.42    1.19
   9   4 -16    3.07    1.28
  -9  -4  16    4.80    1.66
   4  -9  16    2.94    1.65
  -5   9   0   14.77    3.75
   9   5   0   17.75    3.70
  -9  -5   0   18.89    3.62
  -5   9   0   15.73    3.90
   5  -9   0   18.00    1.96
  -5   9   1   53.91    3.71
  -5   9  -1   49.52    3.61
   9   5   1   55.32    3.18
   9   5  -1   50.81    4.15
  -9  -5   1   56.64    2.81
  -9  -5  -1   43.45    8.76
  -5   9   1   54.61    3.29
   5  -9   1   58.63    3.19
   5  -9  -1   45.96    2.66
  -5   9   2   57.48    3.48
  -5   9  -2   53.29    3.68
   9   5   2   51.89    3.58
   9   5  -2   55.67    6.92
  -9  -5   2   55.89    7.78
  -9  -5  -2   52.16    2.59
  -5   9   2   51.42    2.92
  -5   9  -2   53.26    2.86
   5  -9   2   47.26    2.70
   5  -9  -2   56.86    2.94
  -5   9   3   96.00    6.94
  -5   9  -3  101.01    4.75
   9   5   3   97.30    4.31
   9   5  -3  100.05    5.99
  -9  -5   3   94.78    7.45
  -9  -5  -3  103.16    5.78
  -5   9   3   96.47    4.18
  -5   9  -3  102.20    6.03
   5  -9   3   94.51    5.93
  -5   9   4   65.18    8.06
  -5   9  -4   61.01    4.32
   9   5   4   65.77    3.14
   9   5  -4   59.46    6.01
  -9  -5   4   67.94    3.90
  -9  -5  -4   60.00    4.13
  -5   9   4   68.11    4.44
  -5   9  -4   58.31    6.37
   5  -9   4   63.67    4.18
  -5   9   5   11.33    3.17
  -5   9  -5    9.20    3.06
   9   5   5   12.33    1.07
   9   5  -5   13.42    1.95
  -9  -5   5   13.45    2.79
  -5   9   5   11.99    2.95
  -9  -5  -5   11.69    1.41
  -5   9  -5    9.81    3.44
   5  -9   5   11.72    2.01
  -5   9   6    5.80    2.08
  -5   9  -6    7.62    1.35
   9   5   6    5.49    1.38
   9   5  -6    5.63    1.00
  -9  -5   6    3.58    1.44
  -5   9   6    5.71    1.70
  -9  -5  -6    7.90    1.61
  -5   9  -6    7.37    1.88
   5  -9   6    5.99    2.35
  -5   9   7   61.49    3.36
  -5   9  -7   52.00    2.77
   9   5  -7   54.06    3.08
  -9  -5   7   58.09   10.73
  -5   9   7   59.36    2.82
  -9  -5  -7   52.44    3.00
  -5   9  -7   53.64    5.89
   5  -9   7   60.35    6.76
  -5   9   8   45.98    9.65
  -5   9  -8   60.15    2.75
   9   5  -8   57.78    6.22
  -9  -5   8   45.09    7.64
  -5   9   8   49.69    2.13
  -9  -5  -8   54.90    7.61
  -5   9  -8   54.16   11.30
   5  -9   8   52.51    7.06
  -5   9   9   58.95    5.67
  -5   9  -9   56.23    4.23
   9   5  -9   59.70   10.02
  -9  -5   9   55.86   10.60
  -9  -5  -9   55.00    3.00
  -5   9  -9   58.71    3.17
   5  -9   9   61.17    4.56
  -5   9  10   21.94    5.50
  -5   9 -10   21.62    1.49
   9   5 -10   15.16    1.95
  -9  -5  10   20.75    4.55
  -9  -5 -10   16.96    1.54
  -5   9 -10   17.43    3.63
   5  -9  10   19.86    3.87
  -5   9  11   10.08    2.13
  -5   9 -11   13.23    3.00
   9   5 -11   14.22    3.34
  -9  -5  11   11.90    2.04
  -9  -5 -11   12.55    3.05
  -5   9 -11   14.79    3.61
   5  -9  11   13.09    2.80
  -5   9  12   15.49    4.28
   9   5 -12   15.39    3.52
  -9  -5  12   14.81    4.88
  -5   9 -12   17.06    2.77
   5  -9  12   18.82    2.43
  -5   9  13   24.26    6.37
   9   5 -13   20.01    2.87
  -9  -5  13   26.61    6.61
   5  -9  13   21.42    5.40
  -5   9  14    2.65    1.16
   9   5 -14    1.29    1.23
  -9  -5  14    1.43    1.40
   5  -9  14    2.79    2.04
  -5   9  15   21.80    4.96
   9   5 -15   20.77    4.88
  -9  -5  15   22.13    6.01
   5  -9  15   29.87    5.60
  -6   9   0  363.51   13.73
   9   6   0  377.37   13.96
  -9  -6   0  369.97   13.63
  -6   9   0  368.49   13.46
   6  -9   0  374.13   17.91
  -6   9   1   78.01    8.07
  -6   9  -1   68.07    4.24
   9   6   1   67.37    3.41
   9   6  -1   70.61    4.18
  -9  -6   1   79.11    7.21
  -9  -6  -1   70.25    4.27
  -6   9   1   70.67    3.50
  -6   9  -1   68.07    3.46
   6  -9   1   73.59    4.59
   6  -9  -1   64.66    3.24
  -6   9   2   99.59    6.00
  -6   9  -2   93.23    6.82
   9   6   2  100.34    4.58
   9   6  -2   93.32    5.58
  -9  -6   2   95.90    4.54
  -9  -6  -2   92.88    3.59
  -6   9   2   92.88    3.59
  -6   9  -2   94.89    6.35
   6  -9   2   97.58    4.55
   6  -9  -2   92.95    3.93
  -6   9   3    7.93    1.94
  -6   9  -3    1.79    1.59
   9   6   3    4.59    1.37
   9   6  -3    2.53    1.47
  -9  -6   3    3.74    1.04
  -9  -6  -3    2.28    0.80
  -6   9   3    5.03    1.29
  -6   9  -3    0.62    0.94
   6  -9   3    7.30    1.57
  -6   9   4  180.92    5.45
  -6   9  -4  191.56    5.18
   9   6   4  195.58    6.24
   9   6  -4  190.26    6.34
  -9  -6   4  174.52    5.21
  -9  -6  -4  191.72    4.65
  -6   9   4  181.78    4.92
  -6   9  -4  185.67    5.89
   6  -9   4  202.14    5.90
  -6   9   5   50.84    4.03
  -6   9  -5   58.61    5.12
   9   6   5   48.60    3.57
   9   6  -5   56.28    2.97
  -9  -6   5   50.57    5.22
  -6   9   5   45.04    2.68
  -9  -6  -5   56.49    2.48
  -6   9  -5   54.65    7.81
   6  -9   5   60.39    6.61
  -6   9   6    8.27    2.59
  -6   9  -6    4.71    1.52
   9   6   6    7.54    1.54
   9   6  -6    6.05    2.37
  -9  -6   6    6.55    2.10
  -6   9   6    9.29    1.69
  -9  -6  -6    8.95    2.51
  -6   9  -6    7.25    1.49
   6  -9   6    7.58    1.51
  -6   9   7    4.77    2.17
  -6   9  -7    4.95    1.04
   9   6  -7    5.69    1.80
  -9  -6   7    7.24    1.75
  -6   9   7    7.89    1.05
  -9  -6  -7    6.27    1.29
  -6   9  -7    3.44    1.29
   6  -9   7    8.12    1.24
  -6   9   8   18.45    3.66
  -6   9  -8   16.48    3.76
   9   6  -8   19.19    3.14
  -9  -6   8   15.08    3.07
  -6   9   8   15.68    3.58
  -9  -6  -8   15.39    3.65
  -6   9  -8   18.38    4.13
   6  -9   8   16.65    3.26
  -6   9   9   36.61    9.83
  -6   9  -9   37.55    2.75
   9   6  -9   34.99    8.55
  -9  -6   9   32.20    8.30
  -6   9  -9   33.98    6.32
   6  -9   9   41.56    8.71
  -6   9  10   36.98    8.11
  -6   9 -10   29.57    4.70
   9   6 -10   28.96    3.50
  -9  -6  10   30.62    6.60
  -6   9 -10   31.11    5.67
   6  -9  10   36.92    5.77
  -6   9  11   11.54    3.58
   9   6 -11   13.41    2.93
  -9  -6  11   14.52    2.42
  -6   9 -11   12.91    2.90
   6  -9  11   16.74    3.27
  -6   9  12   70.17   13.38
   9   6 -12   77.55    7.11
  -9  -6  12   75.94    5.02
  -6   9 -12   81.21   10.33
   6  -9  12   80.99    8.84
  -6   9  13    2.94    1.14
   9   6 -13    4.69    1.58
  -9  -6  13    3.24    2.00
  -6   9 -13    2.31    0.85
   6  -9  13    4.30    2.09
  -6   9  14    3.98    2.77
   9   6 -14    2.10    1.17
  -9  -6  14    3.60    2.00
   6  -9  14    3.79    2.14
  -6   9  15    0.23    0.79
   9   6 -15    0.62    0.68
  -9  -6  15    1.92    1.32
   6  -9  15    1.95    1.55
  -7   9   0   27.87    6.39
   9   7   0   26.88    6.65
  -9  -7   0   29.53    2.56
  -7   9   0   24.74    5.71
   7  -9   0   22.18    4.73
  -7   9   1   38.70    2.83
  -7   9  -1   44.62    3.38
   9   7   1   44.50    2.33
   9   7  -1   41.85    3.65
  -9  -7   1   43.46    5.15
  -9  -7  -1   40.28    2.63
  -7   9   1   41.19    4.51
  -7   9  -1   42.05    5.20
   7  -9   1   43.49    2.74
   7  -9  -1   38.62    2.30
  -7   9   2   22.67    4.92
  -7   9  -2   24.82    5.59
   9   7   2   20.47    4.37
   9   7  -2   18.14    3.99
  -9  -7   2   21.82    6.36
  -9  -7  -2   20.45    1.59
  -7   9   2   18.76    4.38
  -7   9  -2   20.28    2.27
   7  -9   2   21.39    4.23
   7  -9  -2   17.36    3.28
  -7   9   3   50.25    4.04
  -7   9  -3   55.02    3.20
   9   7   3   51.09    2.57
   9   7  -3   57.26    3.74
  -9  -7   3   47.24    8.75
  -9  -7  -3   60.83    3.49
  -7   9   3   47.87    2.26
  -7   9  -3   56.29    3.56
   7  -9   3   52.10    4.12
  -7   9   4    2.90    1.41
  -7   9  -4    6.98    1.12
   9   7   4    3.93    1.26
   9   7  -4    6.67    1.27
  -9  -7   4    2.46    1.96
  -9  -7  -4    4.46    1.46
  -7   9   4    6.21    1.26
  -7   9  -4    3.06    1.44
   7  -9   4    2.77    1.32
  -7   9   5   63.14    7.47
  -7   9  -5   56.07    3.29
   9   7   5   61.12    4.28
   9   7  -5   66.70    4.82
  -9  -7   5   65.26    4.64
  -7   9   5   63.88    2.56
  -9  -7  -5   57.22    2.33
  -7   9  -5   56.56    7.00
   7  -9   5   65.69    4.33
  -7   9   6   19.87    4.86
  -7   9  -6   16.18    1.71
   9   7   6   13.03    3.95
   9   7  -6   17.76    4.52
  -9  -7   6   15.99    3.11
  -7   9   6   19.22    5.18
  -9  -7  -6   15.00    3.94
  -7   9  -6   13.09    2.13
   7  -9   6   21.95    3.85
  -7   9   7   58.84    3.86
  -7   9  -7   59.54    3.13
   9   7  -7   65.15    7.14
  -9  -7   7   64.86    7.75
  -7   9   7   61.49    3.18
  -7   9  -7   61.99    5.93
   7  -9   7   64.48    7.65
  -7   9   8   79.71   16.33
  -7   9  -8   92.62    4.83
   9   7  -8   95.24    4.96
  -9  -7   8  101.29    8.07
  -7   9   8   90.48    3.10
  -7   9  -8   90.46    3.88
   7  -9   8  102.54    8.97
  -7   9   9   50.31   10.78
  -7   9  -9   51.96    3.99
   9   7  -9   45.54   11.50
  -9  -7   9   55.40   10.03
  -7   9   9   53.76    2.57
  -7   9  -9   51.56   11.27
   7  -9   9   54.78   10.75
  -7   9  10    7.90    1.32
   9   7 -10    9.56    2.21
  -9  -7  10   10.78    2.22
  -7   9 -10    7.30    1.79
   7  -9  10   13.55    2.16
  -7   9  11    1.54    1.34
   9   7 -11    2.04    1.03
  -9  -7  11    1.38    1.01
  -7   9 -11    4.97    2.03
   7  -9  11    7.06    2.50
  -7   9  12   14.99    3.18
   9   7 -12   11.67    3.31
  -9  -7  12    9.53    2.06
  -7   9 -12   12.12    2.28
   7  -9  12   13.94    4.33
  -7   9  13   22.36    6.11
   9   7 -13   26.88    2.85
  -9  -7  13   24.92    3.94
  -7   9 -13   20.68    4.60
   7  -9  13   19.99    4.05
  -7   9  14    4.24    1.76
   9   7 -14    1.22    1.70
  -9  -7  14    0.70    0.81
  -7   9 -14    1.16    0.54
   7  -9  14    2.46    1.33
  -8   9   0    0.72    0.81
   9   8   0    0.81    0.60
  -9  -8   0   -0.29    0.82
  -8   9   0    1.31    0.77
   8  -9   0    1.33    0.61
  -8   9   1   96.18    7.24
  -8   9  -1  120.33    9.25
   9   8   1  106.71    6.64
   9   8  -1  122.64    4.06
  -9  -8   1  110.05    6.22
  -9  -8  -1  117.16    4.89
  -8   9   1  108.98    3.63
  -8   9  -1  118.21    5.88
   8  -9   1  106.14    5.30
   8  -9  -1  120.49    3.44
  -8   9   2    1.14    0.83
  -8   9  -2   -1.10    1.11
   9   8   2   -0.94    0.96
   9   8  -2    1.22    0.68
  -9  -8   2    0.06    0.90
  -9  -8  -2   -0.39    0.71
  -8   9   2    1.08    0.73
  -8   9  -2    0.78    0.80
   8  -9   2   -0.34    0.99
   8  -9  -2    0.64    0.51
  -8   9   3   13.31    2.37
  -8   9  -3   13.32    2.91
   9   8   3   10.64    2.00
   9   8  -3   13.02    3.07
  -9  -8   3   11.94    2.35
  -9  -8  -3   10.21    2.49
  -8   9   3    8.26    1.86
  -8   9  -3    9.36    2.72
   8  -9   3   11.77    2.56
  -8   9   4    2.64    0.96
  -8   9  -4    1.10    0.92
   9   8   4    3.50    1.12
   9   8  -4    1.71    1.04
  -9  -8   4    5.45    1.27
  -9  -8  -4    0.53    0.72
  -8   9   4    2.23    1.08
  -8   9  -4    1.55    1.35
   8  -9   4    3.33    1.16
  -8   9   5   28.01    5.63
  -8   9  -5   22.97    4.91
   9   8   5   22.90    5.12
   9   8  -5   27.32    3.80
  -9  -8   5   26.23    5.74
  -8   9   5   20.10    6.26
  -8   9  -5   27.81    4.53
   8  -9   5   22.71    4.58
  -8   9   6  144.79    4.86
  -8   9  -6  159.28    9.15
   9   8   6  145.88    4.07
   9   8  -6  162.39    5.74
  -9  -8   6  160.01   12.90
  -8   9  -6  161.74    5.23
   8  -9   6  156.17   12.25
  -8   9   7   24.48    5.96
  -8   9  -7   26.25    2.47
   9   8  -7   29.54    7.99
  -9  -8   7   24.26    4.13
  -8   9  -7   24.64    6.92
   8  -9   7   23.13    4.77
  -8   9   8   23.34    6.84
  -8   9  -8   21.21    1.75
   9   8  -8   25.42    6.46
  -9  -8   8   19.94    4.80
  -8   9   8   15.81    5.59
  -8   9  -8   22.67    2.55
   8  -9   8   22.97    5.00
  -8   9   9    0.40    0.75
   9   8  -9    2.25    1.72
  -9  -8   9    3.80    1.04
  -8   9   9    2.17    0.98
  -8   9  -9    1.48    1.02
   8  -9   9    1.43    1.12
  -8   9  10   64.19    8.56
   9   8 -10   53.05   12.05
  -9  -8  10   58.54   10.72
  -8   9 -10   60.14    6.07
   8  -9  10   60.73    9.08
  -8   9  11   20.67    4.32
   9   8 -11   20.64    6.04
  -9  -8  11   16.92    2.78
  -8   9 -11   19.87    4.38
   8  -9  11   19.60    4.10
  -8   9  12    3.58    1.38
   9   8 -12    4.42    2.08
  -9  -8  12    1.44    1.09
  -8   9 -12    3.57    1.52
   8  -9  12    0.93    1.24
   9   8 -13    7.24    2.73
  -9  -8  13    7.65    3.45
  -8   9 -13    8.97    2.21
   8  -9  13    3.15    1.30
  -8   9  14    1.51    0.99
   9   8 -14    0.38    1.07
  -9  -8  14   -1.71    1.64
  -8   9 -14    2.19    1.04
   8  -9  14    3.91    1.74
  -9   9   0   16.44    5.82
   9   9   0   17.06    4.63
  -9  -9   0   17.78    4.62
  -9   9   0   14.17    2.68
   9  -9   0   15.12    3.01
  -9   9   1   47.47    7.92
  -9   9  -1   50.63    7.22
   9   9   1   43.71    2.70
   9   9  -1   46.75    4.10
  -9  -9   1   47.09    3.34
  -9  -9  -1   46.39    2.76
  -9   9   1   42.18    3.06
  -9   9  -1   46.87    7.48
   9  -9   1   37.71    6.75
  -9   9   2  124.48    4.39
  -9   9  -2  121.25    9.73
   9   9   2  124.91    4.20
   9   9  -2  119.44    4.93
  -9  -9   2  118.29    7.33
  -9  -9  -2  114.67    3.00
  -9   9   2  116.73    4.87
  -9   9  -2  115.29    4.17
   9  -9   2  125.38   10.44
  -9   9   3   34.49    7.47
  -9   9  -3   32.38    6.09
   9   9   3   35.26    2.28
   9   9  -3   34.08    6.63
  -9  -9   3   32.53    5.42
  -9   9   3   29.91    8.38
  -9   9  -3   34.17    9.22
   9  -9   3   33.83    4.16
  -9   9   4    1.47    0.79
  -9   9  -4    2.84    1.38
   9   9   4    1.98    0.75
   9   9  -4    2.58    1.10
  -9  -9   4    0.31    0.77
  -9   9   4    1.31    0.55
  -9   9  -4    0.79    0.79
   9  -9   4    0.94    0.61
  -9   9   5    0.10    0.61
  -9   9  -5    1.90    0.98
   9   9   5    1.20    0.36
   9   9  -5   -1.68    1.20
  -9  -9   5    2.20    1.21
  -9   9   5   -0.46    1.00
  -9   9  -5    1.24    1.47
   9  -9   5   -0.12    1.22
  -9   9   6    4.16    1.12
  -9   9  -6   -0.34    0.93
   9   9   6    1.33    0.88
   9   9  -6    0.69    0.96
  -9  -9   6    1.04    0.53
  -9   9   6    1.29    1.06
  -9   9  -6    1.33    1.40
   9  -9   6    1.30    0.80
  -9   9   7   10.87    4.45
  -9   9  -7    8.40    1.36
   9   9  -7    8.45    2.29
  -9  -9   7   11.69    2.10
  -9   9   7    7.57    1.78
  -9   9  -7   12.13    2.78
   9  -9   7    9.72    1.57
  -9   9   8    1.26    1.08
   9   9  -8    3.33    1.54
  -9  -9   8    4.35    1.88
  -9   9   8    2.50    1.45
  -9   9  -8    4.01    1.37
   9  -9   8    3.88    1.12
  -9   9   9   21.82    4.80
   9   9  -9   21.83    4.26
  -9  -9   9   22.66    4.26
  -9   9   9   16.66    4.50
  -9   9  -9   21.18    5.51
   9  -9   9   23.32    3.65
  -9   9  10   34.42    5.72
   9   9 -10   34.60    4.03
  -9  -9  10   32.83    8.22
  -9   9 -10   26.00    7.97
   9  -9  10   33.14    5.05
  -9   9  11    0.85    1.24
   9   9 -11    3.25    1.55
  -9  -9  11    2.86    1.21
  -9   9 -11    6.08    2.07
   9  -9  11    3.02    0.77
  -9   9  12    2.77    1.95
   9   9 -12    1.70    1.18
  -9  -9  12    1.49    0.85
  -9   9 -12   -0.67    1.26
   9  -9  12   -0.24    1.33
  -9   9  13    3.49    2.05
   9   9 -13    5.39    1.64
  -9  -9  13    4.88    1.91
  -9   9 -13    6.91    1.76
   9  -9  13    5.15    1.47
 -10   9   0   69.57    6.37
   9  10   0   64.05   11.04
  -9 -10   0   66.10    7.24
 -10   9   0   75.18    3.37
 -10   9   1   42.27    9.31
 -10   9  -1   33.25    7.57
   9  10   1   37.61    9.26
   9  10  -1   41.75    3.03
  -9 -10   1   44.47    2.65
 -10   9   1   32.05    8.67
 -10   9  -1   34.34    6.87
  10  -9   1   41.54    2.58
 -10   9   2   35.51    6.40
 -10   9  -2   36.68   10.15
   9  10   2   29.52    8.37
   9  10  -2   35.06    7.91
  -9 -10   2   33.81    7.13
 -10   9   2   29.55    7.79
 -10   9  -2   33.17    9.23
  10  -9   2   35.24    5.06
 -10   9   3   15.03    2.36
 -10   9  -3   16.36    2.32
   9  10   3   10.55    2.64
   9  10  -3   13.83    4.15
  -9 -10   3   11.03    2.83
 -10   9   3   12.15    3.19
 -10   9  -3   14.37    3.72
  10  -9   3   13.80    2.42
 -10   9   4    3.39    2.11
 -10   9  -4   10.24    1.82
   9  10   4    5.32    2.84
   9  10  -4   11.38    1.65
  -9 -10   4    6.98    1.73
 -10   9   4    7.25    2.04
 -10   9  -4   10.02    2.80
  10  -9   4    4.13    1.08
 -10   9   5   28.17    5.16
 -10   9  -5   25.16    4.85
   9  10   5   25.83    6.44
   9  10  -5   32.00    3.61
  -9 -10   5   31.25    5.32
 -10   9   5   23.70    8.04
 -10   9  -5   26.61    7.79
  10  -9   5   28.24    4.69
 -10   9   6   14.57    3.19
 -10   9  -6    9.47    2.23
   9  10   6    9.96    4.52
   9  10  -6   14.14    3.41
  -9 -10   6   16.14    2.43
 -10   9   6   12.36    4.02
 -10   9  -6    8.85    3.03
  10  -9   6   11.36    2.39
 -10   9   7   10.28    1.61
   9  10  -7    6.78    2.55
  -9 -10   7    6.14    1.28
 -10   9   7    8.18    1.83
 -10   9  -7    4.97    1.46
  10  -9   7    4.33    1.31
 -10   9   8    0.75    1.08
   9  10  -8    5.27    1.80
  -9 -10   8    3.47    1.30
 -10   9   8    1.65    0.95
 -10   9  -8    5.53    2.57
  10  -9   8    4.06    1.73
 -10   9   9    1.69    1.41
   9  10  -9    1.07    1.43
  -9 -10   9   -0.21    1.55
 -10   9   9    0.99    0.52
 -10   9  -9    1.89    0.85
  10  -9   9   -0.06    1.77
 -10   9  10   11.19    2.56
   9  10 -10    9.07    2.54
  -9 -10  10   12.51    2.79
 -10   9  10    8.51    2.88
 -10   9 -10   10.83    2.10
  10  -9  10   13.58    2.70
 -10   9  11   30.64    5.75
   9  10 -11   28.84    9.08
  -9 -10  11   29.71    5.97
 -10   9 -11   24.63    6.02
  10  -9  11   29.21    6.59
 -10   9  12   20.49    3.44
   9  10 -12   16.37    3.49
  -9 -10  12   17.40    3.61
 -10   9 -12   22.29    2.59
  10  -9  12   20.90    4.56
 -10   8   0    1.04    1.07
   8  10   0    0.41    0.76
  -8 -10   0    1.15    0.77
 -10   8   0    1.82    0.96
  10  -8   0    0.93    0.57
 -10   8   1   26.14    6.71
 -10   8  -1   23.54    4.75
   8  10   1   28.51    5.68
   8  10  -1   24.85    6.18
  -8 -10   1   29.34    2.29
  -8 -10  -1   22.03    2.72
 -10   8   1   26.20    7.36
 -10   8  -1   26.93    5.70
  10  -8   1   26.45    4.84
 -10   8   2    1.35    0.88
 -10   8  -2    3.46    1.06
   8  10   2    1.93    0.93
   8  10  -2    4.50    1.24
  -8 -10   2    2.49    0.97
 -10   8   2    3.41    1.35
 -10   8  -2    3.25    1.38
  10  -8   2    1.60    0.64
 -10   8   3   81.75    9.53
 -10   8  -3   85.62    3.33
   8  10   3   79.35    3.18
   8  10  -3   81.36    6.93
  -8 -10   3   82.12    4.59
 -10   8   3   81.48    3.42
 -10   8  -3   79.12    4.34
  10  -8   3   82.70    4.70
 -10   8   4   17.42    3.29
 -10   8  -4   24.08    4.98
   8  10   4   21.75    5.53
   8  10  -4   23.89    6.29
  -8 -10   4   24.46    4.18
 -10   8   4   19.27    5.21
 -10   8  -4   18.11    7.93
  10  -8   4   22.24    4.46
 -10   8   5    9.23    2.19
 -10   8  -5   10.05    1.69
   8  10   5    7.86    2.56
   8  10  -5    8.79    1.68
  -8 -10   5    9.04    2.79
 -10   8   5    9.10    1.88
 -10   8  -5   11.79    2.19
  10  -8   5    8.91    1.84
 -10   8   6    1.41    1.00
 -10   8  -6    2.56    1.07
   8  10   6    2.16    1.04
   8  10  -6    2.95    1.52
  -8 -10   6    2.84    1.07
 -10   8   6    2.84    0.72
 -10   8  -6    3.30    1.45
  10  -8   6    1.36    0.82
 -10   8   7   32.39    7.21
   8  10   7   25.86    3.55
   8  10  -7   35.55    6.21
  -8 -10   7   29.30    5.86
 -10   8   7   21.20    7.13
 -10   8  -7   29.68    2.63
  10  -8   7   30.50    4.92
 -10   8   8   38.04    8.37
   8  10  -8   41.76    5.67
  -8 -10   8   34.28    7.84
 -10   8   8   34.88    8.79
 -10   8  -8   37.14    7.78
  10  -8   8   37.83    5.86
 -10   8   9   27.97    5.49
   8  10  -9   26.41    4.68
  -8 -10   9   28.29    5.27
 -10   8   9   30.23    2.43
 -10   8  -9   24.74    2.54
  10  -8   9   22.31    4.26
 -10   8  10   -0.11    0.60
   8  10 -10    1.90    1.34
  -8 -10  10    2.98    1.29
 -10   8  10    2.81    1.42
 -10   8 -10   -0.35    1.18
  10  -8  10    1.29    0.82
 -10   8  11    1.80    1.30
   8  10 -11    0.92    1.94
  -8 -10  11    3.47    1.74
 -10   8  11    3.05    1.11
 -10   8 -11    1.59    0.98
  10  -8  11   -1.44    1.32
 -10   8  12    8.40    2.75
   8  10 -12   11.19    2.48
  -8 -10  12    9.58    2.23
 -10   8 -12   10.99    2.50
  10  -8  12   12.05    2.35
 -10   8  13   12.87    3.31
   8  10 -13   11.63    3.28
  -8 -10  13   10.31    4.09
 -10   8 -13    7.74    1.78
  10  -8  13   15.29    3.43
  -8 -10  13   15.16    2.16
 -10   7   0   -0.03    1.03
   7  10   0    1.26    0.98
  -7 -10   0    0.72    1.12
 -10   7   0    1.14    0.91
  10  -7   0   -0.12    0.67
 -10   7   1   56.26    5.39
 -10   7  -1   48.29    7.89
   7  10   1   47.54    5.55
   7  10  -1   43.87    2.75
  -7 -10   1   52.20    3.26
  -7 -10  -1   46.03    3.85
 -10   7   1   52.82    3.29
 -10   7  -1   41.25    4.65
  10  -7   1   51.73    2.57
 -10   7   2   14.00    3.34
 -10   7  -2   12.49    2.96
   7  10   2   15.20    4.14
   7  10  -2   12.73    2.58
  -7 -10   2   12.71    2.31
 -10   7   2   17.66    3.57
 -10   7  -2   12.21    1.87
  10  -7   2   13.21    2.59
 -10   7   3   -0.57    1.25
 -10   7  -3    1.57    0.69
   7  10   3   -0.20    1.05
   7  10  -3   -0.14    1.20
  -7 -10   3    0.54    1.08
 -10   7  -3   -0.68    1.22
  10  -7   3    1.83    0.84
 -10   7   4    5.99    1.46
 -10   7  -4    6.91    1.59
   7  10   4    2.94    1.01
   7  10  -4    5.05    2.52
  -7 -10   4    7.42    2.04
 -10   7   4    9.50    1.63
 -10   7  -4    6.34    0.92
  10  -7   4    6.04    2.17
 -10   7   5   85.35    5.13
 -10   7  -5   87.58    5.46
   7  10   5   99.07    3.67
   7  10  -5   96.75    4.32
  -7 -10   5  101.21    9.42
 -10   7   5   90.10    3.80
 -10   7  -5   96.53   12.71
  10  -7   5   91.39    6.72
 -10   7   6    6.60    1.27
 -10   7  -6    8.78    1.75
   7  10   6    6.46    1.39
   7  10  -6   12.62    2.76
  -7 -10   6    3.35    1.30
 -10   7   6    6.36    1.67
 -10   7  -6   11.14    1.89
  10  -7   6    8.57    1.67
   7  10   7   76.43    4.78
   7  10  -7   68.08    5.12
  -7 -10   7   75.90    4.24
 -10   7   7   79.46    3.48
 -10   7  -7   63.67    4.25
  10  -7   7   82.64    4.32
   7  10   8    3.68    1.42
   7  10  -8    3.62    1.54
  10  -7  -8    8.59    2.39
  -7 -10   8    8.03    1.33
 -10   7   8    7.03    1.53
 -10   7  -8    4.28    1.99
  10  -7   8    5.70    1.49
   7  10  -9   20.13    3.99
  10  -7  -9   22.17    5.01
  -7 -10   9   19.01    4.48
 -10   7   9   21.38    5.55
 -10   7  -9   20.54    5.60
  10  -7   9   17.90    5.15
   7  10 -10   11.34    2.34
  10  -7 -10   10.02    2.09
  -7 -10  10    9.65    2.42
 -10   7  10   11.63    2.70
 -10   7 -10   10.35    2.49
  10  -7  10    7.53    0.76
  -7 -10  10    5.27    1.43
   7  10 -11   39.00    4.87
  10  -7 -11   35.11    9.39
  -7 -10  11   31.41    7.93
 -10   7  11   36.92    2.67
 -10   7 -11   31.59    8.44
  10  -7  11   33.25    5.69
  -7 -10  11   40.45    7.25
   7  10 -12    0.36    1.02
  10  -7 -12    0.36    0.85
  -7 -10  12    2.55    0.96
 -10   7  12    1.89    0.91
 -10   7 -12    1.49    1.28
  10  -7  12    1.23    1.09
  -7 -10  12    1.54    1.44
   7  10 -13    3.76    1.57
  10  -7 -13    3.70    1.11
  -7 -10  13    4.23    1.52
 -10   7  13    1.47    1.09
 -10   7 -13    1.35    1.36
  10  -7  13    4.04    1.67
  -7 -10  13    4.24    2.07
 -10   6   0   16.92    3.76
   6  10   0   17.44    3.93
  -6 -10   0   13.76    2.78
 -10   6   0   17.41    3.09
  10  -6   0   15.91    3.00
 -10   6   1   41.16    3.65
 -10   6  -1   48.52    5.84
   6  10   1   49.27    3.12
   6  10  -1   37.06    3.19
  -6 -10   1   37.99    6.60
  -6 -10  -1   39.55    2.21
 -10   6   1   43.40    3.77
 -10   6  -1   40.42    2.75
  10  -6   1   41.27    2.38
  10  -6  -1   39.78    3.01
 -10   6   2   82.17    5.77
 -10   6  -2   88.52    8.82
   6  10   2   82.62    4.52
   6  10  -2   78.39    9.63
  -6 -10   2   81.82    4.89
 -10   6   2   95.65    3.84
 -10   6  -2   80.93    6.92
  10  -6   2   91.79    3.94
 -10   6  -3   10.91    2.29
   6  10   3   12.49    3.12
   6  10  -3   14.19    2.21
  -6 -10   3   11.08    2.29
 -10   6   3   17.06    3.93
 -10   6  -3    9.63    2.60
  10  -6   3   14.72    2.42
 -10   6  -4   13.44    2.82
   6  10   4   11.03    2.79
   6  10  -4   16.77    3.38
  10  -6  -4   13.12    4.15
  -6 -10   4    9.27    2.03
 -10   6   4   10.05    2.40
 -10   6  -4   16.87    2.83
  10  -6   4   11.02    1.60
 -10   6  -5   15.75    2.68
   6  10   5   16.03    4.15
   6  10  -5   16.18    3.91
  10  -6  -5   15.02    2.62
  -6 -10   5   17.55    3.10
 -10   6   5   17.58    4.79
 -10   6  -5   15.14    4.26
  10  -6   5   19.54    4.44
 -10   6  -6    9.60    1.68
   6  10   6   12.44    3.62
   6  10  -6   11.39    2.70
  10  -6  -6    7.75    2.18
  -6 -10   6   12.35    2.95
 -10   6   6    9.44    1.85
 -10   6  -6    7.35    1.82
  10  -6   6   10.23    1.83
   6  10  -7   24.91    5.78
  10  -6  -7   30.34    6.40
  -6 -10   7   21.54    5.28
 -10   6   7   25.47    2.22
 -10   6  -7   34.74    6.32
  10  -6   7   28.82    5.73
   6  10   8   48.53    2.38
   6  10  -8   51.60    4.96
  10  -6  -8   54.51   11.59
  -6 -10   8   53.56    8.22
 -10   6   8   42.96   11.23
 -10   6  -8   51.96   13.01
  10  -6   8   51.71    8.18
  -6 -10   8   46.09   11.40
   6  10   9   43.93    4.41
   6  10  -9   53.81    4.36
  10  -6  -9   55.34    5.74
  -6 -10   9   46.78    9.59
 -10   6   9   49.26    7.87
 -10   6  -9   52.28    4.76
  10  -6   9   47.30    4.37
  -6 -10   9   53.20    4.30
   6  10 -10   59.32   11.13
  10  -6 -10   65.60    8.45
  -6 -10  10   61.20    6.17
 -10   6  10   59.93    8.33
 -10   6 -10   59.56   13.66
  10  -6  10   61.69    6.03
  -6 -10  10   43.47   11.99
   6  10 -11    8.98    1.78
  10  -6 -11    8.78    1.99
  -6 -10  11    6.32    1.95
 -10   6  11    9.48    2.71
 -10   6 -11    9.51    2.42
  10  -6  11    3.11    1.63
  -6 -10  11    8.36    2.02
   6  10 -12    2.29    1.24
  10  -6 -12    2.78    1.11
  -6 -10  12    1.90    0.69
 -10   6  12    3.02    1.99
 -10   6 -12    4.83    0.82
  10  -6  12    5.26    2.17
  -6 -10  12    3.57    1.13
   6  10 -13    6.91    1.93
  10  -6 -13   11.23    2.82
  -6 -10  13   12.83    3.08
 -10   6  13    8.06    2.52
 -10   6 -13   12.08    3.33
  10  -6  13   10.93    2.29
  -6 -10  13   10.49    4.22
   6  10 -14    8.02    2.93
  10  -6 -14   14.63    3.22
  -6 -10  14   10.35    2.07
 -10   6  14   15.09    2.77
 -10   6 -14   15.34    2.60
  10  -6  14   13.68    3.14
  -6 -10  14   12.55    4.39
 -10   5   0    0.40    0.55
   5  10   0    1.61    0.69
  -5 -10   0    1.06    0.52
 -10   5   0    0.64    1.06
  10  -5   0   -0.60    0.83
 -10   5  -1  236.36    6.50
   5  10   1  255.65    6.68
   5  10  -1  238.88    6.35
  10  -5  -1  239.89    5.87
  -5 -10   1  255.41    9.13
  -5 -10  -1  227.80    5.19
 -10   5   1  256.09    6.55
 -10   5  -1  234.83    6.29
  10  -5   1  256.79    6.13
  10  -5  -1  234.31    5.00
 -10   5  -2  105.18    3.55
   5  10   2  103.48    6.09
   5  10  -2  109.19    4.10
  10  -5  -2  116.16    4.13
  -5 -10   2  110.10    4.34
 -10   5   2  107.43    4.86
 -10   5  -2  106.24    5.10
  10  -5   2  101.38    5.81
  10  -5  -2  107.24    3.01
 -10   5  -3   48.54    2.69
   5  10   3   47.34    4.24
   5  10  -3   54.88    3.61
  10  -5  -3   48.26    5.30
  -5 -10   3   46.52    4.00
 -10   5   3   46.77    5.20
 -10   5  -3   48.45    3.49
  10  -5   3   42.77    4.05
 -10   5  -4   11.33    2.06
   5  10   4    6.78    2.04
   5  10  -4   11.84    2.49
  10  -5  -4   10.12    2.10
  -5 -10   4    6.69    1.65
 -10   5   4    4.68    1.45
 -10   5  -4   10.47    5.15
  10  -5   4    7.94    1.46
 -10   5  -5   76.97    4.49
   5  10   5   81.05    5.12
   5  10  -5   79.83    7.74
  10  -5  -5   68.26    4.61
  -5 -10   5   83.89    5.41
 -10   5   5   86.64    4.08
 -10   5  -5   78.60    4.18
  10  -5   5   87.88    4.89
 -10   5  -6   34.28    4.36
   5  10   6   38.66    5.13
   5  10  -6   33.13    7.18
  10  -5  -6   39.46    8.95
  -5 -10   6   39.27    3.33
 -10   5   6   36.42    2.72
 -10   5  -6   37.74    8.02
  10  -5   6   39.92    6.46
  -5 -10   6   33.87    8.34
   5  10   7   34.42    3.59
   5  10  -7   39.48    8.32
  10  -5  -7   41.29    7.59
  -5 -10   7   32.66    6.49
 -10   5   7   34.37    8.67
 -10   5  -7   39.28    9.17
  10  -5   7   30.26    5.31
  -5 -10   7   33.24    4.90
   5  10  -8   25.26    2.25
  10  -5  -8   22.44    3.00
 -10   5   8   21.83    5.20
 -10   5  -8   22.74    4.98
  10  -5   8   24.33    4.88
  -5 -10   8   26.15    6.59
   5  10   9    0.66    0.58
   5  10  -9    0.67    0.75
  10  -5  -9    2.09    1.40
 -10   5   9    0.78    0.75
 -10   5  -9    3.49    1.51
  10  -5   9    1.57    1.05
  -5 -10   9   -0.08    1.75
   5  10  10   12.95    2.74
   5  10 -10   17.62    3.15
  10  -5 -10   16.91    2.45
 -10   5  10    9.90    4.06
 -10   5 -10   15.22    3.81
  10  -5  10    6.71    2.80
  -5 -10  10   15.32    3.35
   5  10 -11   63.54    6.30
  10  -5 -11   64.17    8.17
 -10   5  11   62.57    9.32
 -10   5 -11   57.36    6.34
  10  -5  11   54.36   10.98
  -5 -10  11   57.91    8.40
   5  10 -12    2.13    0.96
  10  -5 -12    0.01    1.19
 -10   5  12    0.57    2.21
 -10   5 -12    1.30    0.98
  10  -5  12    1.29    1.37
  -5 -10  12    5.15    2.07
   5  10 -13   25.79    4.00
  10  -5 -13   23.13    6.16
 -10   5  13   25.43    6.30
 -10   5 -13   27.70    4.24
  10  -5  13   18.48    2.63
  -5 -10  13   20.41    6.11
   5  10 -14    5.54    1.81
  10  -5 -14    1.78    1.15
 -10   5  14    6.71    1.57
 -10   5 -14    8.02    1.74
  10  -5  14    4.38    1.45
  -5 -10  14    5.77    1.85
   4  10   0   80.43    4.20
  10  -4   0   83.60    3.99
  -4 -10   0   80.46    6.59
 -10   4   0   75.93    6.18
  10  -4   0   78.88    6.36
   4  10   1    7.60    2.17
   4  10  -1    5.09    1.44
  10  -4  -1    8.93    2.05
  -4 -10   1    7.78    1.59
  -4 -10  -1    6.53    1.42
 -10   4   1   10.29    1.80
 -10   4  -1    4.75    1.82
  10  -4   1    7.02    1.28
  10  -4  -1    6.22    1.27
 -10   4  -2   84.97    5.08
   4  10   2   71.47    4.07
   4  10  -2   81.18    8.02
  10  -4  -2   68.89    3.79
  -4 -10   2   72.20    5.85
 -10   4   2   67.38    4.17
 -10   4  -2   68.74    5.24
  10  -4   2   75.37    4.67
  10  -4  -2   74.59    3.48
 -10   4  -3  106.74    4.69
   4  10   3  114.00    4.16
   4  10  -3  115.79    4.23
  10  -4  -3  106.10    8.32
  -4 -10   3  108.92    4.67
 -10   4   3  107.12    4.18
 -10   4  -3  111.21    8.99
  10  -4   3  103.99    4.75
 -10   4  -4  149.77    3.93
   4  10   4  153.59    4.63
   4  10  -4  149.91    4.98
  10  -4  -4  154.38    5.74
 -10   4   4  157.35    4.97
 -10   4  -4  140.33    4.68
  10  -4   4  162.07    7.28
 -10   4  -5   27.88    5.08
   4  10   5   22.18    6.48
   4  10  -5   33.55    5.29
  10  -4  -5   28.12    2.40
 -10   4   5   27.03    4.05
 -10   4  -5   28.38    6.37
  10  -4   5   26.49    4.79
  -4 -10   5   30.71    6.07
 -10   4  -6   52.96    3.01
   4  10   6   58.77    2.79
   4  10  -6   50.31    8.67
  10  -4  -6   51.47   11.35
 -10   4   6   57.14    8.68
 -10   4  -6   48.07    4.29
  10  -4   6   50.06    8.52
  -4 -10   6   65.66   10.51
   4  10   7   63.00    2.83
   4  10  -7   53.82    5.94
  10  -4  -7   55.17    8.87
 -10   4   7   59.63    4.53
 -10   4  -7   53.72    4.83
  10  -4   7   70.56    5.52
  -4 -10   7   62.19    6.33
   4  10   8  128.32    3.93
   4  10  -8  142.56    4.69
  10  -4  -8  132.85    5.55
 -10   4   8  118.67    6.92
 -10   4  -8  151.61   13.10
  10  -4   8  122.51    6.58
  -4 -10   8  126.17    4.62
   4  10  -9   35.93    3.99
  10  -4  -9   35.00    9.50
 -10   4   9   35.35    4.48
 -10   4  -9   40.94    3.21
  10  -4   9   34.77    7.82
  -4 -10   9   38.27    6.71
   4  10  10   22.68    3.60
   4  10 -10   24.16    3.05
  10  -4 -10   28.53    5.20
 -10   4  10   20.94    4.28
 -10   4 -10   19.40    3.78
  10  -4  10   18.87    4.79
  -4 -10  10   21.95    4.65
   4  10  11    0.88    0.52
   4  10 -11    2.64    1.21
  10  -4 -11    4.00    1.37
 -10   4  11    1.54    1.34
 -10   4 -11    2.74    1.73
  10  -4  11   -0.02    1.48
  -4 -10  11    2.25    1.40
   4  10 -12   25.53    3.91
  10  -4 -12   16.69    4.25
 -10   4  12   21.46    5.42
 -10   4 -12   19.18    4.68
  10  -4  12   23.11    4.05
  -4 -10  12   17.54    3.77
   4  10 -13   10.06    2.16
  10  -4 -13   11.22    1.63
 -10   4  13    5.24    1.74
 -10   4 -13    8.23    1.58
  10  -4  13   13.04    2.85
  -4 -10  13   10.61    2.53
   4  10 -14    0.88    1.12
  10  -4 -14    1.34    1.03
 -10   4  14    0.14    1.57
 -10   4 -14    2.01    1.07
  10  -4  14    4.53    1.62
  -4 -10  14    1.65    0.73
   4  10 -15    1.88    1.37
 -10   4  15    0.08    1.41
 -10   4 -15    3.26    1.18
  10  -4  15    4.30    2.00
  -4 -10  15    5.61    2.42
   3  10   0   20.35    2.44
  10  -3   0   18.45    1.86
  -3 -10   0   18.50    1.12
 -10   3   0   17.62    4.83
   3  10   1   48.52    2.94
   3  10  -1   49.04    5.18
  10  -3  -1   44.60    4.14
  10  -3   1   39.78    4.82
  -3 -10   1   44.91    3.60
  -3 -10  -1   40.18    2.64
 -10   3   1   41.56    6.14
 -10   3  -1   46.93    3.87
   3  10   2   56.51    6.43
   3  10  -2   52.64    7.08
  10  -3  -2   51.15    6.87
  10  -3   2   51.07    2.74
 -10   3   2   54.83    2.92
 -10   3  -2   56.31    7.22
 -10   3  -3   13.87    2.76
   3  10   3   16.41    4.14
   3  10  -3   12.58    2.01
  10  -3  -3   11.97    3.80
 -10   3   3   15.78    2.07
 -10   3  -3   11.77    3.03
  10  -3  -3   10.36    1.72
  -3 -10   3   11.48    2.06
 -10   3  -4   53.78    2.95
   3  10   4   48.49    3.17
   3  10  -4   55.88    3.31
  10  -3  -4   65.71    3.85
 -10   3   4   49.13    3.27
 -10   3  -4   61.81    6.15
  -3 -10   4   45.93    5.32
 -10   3  -5   13.14    1.91
   3  10   5   16.50    4.27
   3  10  -5   14.39    3.82
  10  -3  -5   13.46    2.54
 -10   3   5   16.74    3.96
 -10   3  -5   11.34    2.07
  -3 -10   5   17.23    2.89
   3  10   6   19.62    5.77
   3  10  -6   19.70    5.07
  10  -3  -6   16.40    4.70
 -10   3   6   23.84    5.16
 -10   3  -6   19.79    4.74
  -3 -10   6   18.66    2.32
   3  10   7   15.65    3.92
   3  10  -7   19.11    4.25
  10  -3  -7   18.34    4.23
 -10   3   7   19.35    4.43
 -10   3  -7   23.27    2.80
  -3 -10   7   16.80    3.97
   3  10   8  110.80    3.63
   3  10  -8   95.93    4.11
  10  -3  -8   97.41    3.99
 -10   3   8  114.80    5.94
 -10   3  -8   98.85    7.64
  -3 -10   8  110.28    6.09
   3  10   9   11.21    3.68
   3  10  -9   11.74    3.35
  10  -3  -9   11.84    3.10
 -10   3   9   16.40    3.43
 -10   3  -9   14.47    2.05
  10  -3   9   14.02    3.85
  -3 -10   9   17.81    2.45
   3  10  10   17.77    4.17
   3  10 -10   20.97    4.04
  10  -3 -10   19.16    3.37
 -10   3  10   19.23    4.60
 -10   3 -10   21.29    3.68
  10  -3  10   19.64    3.25
  -3 -10  10   17.23    3.81
   3  10  11   40.48    2.32
   3  10 -11   40.88    8.19
  10  -3 -11   37.95    8.40
 -10   3  11   40.03    8.96
 -10   3 -11   43.12   10.80
  10  -3  11   39.85    9.39
  -3 -10  11   38.99   11.18
   3  10 -12   11.48    3.04
  10  -3 -12   16.71    3.46
 -10   3  12   13.89    2.86
 -10   3 -12   14.94    2.82
  10  -3  12   14.79    3.03
  -3 -10  12   14.90    5.10
  10  -3 -13    6.66    2.20
 -10   3  13    7.73    1.50
 -10   3 -13    4.02    1.44
  10  -3  13    5.54    2.14
  -3 -10  13    3.78    2.36
   3  10 -14   25.88    3.12
  10  -3 -14   21.17    3.92
 -10   3  14   23.48    7.54
 -10   3 -14   27.63    2.76
  10  -3  14   20.31    6.51
  -3 -10  14   20.00    4.51
   3  10 -15    7.44    2.45
  10  -3 -15    7.23    1.03
 -10   3  15    3.98    1.41
 -10   3 -15    6.52    1.41
  10  -3  15    5.68    2.40
  -3 -10  15    8.37    1.81
   2  10   0   48.32    2.83
  10  -2   0   50.46    2.21
 -10   2   0   51.18    3.06
   2  10   1   47.29    2.51
   2  10  -1   59.06   10.72
  10  -2  -1   58.97    4.64
  10  -2   1   49.94    2.04
  -2 -10  -1   55.52    2.63
 -10   2   1   49.84    4.85
 -10   2  -1   53.89    3.95
   2  10   2  123.58    5.52
   2  10  -2  132.19    6.03
  10  -2  -2  121.09    5.59
  10  -2   2  119.56    4.83
  -2 -10  -2  119.32    4.22
 -10   2   2  118.85    5.45
 -10   2  -2  128.56    5.89
  -2 -10   2  124.33    9.29
   2  10   3  100.37    5.78
   2  10  -3   90.25    6.51
  10  -2  -3   87.98    4.31
  10  -2   3   96.69    4.15
 -10   2   3   91.80    5.27
 -10   2  -3   93.57    6.40
  -2 -10   3   91.98    4.73
 -10   2  -4   38.76    3.39
   2  10   4   38.17    9.30
   2  10  -4   36.15    7.87
  10  -2  -4   39.03    5.18
 -10   2   4   36.45    4.25
 -10   2  -4   36.06    6.52
  -2 -10   4   38.03    8.94
 -10   2  -5   24.23    1.67
   2  10   5   21.90    2.63
   2  10  -5   23.19    5.69
  10  -2  -5   25.00    5.16
 -10   2   5   24.34    3.89
 -10   2  -5   24.25    3.63
  -2 -10   5   25.37    4.70
   2  10   6   76.34    5.73
   2  10  -6   70.85    4.06
  10  -2  -6   68.18    4.61
 -10   2   6   79.05    4.85
 -10   2  -6   74.38    5.89
  -2 -10   6   82.45    4.89
   2  10   7    2.20    0.84
   2  10  -7    2.84    1.37
  10  -2  -7    0.96    0.72
 -10   2   7    2.07    1.08
 -10   2  -7   -0.78    1.04
  -2 -10   7    1.40    2.10
   2  10   8   53.31    2.65
   2  10  -8   56.79    3.24
  10  -2  -8   50.88    3.47
 -10   2   8   57.06    5.36
 -10   2  -8   62.46    3.15
  -2 -10   8   55.42    5.84
   2  10   9   18.70    4.56
   2  10  -9   10.19    2.78
  10  -2  -9   12.27    3.82
 -10   2   9   18.96    4.83
 -10   2  -9   15.50    3.36
  -2 -10   9   14.64    2.73
   2  10  10   26.12    2.53
   2  10 -10   27.43    5.56
  10  -2 -10   30.78    4.27
 -10   2  10   26.93    5.47
 -10   2 -10   28.64    5.05
  -2 -10  10   32.70    3.62
   2  10  11    3.91    1.17
  10  -2 -11    6.77    1.73
 -10   2  11    3.11    1.14
 -10   2 -11    5.66    2.10
  10  -2  11    1.76    1.35
  -2 -10  11    3.33    1.74
   2  10  12   36.73    8.15
   2  10 -12   40.07    5.72
  10  -2 -12   37.00    3.75
 -10   2  12   36.84   10.63
 -10   2 -12   36.55    9.62
  10  -2  12   36.35    7.32
  -2 -10  12   46.04    7.62
   2  10 -13   26.85    4.71
  10  -2 -13   24.71    5.26
 -10   2  13   28.52    6.96
 -10   2 -13   29.57    6.05
  10  -2  13   26.59    5.71
  -2 -10  13   29.01    5.62
   2  10 -14    3.29    1.29
  10  -2 -14    5.21    1.61
 -10   2  14    4.43    1.94
 -10   2 -14    4.59    2.02
  10  -2  14    0.75    1.15
  -2 -10  14    5.82    2.89
  10  -2 -15   12.66    2.93
 -10   2  15    7.04    3.78
  10  -2  15   11.74    2.44
  -2 -10  15   15.02    3.40
   1  10   0  114.07    4.22
  10  -1   0  118.25    3.96
 -10   1   0  116.42    4.47
   1  10   1   27.42    6.85
   1  10  -1   32.33    2.24
  10  -1  -1   35.81    4.41
  10  -1   1   31.92    3.14
 -10   1   1   30.58    2.53
 -10   1  -1   34.60    7.16
  -1 -10   1   33.10    2.41
   1  10   2  141.97    4.87
   1  10  -2  149.91    5.30
  10  -1  -2  149.86    4.82
  10  -1   2  137.66    4.21
 -10   1   2  126.39    8.01
 -10   1  -2  154.62    5.24
  -1 -10   2  126.65    4.61
   1  10   3    1.36    1.04
   1  10  -3    1.27    1.64
  10  -1  -3    1.31    0.95
  10  -1   3    1.33    0.75
 -10   1   3    1.46    1.67
 -10   1  -3    4.21    2.07
  -1 -10   3    0.45    1.85
   1  10   4   85.42    4.53
   1  10  -4   86.52    5.21
  10  -1  -4   70.51    4.63
  10  -1   4   85.38    3.48
 -10   1   4   90.55    4.58
 -10   1  -4   72.77    6.31
  -1 -10   4   88.80    9.71
 -10   1  -5   12.46    2.86
   1  10   5   15.39    3.44
   1  10  -5   17.49    3.17
  10  -1  -5   15.20    4.11
 -10   1   5   14.70    3.36
 -10   1  -5   16.21    2.46
  -1 -10   5   12.24    2.29
   1  10   6   45.04    5.24
   1  10  -6   52.79    4.10
  10  -1  -6   49.60    2.85
 -10   1   6   52.18    3.97
 -10   1  -6   58.11    4.05
  -1 -10   6   52.97    6.06
   1  10   7   20.88    4.66
   1  10  -7   19.46    4.57
  10  -1  -7   22.38    6.33
 -10   1   7   25.64    6.66
 -10   1  -7   22.49    2.32
  -1 -10   7   27.15    4.97
   1  10   8   69.04    5.09
   1  10  -8   76.87    5.36
  10  -1  -8   79.39    3.54
 -10   1   8   72.65    4.21
 -10   1  -8   74.73    3.55
  -1 -10   8   67.75    7.23
   1  10   9    8.89    2.40
   1  10  -9   10.11    1.94
  10  -1  -9    6.66    2.02
 -10   1   9    8.79    1.70
 -10   1  -9    5.81    1.47
  -1 -10   9    3.68    1.71
   1  10  10   43.90    4.11
   1  10 -10   35.75    2.95
  10  -1 -10   37.20    2.81
 -10   1  10   49.45    5.67
 -10   1 -10   38.24    7.98
  -1 -10  10   40.56    5.96
   1  10  11   13.10    3.74
   1  10 -11    7.14    2.26
  10  -1 -11    8.94    2.29
 -10   1  11    7.86    2.64
 -10   1 -11    8.40    2.69
  -1 -10  11   10.64    2.77
   1  10  12   29.75    6.28
   1  10 -12   32.90    6.07
  10  -1 -12   24.37    4.21
 -10   1  12   31.44    8.30
 -10   1 -12   29.29    4.19
  -1 -10  12   34.59    7.72
   1  10  13   13.51    2.50
   1  10 -13   15.64    3.28
  10  -1 -13   11.42    2.33
 -10   1  13   13.47    2.75
 -10   1 -13   16.51    4.56
  10  -1  13   15.29    3.20
  -1 -10  13   13.88    4.35
   1  10 -14   32.10    3.15
  10  -1 -14   28.27    4.53
 -10   1  14   25.78    5.35
 -10   1 -14   29.23    2.59
  10  -1  14   27.42    8.12
  -1 -10  14   23.84    5.50
   1  10 -15    2.48    1.19
  10  -1 -15    3.78    1.58
 -10   1  15    4.32    1.57
 -10   1 -15    1.99    1.03
  10  -1  15    2.34    1.20
  -1 -10  15    5.00    1.87
   0  10   0   14.66    2.84
  10   0   0   13.39    3.40
 -10   0   0   13.84    3.01
   0  10   1   40.10    2.62
   0  10  -1   38.40    2.77
  10   0  -1   39.44    4.71
  10   0   1   39.12    2.31
 -10   0   1   40.19    3.04
 -10   0  -1   41.63    2.71
   0 -10   1   39.88    3.02
   0  10   2   96.40    3.88
   0  10  -2   96.33    4.40
  10   0  -2   99.09    4.25
  10   0   2   96.00    5.24
 -10   0   2   94.35    4.08
 -10   0  -2   97.27    4.86
   0 -10   2   95.54    3.94
   0  10   3  139.43    6.04
   0  10  -3  143.96    6.36
  10   0  -3  136.31    5.93
  10   0   3  135.94    5.97
 -10   0   3  138.25    6.11
 -10   0  -3  139.96    6.03
   0 -10   3  142.69    6.26
   0  10   4   42.19    5.32
   0  10  -4   42.14    3.20
  10   0  -4   44.03    2.82
  10   0   4   44.01    1.68
 -10   0   4   45.34    2.85
 -10   0  -4   45.18    4.66
   0 -10   4   46.21    4.18
   0  10   5   21.28    5.52
   0  10  -5   18.35    3.69
  10   0  -5   21.21    2.39
  10   0   5   20.65    2.46
 -10   0   5   21.03    5.58
 -10   0  -5   19.83    5.83
   0 -10   5   17.93    4.45
   0  10   6   35.16    8.13
   0  10  -6   35.66    3.67
  10   0  -6   31.41    2.55
 -10   0   6   32.89    8.59
 -10   0  -6   37.64    2.74
   0 -10   6   35.23    4.14
   0  10   7   69.66    5.27
   0  10  -7   73.96    6.35
  10   0  -7   71.67    5.12
 -10   0   7   66.10    7.05
 -10   0  -7   71.21    5.54
   0 -10   7   71.96    9.96
   0  10   8    7.78    2.32
   0  10  -8    9.24    1.63
  10   0  -8    5.51    1.47
 -10   0   8    5.32    2.66
 -10   0  -8    6.95    2.51
   0 -10   8    6.37    2.45
   0  10   9   45.12    6.23
   0  10  -9   53.18    4.35
  10   0  -9   49.69    3.57
 -10   0   9   42.23   11.22
 -10   0  -9   54.60    8.32
   0 -10   9   46.28   11.22
   0  10  10   37.82    8.85
   0  10 -10   36.54   10.42
  10   0 -10   40.87    3.03
 -10   0  10   38.02    9.64
 -10   0 -10   37.40    7.31
   0 -10  10   36.60   11.74
   0  10  11    1.52    1.79
   0  10 -11    0.73    1.34
  10   0 -11    3.61    1.71
 -10   0  11   -0.61    1.53
 -10   0 -11    2.35    0.86
   0 -10  11   -0.32    1.50
   0  10  12   10.57    3.21
   0  10 -12   11.53    2.40
  10   0 -12   12.88    3.11
 -10   0  12   11.02    3.57
 -10   0 -12    9.93    1.61
   0 -10  12   10.33    3.28
   0  10  13   16.96    3.35
   0  10 -13   16.11    3.07
  10   0 -13   14.67    4.70
 -10   0  13   15.21    3.90
 -10   0 -13   12.14    3.00
   0 -10  13   14.81    3.65
   0  10  14    1.89    0.89
   0  10 -14    1.57    1.01
  10   0 -14    0.40    0.38
 -10   0  14   -0.30    1.53
 -10   0 -14   -0.10    0.85
   0 -10  14    0.81    0.57
  10   0 -15   13.05    2.93
 -10   0  15   15.04    2.76
 -10   0 -15   12.45    2.63
  10   0  15   14.20    2.40
   0 -10  15   16.02    5.64
  -1  10   0  117.61    4.44
  10   1   0  111.17    4.56
 -10  -1   0  117.83    4.41
  -1  10   0  120.45    3.65
   1 -10   0  118.75    4.30
  -1  10   1   33.69    3.16
  -1  10  -1   42.58    4.39
  10   1  -1   33.29    2.22
  10   1   1   32.28    2.81
 -10  -1   1   33.72    2.56
 -10  -1  -1   34.01    6.85
  -1  10   1   35.34    1.40
   1 -10   1   38.40    3.12
  -1  10   2  149.08    4.92
  -1  10  -2  134.47    4.84
  10   1  -2  136.16    4.70
  10   1   2  154.34    4.36
 -10  -1   2  143.93    7.19
 -10  -1  -2  138.95    4.80
  -1  10   2  151.43    3.85
   1 -10   2  149.36    4.95
  -1  10   3    2.92    1.39
  -1  10  -3   -1.47    1.41
  10   1  -3    0.44    0.92
  10   1   3    2.11    0.88
 -10  -1   3    4.17    1.70
 -10  -1  -3    0.55    0.55
   1 -10   3    4.06    1.36
  -1  10   4   68.65    4.45
  -1  10  -4   77.92    5.64
  10   1  -4   82.81    4.33
  10   1   4   76.61    3.23
 -10  -1   4   77.80    7.38
 -10  -1  -4   82.90    4.24
   1 -10   4   74.18    4.09
  -1  10   5   19.09    4.67
  -1  10  -5   15.13    2.74
  10   1  -5   11.30    2.44
  10   1   5   15.68    1.84
 -10  -1   5   12.96    3.80
 -10  -1  -5   13.12    2.13
   1 -10   5   14.86    2.58
  -1  10   6   48.90    5.02
  -1  10  -6   51.64    5.85
  10   1  -6   45.82    3.04
 -10  -1   6   53.43    8.01
 -10  -1  -6   52.80    4.70
   1 -10   6   50.18    3.25
  -1  10   7   21.11    4.52
  -1  10  -7   19.93    7.52
  10   1  -7   22.34    5.72
 -10  -1   7   24.24    6.25
 -10  -1  -7   20.24    4.60
   1 -10   7   20.73    5.78
  -1  10   8   72.30    7.83
  -1  10  -8   83.37    7.65
  10   1  -8   68.46    4.63
 -10  -1   8   70.09    4.47
 -10  -1  -8   71.33    3.37
   1 -10   8   86.80    3.98
  -1  10   9    8.62    2.23
  -1  10  -9    7.57    1.99
 -10  -1   9    6.84    2.70
 -10  -1  -9    3.24    1.63
   1 -10   9    6.72    1.88
  -1  10  10   30.19    6.36
  -1  10 -10   37.39    8.31
  10   1 -10   40.16    9.39
 -10  -1  10   30.89    6.79
 -10  -1 -10   39.84    9.09
   1 -10  10   37.70    7.59
  -1  10  11    7.40    2.12
  -1  10 -11    9.46    1.73
  10   1 -11   12.52    2.06
 -10  -1  11   12.67    2.17
 -10  -1 -11   10.32    4.44
   1 -10  11    9.98    2.98
  -1  10  12   31.40    7.21
  -1  10 -12   28.90    4.40
  10   1 -12   37.99    3.53
 -10  -1  12   26.58    8.05
 -10  -1 -12   32.33    5.23
   1 -10  12   32.69    3.32
  -1  10  13   12.59    4.51
  -1  10 -13   12.07    2.47
  10   1 -13   14.20    2.06
 -10  -1  13   16.37    3.67
 -10  -1 -13   17.10    2.25
   1 -10  13   11.48    2.95
  -1  10  14   27.10    6.23
  -1  10 -14   25.97    2.84
  10   1 -14   26.03    6.31
 -10  -1  14   32.04    6.30
 -10  -1 -14   25.49    4.34
   1 -10  14   30.40    7.23
  -1  10  15    2.22    1.66
  10   1 -15    2.06    1.44
 -10  -1  15    4.15    1.39
 -10  -1 -15    3.40    1.58
   1 -10  15    1.13    1.32
  -2  10   0   56.46    6.43
  10   2   0   58.58    3.14
 -10  -2   0   51.05    2.87
  -2  10   0   53.91    1.91
   2 -10   0   56.43    2.96
  -2  10   1   52.14    3.18
  -2  10  -1   54.00    2.98
  10   2  -1   48.94    3.31
  10   2   1   51.72    3.58
 -10  -2   1   57.62    8.74
 -10  -2  -1   48.43    8.83
  -2  10   1   51.08    3.50
  -2  10  -1   50.71    2.03
   2 -10   1   53.73    3.38
  -2  10   2  120.75    8.73
  -2  10  -2  117.65    9.75
  10   2  -2  118.28    5.22
  10   2   2  119.41    6.23
 -10  -2   2  125.36    5.80
 -10  -2  -2  115.70    6.54
  -2  10   2  124.47    5.16
  -2  10  -2  120.03    5.01
   2 -10   2  122.84    5.57
  -2  10   3   91.73    6.69
  -2  10  -3   90.80    4.50
  10   2  -3   97.65    6.88
  10   2   3   95.72    4.11
 -10  -2   3   97.70    4.94
 -10  -2  -3  100.80    5.36
  -2  10   3   96.57    3.68
  -2  10  -3  106.90    4.73
   2 -10   3   94.83    4.89
  -2  10   4   38.09    2.81
  -2  10  -4   33.74    3.71
  10   2  -4   40.30    4.72
  10   2   4   37.93    1.63
 -10  -2   4   39.13    9.34
 -10  -2  -4   42.51    6.51
  -2  10   4   36.74    1.15
  -2  10  -4   33.02    7.44
   2 -10   4   38.30    3.90
  -2  10   5   19.93    5.57
  -2  10  -5   20.57    3.76
  10   2  -5   24.11    5.50
  10   2   5   19.18    2.73
 -10  -2   5   22.79    4.38
 -10  -2  -5   25.87    2.56
  -2  10  -5   20.84    5.96
   2 -10   5   22.56    4.10
  -2  10   6   68.04    4.35
  -2  10  -6   81.80    6.52
  10   2  -6   73.31    3.66
 -10  -2   6   69.23   12.47
 -10  -2  -6   83.87    5.67
   2 -10   6   70.85    5.82
  -2  10   7    1.97    0.67
  -2  10  -7    2.02    0.84
  10   2  -7    0.96    1.36
 -10  -2   7    1.40    0.75
 -10  -2  -7    1.37    0.96
   2 -10   7    3.29    1.37
  -2  10   8   59.91    3.25
  -2  10  -8   59.68    3.63
  10   2  -8   54.66    3.38
 -10  -2   8   58.77   10.56
 -10  -2  -8   55.55    7.41
   2 -10   8   59.45    5.84
  -2  10   9   14.06    2.54
  -2  10  -9   15.67    4.16
  10   2  -9   23.30    3.29
 -10  -2   9   15.65    3.74
 -10  -2  -9   19.03    3.92
   2 -10   9   12.88    1.75
  -2  10  10   27.74    5.55
  -2  10 -10   24.83    5.40
  10   2 -10   27.40    5.37
 -10  -2  10   33.25    8.59
 -10  -2 -10   28.36    4.47
   2 -10  10   32.50    4.88
  -2  10  11    3.04    0.89
  -2  10 -11    3.66    1.99
  10   2 -11    2.55    1.28
 -10  -2  11    1.74    1.03
 -10  -2 -11    3.27    1.09
   2 -10  11    1.97    1.38
  -2  10  12   36.03    7.54
  -2  10 -12   34.74    5.23
  10   2 -12   35.49    2.97
 -10  -2  12   29.19    7.64
 -10  -2 -12   36.13    5.54
   2 -10  12   35.92    6.25
  -2  10  13   31.81    7.32
  -2  10 -13   32.15    2.62
  10   2 -13   24.83    4.57
 -10  -2  13   29.78    7.37
 -10  -2 -13   26.63    7.92
   2 -10  13   26.93    6.38
  -2  10  14    4.53    1.12
  10   2 -14    7.00    1.90
 -10  -2  14    3.16    1.42
 -10  -2 -14    5.03    1.37
   2 -10  14    2.31    1.95
  -2  10  15   17.05    3.32
  10   2 -15   10.97    4.04
 -10  -2  15   18.71    4.15
 -10  -2 -15   12.87    2.53
   2 -10  15   17.29    4.39
  -3  10   0   19.52    6.95
  10   3   0   17.92    4.81
 -10  -3   0   18.37    3.72
  -3  10   0   19.74    3.29
   3 -10   0   19.59    2.46
  -3  10   1   42.39    4.55
  -3  10  -1   43.72    2.73
  10   3  -1   39.89    3.76
  10   3   1   45.49    2.13
 -10  -3   1   44.39   10.66
 -10  -3  -1   46.42    4.89
  -3  10   1   43.40    2.06
  -3  10  -1   44.72    2.00
   3 -10   1   45.01    2.42
   3 -10  -1   42.07    2.30
  -3  10   2   47.79    3.11
  -3  10  -2   52.69    2.88
  10   3  -2   48.44    5.17
  10   3   2   49.99    2.14
 -10  -3   2   56.21    6.30
 -10  -3  -2   58.78    5.86
  -3  10   2   50.36    1.95
  -3  10  -2   53.59    2.24
   3 -10   2   47.66    2.74
  -3  10   3   12.87    3.69
  -3  10  -3   17.55    3.09
  10   3  -3   13.23    3.20
  10   3   3   11.87    2.82
 -10  -3   3    9.56    1.77
 -10  -3  -3   10.71    2.92
  -3  10   3   13.53    2.36
  -3  10  -3   12.96    2.73
   3 -10   3   14.61    2.20
  -3  10  -4   45.05    3.95
  10   3  -4   49.40    7.27
  10   3   4   55.23    2.17
 -10  -3   4   50.13    3.69
  -3  10  -4   44.68    2.43
   3 -10   4   61.84    7.42
  -3  10   5   13.35    3.19
  -3  10  -5   13.45    2.60
  10   3  -5   18.16    2.10
  10   3   5   11.99    2.42
 -10  -3   5   16.77    3.57
 -10  -3  -5   15.57    2.97
  -3  10   5   12.62    2.57
  -3  10  -5   17.40    2.78
   3 -10   5   12.11    1.99
  -3  10   6   23.83    5.87
  -3  10  -6   22.92    4.46
  10   3  -6   20.10    5.34
 -10  -3   6   19.63    4.61
 -10  -3  -6   18.20    3.62
  -3  10  -6   19.01    3.92
   3 -10   6   22.04    5.00
  -3  10   7   19.00    4.78
  -3  10  -7   18.55    3.09
  10   3  -7   19.98    3.83
 -10  -3   7   23.59    5.07
 -10  -3  -7   17.29    1.63
  -3  10  -7   15.02    3.69
   3 -10   7   21.53    3.82
  -3  10   8   97.83    6.24
  -3  10  -8  113.35    7.13
  10   3  -8  112.69    4.30
 -10  -3   8   99.02   12.95
 -10  -3  -8  114.86    5.29
  -3  10  -8  112.58    5.77
   3 -10   8  100.35    4.06
  -3  10   9   13.01    2.30
  -3  10  -9   12.39    1.89
  10   3  -9   15.14    3.88
 -10  -3   9   13.79    2.82
 -10  -3  -9   14.45    2.84
   3 -10   9   13.18    2.04
  -3  10  10   18.96    4.88
  -3  10 -10   18.26    5.67
  10   3 -10   18.21    4.49
 -10  -3  10   22.56    4.62
 -10  -3 -10   17.90    4.35
   3 -10  10   22.28    4.26
  -3  10  11   40.70    8.38
  -3  10 -11   34.99    7.54
  10   3 -11   45.85    3.20
 -10  -3  11   38.88   10.09
 -10  -3 -11   38.05    2.64
   3 -10  11   38.85    9.73
  -3  10  12   16.30    3.87
  -3  10 -12   13.51    3.99
  10   3 -12   13.47    2.13
 -10  -3  12   17.22    3.31
 -10  -3 -12   14.44    2.66
   3 -10  12   16.84    5.22
  -3  10  13    2.99    1.49
  10   3 -13    4.32    1.54
 -10  -3  13    2.92    1.40
 -10  -3 -13    6.59    1.74
   3 -10  13    4.80    2.07
  -3  10  14   16.39    5.46
  10   3 -14   22.17    5.36
 -10  -3  14   27.76    8.17
 -10  -3 -14   22.64    2.30
   3 -10  14   20.83    3.09
  -3  10  15    5.48    1.58
  10   3 -15    8.07    1.95
 -10  -3  15    3.52    1.64
   3 -10  15    6.95    2.17
  -4  10   0   83.70    4.36
  10   4   0   78.45    5.07
 -10  -4   0   87.46    7.26
  -4  10   0   77.91    5.04
   4 -10   0   82.29    5.05
  -4  10   1    7.94    0.83
  -4  10  -1    7.93    1.24
  10   4   1    6.04    1.47
  10   4  -1    4.73    1.31
 -10  -4   1    5.88    1.56
 -10  -4  -1    8.25    1.30
  -4  10   1    7.62    1.21
  -4  10  -1    7.23    1.88
   4 -10   1    4.44    1.26
   4 -10  -1    6.94    1.58
  -4  10   2   75.10   10.22
  -4  10  -2   73.85    7.34
  10   4   2   73.26    3.43
  10   4  -2   67.24    5.80
 -10  -4   2   74.24    5.33
 -10  -4  -2   68.37    6.71
  -4  10   2   73.86    3.58
  -4  10  -2   70.07    3.45
   4 -10   2   73.45    4.12
  -4  10   3  105.02    4.02
  -4  10  -3  109.39    4.07
  10   4   3  108.63    3.35
  10   4  -3   98.97    3.79
 -10  -4   3  115.10    7.61
 -10  -4  -3  101.48    3.61
  -4  10   3  110.16    2.93
  -4  10  -3  107.59    3.98
   4 -10   3  109.14    8.22
  -4  10   4  146.24    8.49
  -4  10  -4  155.94    8.35
  10   4   4  150.07    4.29
  10   4  -4  157.10    5.35
 -10  -4   4  139.77    9.51
 -10  -4  -4  153.54    4.43
  -4  10   4  146.51    3.38
  -4  10  -4  149.16    6.79
   4 -10   4  148.98    4.70
  -4  10   5   27.36    6.97
  -4  10  -5   26.54    2.10
  10   4  -5   26.14    6.46
  10   4   5   30.31    1.48
 -10  -4   5   27.00    4.71
 -10  -4  -5   23.97    3.81
  -4  10   5   28.70    3.45
  -4  10  -5   25.45    2.01
   4 -10   5   26.78    6.21
  -4  10   6   53.41    7.34
  -4  10  -6   57.08    2.80
  10   4  -6   51.01    4.72
 -10  -4   6   51.13   10.56
 -10  -4  -6   61.33    4.75
  -4  10  -6   54.50    4.74
   4 -10   6   54.14    6.60
  -4  10   7   54.42    4.90
  -4  10  -7   64.71    5.40
  10   4  -7   61.96    3.36
 -10  -4   7   51.86   11.26
 -10  -4  -7   66.71    4.51
  -4  10  -7   63.33    4.07
   4 -10   7   50.46   10.64
  -4  10   8  131.35    4.37
  -4  10  -8  131.01   12.31
  10   4  -8  117.63    4.93
 -10  -4   8  130.17    4.59
 -10  -4  -8  117.57   11.82
  -4  10  -8  120.45    4.44
   4 -10   8  133.44    4.56
  -4  10   9   34.59    9.03
  -4  10  -9   37.00    7.23
  10   4  -9   36.50    9.19
 -10  -4   9   36.58    7.99
 -10  -4  -9   33.66    5.28
  -4  10  -9   33.11    9.61
   4 -10   9   33.09    6.24
  -4  10  10   25.19    4.44
  -4  10 -10   23.59    4.01
  10   4 -10   27.85    5.86
 -10  -4  10   23.56    5.18
 -10  -4 -10   24.19    4.78
  -4  10 -10   23.96    4.47
   4 -10  10   23.48    5.91
  -4  10  11    1.46    1.34
  -4  10 -11    1.30    0.89
  10   4 -11    0.84    1.30
 -10  -4  11    1.02    1.18
 -10  -4 -11    1.39    0.78
   4 -10  11    1.21    1.06
  -4  10  12   23.99    5.75
  10   4 -12   20.56    4.07
 -10  -4  12   23.38    4.73
 -10  -4 -12   16.78    2.59
   4 -10  12   25.56    3.76
  -4  10  13    8.13    1.83
  10   4 -13   12.83    2.23
 -10  -4  13    5.49    1.67
   4 -10  13   12.17    3.24
  -4  10  14    1.15    1.25
  10   4 -14    4.21    1.50
 -10  -4  14    2.04    1.05
   4 -10  14    3.21    2.37
  -4  10  15    2.94    1.92
  10   4 -15   14.04    2.57
 -10  -4  15    7.23    1.47
   4 -10  15    4.16    2.16
  -5  10   0    1.86    1.20
  10   5   0    0.89    0.47
 -10  -5   0    1.65    1.17
  -5  10   0    1.24    0.62
   5 -10   0    0.25    0.82
  -5  10   1  238.11    6.87
  -5  10  -1  228.57    9.23
  10   5   1  239.49    5.92
  10   5  -1  240.84    6.60
 -10  -5   1  244.24    6.18
 -10  -5  -1  236.91    5.78
  -5  10   1  240.11    5.34
  -5  10  -1  234.62    6.11
   5 -10   1  230.93   10.35
   5 -10  -1  247.09    9.31
  -5  10   2  112.60    4.17
  -5  10  -2  100.25    3.75
  10   5   2   97.93    3.52
  10   5  -2  102.66    3.77
 -10  -5   2  105.35    5.90
 -10  -5  -2  113.27   10.80
  -5  10   2  104.73    3.57
  -5  10  -2  104.62    6.16
   5 -10   2  111.07    4.19
   5 -10  -2  105.29    3.41
  -5  10   3   47.62    4.27
  -5  10  -3   47.66    9.63
  10   5   3   48.75    2.42
  10   5  -3   42.95    5.63
 -10  -5   3   51.40    3.53
 -10  -5  -3   51.75    3.49
  -5  10   3   46.16    3.98
  -5  10  -3   43.48    3.00
   5 -10   3   46.77    9.76
  -5  10   4    9.45    2.83
  10   5   4   10.10    1.92
  10   5  -4    6.98    1.59
 -10  -5   4    9.97    2.72
 -10  -5  -4    7.23    1.57
  -5  10   4   10.26    2.82
  -5  10  -4    6.08    1.45
   5 -10   4   10.47    1.53
  -5  10   5   81.83    6.42
  -5  10  -5   85.34    5.85
  10   5   5   70.38    2.86
  10   5  -5   87.66    3.62
 -10  -5   5   84.03    7.07
 -10  -5  -5   85.58    7.57
  -5  10   5   74.46    3.19
  -5  10  -5   80.87    3.28
   5 -10   5   81.72    8.82
  -5  10   6   32.97    7.60
  -5  10  -6   37.42    7.46
  10   5  -6   35.38    9.17
 -10  -5   6   32.60    5.57
  -5  10   6   33.87    3.10
 -10  -5  -6   37.65    2.91
  -5  10  -6   31.20    2.87
   5 -10   6   33.92    6.59
  -5  10   7   41.48    3.35
  -5  10  -7   32.18    6.99
  10   5  -7   38.74    7.12
 -10  -5   7   36.41    9.07
 -10  -5  -7   29.46    5.94
  -5  10  -7   33.61   10.02
   5 -10   7   29.76    7.64
  -5  10   8   21.79    4.56
  -5  10  -8   21.52    2.07
  10   5  -8   24.36    5.69
 -10  -5   8   18.03    4.06
 -10  -5  -8   22.14    3.68
  -5  10  -8   25.47    6.91
   5 -10   8   17.60    3.36
  -5  10   9    1.64    1.17
  -5  10  -9    0.63    0.66
  10   5  -9    2.00    1.72
 -10  -5   9    0.46    0.68
 -10  -5  -9    1.39    1.04
  -5  10  -9    1.45    1.90
   5 -10   9    0.59    0.97
  -5  10  10   14.12    3.49
  -5  10 -10   11.70    2.31
  10   5 -10   10.82    2.57
 -10  -5  10   16.60    3.43
 -10  -5 -10   12.84    3.11
  -5  10 -10   13.88    3.56
   5 -10  10   20.44    3.92
  -5  10  11   52.65   11.13
  10   5 -11   56.81    9.37
 -10  -5  11   58.04    9.62
  -5  10 -11   54.72    9.87
   5 -10  11   55.82   11.30
  -5  10  12    2.83    1.63
  10   5 -12    3.53    1.35
 -10  -5  12    1.49    1.68
   5 -10  12    3.58    1.71
  -5  10  13   24.05    6.63
  10   5 -13   22.90    4.07
 -10  -5  13   25.33    5.54
   5 -10  13   27.33    5.31
  -5  10  14    4.25    1.70
  10   5 -14    5.40    2.12
 -10  -5  14    5.67    1.64
   5 -10  14    7.35    2.38
  -6  10   0   20.39    4.20
  10   6   0   14.23    3.70
 -10  -6   0   18.54    4.25
  -6  10   0   15.98    1.51
   6 -10   0   15.26    3.52
  -6  10   1   39.94    8.62
  -6  10  -1   38.68    3.60
  10   6   1   38.18    2.40
  10   6  -1   47.76    7.89
 -10  -6   1   41.15    2.46
 -10  -6  -1   49.14    3.54
  -6  10   1   43.02    3.31
  -6  10  -1   44.15    3.25
   6 -10   1   43.10    2.93
   6 -10  -1   41.88    2.47
  -6  10   2   83.92    5.36
  -6  10  -2   79.64    5.73
  10   6   2   74.40    4.10
  10   6  -2   84.40    3.45
 -10  -6   2   85.29    8.42
 -10  -6  -2   86.87    5.45
  -6  10   2   83.29    2.82
  -6  10  -2   77.98    5.87
   6 -10   2   82.27    3.32
   6 -10  -2   79.59    2.67
  -6  10   3   14.46    3.00
  -6  10  -3   13.11    3.18
  10   6   3   13.11    1.42
  10   6  -3   19.74    4.64
 -10  -6   3   12.95    2.52
 -10  -6  -3   13.52    2.59
  -6  10   3   10.38    3.10
  -6  10  -3   13.94    3.60
   6 -10   3   11.53    1.96
  -6  10   4   14.75    3.36
  10   6   4   15.48    1.45
  10   6  -4    7.90    1.95
 -10  -6   4   15.60    3.56
 -10  -6  -4   10.77    1.25
  -6  10   4   13.49    4.29
  -6  10  -4   12.81    2.10
   6 -10   4   13.19    2.95
  -6  10   5   13.24    2.70
  -6  10  -5   17.33    4.46
  10   6   5   12.25    3.30
  10   6  -5   19.96    2.38
 -10  -6   5   14.42    2.22
 -10  -6  -5   15.87    2.47
  -6  10   5   11.50    3.36
  -6  10  -5   18.28    3.95
   6 -10   5   16.03    3.35
  -6  10   6    8.32    2.24
  -6  10  -6   11.94    2.64
  10   6  -6   12.30    2.38
 -10  -6   6   12.02    2.90
  -6  10   6    8.90    2.20
 -10  -6  -6    8.23    1.70
  -6  10  -6    9.46    2.07
   6 -10   6   10.07    1.93
  -6  10   7   25.52    4.66
  -6  10  -7   20.22    1.90
  10   6  -7   23.37    2.60
 -10  -6   7   22.55    4.52
 -10  -6  -7   18.85    3.80
  -6  10  -7   24.02    7.07
   6 -10   7   23.21    7.32
  -6  10   8   58.82    5.37
  -6  10  -8   45.06    8.92
  10   6  -8   49.37    3.56
 -10  -6   8   53.20   11.43
 -10  -6  -8   45.82    2.77
  -6  10  -8   53.66    7.69
   6 -10   8   58.45   12.10
  -6  10   9   46.79    9.49
  -6  10  -9   46.86    2.66
  10   6  -9   52.15   11.26
 -10  -6   9   42.13    8.20
  -6  10  -9   50.14    5.92
   6 -10   9   56.33   10.12
  -6  10  10   60.53    5.58
  -6  10 -10   55.19    6.28
  10   6 -10   63.56   14.93
 -10  -6  10   64.75   13.39
  -6  10 -10   52.48    6.34
   6 -10  10   59.84   11.66
  -6  10  11    5.80    0.90
  10   6 -11    5.57    1.80
 -10  -6  11    9.73    1.52
  -6  10 -11    9.06    2.77
   6 -10  11   10.74    1.77
  -6  10  12    1.75    1.59
  10   6 -12    2.89    1.38
 -10  -6  12    4.40    1.37
  -6  10 -12    2.63    2.12
   6 -10  12    6.00    1.91
  -6  10  13   12.59    3.23
  10   6 -13   11.69    2.33
 -10  -6  13   12.23    2.75
   6 -10  13    9.50    2.24
  -6  10  14   12.23    3.46
  10   6 -14    9.84    3.63
 -10  -6  14   13.35    2.59
   6 -10  14   14.00    2.75
  -7  10   0    0.82    0.91
  10   7   0    0.70    0.72
 -10  -7   0    1.10    0.95
  -7  10   0    1.28    0.72
   7 -10   0   -0.79    0.91
  -7  10   1   43.06    3.60
  -7  10  -1   50.51    9.86
  10   7   1   41.20    3.08
  10   7  -1   50.09    3.63
 -10  -7   1   43.77    3.34
 -10  -7  -1   53.11    6.98
  -7  10   1   40.90    3.34
  -7  10  -1   51.08    2.53
   7 -10   1   47.85    3.16
   7 -10  -1   44.12    5.62
  -7  10   2   15.21    2.95
  -7  10  -2   12.66    2.13
  10   7   2   12.96    3.05
  10   7  -2   14.14    2.02
 -10  -7   2   13.47    3.67
 -10  -7  -2   13.95    3.12
  -7  10   2   14.48    1.56
  -7  10  -2   15.36    2.75
   7 -10   2   13.59    1.70
   7 -10  -2   12.29    2.26
  -7  10   3    0.87    0.57
  -7  10  -3    1.38    0.60
  10   7   3    0.74    0.80
  10   7  -3    0.93    0.70
 -10  -7   3    0.12    0.58
 -10  -7  -3    1.19    0.70
  -7  10   3    0.68    0.89
  -7  10  -3    0.67    0.62
   7 -10   3   -0.19    1.05
  -7  10   4    7.76    1.05
  -7  10  -4    6.88    1.61
  10   7   4    5.09    2.21
  10   7  -4    5.92    0.91
 -10  -7   4    6.34    1.74
 -10  -7  -4    6.03    0.85
  -7  10   4    7.56    2.67
  -7  10  -4    7.61    1.36
   7 -10   4    7.71    1.34
  -7  10   5   93.33    8.46
  -7  10  -5   89.88    3.74
  10   7   5   91.08    2.80
  10   7  -5   86.46    5.15
 -10  -7   5   93.87    7.99
  -7  10   5   82.78    6.53
 -10  -7  -5   97.03    3.79
  -7  10  -5   88.77    5.69
   7 -10   5   91.04    4.80
  -7  10   6    6.39    2.63
  -7  10  -6    5.01    2.04
  10   7  -6   10.54    2.45
 -10  -7   6   10.90    2.65
  -7  10   6    9.26    2.66
 -10  -7  -6    5.63    1.35
  -7  10  -6    3.92    1.87
   7 -10   6   10.99    1.98
  -7  10   7   78.13   12.01
  -7  10  -7   79.95    3.80
  10   7  -7   82.82    3.85
 -10  -7   7   67.53   10.91
  -7  10   7   71.29    3.16
  -7  10  -7   70.55    3.63
   7 -10   7   73.48    6.64
  -7  10   8    3.48    1.01
  -7  10  -8    2.67    1.30
  10   7  -8    4.42    1.77
 -10  -7   8    2.97    0.88
  -7  10  -8    4.10    2.59
   7 -10   8    6.62    1.55
  -7  10   9   17.65    3.94
  -7  10  -9   19.62    1.72
  10   7  -9   16.47    3.00
 -10  -7   9   22.54    5.36
  -7  10  -9   22.65    3.66
   7 -10   9   21.69    4.41
  -7  10  10   10.59    1.96
  10   7 -10    3.05    3.54
 -10  -7  10   10.54    1.14
  -7  10 -10   11.21    3.50
   7 -10  10   11.24    2.12
  -7  10  11   32.34    6.64
  10   7 -11   34.23    4.80
 -10  -7  11   35.52    7.08
  -7  10 -11   29.35    8.37
   7 -10  11   36.87    6.58
  -7  10  12    0.77    0.74
  10   7 -12    0.87    1.23
 -10  -7  12    2.03    1.19
  -7  10 -12    2.43    1.03
   7 -10  12   -0.80    1.73
  -7  10  13    3.49    1.13
  10   7 -13    1.48    0.61
 -10  -7  13    1.85    0.99
  -7  10 -13    2.95    1.71
   7 -10  13    2.96    1.30
  -8  10   0    0.83    1.17
  10   8   0    1.96    1.21
 -10  -8   0    2.05    0.84
  -8  10   0    0.45    0.81
   8 -10   0   -0.88    0.77
  -8  10   1   29.67    5.34
  -8  10  -1   30.77    6.50
  10   8   1   23.08    4.87
  10   8  -1   24.26    6.55
 -10  -8   1   28.67    2.54
 -10  -8  -1   24.23    5.27
  -8  10   1   23.99    5.67
  -8  10  -1   25.44    6.12
   8 -10   1   24.88    4.60
   8 -10  -1   27.77    1.65
  -8  10   2    1.50    1.09
  -8  10  -2    2.14    0.98
  10   8   2    2.26    0.90
  10   8  -2    1.39    1.10
 -10  -8   2    4.07    1.39
 -10  -8  -2    1.38    0.55
  -8  10   2    1.32    0.92
  -8  10  -2    4.31    1.56
   8 -10   2    3.47    1.45
  -8  10   3   86.94    7.30
  -8  10  -3   87.56    8.93
  10   8   3   81.47    3.68
  10   8  -3   75.78    7.98
 -10  -8   3   90.83    7.52
 -10  -8  -3   73.21    4.90
  -8  10   3   80.23    5.38
  -8  10  -3   87.84    3.68
   8 -10   3   85.27   11.21
  -8  10   4   23.71    3.64
  -8  10  -4   26.52    4.97
  10   8   4   21.15    5.73
  10   8  -4   21.31    2.47
 -10  -8   4   23.37    5.07
 -10  -8  -4   16.20    4.04
  -8  10   4   21.59    6.92
  -8  10  -4   23.87    2.88
   8 -10   4   25.26    5.02
  -8  10   5   10.58    2.41
  -8  10  -5    8.96    1.65
  10   8   5    5.95    2.00
  10   8  -5   11.34    3.06
 -10  -8   5   11.53    2.47
  -8  10  -5    8.52    2.16
   8 -10   5    3.27    1.11
  -8  10   6    4.48    1.33
  -8  10  -6    2.95    1.30
  10   8  -6    1.46    1.31
 -10  -8   6    2.25    1.07
  -8  10   6    2.04    0.92
  -8  10  -6    3.31    1.98
   8 -10   6    2.48    1.10
  -8  10   7   29.64    9.30
  -8  10  -7   29.18    2.41
  10   8  -7   28.86    5.73
 -10  -8   7   26.97    4.45
  -8  10   7   28.81    3.10
  -8  10  -7   31.18    5.80
   8 -10   7   33.69    6.92
  -8  10   8   47.19   10.66
  -8  10  -8   37.11    2.89
  10   8  -8   35.56    8.92
 -10  -8   8   33.78    7.29
  -8  10  -8   40.59   10.67
   8 -10   8   39.30    8.40
  -8  10   9   28.95    5.48
  10   8  -9   28.16    4.64
 -10  -8   9   22.81    6.10
  -8  10  -9   26.78    4.49
   8 -10   9   23.52    4.71
  -8  10  10    2.77    1.89
  10   8 -10    1.77    1.70
 -10  -8  10    1.40    1.06
  -8  10 -10    1.40    1.15
   8 -10  10    1.81    0.88
  -8  10  11    0.69    1.41
  10   8 -11    1.88    1.34
 -10  -8  11   -0.29    1.37
  -8  10 -11    1.74    1.56
   8 -10  11    1.10    0.83
  -8  10  12   10.70    2.90
  10   8 -12   12.88    2.44
 -10  -8  12    7.25    2.15
  -8  10 -12    8.20    2.18
   8 -10  12   11.51    2.45
  -8  10  13   16.51    3.63
  10   8 -13   10.84    1.94
 -10  -8  13   17.74    3.54
  -8  10 -13   10.60    3.65
   8 -10  13   15.26    2.67
  -9  10   0   73.33    8.66
  10   9   0   61.76    7.50
 -10  -9   0   76.72    5.07
  -9  10   0   69.42    3.13
   9 -10   0   66.27    3.60
  -9  10   1   43.57    8.49
  -9  10  -1   42.32    4.35
  10   9   1   33.69    8.65
  10   9  -1   36.18    9.92
 -10  -9   1   31.93    4.87
 -10  -9  -1   43.57    3.82
  -9  10   1   39.09    2.38
  -9  10  -1   37.69    9.13
   9 -10   1   32.29    4.81
  -9  10   2   36.16    9.06
  -9  10  -2   36.37    8.55
  10   9   2   35.86    3.18
  10   9  -2   35.72    8.39
 -10  -9   2   37.08    9.04
 -10  -9  -2   35.65    3.02
  -9  10   2   28.45    8.11
  -9  10  -2   29.99    7.12
   9 -10   2   29.44    5.68
  -9  10   3   16.14    4.29
  -9  10  -3   10.30    1.93
  10   9   3   10.21    2.52
  10   9  -3   11.99    3.36
 -10  -9   3   12.35    3.23
  -9  10   3   11.40    2.08
  -9  10  -3   13.44    3.19
   9 -10   3   14.56    2.12
  -9  10   4   10.77    2.30
  -9  10  -4    8.46    1.75
  10   9   4    8.86    2.36
  10   9  -4    4.42    1.87
 -10  -9   4   12.11    2.10
  -9  10   4    8.80    3.45
  -9  10  -4    9.30    2.02
   9 -10   4    9.87    2.15
  -9  10   5   29.81    5.31
  -9  10  -5   29.42    6.76
  10   9   5   25.42    4.11
  10   9  -5   28.88    7.56
 -10  -9   5   25.84    6.43
  -9  10   5   25.41    6.08
  -9  10  -5   26.62    5.91
   9 -10   5   27.24    5.32
  -9  10   6   14.20    2.83
  -9  10  -6   11.85    2.97
  10   9  -6   12.68    2.74
 -10  -9   6   13.77    2.62
  -9  10   6   11.44    3.38
  -9  10  -6   14.01    3.18
   9 -10   6    6.83    1.65
  -9  10   7    2.78    1.30
  -9  10  -7    5.66    1.81
  10   9  -7    3.86    1.43
 -10  -9   7    7.41    2.01
  -9  10   7    7.87    2.19
  -9  10  -7    8.55    2.32
   9 -10   7   10.32    1.61
  -9  10   8    2.47    1.31
  10   9  -8    5.39    1.56
 -10  -9   8    3.79    1.34
  -9  10  -8    5.07    2.23
   9 -10   8    4.22    2.17
  -9  10   9    1.64    0.68
  10   9  -9   -1.47    1.40
 -10  -9   9   -1.09    1.55
  -9  10  -9    0.98    1.54
   9 -10   9   -1.97    1.64
  -9  10  10   12.89    2.79
  10   9 -10   12.60    3.83
 -10  -9  10    9.14    2.16
  -9  10 -10   13.24    2.81
   9 -10  10    9.82    2.21
  -9  10  11   33.49    6.20
  10   9 -11   37.74    4.29
 -10  -9  11   29.38    7.39
  -9  10 -11   25.34    6.43
   9 -10  11   30.54    5.37
  -9  10  12   16.67    2.89
  10   9 -12   18.53    4.42
 -10  -9  12   15.68    3.78
  -9  10 -12   19.43    5.22
   9 -10  12   19.73    3.63
 -10  10   0    1.51    1.52
  10  10   0    1.13    0.51
 -10 -10   0   -1.21    0.76
 -10  10   0   -0.30    1.09
 -10  10   1   52.97    3.66
 -10  10  -1   51.60   10.63
  10  10   1   50.06    4.87
  10  10  -1   46.12    9.29
 -10 -10   1   53.68    3.63
 -10  10   1   47.40    4.11
 -10  10  -1   54.57    4.50
 -10  10   2    6.19    1.19
 -10  10  -2    2.95    0.98
  10  10   2    7.08    1.83
  10  10  -2    4.80    1.47
 -10 -10   2    6.25    1.26
 -10  10   2    5.68    1.76
 -10  10  -2    5.83    1.38
  10 -10   2    4.48    1.10
 -10  10   3  102.78    6.13
 -10  10  -3   93.87    6.37
  10  10   3   92.29    8.91
  10  10  -3  104.06    4.45
 -10 -10   3   99.98    5.67
 -10  10   3   88.95    8.42
 -10  10  -3   93.61    5.72
  10 -10   3  103.76    6.91
 -10  10   4    9.54    2.06
 -10  10  -4   11.41    1.49
  10  10   4    6.50    2.09
 -10 -10   4    8.94    1.06
 -10  10   4    5.97    1.52
 -10  10  -4    9.57    1.68
  10 -10   4    7.30    1.89
 -10  10   5    9.18    2.11
 -10  10  -5    7.19    1.51
  10  10   5    8.98    2.88
  10  10  -5   10.77    2.16
 -10 -10   5   11.00    2.11
 -10  10   5    9.08    2.42
 -10  10  -5    9.12    1.62
  10 -10   5   12.45    2.08
 -10  10   6    0.99    1.17
 -10  10  -6    1.49    1.19
  10  10  -6   -0.05    1.40
 -10 -10   6    0.40    1.68
 -10  10   6    2.22    1.16
 -10  10  -6    1.91    0.54
  10 -10   6    1.28    1.00
 -10  10   7   14.79    3.39
  10  10  -7   16.50    3.69
 -10 -10   7   13.15    2.79
 -10  10   7   11.95    4.11
 -10  10  -7   15.58    2.10
  10 -10   7   19.35    3.71
 -10  10   8   -0.17    1.82
  10  10  -8    0.02    1.07
 -10 -10   8    0.64    0.74
 -10  10   8    0.69    0.79
 -10  10  -8    1.72    1.49
  10 -10   8   -0.91    1.19
 -10  10   9   30.98    6.38
  10  10  -9   35.29    5.21
 -10 -10   9   33.32    5.46
 -10  10  -9   32.32    6.36
  10 -10   9   35.31    5.10
 -10  10  10    1.36    1.02
  10  10 -10    1.95    1.34
 -10 -10  10    1.11    0.99
 -10  10 -10    1.14    1.28
  10 -10  10   -0.19    1.02
 -10  10  11    1.37    1.30
  10  10 -11    3.57    1.98
 -10 -10  11    1.57    1.26
 -10  10 -11    2.88    1.46
  10 -10  11    1.80    1.55
 -11  10   0   20.16    3.69
  10  11   0   17.57    3.99
 -11  10   0   15.99    3.39
 -11  10   1   38.30    5.23
 -11  10  -1   37.32    7.24
  10  11   1   34.27   10.63
  10  11  -1   39.42    6.44
 -11  10   1   36.42    5.06
 -11  10  -1   38.52    8.38
 -11  10   2    9.74    2.66
  10  11   2    6.73    2.21
  10  11  -2    8.19    1.50
 -10 -11   2    7.24    1.74
 -11  10   2    5.47    1.57
 -11  10  -2    5.10    2.00
 -11  10   3    1.23    0.78
 -11  10  -3    1.71    0.85
  10  11   3    2.71    1.46
  10  11  -3    3.88    1.22
 -10 -11   3    2.02    1.15
 -11  10   3    4.47    1.27
 -11  10  -3    2.11    1.22
  11 -10   3    1.29    0.99
 -11  10   4   15.30    2.00
 -11  10  -4   14.56    3.10
  10  11   4   12.66    3.86
  10  11  -4   11.80    2.44
 -10 -11   4   13.48    2.88
 -11  10   4   10.17    4.03
 -11  10  -4   10.71    2.05
  11 -10   4   11.13    2.19
 -11  10   5    7.60    3.29
 -11  10  -5   10.60    2.04
  10  11   5    8.50    2.53
  10  11  -5   12.19    3.36
 -10 -11   5   11.33    2.54
 -11  10   5    6.26    2.24
 -11  10  -5   14.45    3.41
  11 -10   5   10.47    1.63
 -11  10   6   54.25   10.43
  10  11  -6   53.65   13.39
 -10 -11   6   46.69    7.51
 -11  10   6   52.26    4.08
 -11  10  -6   55.93    3.55
  11 -10   6   54.73    6.59
 -11  10   7    9.31    2.70
  10  11  -7    7.59    1.92
 -10 -11   7   11.02    1.63
 -11  10   7    9.61    2.66
 -11  10  -7    6.49    2.32
  11 -10   7    9.61    1.49
 -11  10   8   17.99    3.57
  10  11  -8   21.34    3.63
 -10 -11   8   17.91    4.21
 -11  10   8   11.21    5.21
 -11  10  -8   16.63    3.03
  11 -10   8   19.73    3.33
 -11  10   9    6.83    2.66
  10  11  -9    3.70    1.59
 -11  10  -9    4.79    2.30
  11 -10   9    4.23    1.42
 -11  10  10   10.14    2.70
  10  11 -10   12.34    3.53
 -10 -11  10   14.17    2.84
 -11  10 -10   14.22    5.68
  11 -10  10   18.76    3.35
 -11   9   0   -1.33    1.07
   9  11   0   -0.15    0.72
 -11   9   0   -0.35    1.14
 -11   9   1   12.29    2.09
 -11   9  -1    7.71    2.05
   9  11   1    9.73    2.85
   9  11  -1    7.86    1.26
 -11   9   1    8.61    2.08
 -11   9  -1   10.76    2.62
 -11   9   2    3.35    1.06
 -11   9  -2    4.00    1.36
   9  11   2    1.88    1.29
   9  11  -2    3.56    1.62
  -9 -11   2    3.22    0.90
 -11   9   2    2.30    1.28
 -11   9  -2    2.41    0.96
  11  -9   2    5.23    1.07
 -11   9   3    1.62    0.69
 -11   9  -3    2.36    0.97
   9  11   3    2.17    0.67
   9  11  -3    3.37    1.45
  -9 -11   3    1.46    1.27
 -11   9   3    2.98    0.97
 -11   9  -3    0.52    0.63
  11  -9   3    1.47    1.29
 -11   9   4  108.04   10.15
 -11   9  -4  104.47    4.40
   9  11   4  101.91    3.83
   9  11  -4   98.07    5.31
  -9 -11   4   93.56    6.75
 -11   9   4   93.62    7.91
 -11   9  -4   93.47    6.26
  11  -9   4   93.30   12.17
 -11   9   5    1.18    1.50
 -11   9  -5    3.15    1.44
   9  11   5    3.88    1.34
   9  11  -5    3.24    1.21
  -9 -11   5    3.04    0.88
 -11   9   5    3.58    1.75
 -11   9  -5    3.23    1.23
  11  -9   5    3.28    0.95
 -11   9   6    2.41    1.63
   9  11   6   -0.03    0.79
   9  11  -6   -0.39    1.24
  -9 -11   6    2.13    0.92
 -11   9   6    0.31    1.07
 -11   9  -6    1.57    1.04
  11  -9   6    0.70    0.86
 -11   9   7    2.51    1.31
   9  11  -7    2.42    1.06
  -9 -11   7    0.68    0.73
 -11   9   7   -0.15    1.02
 -11   9  -7    3.26    1.41
  11  -9   7    1.50    0.64
 -11   9   8   74.06    8.39
   9  11  -8   80.43    9.77
  -9 -11   8   61.23    7.14
 -11   9   8   59.78    5.09
 -11   9  -8   72.29    3.98
  11  -9   8   63.78   12.13
 -11   9   9   -0.24    1.71
   9  11  -9    2.07    1.74
  -9 -11   9    2.49    1.21
 -11   9   9    0.20    0.60
 -11   9  -9    0.23    0.86
  11  -9   9    0.84    0.70
 -11   9  10    1.16    0.89
   9  11 -10    1.29    1.64
  -9 -11  10    1.21    0.58
 -11   9  10    1.15    0.72
 -11   9 -10   -0.45    1.37
  11  -9  10    0.22    0.87
 -11   9  11    3.67    1.44
   9  11 -11    1.15    0.99
  -9 -11  11    0.44    0.80
 -11   9 -11    0.76    0.85
  11  -9  11    1.46    0.70
 -11   8   0  112.23    7.20
   8  11   0  102.41    5.93
 -11   8   0  114.22    4.46
 -11   8   1   20.31    3.75
 -11   8  -1   18.20    3.81
   8  11   1   15.23    3.52
   8  11  -1   21.72    5.31
  -8 -11   1   19.82    4.04
 -11   8   1   18.84    4.22
 -11   8  -1   20.66    4.33
 -11   8   2    5.59    1.90
 -11   8  -2   12.19    1.94
   8  11   2    6.75    1.69
   8  11  -2   12.01    2.63
  -8 -11   2    8.81    1.73
 -11   8   2    6.80    1.94
 -11   8  -2    7.66    3.05
 -11   8   3    5.76    1.90
 -11   8  -3    5.64    1.61
   8  11   3    5.10    1.87
   8  11  -3    3.18    1.68
  -8 -11   3    4.63    1.20
 -11   8   3    6.36    1.79
 -11   8  -3    2.34    2.36
  11  -8   3    5.88    1.81
 -11   8   4   37.33    6.59
 -11   8  -4   41.32    7.78
   8  11   4   43.67    6.34
   8  11  -4   34.97    7.46
  -8 -11   4   44.01    5.78
 -11   8   4   41.58    3.78
 -11   8  -4   40.43    6.61
  11  -8   4   36.26    7.28
 -11   8   5   14.45    2.19
 -11   8  -5   12.66    2.49
   8  11   5   14.03    3.01
   8  11  -5   14.39    3.07
  -8 -11   5   15.60    1.98
 -11   8   5   15.44    3.67
  11  -8   5   16.61    2.32
 -11   8   6    0.18    0.86
   8  11   6    1.64    1.24
   8  11  -6    0.38    1.32
  -8 -11   6   -1.66    1.10
 -11   8   6    0.40    0.97
 -11   8  -6   -1.85    1.27
  11  -8   6    1.06    1.04
 -11   8   7    5.07    1.57
   8  11   7    3.05    1.09
   8  11  -7    3.12    1.81
  -8 -11   7    2.33    1.38
 -11   8   7    1.00    1.15
 -11   8  -7    6.51    1.94
  11  -8   7    4.18    1.56
 -11   8   8    1.87    0.60
   8  11  -8    6.67    2.93
  -8 -11   8    2.21    0.91
 -11   8   8    0.56    0.81
 -11   8  -8   -0.59    1.21
  11  -8   8    1.47    1.66
 -11   8   9    7.72    4.17
   8  11  -9    5.67    1.67
  -8 -11   9    7.21    1.87
 -11   8   9    5.83    1.72
 -11   8  -9    3.25    1.41
  11  -8   9    6.66    3.26
 -11   8  10    2.36    0.78
   8  11 -10   -0.06    1.35
  -8 -11  10    0.01    1.19
 -11   8  10    3.12    1.45
 -11   8 -10    1.93    1.40
  11  -8  10    1.00    1.40
 -11   8  11   10.55    2.60
   8  11 -11    9.61    3.44
  -8 -11  11   11.06    3.05
 -11   8  11   10.24    1.86
 -11   8 -11   11.79    2.56
  11  -8  11   12.37    2.48
 -11   8  12   25.03    5.91
   8  11 -12   38.38    5.60
  -8 -11  12   32.20    6.34
 -11   8 -12   30.26    3.37
  11  -8  12   26.11    5.69
 -11   7   0    3.61    0.95
   7  11   0    6.03    1.85
 -11   7   0    7.22    1.92
 -11   7   1   51.27    7.38
 -11   7  -1   49.24    3.26
   7  11   1   44.99   11.66
   7  11  -1   49.19    3.85
  -7 -11   1   55.19    2.73
 -11   7   1   49.26    3.40
 -11   7  -1   50.27    5.18
  11  -7   1   44.14    6.97
 -11   7   2  106.22    8.28
 -11   7  -2  108.83    6.89
   7  11   2  109.02    6.18
   7  11  -2   94.10    7.14
  -7 -11   2  103.58    5.18
 -11   7   2  112.59    4.59
 -11   7  -2  107.54    4.15
  11  -7   2  106.34    7.34
 -11   7   3   47.16    5.67
 -11   7  -3   42.89    7.48
   7  11   3   50.95    5.14
   7  11  -3   37.43    8.66
  -7 -11   3   47.75    8.83
 -11   7   3   42.12   10.61
 -11   7  -3   45.45    6.77
  11  -7   3   51.17    7.72
 -11   7   4    2.52    1.04
 -11   7  -4    3.43    0.78
   7  11   4    2.79    0.87
   7  11  -4    3.23    1.57
  -7 -11   4    5.31    1.17
 -11   7   4    4.05    1.61
 -11   7  -4    3.58    1.08
  11  -7   4    3.75    0.97
 -11   7   5    2.23    1.19
 -11   7  -5    0.66    0.36
   7  11   5    2.05    0.88
   7  11  -5    2.30    1.20
  -7 -11   5    3.35    1.33
 -11   7   5    1.79    1.05
 -11   7  -5    4.92    2.00
  11  -7   5    1.25    0.88
 -11   7   6    1.35    1.66
   7  11   6    5.55    1.20
   7  11  -6    6.39    2.54
  -7 -11   6    7.10    1.96
 -11   7   6    6.88    1.96
 -11   7  -6    3.99    1.25
  11  -7   6    5.86    1.87
   7  11   7   25.91    6.52
   7  11  -7   21.45    6.89
  11  -7  -7   29.79    2.62
  -7 -11   7   28.16    6.31
 -11   7   7   28.60    5.44
 -11   7  -7   26.96    5.25
  11  -7   7   27.73    5.53
   7  11   8    6.40    2.10
   7  11  -8    9.50    1.93
  11  -7  -8    5.60    2.06
  -7 -11   8    5.81    1.26
 -11   7   8    3.75    1.92
 -11   7  -8    9.21    2.39
  11  -7   8    4.29    1.50
   7  11  -9   15.19    2.79
  11  -7  -9   13.54    3.41
  -7 -11   9   14.15    3.14
 -11   7   9   11.00    1.72
 -11   7  -9   15.22    3.85
  11  -7   9   13.66    3.61
   7  11 -10   25.75    3.52
  11  -7 -10   25.27    7.85
  -7 -11  10   25.60    4.44
 -11   7  10   23.09    5.35
 -11   7 -10   26.68    8.77
  11  -7  10   23.29    3.60
   7  11 -11   12.62    2.11
  11  -7 -11   10.12    3.70
  -7 -11  11   10.20    1.79
 -11   7  11    8.32    3.28
 -11   7 -11    9.25    3.23
  11  -7  11   14.85    3.83
  -7 -11  11   15.60    2.76
   7  11 -12   -0.63    1.24
  11  -7 -12    0.17    1.35
  -7 -11  12    3.10    1.55
 -11   7  12    2.06    0.95
 -11   7 -12    2.06    1.59
  11  -7  12    3.69    1.34
  -7 -11  12    1.05    1.45
 -11   6   0   -0.10    1.07
   6  11   0   -0.51    1.31
 -11   6   0    1.82    1.30
  11  -6   0    1.51    0.80
 -11   6   1    5.97    1.85
 -11   6  -1    5.73    1.23
   6  11   1    3.18    1.66
   6  11  -1    6.78    1.50
  -6 -11   1    3.93    1.22
 -11   6   1    4.99    1.79
 -11   6  -1    2.87    1.17
  11  -6   1    3.13    1.04
 -11   6   2   29.67    6.95
 -11   6  -2   28.68    4.67
   6  11   2   33.28    2.52
   6  11  -2   32.32    6.79
  -6 -11   2   32.26    5.99
 -11   6   2   32.27    5.07
 -11   6  -2   31.76    8.54
  11  -6   2   29.66    5.54
 -11   6  -3    9.92    1.88
   6  11   3   10.82    2.80
   6  11  -3    9.95    3.24
  -6 -11   3   10.82    1.75
 -11   6   3   11.68    1.82
 -11   6  -3   12.84    2.30
  11  -6   3   11.00    2.39
 -11   6  -4   11.74    2.42
   6  11   4   11.65    2.65
   6  11  -4    9.38    3.04
  11  -6  -4    9.66    1.55
  -6 -11   4    8.75    1.29
 -11   6   4   13.53    2.69
 -11   6  -4   14.96    2.96
  11  -6   4   12.45    2.40
 -11   6  -5   14.18    2.58
   6  11   5   12.36    4.63
   6  11  -5    7.81    3.08
  11  -6  -5   13.90    2.22
  -6 -11   5   13.02    2.94
 -11   6   5   15.70    2.41
 -11   6  -5   14.48    3.82
  11  -6   5   16.25    3.31
   6  11   6  166.02    4.85
   6  11  -6  173.50    5.60
  11  -6  -6  183.30   29.88
  -6 -11   6  168.43    9.91
 -11   6   6  166.85    5.05
 -11   6  -6  172.97    5.61
  11  -6   6  174.63   10.04
   6  11   7   12.02    1.82
   6  11  -7   15.82    2.40
  11  -6  -7   18.56    3.87
  -6 -11   7   18.78    3.73
 -11   6   7   19.07    2.46
 -11   6  -7   13.12    3.93
  11  -6   7   18.11    3.47
   6  11   8    4.00    1.17
   6  11  -8    4.62    1.87
  11  -6  -8    2.65    1.29
  -6 -11   8    4.53    1.54
 -11   6   8    4.05    1.83
 -11   6  -8    4.24    2.42
  11  -6   8    3.63    1.65
  -6 -11   8    2.96    1.17
   6  11   9    4.97    1.56
   6  11  -9    5.98    1.69
  11  -6  -9    5.75    1.47
  -6 -11   9    3.85    1.35
 -11   6   9    7.52    2.41
 -11   6  -9    9.21    1.95
  11  -6   9    8.29    2.01
  -6 -11   9   11.06    1.86
   6  11 -10   56.17   12.67
  11  -6 -10   60.27   13.73
  -6 -11  10   51.54   10.59
 -11   6  10   59.07    3.48
 -11   6 -10   54.19   11.64
  11  -6  10   54.47   10.67
  -6 -11  10   59.80    3.64
   6  11 -11    1.27    0.85
  11  -6 -11    0.80    0.93
  -6 -11  11    0.69    1.01
 -11   6  11    1.60    0.88
 -11   6 -11    1.36    1.37
  11  -6  11   -0.64    1.28
  -6 -11  11    1.17    1.16
   6  11 -12    2.33    1.23
  11  -6 -12   -0.32    1.23
  -6 -11  12   -2.58    1.43
 -11   6  12    1.14    0.87
 -11   6 -12    0.43    0.51
  11  -6  12    1.94    1.05
  -6 -11  12    1.84    1.12
   6  11 -13    1.26    0.91
  11  -6 -13    2.09    0.71
  -6 -11  13    1.53    2.20
 -11   6  13    1.31    0.79
 -11   6 -13    1.68    0.79
  11  -6  13    1.82    1.64
  -6 -11  13    3.48    1.69
 -11   5   0    6.34    1.43
   5  11   0    9.33    2.07
  -5 -11   0    5.07    1.33
 -11   5   0    5.41    1.87
  11  -5   0    5.32    1.48
 -11   5  -1    0.72    0.40
   5  11   1    0.52    1.00
   5  11  -1    1.87    1.59
  11  -5  -1   -0.85    1.07
  -5 -11   1   -0.18    0.74
 -11   5   1   -1.03    1.35
 -11   5  -1    0.34    1.31
  11  -5   1    0.38    0.84
  11  -5  -1    0.43    0.42
 -11   5  -2   51.50    3.89
   5  11   2   56.84    4.61
   5  11  -2   50.37    3.19
  11  -5  -2   46.56   10.67
  -5 -11   2   58.27    3.00
 -11   5   2   54.21    3.52
 -11   5  -2   52.83    3.35
  11  -5   2   47.06    6.96
 -11   5  -3   54.06    3.88
   5  11  -3   44.64    3.31
  11  -5  -3   56.95    6.03
  -5 -11   3   59.66    2.82
 -11   5   3   62.64    3.42
 -11   5  -3   47.63    3.36
  11  -5   3   58.46    6.04
 -11   5  -4    6.63    1.42
   5  11   4    6.52    1.99
   5  11  -4    3.14    2.20
  11  -5  -4    3.96    1.38
  -5 -11   4    5.03    0.84
 -11   5   4    2.90    1.33
 -11   5  -4    2.70    1.54
  11  -5   4    6.42    1.29
 -11   5  -5   28.41    1.80
   5  11   5   19.03    6.00
   5  11  -5   25.00    5.97
  11  -5  -5   26.26    5.60
  -5 -11   5   19.67    3.45
 -11   5   5   23.08    2.68
 -11   5  -5   30.32    3.49
  11  -5   5   19.88    4.81
   5  11   6   11.66    3.35
   5  11  -6   18.08    3.77
  11  -5  -6   13.68    4.66
  -5 -11   6   15.03    3.36
 -11   5   6   14.75    3.54
 -11   5  -6   16.95    2.85
  11  -5   6   14.12    3.29
   5  11   7  117.52    4.70
   5  11  -7  111.82    4.89
  11  -5  -7  101.82   12.75
  -5 -11   7  111.79   14.93
 -11   5   7  116.61    4.42
 -11   5  -7  109.20    4.40
  11  -5   7  118.52    9.76
  -5 -11   7  113.28    6.92
   5  11   8   26.53    5.37
   5  11  -8   33.03    2.87
  11  -5  -8   35.01    4.20
  -5 -11   8   28.50    5.43
 -11   5   8   20.38    6.90
 -11   5  -8   29.45    5.68
  11  -5   8   29.50    5.51
  -5 -11   8   27.56    6.06
   5  11   9   65.41    5.26
   5  11  -9   71.77   12.17
  11  -5  -9   74.74    9.90
 -11   5   9   73.85    6.62
 -11   5  -9   68.91    5.35
  11  -5   9   66.14    5.48
  -5 -11   9   70.73    9.58
   5  11 -10   35.87    8.37
  11  -5 -10   37.74    6.36
 -11   5  10   33.90    9.23
 -11   5 -10   30.76    7.46
  11  -5  10   31.28    7.26
  -5 -11  10   28.33    8.74
   5  11 -11    9.48    1.80
  11  -5 -11    8.02    1.94
 -11   5  11    8.33    2.04
 -11   5 -11    9.00    1.67
  11  -5  11    5.85    1.94
  -5 -11  11    2.97    1.84
   5  11 -12    2.16    0.95
  11  -5 -12    2.21    1.09
 -11   5  12    2.02    1.36
 -11   5 -12    2.43    1.42
  11  -5  12    1.00    0.83
  -5 -11  12    5.12    2.25
   5  11 -13    7.03    2.03
  11  -5 -13    2.05    1.43
 -11   5  13    7.30    2.10
 -11   5 -13    3.84    2.08
  11  -5  13    3.21    0.96
  -5 -11  13    2.45    1.28
   5  11 -14   14.67    2.28
  11  -5 -14   18.00    4.03
  -5 -11  14   12.94    2.78
 -11   5  14   11.83    3.85
 -11   5 -14   16.31    2.79
  11  -5  14   16.27    3.84
  -5 -11  14   12.06    4.01
   4  11   0  176.18    5.01
  11  -4   0  187.29    4.44
  -4 -11   0  181.35    5.42
 -11   4   0  190.31    5.22
  11  -4   0  182.98    4.02
   4  11   1   65.74    3.26
   4  11  -1   64.65    3.40
  11  -4  -1   60.92    3.97
  -4 -11   1   64.41    4.96
 -11   4   1   72.58    6.03
 -11   4  -1   65.57    3.49
  11  -4   1   67.33    3.97
  11  -4  -1   60.43    2.81
 -11   4  -2   -0.16    0.92
   4  11   2    0.46    1.02
   4  11  -2    1.09    0.75
  11  -4  -2    0.38    0.98
  -4 -11   2    0.28    0.60
 -11   4   2   -0.40    1.41
 -11   4  -2   -0.08    1.36
  11  -4   2    0.94    1.21
 -11   4  -3   95.72    5.18
   4  11   3  112.76    4.09
   4  11  -3  104.25    4.72
  11  -4  -3  106.09    3.89
  -4 -11   3  101.98    5.40
 -11   4   3  106.00   11.90
 -11   4  -3  102.12    4.59
  11  -4   3  103.55    9.86
 -11   4  -4   27.26    4.52
   4  11  -4   28.93    7.64
  11  -4  -4   28.39    6.96
  -4 -11   4   32.00    5.47
 -11   4   4   36.57    2.89
 -11   4  -4   29.15    5.99
  11  -4   4   36.05    5.14
 -11   4  -5    8.70    1.90
   4  11   5    8.19    1.84
   4  11  -5    9.78    2.40
  11  -4  -5    9.48    2.47
 -11   4   5    4.24    1.46
 -11   4  -5   11.73    1.99
  11  -4   5    9.34    2.48
  -4 -11   5    8.40    1.86
   4  11   6    6.28    1.42
   4  11  -6    8.94    1.37
  11  -4  -6    7.27    1.14
 -11   4   6    5.49    1.74
 -11   4  -6   11.25    2.68
  11  -4   6    8.99    2.31
  -4 -11   6    6.94    1.78
   4  11   7   19.18    4.47
   4  11  -7   15.52    3.56
  11  -4  -7   14.19    4.81
 -11   4   7   23.11    5.44
 -11   4  -7   18.88    4.66
  11  -4   7   23.11    4.53
  -4 -11   7   20.83    3.98
   4  11   8    3.06    1.74
   4  11  -8    1.70    1.44
  11  -4  -8    2.54    1.54
 -11   4   8    2.72    1.67
 -11   4  -8    2.25    0.81
  11  -4   8    3.12    1.15
  -4 -11   8    0.75    0.87
   4  11   9   24.33    4.32
   4  11  -9   32.13    3.73
  11  -4  -9   26.07    3.66
 -11   4   9   31.87    5.17
 -11   4  -9   24.86    2.48
  11  -4   9   26.61    5.33
  -4 -11   9   29.34    7.40
   4  11  10    3.05    0.95
   4  11 -10    4.84    2.03
  11  -4 -10    3.29    1.96
 -11   4  10    2.29    1.10
 -11   4 -10    5.78    1.94
  11  -4  10    2.94    1.60
  -4 -11  10    3.07    1.68
   4  11 -11    7.79    2.10
  11  -4 -11    3.92    1.53
 -11   4  11   11.22    3.10
 -11   4 -11   10.19    2.22
  11  -4  11    9.06    1.60
  -4 -11  11    9.55    2.52
   4  11 -12   46.61    4.22
  11  -4 -12   40.27    8.38
 -11   4  12   50.36   10.57
 -11   4 -12   38.00    8.87
  11  -4  12   45.33    8.27
  -4 -11  12   49.11    7.76
   4  11 -13   19.48    3.49
  11  -4 -13   15.04    3.56
 -11   4  13   14.09    3.92
 -11   4 -13   13.01    3.77
  11  -4  13   15.01    2.58
  -4 -11  13   13.46    3.82
   4  11 -14    1.92    1.26
  11  -4 -14    3.08    1.11
 -11   4  14    3.19    1.81
 -11   4 -14    1.71    0.87
  11  -4  14   -0.24    0.92
  -4 -11  14    4.89    2.17
   3  11   0   17.86    2.27
  11  -3   0   13.14    3.37
  -3 -11   0   13.83    2.99
 -11   3   0   15.56    2.77
   3  11   1  136.34    4.72
   3  11  -1  149.74    5.00
  11  -3  -1  144.35    4.33
  11  -3   1  137.36    4.02
  -3 -11   1  136.98    5.68
 -11   3   1  142.27    4.85
 -11   3  -1  146.68    4.96
   3  11   2   -0.65    1.24
   3  11  -2    0.39    1.37
  11  -3  -2    0.61    0.97
  11  -3   2    1.58    0.80
 -11   3   2    0.86    0.90
 -11   3  -2    1.59    1.28
 -11   3  -3  113.25    5.27
   3  11   3  110.16    3.93
   3  11  -3  121.95    5.94
  11  -3  -3  116.66    3.85
 -11   3   3  118.42    4.37
 -11   3  -3  120.04    4.29
 -11   3  -4   73.26    3.45
   3  11   4   77.69   10.20
   3  11  -4   79.18    4.84
  11  -3  -4   73.04    3.22
 -11   3   4   72.79    3.47
 -11   3  -4   72.55    7.16
  -3 -11   4   78.16    4.45
 -11   3  -5   74.65    4.79
   3  11  -5   79.36    3.67
  11  -3  -5   83.31    8.41
 -11   3   5   79.98    3.67
 -11   3  -5   78.26    5.13
  -3 -11   5   88.14    4.18
   3  11   6   10.52    2.78
   3  11  -6   10.66    4.50
  11  -3  -6   13.20    2.94
 -11   3   6   12.33    3.04
 -11   3  -6   13.07    1.18
  -3 -11   6   16.27    3.13
   3  11   7   29.76    7.08
   3  11  -7   33.85    6.11
  11  -3  -7   27.43    7.67
 -11   3   7   36.31    9.06
 -11   3  -7   32.17    7.05
  -3 -11   7   40.94    3.30
   3  11   8   39.93    7.28
   3  11  -8   38.27    9.23
  11  -3  -8   42.04    3.39
 -11   3   8   46.05    3.80
 -11   3  -8   42.87    2.89
  11  -3   8   51.87    3.58
  -3 -11   8   46.51    4.89
   3  11   9   30.90    7.22
   3  11  -9   33.75    3.03
  11  -3  -9   28.27    5.20
 -11   3   9   29.40    5.61
 -11   3  -9   33.65    7.95
  11  -3   9   26.30    4.53
  -3 -11   9   23.07    3.74
   3  11  10    1.61    0.81
   3  11 -10    1.80    1.07
  11  -3 -10    0.88    2.15
 -11   3  10    2.59    1.20
 -11   3 -10    0.69    1.38
  11  -3  10    2.19    1.35
  -3 -11  10    6.89    1.96
   3  11  11   46.90    2.58
   3  11 -11   34.28    9.79
  11  -3 -11   35.34   10.45
 -11   3  11   41.90    8.72
 -11   3 -11   36.93    8.87
  11  -3  11   40.25    8.47
  -3 -11  11   42.48    3.65
   3  11 -12   12.00    2.47
  11  -3 -12    8.70    1.52
 -11   3  12   13.24    2.68
 -11   3 -12    9.17    2.30
  11  -3  12   10.61    2.84
  -3 -11  12   14.45    2.83
   3  11 -13   29.62    7.61
  11  -3 -13   25.54    6.45
 -11   3  13   29.66    5.97
 -11   3 -13   35.16    3.84
  11  -3  13   29.10    5.40
  -3 -11  13   31.64    9.03
   3  11 -14    2.14    1.35
  11  -3 -14   -0.53    1.28
 -11   3  14    0.80    1.69
 -11   3 -14    1.65    1.10
  11  -3  14    3.02    1.31
  -3 -11  14    1.88    1.00
   2  11   0   32.73    7.66
  11  -2   0   38.06    2.16
 -11   2   0   35.85    7.45
   2  11   1   22.32    4.95
   2  11  -1   25.06    7.56
  11  -2  -1   21.20    5.45
  11  -2   1   24.06    5.90
 -11   2   1   20.71    5.16
 -11   2  -1   23.03    4.15
   2  11   2   27.47    7.31
   2  11  -2   24.68    2.31
  11  -2  -2   20.46    4.11
  11  -2   2   21.05    2.87
 -11   2   2   26.60    3.59
 -11   2  -2   20.54    6.48
   2  11   3  139.94    4.78
   2  11  -3  146.01    7.01
  11  -2  -3  153.92    4.68
  11  -2   3  145.09    3.88
 -11   2   3  136.77    4.75
 -11   2  -3  158.86    5.08
  -2 -11   3  144.04    5.03
 -11   2  -4   12.55    2.83
   2  11   4   14.02    3.56
   2  11  -4   12.31    2.44
  11  -2  -4   14.87    3.81
 -11   2   4   15.14    3.18
 -11   2  -4   15.10    3.28
  -2 -11   4   15.42    2.88
 -11   2  -5   13.43    3.04
   2  11   5   22.88    5.57
   2  11  -5   18.49    4.49
  11  -2  -5   14.91    3.61
 -11   2   5   21.38    5.27
 -11   2  -5   17.01    2.94
  -2 -11   5   17.17    2.61
   2  11  -6   16.32    3.05
  11  -2  -6   16.13    3.60
 -11   2   6   22.94    5.70
 -11   2  -6   17.03    4.67
  -2 -11   6   16.69    5.45
   2  11   7   41.04    3.09
   2  11  -7   37.06    8.47
  11  -2  -7   38.51    4.29
 -11   2   7   44.74    5.29
 -11   2  -7   42.87    7.14
  -2 -11   7   39.80    4.43
   2  11   8   15.99    1.83
   2  11  -8   13.12    3.18
  11  -2  -8   16.54    2.17
 -11   2   8   17.33    3.71
 -11   2  -8   18.55    2.42
  -2 -11   8   17.65    3.22
   2  11   9   84.92    6.01
   2  11  -9   89.35   11.64
  11  -2  -9   93.10   12.81
 -11   2   9   87.39    6.51
 -11   2  -9  101.46    9.69
  -2 -11   9   90.14    5.73
   2  11  10   25.32    5.99
   2  11 -10   24.07    4.30
  11  -2 -10   28.48    5.37
 -11   2  10   33.86    8.52
 -11   2 -10   29.76    2.48
  -2 -11  10   28.28    6.62
   2  11  11   14.25    3.17
   2  11 -11   22.22    4.81
  11  -2 -11   18.38    3.99
 -11   2  11   18.95    4.99
 -11   2 -11   16.57    3.96
  11  -2  11   16.12    3.87
  -2 -11  11   17.04    4.37
   2  11  12    2.55    1.53
   2  11 -12    3.96    1.95
  11  -2 -12    7.88    1.52
 -11   2  12    3.90    1.78
 -11   2 -12    3.81    1.91
  11  -2  12    4.90    1.57
  -2 -11  12    2.44    1.44
   2  11 -13    9.42    2.10
  11  -2 -13    7.62    2.09
 -11   2  13   11.30    2.86
 -11   2 -13    4.79    1.26
  11  -2  13    7.36    2.13
  -2 -11  13    9.53    2.74
   2  11 -14    0.86    0.57
  11  -2 -14    1.30    0.98
 -11   2  14    1.69    0.96
 -11   2 -14   -0.13    1.11
  11  -2  14    2.28    0.76
  -2 -11  14    3.07    2.68
   1  11   0   41.14    3.94
  11  -1   0   42.92    3.42
 -11   1   0   42.52   10.45
   1  11   1   65.68    4.48
   1  11  -1   70.49    3.43
  11  -1  -1   68.89    2.82
  11  -1   1   68.72    2.77
 -11   1   1   64.18    4.68
 -11   1  -1   75.40    5.91
   1  11   2   89.82    5.49
   1  11  -2  103.20    6.88
  11  -1  -2   91.43    3.48
  11  -1   2   83.19    5.68
 -11   1   2   93.19    4.84
 -11   1  -2   87.79    8.24
  -1 -11   2   86.40    7.61
   1  11   3   10.60    1.87
   1  11  -3   12.88    2.41
  11  -1  -3   17.74    4.74
  11  -1   3   14.20    3.46
 -11   1   3   14.87    3.19
 -11   1  -3   16.62    3.81
  -1 -11   3   16.38    2.97
   1  11   4   30.92    6.76
   1  11  -4   30.38    7.23
  11  -1  -4   32.08    2.61
  11  -1   4   33.21    2.91
 -11   1   4   37.37    3.13
 -11   1  -4   30.21    7.90
  -1 -11   4   35.91    7.68
   1  11   5   58.28    2.99
   1  11  -5   68.69    5.91
  11  -1  -5   68.63    3.12
 -11   1   5   63.58    6.45
 -11   1  -5   66.55    4.18
  -1 -11   5   61.06    3.69
   1  11   6    7.96    1.99
   1  11  -6   12.35    2.13
  11  -1  -6    9.29    1.96
 -11   1   6   11.31    2.17
 -11   1  -6    6.17    1.58
  -1 -11   6    7.45    1.69
   1  11   7   46.64    6.06
   1  11  -7   39.19    8.72
  11  -1  -7   47.89    8.20
 -11   1   7   40.47    2.78
 -11   1  -7   42.30    3.50
  -1 -11   7   42.06    3.61
   1  11   8   76.58    4.96
   1  11  -8   86.80    5.87
  11  -1  -8   85.21    5.63
 -11   1   8   90.41    9.64
 -11   1  -8   93.64   12.27
  -1 -11   8   89.58   10.34
   1  11   9   64.16    6.38
   1  11  -9   49.37    3.36
  11  -1  -9   59.14    3.74
 -11   1   9   64.41    4.70
 -11   1  -9   53.20    4.55
  -1 -11   9   61.60    9.45
   1  11  10    2.12    1.71
   1  11 -10    3.54    1.81
  11  -1 -10    2.60    1.72
 -11   1  10    4.11    2.19
 -11   1 -10    1.68    0.91
  -1 -11  10    5.94    2.27
   1  11  11   17.66    3.38
   1  11 -11   10.28    1.93
  11  -1 -11   12.06    3.62
 -11   1  11   18.07    3.56
 -11   1 -11   12.71    2.27
  -1 -11  11   21.49    2.81
   1  11  12    2.70    1.53
   1  11 -12    1.29    1.22
  11  -1 -12    2.10    1.33
 -11   1  12   -0.33    1.62
 -11   1 -12    0.58    1.41
  -1 -11  12    3.63    1.12
   1  11  13    4.28    1.26
   1  11 -13    5.36    1.69
  11  -1 -13    4.87    1.91
 -11   1  13    8.21    1.81
 -11   1 -13    4.49    1.62
  -1 -11  13    1.85    1.26
   1  11 -14   25.09    5.01
  11  -1 -14   24.88    5.10
 -11   1  14   26.06    4.10
 -11   1 -14   31.77    2.36
  11  -1  14   18.44    5.83
  -1 -11  14   23.37    3.67
   1  11 -15    6.53    1.84
 -11   1  15    4.70    1.53
 -11   1 -15    5.73    1.95
  11  -1  15    1.44    1.51
  -1 -11  15    4.49    2.20
   0  11   0   -0.15    1.40
  11   0   0    1.25    0.88
 -11   0   0    1.94    1.85
   0  11   1  124.95    4.41
   0  11  -1  126.18    4.60
  11   0  -1  119.64    3.72
  11   0   1  125.91    3.92
 -11   0   1  117.38    5.86
 -11   0  -1  118.25    4.30
   0 -11   1  126.10    6.08
   0  11   2    0.33    1.30
   0  11  -2    1.08    1.47
  11   0  -2    0.98    1.18
  11   0   2    2.25    0.94
 -11   0   2    0.48    0.72
 -11   0  -2    0.64    0.74
   0 -11   2    2.99    1.26
   0  11   3   37.60    2.70
   0  11  -3   41.84    5.19
  11   0  -3   43.69    3.21
  11   0   3   39.20    2.00
 -11   0   3   40.94    5.06
 -11   0  -3   37.63    3.40
   0 -11   3   41.00    4.33
   0  11   4   10.03    2.81
   0  11  -4   10.01    2.17
  11   0  -4    6.34    1.75
  11   0   4    6.27    1.53
 -11   0   4   11.11    2.00
 -11   0  -4    7.20    1.51
   0 -11   4    6.93    2.20
   0  11   5    2.73    0.83
   0  11  -5    3.12    0.82
  11   0  -5    5.84    1.37
 -11   0   5    3.28    1.41
 -11   0  -5    2.50    1.12
   0 -11   5    2.43    1.34
   0  11   6    1.94    1.31
   0  11  -6    1.48    1.20
  11   0  -6   -0.15    1.14
 -11   0   6    1.65    0.77
 -11   0  -6    2.30    0.87
   0 -11   6   -2.53    1.30
   0  11   7    1.13    1.30
   0  11  -7    1.28    0.80
  11   0  -7    2.15    1.24
 -11   0   7    1.42    1.22
 -11   0  -7    1.92    1.37
   0 -11   7    1.92    1.28
   0  11   8    0.06    0.72
   0  11  -8    1.00    1.44
  11   0  -8    0.53    1.20
 -11   0   8    0.20    1.34
 -11   0  -8   -0.28    1.30
   0 -11   8    0.93    0.99
   0  11   9    0.46    0.82
   0  11  -9    1.05    0.92
  11   0  -9    1.25    1.59
 -11   0   9   -1.82    1.41
 -11   0  -9    1.08    0.72
   0 -11   9   -0.19    1.33
   0  11  10    3.13    1.56
   0  11 -10    7.69    2.24
  11   0 -10    3.55    2.12
 -11   0  10    6.51    1.50
 -11   0 -10    5.59    1.04
   0 -11  10    6.19    3.47
   0  11  11   28.96    7.54
   0  11 -11   31.25    5.90
  11   0 -11   33.20    7.75
 -11   0  11   33.22    7.79
 -11   0 -11   27.97    4.59
   0 -11  11   34.71    6.48
   0  11  12   10.06    2.64
   0  11 -12   11.56    1.98
  11   0 -12   13.17    3.22
 -11   0  12   14.68    2.60
 -11   0 -12   12.38    1.66
   0 -11  12    9.01    2.37
   0  11  13   62.29    6.06
   0  11 -13   65.84    4.14
  11   0 -13   50.69   11.39
 -11   0  13   52.79   15.56
 -11   0 -13   49.67    8.48
   0 -11  13   57.64   13.63
   0  11  14    0.78    0.51
   0  11 -14    1.81    0.72
  11   0 -14    2.31    1.52
 -11   0  14    2.19    1.37
 -11   0 -14    2.65    1.24
   0 -11  14    0.06    1.22
   0  11 -15   26.62    2.39
  11   0 -15   20.04    3.77
 -11   0  15   19.66    3.50
 -11   0 -15   18.06    4.21
  11   0  15   17.79    4.24
   0 -11  15   17.58    4.17
  -1  11   0   45.61    5.18
  11   1   0   45.62    2.43
 -11  -1   0   49.50    3.13
   1 -11   0   42.65    4.18
  -1  11   1   72.84    7.28
  -1  11  -1   64.70    4.25
  11   1  -1   62.78    2.88
  11   1   1   68.69    5.03
 -11  -1   1   68.25    7.40
 -11  -1  -1   64.10    3.58
   1 -11   1   68.86    3.32
  -1  11   2   79.38    7.59
  -1  11  -2   85.08    3.77
  11   1  -2   82.24    5.35
  11   1   2   92.43    3.54
 -11  -1   2   92.81    3.95
 -11  -1  -2   86.76    8.24
   1 -11   2   93.59    4.76
  -1  11   3   16.17    3.86
  -1  11  -3   15.27    2.76
  11   1  -3   17.20    2.07
  11   1   3   12.98    2.92
 -11  -1   3   16.19    3.78
 -11  -1  -3   16.63    2.22
   1 -11   3   18.36    3.49
  -1  11   4   32.06    3.41
  -1  11  -4   32.88    7.20
  11   1  -4   39.33    3.25
  11   1   4   26.88    3.14
 -11  -1   4   31.13    6.97
 -11  -1  -4   37.86    2.49
   1 -11   4   27.93    2.28
  -1  11   5   73.25    6.58
  -1  11  -5   65.41    4.02
  11   1  -5   61.72    3.21
 -11  -1   5   63.63    3.71
 -11  -1  -5   59.68    3.43
   1 -11   5   66.43   11.26
  -1  11   6   10.21    1.81
  -1  11  -6    9.43    2.05
  11   1  -6    8.72    2.15
 -11  -1   6   12.56    3.39
 -11  -1  -6   12.73    2.66
   1 -11   6    8.43    2.21
  -1  11   7   40.18    8.55
  -1  11  -7   42.44    8.68
  11   1  -7   43.41    7.35
 -11  -1   7   38.44    6.77
 -11  -1  -7   42.72    4.04
   1 -11   7   42.32    3.76
  -1  11   8   89.35    3.93
  -1  11  -8   83.52   11.02
  11   1  -8   86.76    4.35
 -11  -1   8   86.25    4.48
 -11  -1  -8   84.72   10.48
   1 -11   8   92.88   10.20
  -1  11   9   51.74    8.36
  -1  11  -9   58.39    5.73
  11   1  -9   60.00   11.32
 -11  -1   9   54.73    5.10
 -11  -1  -9   60.15    4.36
   1 -11   9   52.00    6.61
  -1  11  10    2.07    1.19
  -1  11 -10    4.15    1.74
  11   1 -10    3.60    2.00
 -11  -1  10    1.38    1.03
 -11  -1 -10    2.35    1.12
   1 -11  10   -3.41    2.00
  -1  11  11   13.19    3.27
  -1  11 -11   11.47    2.81
  11   1 -11   17.27    2.91
 -11  -1  11   12.47    3.24
 -11  -1 -11   13.40    2.41
   1 -11  11    9.58    2.04
  -1  11  12    1.17    0.57
  -1  11 -12   -0.06    1.30
  11   1 -12    2.11    1.17
 -11  -1  12   -0.71    1.88
 -11  -1 -12    1.58    1.45
   1 -11  12    1.59    0.88
  -1  11  13    3.46    1.09
  -1  11 -13    5.69    1.55
  11   1 -13    5.90    1.52
 -11  -1  13    4.41    2.02
 -11  -1 -13    5.87    1.96
   1 -11  13    4.37    2.20
  -1  11  14   19.85    5.49
  -1  11 -14   21.44    3.78
  11   1 -14   21.08    6.33
 -11  -1  14   28.89    6.43
 -11  -1 -14   22.40    4.23
   1 -11  14   28.77    6.76
  11   1 -15    2.02    1.04
 -11  -1  15    3.36    1.50
 -11  -1 -15    3.81    1.33
   1 -11  15    2.23    0.96
  -2  11   0   35.41    7.29
  11   2   0   35.46    2.41
 -11  -2   0   44.46    2.75
  -2  11   0   35.57    1.78
   2 -11   0   38.89    2.67
  -2  11   1   23.95    4.29
  -2  11  -1   29.28    5.06
  11   2  -1   24.44    3.60
  11   2   1   27.41    2.37
 -11  -2   1   27.04    2.28
 -11  -2  -1   25.09    4.65
  -2  11   1   20.94    3.49
  -2  11  -1   25.75    1.95
   2 -11   1   23.69    5.51
  -2  11   2   21.22    5.42
  -2  11  -2   23.80    5.65
  11   2  -2   23.87    5.53
  11   2   2   25.06    1.82
 -11  -2   2   20.49    4.85
 -11  -2  -2   19.23    4.43
  -2  11   2   18.69    1.83
  -2  11  -2   25.29    2.36
   2 -11   2   23.36    4.76
  -2  11   3  149.85    7.70
  -2  11  -3  141.63    4.61
  11   2  -3  150.51    5.14
  11   2   3  157.33    4.44
 -11  -2   3  157.57    5.06
 -11  -2  -3  143.07    4.63
  -2  11  -3  146.73    4.01
   2 -11   3  164.44    5.16
  -2  11   4   15.94    3.73
  -2  11  -4   16.12    4.08
  11   2  -4   15.55    3.02
  11   2   4   14.00    1.08
 -11  -2   4   17.21    5.07
 -11  -2  -4   12.87    2.59
  -2  11  -4   11.97    2.74
   2 -11   4   15.38    1.97
  -2  11   5   13.70    3.61
  -2  11  -5   17.97    3.24
  11   2  -5   21.20    2.48
 -11  -2   5   19.02    4.73
 -11  -2  -5   19.12    6.16
   2 -11   5   15.50    2.91
  -2  11   6   14.07    3.46
  -2  11  -6   22.49    4.61
  11   2  -6   13.45    1.70
 -11  -2   6   13.53    2.24
 -11  -2  -6   16.08    4.89
   2 -11   6   16.05    2.12
  -2  11   7   36.83    9.06
  -2  11  -7   34.04    6.20
  11   2  -7   40.66    4.32
 -11  -2   7   31.04    8.17
 -11  -2  -7   38.04    6.10
   2 -11   7   43.47    6.86
  -2  11   8    8.80    5.49
  -2  11  -8   17.01    3.91
  11   2  -8   17.16    2.47
 -11  -2   8   12.61    3.90
 -11  -2  -8   19.48    2.02
   2 -11   8   12.94    3.61
  -2  11   9   94.74   10.46
  -2  11  -9   86.10   13.14
  11   2  -9   85.54    4.60
 -11  -2   9   81.17   16.19
 -11  -2  -9   88.90    4.55
   2 -11   9   92.27   12.07
  -2  11  10   29.70    6.46
  -2  11 -10   23.81    6.08
  11   2 -10   30.99    3.75
 -11  -2  10   27.71    6.50
 -11  -2 -10   25.56    2.13
   2 -11  10   29.47    7.78
  -2  11  11   21.91    3.59
  -2  11 -11   13.22    3.70
  11   2 -11   17.61    7.21
 -11  -2  11   18.08    4.26
 -11  -2 -11   13.67    3.45
   2 -11  11   20.14    4.61
  -2  11  12    4.39    1.64
  -2  11 -12    4.64    1.37
  11   2 -12    5.14    1.33
 -11  -2  12    5.69    2.06
 -11  -2 -12    4.98    1.55
   2 -11  12    3.70    0.99
  -2  11  13   11.37    3.01
  -2  11 -13    4.68    1.23
  11   2 -13   12.88    2.21
 -11  -2  13   12.68    3.54
 -11  -2 -13    7.14    1.46
   2 -11  13   10.47    3.49
  -2  11  14    1.31    1.25
  11   2 -14    5.43    2.02
 -11  -2  14    1.65    1.28
 -11  -2 -14    0.31    1.05
   2 -11  14    3.51    1.95
  -3  11   0   16.32    3.15
  11   3   0   17.10    1.57
 -11  -3   0   17.20    2.04
  -3  11   0   13.99    4.57
   3 -11   0   15.42    4.07
  -3  11   1  142.23    4.87
  -3  11  -1  140.46    4.72
  11   3  -1  129.31    5.78
  11   3   1  149.78    4.46
 -11  -3   1  138.94    8.69
 -11  -3  -1  131.87    4.39
  -3  11   1  141.38    4.63
  -3  11  -1  134.49    4.12
   3 -11   1  139.13    4.28
   3 -11  -1  133.05    6.13
  -3  11   2    0.70    1.03
  -3  11  -2    2.37    1.08
  11   3  -2    0.36    0.63
  11   3   2    2.32    0.67
 -11  -3   2    0.39    1.05
 -11  -3  -2    0.75    0.82
  -3  11   2    0.78    0.31
  -3  11  -2    0.80    0.57
   3 -11   2   -0.34    1.22
  -3  11   3  109.70    4.01
  -3  11  -3  116.00    3.93
  11   3  -3  113.41    3.81
  11   3   3  110.29    3.18
 -11  -3   3  109.84    4.99
 -11  -3  -3  128.83    7.34
  -3  11   3  112.20    3.08
  -3  11  -3  120.19    3.44
   3 -11   3  111.26    5.79
  -3  11   4   69.77    4.71
  -3  11  -4   71.73    4.23
  11   3  -4   70.60    3.17
  11   3   4   77.87    2.45
 -11  -3   4   80.23   10.86
 -11  -3  -4   72.29   11.85
  -3  11  -4   72.40    2.82
   3 -11   4   71.31    4.82
  -3  11   5   77.59    5.25
  -3  11  -5   73.57    3.54
  11   3  -5   74.37    6.89
 -11  -3   5   74.51    6.53
 -11  -3  -5   74.97    3.20
  -3  11  -5   88.56    3.63
   3 -11   5   75.32    4.98
  -3  11   6   12.28    2.86
  -3  11  -6   17.00    3.27
  11   3  -6   12.80    2.65
 -11  -3   6   13.33    3.20
 -11  -3  -6   10.70    3.40
  -3  11  -6   14.04    2.79
   3 -11   6   14.38    2.75
  -3  11   7   29.88    7.44
  -3  11  -7   36.79    8.33
  11   3  -7   34.18    9.49
 -11  -3   7   30.63    5.39
 -11  -3  -7   31.03    6.39
  -3  11  -7   32.82    2.78
   3 -11   7   31.78    3.03
  -3  11   8   54.09    7.95
  -3  11  -8   47.43    8.09
  11   3  -8   51.13    7.54
 -11  -3   8   43.41    9.79
 -11  -3  -8   47.35    9.26
   3 -11   8   47.47    3.86
  -3  11   9   26.71    6.49
  -3  11  -9   26.35    5.00
  11   3  -9   24.77    5.75
 -11  -3   9   25.85    6.09
 -11  -3  -9   30.41    3.83
   3 -11   9   29.28    6.42
  -3  11  10    1.32    0.95
  -3  11 -10    3.32    1.33
  11   3 -10    2.34    1.72
 -11  -3  10    0.28    1.33
 -11  -3 -10    1.11    0.60
   3 -11  10    2.25    1.12
  -3  11  11   42.22    3.59
  -3  11 -11   41.65    6.39
  11   3 -11   45.55    3.83
 -11  -3  11   48.11   11.19
 -11  -3 -11   34.32    6.70
   3 -11  11   41.09    7.28
  -3  11  12   10.83    2.48
  -3  11 -12    8.39    2.50
  11   3 -12   12.17    2.15
 -11  -3  12   16.62    2.75
 -11  -3 -12    7.80    2.26
   3 -11  12   11.99    2.93
  -3  11  13   32.25    6.89
  11   3 -13   36.62    3.24
 -11  -3  13   28.66    6.01
 -11  -3 -13   24.36    5.01
   3 -11  13   30.48    8.37
  -3  11  14   -0.41    0.98
  11   3 -14   -0.83    1.24
 -11  -3  14   -0.84    1.74
   3 -11  14   -0.53    1.71
  -4  11   0  169.71    8.48
  11   4   0  182.60    4.71
 -11  -4   0  172.61    4.73
  -4  11   0  189.19    3.94
   4 -11   0  175.65    4.61
  -4  11   1   63.55    3.20
  -4  11  -1   67.15    9.42
  11   4   1   60.40    3.75
  11   4  -1   60.26    2.69
 -11  -4   1   62.54    4.08
 -11  -4  -1   64.95    2.96
  -4  11   1   63.70    2.74
  -4  11  -1   64.86    2.46
   4 -11   1   66.19    4.03
   4 -11  -1   64.45    2.67
  -4  11   2    2.07    1.88
  -4  11  -2    1.35    0.65
  11   4  -2    0.31    0.62
  11   4   2   -0.02    0.75
 -11  -4   2    0.50    1.37
 -11  -4  -2    1.89    0.66
  -4  11   2    0.86    0.57
  -4  11  -2    1.25    0.67
   4 -11   2    1.90    1.20
  -4  11   3   99.28    3.97
  -4  11  -3  102.39    3.74
  11   4  -3  102.03    4.02
  11   4   3  101.72    3.17
 -11  -4   3  112.67    6.67
 -11  -4  -3  109.92    9.34
  -4  11   3   99.87    2.68
  -4  11  -3  103.02    3.32
   4 -11   3  105.90    8.41
  -4  11   4   30.86    6.57
  -4  11  -4   33.95    8.75
  11   4  -4   38.40    5.35
  11   4   4   28.22    1.58
 -11  -4   4   24.14    4.44
 -11  -4  -4   40.55    4.13
  -4  11  -4   36.55    3.59
   4 -11   4   28.12    6.49
  -4  11   5    5.14    2.68
  -4  11  -5   10.92    2.02
  11   4  -5    7.23    1.78
 -11  -4   5    9.16    1.37
 -11  -4  -5    9.03    1.90
  -4  11  -5    9.51    2.73
   4 -11   5    4.51    1.53
  -4  11   6    8.18    3.13
  -4  11  -6    7.66    1.48
  11   4  -6    6.74    1.55
 -11  -4   6    7.77    1.53
 -11  -4  -6    7.94    1.80
  -4  11  -6    6.01    1.39
   4 -11   6    7.55    1.41
  -4  11   7   17.17    4.15
  -4  11  -7   19.93    4.47
  11   4  -7   22.95    5.17
 -11  -4   7   17.62    3.31
 -11  -4  -7   20.64    3.02
  -4  11  -7   20.05    4.56
   4 -11   7   16.14    3.64
  -4  11   8    2.65    1.66
  -4  11  -8    3.27    1.49
  11   4  -8    3.55    1.58
 -11  -4   8    2.96    1.55
 -11  -4  -8    1.75    1.10
  -4  11  -8    1.90    1.28
   4 -11   8    4.59    2.17
  -4  11   9   29.31    7.37
  -4  11  -9   29.28    2.60
  11   4  -9   31.31    3.08
 -11  -4   9   32.12    5.17
 -11  -4  -9   28.48    6.08
  -4  11  -9   33.66    7.23
   4 -11   9   27.74    6.05
  -4  11  10    5.27    2.01
  -4  11 -10    4.82    1.19
  11   4 -10    9.00    2.68
 -11  -4  10    3.92    1.64
 -11  -4 -10    3.31    0.97
   4 -11  10    1.95    1.01
  -4  11  11   12.52    1.77
  -4  11 -11    9.38    1.63
  11   4 -11    8.71    2.17
 -11  -4  11   12.28    3.29
 -11  -4 -11    6.93    1.62
   4 -11  11    8.31    1.58
  -4  11  12   36.49    9.27
  11   4 -12   55.16    4.23
 -11  -4  12   41.53    7.97
   4 -11  12   35.36    8.59
  -4  11  13   10.90    3.28
  11   4 -13   16.04    2.43
 -11  -4  13   14.57    2.99
   4 -11  13   21.98    3.48
  -4  11  14    0.75    1.10
  11   4 -14    1.17    1.11
 -11  -4  14    2.67    1.19
   4 -11  14    3.89    1.43
  -5  11   0    3.92    1.51
  11   5   0    5.40    1.43
 -11  -5   0    5.71    1.44
  -5  11   0    7.05    1.60
   5 -11   0    4.85    1.16
  -5  11   1    0.70    0.79
  -5  11  -1    1.63    1.05
  11   5   1    0.10    0.80
  11   5  -1    1.30    1.07
 -11  -5   1    1.02    0.66
 -11  -5  -1   -0.68    1.06
  -5  11   1    2.41    1.09
  -5  11  -1   -0.04    0.84
   5 -11   1    0.21    1.02
   5 -11  -1   -0.12    0.57
  -5  11   2   52.93    4.94
  -5  11  -2   58.26    6.98
  11   5   2   50.90    2.36
 -11  -5   2   53.97    2.96
 -11  -5  -2   57.85    3.96
  -5  11   2   51.34    2.30
  -5  11  -2   49.40    2.33
   5 -11   2   57.05    3.44
  -5  11   3   54.33    9.38
  -5  11  -3   57.20    4.79
  11   5   3   48.78    2.19
  11   5  -3   54.22    4.39
 -11  -5   3   45.27    9.36
 -11  -5  -3   60.67    3.85
  -5  11   3   47.39    2.05
  -5  11  -3   61.52    3.17
   5 -11   3   48.00    3.40
  -5  11   4    6.88    2.30
  -5  11  -4    3.14    1.52
  11   5   4    6.64    1.46
  11   5  -4    3.30    0.86
 -11  -5   4    6.37    1.99
 -11  -5  -4    5.15    1.04
  -5  11   4    5.75    1.73
  -5  11  -4    7.05    2.25
   5 -11   4    4.25    2.01
  -5  11   5   25.14    6.67
  -5  11  -5   17.38    2.11
  11   5  -5   19.30    4.00
 -11  -5   5   26.18    5.63
 -11  -5  -5   20.63    3.56
  -5  11  -5   24.34    6.77
   5 -11   5   28.08    4.87
  -5  11   6   14.92    3.12
  -5  11  -6   12.62    2.85
  11   5  -6   14.93    2.12
 -11  -5   6   14.16    5.26
 -11  -5  -6   12.74    2.70
  -5  11  -6   18.02    4.58
   5 -11   6   15.89    2.03
  -5  11   7  111.99    9.24
  -5  11  -7  105.74    6.65
  11   5  -7  108.81    4.20
 -11  -5   7  105.53    7.17
 -11  -5  -7  114.07    4.50
  -5  11  -7  101.27    6.60
   5 -11   7  112.07    9.76
  -5  11   8   25.58    5.48
  -5  11  -8   29.19    2.31
  11   5  -8   26.72    4.62
 -11  -5   8   30.80    6.28
 -11  -5  -8   23.45    7.01
  -5  11  -8   31.58    4.58
   5 -11   8   29.06    6.47
  -5  11   9   73.34    5.37
  -5  11  -9   63.05   10.14
  11   5  -9   70.08   11.06
 -11  -5   9   81.74    7.14
 -11  -5  -9   72.51    7.67
  -5  11  -9   77.82    4.93
   5 -11   9   69.28   13.09
  -5  11  10   37.16    8.23
  -5  11 -10   27.64    5.65
  11   5 -10   39.92    4.29
 -11  -5  10   30.26    7.10
 -11  -5 -10   30.52    4.72
  -5  11 -10   36.14    6.44
   5 -11  10   40.56    6.91
  -5  11  11    4.39    2.53
  -5  11 -11    5.90    1.87
  11   5 -11   10.67    2.62
 -11  -5  11    8.33    2.62
   5 -11  11   12.32    2.95
  -5  11  12    1.86    0.61
  11   5 -12    2.36    0.92
 -11  -5  12   -0.13    1.08
   5 -11  12   -0.85    1.57
  -5  11  13    3.71    1.55
  11   5 -13    2.61    2.22
 -11  -5  13    1.54    1.72
   5 -11  13    4.14    1.50
  -5  11  14   14.23    3.60
  11   5 -14   18.84    3.00
 -11  -5  14   12.85    3.87
   5 -11  14   17.78    3.02
  11   6   0   -0.56    0.94
 -11  -6   0    0.09    0.85
  -6  11   0    1.60    0.65
   6 -11   0    0.32    0.45
  -6  11   1    7.17    1.95
  -6  11  -1    6.22    1.45
  11   6   1    5.66    1.61
  11   6  -1    4.95    1.72
 -11  -6   1    7.14    1.22
 -11  -6  -1    3.03    1.08
  -6  11   1    4.01    1.85
  -6  11  -1    4.87    1.14
   6 -11   1    4.81    1.70
   6 -11  -1    4.41    0.82
  -6  11   2   35.01    8.33
  -6  11  -2   30.99    5.97
  11   6   2   25.93    6.90
 -11  -6   2   28.94    6.59
 -11  -6  -2   28.81    5.21
  -6  11   2   26.25    4.73
  -6  11  -2   25.09    7.42
   6 -11   2   31.54    3.21
   6 -11  -2   32.34    2.77
  -6  11   3    9.69    2.50
  -6  11  -3    6.40    1.97
  11   6   3    8.82    3.25
  11   6  -3   11.47    2.19
 -11  -6   3    8.09    1.74
 -11  -6  -3    9.84    1.95
  -6  11   3   10.40    2.97
  -6  11  -3   11.40    2.78
   6 -11   3   11.63    1.78
  -6  11   4   12.03    2.84
  -6  11  -4   13.29    2.15
  11   6   4    8.32    3.03
  11   6  -4   11.75    3.51
 -11  -6   4   13.88    2.75
 -11  -6  -4    9.35    2.07
  -6  11   4   10.21    3.51
  -6  11  -4   11.16    1.51
   6 -11   4   10.32    2.71
  -6  11   5   11.76    3.24
  -6  11  -5   11.86    2.96
  11   6  -5   15.36    2.25
 -11  -6   5   16.34    2.75
  -6  11  -5   13.85    3.12
   6 -11   5   15.88    2.37
  -6  11   6  189.77   29.26
  -6  11  -6  177.60   29.66
  11   6  -6  182.44   28.07
 -11  -6   6  172.19    6.42
 -11  -6  -6  166.29    8.68
  -6  11  -6  166.48    5.77
   6 -11   6  172.00    8.23
  -6  11   7   17.50    3.56
  -6  11  -7   14.72    2.68
  11   6  -7   14.09    2.09
 -11  -6   7   14.64    2.90
 -11  -6  -7   12.36    3.29
  -6  11  -7   14.73    4.84
   6 -11   7   12.77    3.22
  -6  11   8    3.40    1.19
  -6  11  -8    4.16    1.53
  11   6  -8    2.42    1.28
 -11  -6   8    4.79    1.94
 -11  -6  -8    3.91    1.17
  -6  11  -8    2.83    1.75
   6 -11   8    4.82    1.39
  -6  11   9    4.91    2.11
  -6  11  -9    6.99    1.36
  11   6  -9   12.13    1.93
 -11  -6   9    8.97    1.88
  -6  11  -9   10.49    1.99
   6 -11   9   10.09    2.56
  -6  11  10   60.67    6.11
  -6  11 -10   49.14    7.68
  11   6 -10   52.01   11.83
 -11  -6  10   54.63    9.27
  -6  11 -10   60.81    3.73
   6 -11  10   63.16   14.86
  -6  11  11    1.14    1.40
  11   6 -11    1.54    1.05
 -11  -6  11    2.02    1.37
  -6  11 -11   -0.53    1.34
   6 -11  11    1.82    1.21
  -6  11  12    1.52    1.23
  11   6 -12    0.74    2.10
 -11  -6  12    3.69    1.49
  -6  11 -12    3.87    1.58
   6 -11  12    2.06    1.25
  -6  11  13    3.28    1.55
  11   6 -13    1.33    1.13
 -11  -6  13    1.76    1.54
   6 -11  13    0.23    1.03
  -7  11   0    5.02    1.85
  11   7   0    3.02    0.84
 -11  -7   0    5.89    1.51
  -7  11   0    2.62    1.01
   7 -11   0    3.81    0.77
  -7  11   1   52.23   10.88
  -7  11  -1   48.21    8.74
  11   7   1   48.34    3.33
  11   7  -1   47.63    4.30
 -11  -7   1   55.48    5.50
 -11  -7  -1   50.63    2.66
  -7  11   1   47.70    2.37
  -7  11  -1   53.93    4.15
   7 -11   1   41.71    5.92
   7 -11  -1   51.51    2.48
  -7  11   2  113.89    5.83
  -7  11  -2  104.43    6.91
  11   7   2  108.20    4.11
  11   7  -2  106.81    4.29
 -11  -7   2  104.68    7.41
 -11  -7  -2  101.57    7.16
  -7  11   2  106.68    3.97
  -7  11  -2   91.67    6.65
   7 -11   2   97.98   12.48
  -7  11   3   39.92   10.14
  -7  11  -3   46.16    9.54
  11   7  -3   41.92    9.75
 -11  -7   3   45.16    7.68
 -11  -7  -3   47.38    4.09
  -7  11   3   42.07    2.16
  -7  11  -3   47.04    6.88
   7 -11   3   36.93    6.06
  -7  11   4    6.11    2.22
  -7  11  -4    2.38    1.24
  11   7   4    3.07    0.86
  11   7  -4    2.57    1.90
 -11  -7   4    3.31    1.25
 -11  -7  -4    5.14    1.82
  -7  11   4    3.43    0.92
  -7  11  -4    2.97    0.64
   7 -11   4    3.10    1.19
  -7  11   5    1.21    1.12
  -7  11  -5    1.12    1.03
  11   7  -5    2.03    2.30
 -11  -7   5    1.04    1.31
 -11  -7  -5    1.06    0.86
  -7  11   5    1.87    1.25
  -7  11  -5   -0.92    0.95
   7 -11   5    3.44    1.45
  -7  11   6    2.60    2.42
  -7  11  -6    3.02    1.21
  11   7  -6    2.50    1.44
 -11  -7   6    3.18    1.54
 -11  -7  -6    1.49    1.23
  -7  11  -6    2.34    1.42
   7 -11   6    4.97    1.72
  -7  11   7   30.42    6.31
  -7  11  -7   27.05    4.18
  11   7  -7   30.84    2.63
 -11  -7   7   25.87    4.51
  -7  11  -7   28.52    7.43
   7 -11   7   36.96    5.38
  -7  11   8    9.03    1.96
  -7  11  -8    6.37    1.21
  11   7  -8    6.50    1.97
 -11  -7   8    4.82    1.08
   7 -11   8    5.41    1.89
  -7  11   9   13.43    2.61
  -7  11  -9   11.41    2.33
  11   7  -9   14.69    2.91
 -11  -7   9   15.85    4.38
  -7  11  -9   10.20    2.08
   7 -11   9   13.44    3.27
  -7  11  10   29.01    7.31
  11   7 -10   21.95    4.25
 -11  -7  10   28.74    5.44
  -7  11 -10   25.18    3.94
   7 -11  10   28.21    5.18
  -7  11  11   12.88    2.14
  11   7 -11    9.34    3.33
 -11  -7  11   10.52    3.31
  -7  11 -11   10.22    4.03
   7 -11  11   13.60    1.82
  -7  11  12    2.42    1.11
  11   7 -12    1.33    2.21
 -11  -7  12    2.38    0.81
  -7  11 -12    1.00    1.08
   7 -11  12    3.49    1.21
  -8  11   0  105.85    7.69
  11   8   0  116.50    4.00
 -11  -8   0  101.53   12.05
  -8  11   0  105.64    3.95
   8 -11   0  103.84    6.11
  -8  11   1   19.45    3.73
  -8  11  -1   19.03    3.82
  11   8   1   18.88    4.60
  11   8  -1   20.71    2.04
 -11  -8   1   20.35    4.66
 -11  -8  -1   19.44    1.78
  -8  11   1   17.91    4.55
  -8  11  -1   17.42    5.67
   8 -11   1   22.19    1.97
  -8  11   2    7.77    1.39
  -8  11  -2    6.58    1.96
  11   8   2    4.84    1.38
  11   8  -2    8.63    1.95
 -11  -8   2    9.37    1.30
 -11  -8  -2    5.94    1.76
  -8  11   2    6.91    2.35
  -8  11  -2    6.51    1.69
   8 -11   2    3.06    1.21
  -8  11   3    4.99    1.82
  -8  11  -3    6.57    1.45
  11   8   3    5.20    2.19
  11   8  -3    7.51    1.62
 -11  -8   3    4.57    1.35
 -11  -8  -3    4.42    1.15
  -8  11   3    6.30    1.64
  -8  11  -3    6.16    1.51
   8 -11   3    3.28    1.37
  -8  11   4   40.86    8.58
  -8  11  -4   44.55    3.44
  11   8   4   35.31    4.02
  11   8  -4   38.01    8.16
 -11  -8   4   42.74    8.59
 -11  -8  -4   41.60    3.14
  -8  11   4   41.21    3.66
  -8  11  -4   39.91    3.21
   8 -11   4   35.99    7.33
  -8  11   5   16.45    4.69
  -8  11  -5   13.92    2.61
  11   8  -5   14.80    4.07
 -11  -8   5   18.57    3.64
  -8  11   5   13.30    3.75
  -8  11  -5   14.22    3.08
   8 -11   5   15.18    2.55
  -8  11   6    2.01    1.46
  -8  11  -6    1.17    0.54
  11   8  -6   -0.47    1.48
 -11  -8   6    1.00    0.61
  -8  11  -6    0.03    0.91
   8 -11   6    1.97    0.73
  -8  11   7    1.00    1.03
  -8  11  -7    2.50    0.92
  11   8  -7    2.68    1.89
 -11  -8   7    0.00    1.53
  -8  11  -7    1.73    0.97
   8 -11   7    2.25    1.24
  -8  11   8    1.16    0.63
  -8  11  -8    2.45    0.74
  11   8  -8    1.51    1.22
 -11  -8   8    3.66    1.54
  -8  11  -8    3.21    1.47
   8 -11   8    3.01    1.28
  -8  11   9    6.34    1.45
  11   8  -9    9.14    2.26
 -11  -8   9    4.03    1.21
  -8  11  -9   10.01    2.51
   8 -11   9    7.76    2.71
  -8  11  10    1.82    1.37
  11   8 -10   -0.28    1.32
 -11  -8  10    1.49    1.01
  -8  11 -10    2.11    1.73
   8 -11  10    2.65    1.30
  -8  11  11   14.63    3.35
  11   8 -11    6.05    2.44
 -11  -8  11   13.12    2.25
  -8  11 -11   12.82    3.05
   8 -11  11   12.37    2.50
  -8  11  12   25.99    5.04
  11   8 -12   29.75    3.32
 -11  -8  12   29.70    6.99
  -8  11 -12   27.06    6.12
   8 -11  12   30.82    4.62
  -9  11   0    1.71    0.85
  11   9   0   -0.60    1.16
 -11  -9   0   -0.21    0.70
  -9  11   0    0.11    0.79
  -9  11   1   10.83    2.16
  -9  11  -1    9.35    2.43
  11   9   1    9.40    1.98
  11   9  -1   10.56    1.59
 -11  -9   1    9.91    2.47
 -11  -9  -1    9.94    1.57
  -9  11   1   10.13    2.19
  -9  11  -1   13.32    2.74
   9 -11   1    8.83    1.98
  -9  11   2    2.61    0.92
  -9  11  -2    5.86    1.21
  11   9   2    3.20    1.84
  11   9  -2    2.82    1.03
 -11  -9   2    1.14    0.71
 -11  -9  -2    2.00    1.27
  -9  11   2    3.04    1.12
  -9  11  -2    4.21    1.02
   9 -11   2    1.12    1.08
  -9  11   3    2.84    1.30
  -9  11  -3    2.38    1.04
  11   9   3    0.91    0.94
  11   9  -3    0.92    0.67
 -11  -9   3    1.85    0.92
  -9  11   3    2.50    1.32
  -9  11  -3    2.63    1.55
   9 -11   3    1.46    1.00
  -9  11   4   87.40   14.41
  -9  11  -4   93.59    7.93
  11   9   4   85.37    3.90
  11   9  -4   89.43    8.02
 -11  -9   4  100.73   13.17
  -9  11   4  100.91    3.61
  -9  11  -4   89.87    3.96
   9 -11   4   94.33    6.40
  -9  11   5    6.86    1.54
  -9  11  -5    1.72    0.74
  11   9  -5    4.53    1.77
 -11  -9   5    5.62    1.55
  -9  11   5    3.53    1.29
  -9  11  -5    3.21    1.50
   9 -11   5    4.67    1.62
  -9  11   6   -0.10    0.74
  -9  11  -6   -0.04    0.97
  11   9  -6    1.56    1.56
 -11  -9   6    1.21    0.81
  -9  11  -6    2.40    1.45
   9 -11   6    0.90    1.69
  -9  11   7    4.67    1.44
  -9  11  -7    1.10    0.52
  11   9  -7    0.98    1.54
 -11  -9   7    3.57    1.80
  -9  11  -7    1.34    1.37
   9 -11   7    3.67    1.40
  -9  11   8   67.35   13.56
  11   9  -8   66.26    4.75
 -11  -9   8   65.42   11.52
  -9  11  -8   70.12    5.61
   9 -11   8   72.48   13.75
  -9  11   9    1.97    1.26
  11   9  -9    2.25    0.93
 -11  -9   9    0.91    1.19
  -9  11  -9    1.16    1.14
   9 -11   9    1.52    0.99
  -9  11  10   -0.57    1.50
  11   9 -10    1.54    1.74
 -11  -9  10   -1.97    1.49
  -9  11 -10    2.89    1.42
   9 -11  10    2.69    1.57
  -9  11  11    3.01    1.77
  11   9 -11    1.36    1.39
 -11  -9  11    0.88    0.84
  -9  11 -11   -0.03    1.36
   9 -11  11    2.95    1.30
 -10  11   0   16.17    2.70
  11  10   0   15.39    3.48
 -10  11   0   15.88    2.76
 -10  11   1   41.75    7.54
 -10  11  -1   39.01    8.17
  11  10   1   38.17    8.22
  11  10  -1   41.73    4.32
 -11 -10   1   35.45    7.41
 -10  11   1   39.19    4.05
 -10  11  -1   39.63    8.89
 -10  11   2    8.97    1.57
 -10  11  -2    5.51    1.00
  11  10   2    8.65    2.52
  11  10  -2    3.30    1.45
 -11 -10   2    7.05    1.92
 -10  11   2    7.26    1.53
 -10  11  -2    8.83    2.80
 -10  11   3    2.88    0.93
 -10  11  -3    1.33    1.43
  11  10   3    1.30    1.20
  11  10  -3    2.08    1.13
 -11 -10   3    2.94    1.34
 -10  11   3    1.97    0.68
 -10  11  -3    1.37    1.19
  10 -11   3    1.65    1.18
 -10  11   4   11.32    2.11
 -10  11  -4   12.06    3.86
  11  10   4    8.89    2.68
  11  10  -4   12.31    2.86
 -11 -10   4    9.19    1.73
 -10  11   4    7.10    2.64
 -10  11  -4   15.86    3.22
  10 -11   4    7.88    2.63
 -10  11   5   11.90    2.28
 -10  11  -5   11.14    2.50
 -11 -10   5   11.64    3.77
 -10  11   5   12.34    3.21
 -10  11  -5    6.15    2.76
  10 -11   5   12.85    2.25
 -10  11   6   41.27    9.64
 -10  11  -6   53.86    5.16
  11  10  -6   50.73   11.10
 -11 -10   6   54.76    8.39
 -10  11   6   46.99    6.45
 -10  11  -6   45.84   11.84
  10 -11   6   51.21    9.58
 -10  11   7   12.96    1.93
  11  10  -7    8.30    3.87
 -11 -10   7    6.08    1.27
 -10  11  -7   13.99    2.24
  10 -11   7   10.02    2.91
 -10  11   8   21.99    4.94
  11  10  -8   21.56    3.36
 -11 -10   8   19.48    2.68
 -10  11  -8   15.87    4.22
  10 -11   8   20.72    2.81
 -10  11   9    6.27    1.28
  11  10  -9    6.15    1.87
 -11 -10   9    4.49    1.69
 -10  11  -9    3.89    1.83
  10 -11   9    6.22    1.94
 -10  11  10   12.76    3.28
  11  10 -10   14.06    4.47
 -11 -10  10   15.40    2.90
 -10  11 -10    9.26    2.01
  10 -11  10   14.92    2.79
 -11  11   0    0.36    0.94
  11  11   0    2.78    0.87
 -11  11   0    2.31    0.77
 -11  11   1    1.83    0.95
 -11  11  -1    1.48    0.89
  11  11   1    2.04    1.25
  11  11  -1    2.55    1.12
 -11  11   1    2.34    1.17
 -11  11  -1    3.16    1.25
 -11  11   2   38.37    6.91
 -11  11  -2   40.35    7.09
  11  11   2   45.43    4.14
  11  11  -2   41.08    8.26
 -11  11   2   34.27    9.09
 -11  11  -2   41.53    9.22
 -11  11   3    1.62    0.97
 -11  11  -3    0.77    0.75
  11  11  -3   -0.99    1.31
 -11 -11   3    0.85    0.92
 -11  11   3   -0.05    0.92
 -11  11  -3   -0.78    1.02
 -11  11   4    4.12    1.34
 -11  11  -4    1.26    0.62
  11  11   4    2.59    1.21
  11  11  -4    2.41    1.05
 -11 -11   4    2.20    1.27
 -11  11   4    1.71    1.09
 -11  11  -4    0.50    1.05
  11 -11   4    1.44    0.85
 -11  11   5    2.92    1.12
 -11  11  -5    1.28    0.85
  11  11  -5    3.59    1.37
 -11 -11   5    2.72    1.08
 -11  11   5    2.23    1.05
 -11  11  -5    2.56    1.32
  11 -11   5    2.05    0.85
 -11  11   6   10.34    2.12
  11  11  -6    8.52    3.22
 -11 -11   6   10.36    1.84
 -11  11   6    6.67    2.58
 -11  11  -6    8.56    2.11
  11 -11   6   11.54    2.60
 -11  11   7    1.79    2.03
  11  11  -7    0.00    0.96
 -11 -11   7    1.86    0.90
 -11  11  -7    1.80    1.52
  11 -11   7    1.43    0.98
 -11  11   8    5.00    1.76
  11  11  -8    6.31    2.54
 -11 -11   8    3.97    1.64
 -11  11  -8    2.45    1.16
  11 -11   8    3.15    1.31
 -12  11   0   20.98    3.05
  11  12   0   21.13    5.42
 -12  11   0   20.85    5.98
 -12  11   1   33.15    4.32
 -12  11  -1   22.16    5.55
  11  12   1   28.46    7.18
  11  12  -1   21.03    4.75
 -12  11   1   21.25    9.00
 -12  11  -1   20.21    7.15
 -12  11   2    4.59    1.98
 -12  11  -2    3.70    1.13
  11  12   2    1.23    0.74
  11  12  -2    0.71    0.79
 -12  11   2    2.14    1.23
 -12  11  -2    1.13    1.77
 -12  11   3    9.24    2.45
 -12  11  -3    7.28    1.06
  11  12   3    6.56    1.70
  11  12  -3    7.38    2.12
 -12  11   3    9.69    2.57
 -12  11  -3    6.73    1.94
 -12  11   4    7.19    1.32
 -12  11  -4    7.44    1.69
  11  12   4    6.15    2.88
  11  12  -4   10.33    2.17
 -12  11   4    5.69    1.38
 -12  11  -4    7.59    2.08
 -12  11   5    9.38    1.34
  11  12  -5    8.30    2.35
 -12  11   5    7.27    2.55
 -12  11  -5    7.31    1.57
 -12  11   6   24.36    5.33
  11  12  -6   17.61    3.97
 -11 -12   6   12.59    4.88
 -12  11   6   11.52    4.11
 -12  11  -6   15.11    4.29
  12 -11   6   14.85    4.93
 -12  11   7    4.00    1.59
  11  12  -7    5.94    2.53
 -11 -12   7    6.73    1.64
 -12  11  -7    2.29    0.98
  12 -11   7    5.96    1.48
 -12  10   0    1.15    0.71
 -12  10   0   -0.58    1.15
 -12  10   1   21.14    2.71
 -12  10  -1   20.82    4.82
  10  12   1   17.91    5.61
  10  12  -1   20.30    5.34
 -12  10   1   20.16    5.15
 -12  10  -1   19.39    5.04
 -12  10   2    6.36    2.40
 -12  10  -2    5.75    1.19
  10  12   2    3.00    1.52
  10  12  -2    3.50    1.85
 -12  10   2    3.87    1.58
 -12  10  -2    7.13    2.81
 -12  10   3   11.02    2.49
 -12  10  -3    9.58    1.83
  10  12   3   10.16    3.33
  10  12  -3    8.34    2.11
 -12  10   3    9.57    3.09
 -12  10  -3    9.63    1.66
 -12  10   4   -0.05    1.14
 -12  10  -4    0.92    0.65
  10  12   4    1.92    0.91
  10  12  -4    0.79    0.68
 -10 -12   4    3.04    1.30
 -12  10   4    0.26    0.69
 -12  10  -4   -0.90    1.27
 -12  10   5   -0.35    1.16
  10  12   5    0.70    0.84
  10  12  -5   -1.08    1.46
 -10 -12   5    0.58    0.43
 -12  10   5    1.30    1.09
 -12  10  -5    0.68    0.80
  12 -10   5    1.26    0.71
 -12  10   6    5.63    2.03
  10  12  -6    6.25    1.57
 -10 -12   6   10.01    2.03
 -12  10   6    5.49    1.90
 -12  10  -6    5.15    1.81
  12 -10   6    7.92    2.00
 -12  10   7    9.55    0.99
  10  12  -7   10.95    2.40
 -10 -12   7    5.06    1.37
 -12  10   7    6.14    1.74
 -12  10  -7    9.95    3.32
 -12  10   8    0.96    0.72
  10  12  -8    0.46    1.39
 -10 -12   8    0.54    1.28
 -12  10   8    0.49    0.72
 -12  10  -8   -0.01    0.84
  12 -10   8    1.19    1.19
 -12   9   0   35.48    5.77
   9  12   0   41.03   10.30
 -12   9   0   33.46    8.64
 -12   9   1   13.25    1.87
 -12   9  -1   13.45    2.83
   9  12   1   13.25    2.04
   9  12  -1   13.54    3.65
 -12   9   1   11.22    3.14
 -12   9  -1   15.65    2.33
 -12   9   2    1.60    0.89
 -12   9  -2    1.51    0.83
   9  12   2    2.77    1.45
   9  12  -2    1.23    1.35
 -12   9   2    1.04    0.47
 -12   9  -2    1.24    1.14
 -12   9   3   18.38    2.21
 -12   9  -3   23.17    2.79
   9  12   3   18.35    4.85
   9  12  -3   22.44    4.38
 -12   9   3   16.11    4.04
 -12   9  -3   18.79    4.34
 -12   9   4    2.34    1.18
 -12   9  -4    1.26    0.69
   9  12   4    3.25    1.34
   9  12  -4    1.88    1.63
  -9 -12   4    1.55    0.51
 -12   9   4    1.70    1.27
 -12   9  -4    2.54    1.22
  12  -9   4    3.38    0.53
 -12   9   5   41.31    9.82
   9  12  -5   50.59    3.76
  -9 -12   5   43.18    6.82
 -12   9   5   47.68    3.25
 -12   9  -5   44.52    4.14
  12  -9   5   38.17    7.18
 -12   9   6    0.77    1.18
   9  12   6    1.22    0.68
   9  12  -6    1.53    1.40
  -9 -12   6    2.12    1.21
 -12   9   6    0.19    1.04
 -12   9  -6   -0.19    1.57
  12  -9   6    1.72    0.82
 -12   9   7   20.92    5.20
   9  12  -7   20.70    4.71
  -9 -12   7   23.98    6.11
 -12   9   7   20.34    6.19
 -12   9  -7   24.18    3.75
  12  -9   7   21.74    3.22
 -12   9   8    1.93    1.33
   9  12  -8    4.47    1.74
  -9 -12   8    5.31    1.49
 -12   9   8    4.82    2.32
 -12   9  -8    5.70    2.35
  12  -9   8    3.06    1.95
 -12   9   9    5.45    2.30
   9  12  -9    5.75    1.80
  -9 -12   9    0.87    0.92
 -12   9   9    5.81    1.87
 -12   9  -9    8.81    3.04
  12  -9   9    4.01    1.71
   9  12 -10    2.20    1.63
  -9 -12  10   -0.78    1.43
 -12   9  10    1.59    1.35
 -12   9 -10    2.98    2.08
  12  -9  10    1.70    1.46
 -12   8   0    1.76    0.90
   8  12   0    0.14    0.72
 -12   8   0    1.22    1.47
 -12   8   1    9.67    1.62
 -12   8  -1   10.56    1.47
   8  12   1    6.61    1.54
   8  12  -1    8.52    2.21
 -12   8   1    8.08    3.14
 -12   8  -1    4.43    2.29
 -12   8   2    3.52    0.95
 -12   8  -2    5.87    1.65
   8  12   2    3.74    1.15
   8  12  -2    3.73    1.63
 -12   8   2    2.75    0.90
 -12   8  -2    5.05    1.81
 -12   8   3   63.59    5.39
 -12   8  -3   63.41    8.98
   8  12   3   67.95    8.77
   8  12  -3   71.80    4.23
  -8 -12   3   78.30    4.57
 -12   8   3   67.62    7.15
 -12   8  -3   72.18    8.95
  12  -8   3   75.07    4.10
 -12   8   4   31.32    6.74
 -12   8  -4   32.66    5.16
   8  12   4   27.57    7.36
   8  12  -4   31.22    7.17
  -8 -12   4   29.34    5.30
 -12   8   4   25.16    7.94
 -12   8  -4   28.62    6.69
  12  -8   4   30.15    4.91
 -12   8   5    8.35    1.82
   8  12   5    9.11    2.26
   8  12  -5    9.24    1.92
  -8 -12   5    6.71    1.32
 -12   8   5   10.26    2.76
 -12   8  -5    7.58    2.53
  12  -8   5    9.97    2.27
 -12   8   6   12.01    4.57
   8  12   6   12.17    2.83
   8  12  -6   11.39    3.41
  -8 -12   6   11.23    2.76
 -12   8   6    9.42    2.98
 -12   8  -6    9.38    1.58
  12  -8   6   11.87    2.09
 -12   8   7   26.85    5.80
   8  12   7   15.26    5.33
   8  12  -7   26.26    6.48
  -8 -12   7   23.37    5.16
 -12   8   7   19.61    6.18
 -12   8  -7   21.60    6.87
  12  -8   7   23.73    3.53
 -12   8   8   23.77    5.91
   8  12  -8   24.55    5.41
  -8 -12   8   19.59    4.77
 -12   8   8   18.96    7.21
 -12   8  -8   18.93    5.99
  12  -8   8   22.79    3.70
 -12   8   9   23.05    6.68
   8  12  -9   25.95    5.31
  -8 -12   9   20.95    3.57
 -12   8   9   17.41    4.75
 -12   8  -9   22.71    4.92
  12  -8   9   21.14    4.65
 -12   8  10    7.42    2.64
   8  12 -10    3.48    1.71
  -8 -12  10    6.20    1.84
 -12   8  10    8.43    2.63
 -12   8 -10    7.80    2.96
   8  12 -11    2.40    1.54
 -12   8  11    1.82    1.58
 -12   8 -11    0.61    0.81
 -12   7   0   -0.10    1.00
   7  12   0    2.80    1.74
 -12   7   0    2.13    1.55
 -12   7   1   29.20    6.36
 -12   7  -1   35.41    6.15
   7  12   1   30.65    6.78
 -12   7  -1   32.18    9.07
 -12   7   2   20.52    4.95
 -12   7  -2   19.08    2.19
   7  12   2   21.68    5.74
   7  12  -2   19.81    6.45
 -12   7   2   27.54    3.78
 -12   7  -2   21.34    5.43
  12  -7   2   21.24    4.08
 -12   7   3   10.05    1.92
 -12   7  -3    9.70    1.57
   7  12   3   14.75    2.99
   7  12  -3   12.76    1.78
  -7 -12   3   10.36    2.07
 -12   7   3    8.90    3.32
 -12   7  -3   11.69    2.40
  12  -7   3   11.43    1.90
 -12   7   4    2.38    1.07
 -12   7  -4    1.30    0.48
   7  12   4    0.71    1.06
   7  12  -4    0.23    0.95
  -7 -12   4    1.87    1.17
 -12   7   4    1.30    1.01
 -12   7  -4    2.14    0.68
  12  -7   4    0.73    1.20
 -12   7   5   61.26   11.92
   7  12   5   68.29    6.90
   7  12  -5   75.76    7.41
  -7 -12   5   71.80    3.74
 -12   7   5   78.73    3.97
 -12   7  -5   73.44   11.74
  12  -7   5   62.71    8.19
 -12   7   6    7.85    3.27
   7  12   6    9.91    2.44
   7  12  -6    9.92    1.73
  -7 -12   6    8.92    1.61
 -12   7   6    8.18    1.79
 -12   7  -6    8.76    1.82
   7  12   7    6.96    2.26
   7  12  -7    7.05    1.80
  -7 -12   7   12.34    2.47
 -12   7   7    7.74    1.67
 -12   7  -7   10.38    2.46
  12  -7   7    8.07    2.15
   7  12  -8    4.63    2.02
  12  -7  -8    2.54    1.53
  -7 -12   8    1.32    1.38
 -12   7   8    3.10    1.02
 -12   7  -8   -0.85    1.37
  12  -7   8    2.76    1.16
   7  12  -9    5.39    1.78
  12  -7  -9    3.38    1.02
  -7 -12   9    4.94    1.85
 -12   7   9    3.78    1.55
 -12   7  -9    2.29    0.82
  12  -7   9    4.18    2.44
   7  12 -10   12.87    2.29
  12  -7 -10   11.13    2.53
  -7 -12  10   12.05    3.22
 -12   7  10   11.11    2.32
 -12   7 -10   16.85    3.12
  12  -7  10   11.04    2.69
   7  12 -11   15.23    2.33
  12  -7 -11   11.16    2.93
  -7 -12  11   12.82    3.16
 -12   7  11   18.19    2.57
 -12   7 -11   15.11    2.74
  12  -7  11   17.56    3.73
 -12   6   0   13.85    3.09
   6  12   0   14.90    3.20
 -12   6   0   18.11    2.79
 -12   6   1    5.01    1.41
 -12   6  -1    4.42    0.73
   6  12   1    4.02    1.82
   6  12  -1    8.42    1.48
 -12   6   1    3.30    1.44
 -12   6  -1    3.44    1.26
  12  -6   1    2.11    1.17
 -12   6   2   91.87    4.87
 -12   6  -2   69.60    9.89
   6  12   2   81.82    3.70
   6  12  -2   76.06    6.43
 -12   6   2   77.14    8.48
 -12   6  -2   80.32    9.63
  12  -6   2   76.54    9.15
 -12   6  -3    9.42    1.50
   6  12   3    7.60    2.56
   6  12  -3    4.26    2.59
  -6 -12   3    8.27    1.31
 -12   6   3    8.16    1.49
 -12   6  -3    8.12    3.06
  12  -6   3    7.93    1.52
 -12   6  -4   23.79    5.31
   6  12   4   18.96    5.93
   6  12  -4   27.02    4.29
  12  -6  -4   23.09    6.76
  -6 -12   4   17.99    4.80
 -12   6   4   22.86    8.36
 -12   6  -4   25.66    6.16
  12  -6   4   18.85    2.76
   6  12   5   25.37    5.26
   6  12  -5   31.84    7.32
  12  -6  -5   29.35    7.51
  -6 -12   5   26.73    6.94
 -12   6   5   27.50    6.37
 -12   6  -5   27.54    5.36
  12  -6   5   27.75    5.01
   6  12   6    2.81    1.24
   6  12  -6    1.11    1.38
  12  -6  -6    3.73    2.15
  -6 -12   6    2.16    0.88
 -12   6   6    0.83    1.18
 -12   6  -6    2.29    1.73
  12  -6   6    2.20    0.82
   6  12   7   37.92   10.19
   6  12  -7   42.32    9.43
  12  -6  -7   49.06    5.02
  -6 -12   7   39.88    4.91
 -12   6   7   44.57    3.11
 -12   6  -7   45.15    7.31
  12  -6   7   48.79    6.55
   6  12   8    9.85    1.53
   6  12  -8    8.36    1.54
  12  -6  -8    9.17    1.84
 -12   6   8   11.10    2.03
 -12   6  -8   10.00    2.49
  12  -6   8   12.32    2.07
   6  12  -9   25.77    3.60
  12  -6  -9   20.25    3.70
  -6 -12   9   23.13    3.84
 -12   6   9   23.52    5.00
 -12   6  -9   23.58    2.98
  12  -6   9   27.79    3.41
  -6 -12   9   18.29    3.43
   6  12 -10   23.51    6.51
  12  -6 -10   24.67    5.22
  -6 -12  10   23.50    4.27
 -12   6  10   22.01    6.53
 -12   6 -10   22.10    4.81
  12  -6  10   24.09    4.46
  -6 -12  10   23.34    5.96
   6  12 -11    1.66    1.21
  12  -6 -11    3.03    1.47
  -6 -12  11   -0.74    1.29
 -12   6  11    1.04    1.26
 -12   6 -11   -0.25    1.33
  12  -6  11    3.10    1.40
  -6 -12  11    2.28    1.49
   6  12 -12    0.76    1.23
  12  -6 -12    2.48    1.99
  -6 -12  12    1.27    1.01
 -12   6  12    5.81    2.27
 -12   6 -12    1.06    1.25
  12  -6  12    1.43    1.10
  -6 -12  12    2.31    2.12
 -12   5   0    3.84    1.37
   5  12   0    3.19    0.68
 -12   5   0    2.57    1.61
 -12   5  -1   56.87    9.08
   5  12   1   58.61    3.39
   5  12  -1   67.33    5.07
  12  -5  -1   67.58    3.47
 -12   5   1   62.71    9.62
 -12   5  -1   65.17   13.25
  12  -5   1   57.74    3.17
 -12   5  -2   10.66    2.30
   5  12   2    9.45    2.44
   5  12  -2    8.81    1.85
  12  -5  -2   10.28    2.47
  -5 -12   2   10.39    1.56
 -12   5   2   10.91    2.07
 -12   5  -2   13.35    2.77
  12  -5   2    7.82    1.77
 -12   5  -3   28.49    4.89
   5  12   3   29.80    7.97
   5  12  -3   29.73    6.60
  12  -5  -3   24.62    6.09
  -5 -12   3   27.62    2.02
 -12   5   3   29.21    6.54
 -12   5  -3   31.06    6.09
  12  -5   3   26.85    4.05
 -12   5  -4   20.89    4.24
   5  12   4   19.86    2.07
   5  12  -4   27.46    5.71
  12  -5  -4   24.09    2.64
  -5 -12   4   20.25    3.29
 -12   5   4   18.25    6.46
 -12   5  -4   19.09    5.56
  12  -5   4   16.13    3.47
   5  12   5   14.98    3.10
   5  12  -5   19.52    3.71
  12  -5  -5   19.10    5.01
  -5 -12   5   17.38    3.28
 -12   5   5   19.57    4.79
 -12   5  -5   15.30    3.02
  12  -5   5   19.04    3.19
   5  12   6   23.20    5.45
   5  12  -6   12.23    2.80
  12  -5  -6   12.99    3.58
  -5 -12   6   13.55    2.55
 -12   5   6   12.89    2.20
 -12   5  -6   12.42    2.56
  12  -5   6   15.07    3.26
   5  12   7    6.62    2.03
   5  12  -7    6.36    2.06
  12  -5  -7    6.63    1.98
  -5 -12   7    5.23    1.34
 -12   5   7    7.84    1.69
 -12   5  -7    5.78    1.73
  12  -5   7    7.48    1.87
  -5 -12   7    5.62    1.07
   5  12   8   45.59    3.91
   5  12  -8   39.26    7.85
  12  -5  -8   42.03    9.66
  -5 -12   8   37.95    8.36
 -12   5   8   44.11    6.99
 -12   5  -8   48.08    5.31
  12  -5   8   43.06    6.92
  -5 -12   8   50.18    6.87
   5  12   9    4.98    1.41
   5  12  -9    4.30    1.63
  12  -5  -9    5.43    2.45
  -5 -12   9    4.97    2.53
 -12   5   9    2.83    1.31
 -12   5  -9    8.19    1.92
  12  -5   9    5.39    3.02
  -5 -12   9    4.53    1.94
   5  12 -10   10.41    4.79
  12  -5 -10    4.47    2.28
  -5 -12  10    3.11    0.90
 -12   5  10    4.35    1.59
 -12   5 -10    2.77    1.44
  12  -5  10    3.56    1.31
  -5 -12  10    5.60    2.14
   5  12 -11   26.93    4.85
  12  -5 -11   20.26    7.26
  -5 -12  11   31.71    7.94
 -12   5  11   28.94    8.99
 -12   5 -11   27.31    6.31
  12  -5  11   32.72    4.80
  -5 -12  11   41.20    3.60
   5  12 -12    4.16    2.10
  12  -5 -12    1.62    1.33
  -5 -12  12    1.21    1.60
 -12   5  12    2.59    2.37
 -12   5 -12    2.05    1.01
  12  -5  12    2.16    1.28
  -5 -12  12    3.45    1.57
   5  12 -13    9.37    3.66
  12  -5 -13    7.27    3.31
 -12   5  13    7.85    2.46
   4  12   0    7.86    1.67
  12  -4   0    8.16    1.86
 -12   4   0    4.85    1.97
  12  -4   0    4.09    1.25
   4  12   1   15.69    2.58
   4  12  -1   15.92    2.37
  12  -4  -1   17.27    5.64
 -12   4   1   17.61    2.51
 -12   4  -1   19.03    3.69
  12  -4   1   13.21    2.83
 -12   4  -2    7.07    1.53
   4  12   2    4.92    2.25
   4  12  -2    5.99    1.72
  12  -4  -2    8.91    2.58
  -4 -12   2    7.07    1.85
 -12   4   2   10.30    1.93
 -12   4  -2    7.48    2.31
  12  -4   2    8.80    1.58
 -12   4  -3   86.08    4.64
   4  12   3   97.50    7.45
   4  12  -3  104.94    4.45
  12  -4  -3   98.64    3.83
  -4 -12   3   98.11    3.65
 -12   4   3   92.85    4.06
 -12   4  -3  105.28    8.61
  12  -4   3  107.97    6.28
 -12   4  -4   18.65    3.17
   4  12   4   13.28    2.82
   4  12  -4   24.57    5.17
  12  -4  -4   21.80    5.29
  -4 -12   4   16.19    3.42
 -12   4   4   14.49    3.56
 -12   4  -4   23.17    4.26
  12  -4   4   13.10    2.94
   4  12   5   15.49    2.89
   4  12  -5   12.48    4.16
  12  -4  -5   14.88    3.90
 -12   4   5   14.19    2.48
 -12   4  -5   16.89    3.50
  12  -4   5   15.78    2.74
   4  12   6   22.93    4.41
   4  12  -6   22.93    5.02
  12  -4  -6   23.81    2.76
 -12   4   6   23.97    3.98
 -12   4  -6   20.78    3.83
  12  -4   6   22.85    3.85
  -4 -12   6   23.01    4.95
   4  12   7   19.13    3.33
   4  12  -7   20.06    4.64
  12  -4  -7   18.79    3.86
 -12   4   7   22.84    7.07
 -12   4  -7   18.87    3.72
  12  -4   7   19.32    3.68
  -4 -12   7   18.56    3.89
   4  12   8   37.10   10.88
   4  12  -8   43.03    9.76
  12  -4  -8   42.66    2.94
 -12   4   8   48.92    9.04
 -12   4  -8   49.48    5.34
  12  -4   8   46.17    9.91
  -4 -12   8   40.71   10.96
   4  12   9   17.82    5.08
   4  12  -9   23.96    5.37
  12  -4  -9   24.71    2.60
 -12   4   9   18.23    3.56
 -12   4  -9   23.67    5.84
  12  -4   9   21.82    4.14
  -4 -12   9   22.51    5.69
   4  12  10   14.51    1.71
   4  12 -10   21.27    4.01
 -12   4  10   15.74    3.57
 -12   4 -10   15.02    2.92
  12  -4  10   15.01    3.45
  -4 -12  10   18.05    2.95
   4  12 -11   20.95    3.00
  12  -4 -11   13.99    4.88
 -12   4  11   17.21    4.13
 -12   4 -11   14.84    3.61
  12  -4  11   13.86    3.29
  -4 -12  11   14.90    2.55
   4  12 -12    9.34    3.08
  12  -4 -12   14.70    5.13
 -12   4  12    8.49    2.85
 -12   4 -12   19.24    2.38
  12  -4  12   18.45    3.24
  -4 -12  12    8.33    5.69
   4  12 -13    5.72    1.81
  12  -4 -13    2.32    1.91
 -12   4  13    8.09    1.86
 -12   4 -13    5.71    1.81
  12  -4  13    3.44    1.57
  -4 -12  13    2.07    1.18
   3  12   0   34.14    7.53
  12  -3   0   29.38    2.47
 -12   3   0   29.35    7.45
   3  12   1   40.15    9.18
   3  12  -1   45.01   10.05
  12  -3  -1   46.17    2.64
  12  -3   1   41.80    4.85
  -3 -12   1   38.42    5.20
 -12   3   1   36.00    8.00
 -12   3  -1   47.01    3.11
   3  12   2   89.45    7.40
   3  12  -2  101.08    4.21
  12  -3  -2  108.20    3.77
  12  -3   2   96.21    4.88
 -12   3   2  104.76   13.22
 -12   3  -2  115.95   11.68
 -12   3  -3   18.01    3.99
   3  12   3   18.23    3.94
   3  12  -3   18.66    3.79
  12  -3  -3   17.74    4.68
 -12   3   3   18.32    4.79
 -12   3  -3   17.11    4.43
 -12   3  -4   11.64    2.97
   3  12   4   14.42    4.02
   3  12  -4   14.10    3.59
  12  -3  -4   11.84    4.72
 -12   3   4   15.11    2.44
 -12   3  -4   13.96    2.31
  -3 -12   4   15.42    2.37
   3  12   5   20.69    5.04
   3  12  -5   22.15    5.14
  12  -3  -5   21.60    5.76
 -12   3   5   20.56    3.97
 -12   3  -5   18.01    8.19
  -3 -12   5   22.20    5.38
   3  12   6    5.97    1.44
   3  12  -6    5.53    1.54
  12  -3  -6    8.17    1.76
 -12   3   6    2.23    1.48
 -12   3  -6    9.04    1.53
  -3 -12   6    3.22    1.65
   3  12   7   21.39    5.10
   3  12  -7   17.35    3.84
  12  -3  -7   19.19    5.62
 -12   3   7   20.74    5.17
 -12   3  -7   22.63    5.26
  -3 -12   7   27.91    5.98
   3  12   8   13.99    5.13
   3  12  -8   14.14    2.09
  12  -3  -8   13.63    2.74
 -12   3   8   16.48    4.11
 -12   3  -8   15.56    2.02
  12  -3   8   16.36    2.93
  -3 -12   8   17.07    3.21
   3  12   9    9.03    2.62
   3  12  -9   11.52    1.51
  12  -3  -9    6.82    3.28
 -12   3   9   11.57    2.40
 -12   3  -9    9.67    2.35
  12  -3   9    8.18    2.05
  -3 -12   9    7.10    2.42
   3  12  10   12.84    3.86
   3  12 -10   14.58    3.78
  12  -3 -10   21.63    4.08
 -12   3  10   15.51    5.19
 -12   3 -10   21.08    3.34
  12  -3  10   13.06    4.49
  -3 -12  10   16.90    4.40
   3  12  11    8.83    4.78
   3  12 -11   16.02    3.55
  12  -3 -11   17.84    3.43
 -12   3  11   16.80    3.67
 -12   3 -11   18.42    3.25
  12  -3  11   14.80    3.47
  -3 -12  11   17.47    3.81
   3  12 -12    4.95    1.80
  12  -3 -12    3.45    2.38
 -12   3  12    4.45    1.57
 -12   3 -12    4.45    2.04
  12  -3  12    7.37    1.79
  -3 -12  12    2.88    1.96
   3  12 -13    0.00    1.16
  12  -3 -13    1.73    1.05
 -12   3  13   -0.54    1.61
 -12   3 -13   -0.55    1.19
  12  -3  13   -0.59    1.44
  -3 -12  13   -0.28    1.67
   2  12   0   19.84    4.21
  12  -2   0   15.60    4.52
 -12   2   0   21.52    3.58
   2  12   1   21.78    4.16
   2  12  -1   27.43    6.85
  12  -2  -1   25.16    5.61
  12  -2   1   20.75    5.78
 -12   2   1   22.39    5.07
 -12   2  -1   23.37    4.79
   2  12   2   64.95    7.71
   2  12  -2   67.38    3.76
  12  -2  -2   66.36    7.71
  12  -2   2   63.84    2.72
 -12   2   2   65.25    3.77
 -12   2  -2   65.92    4.25
   2  12   3   33.64    2.85
   2  12  -3   36.20    8.40
  12  -2  -3   35.71    2.95
  12  -2   3   34.72    4.43
 -12   2   3   40.39    6.90
 -12   2  -3   27.07    4.80
  -2 -12   3   37.48    2.81
 -12   2  -4   32.99    2.50
   2  12   4   35.98    7.31
   2  12  -4   36.96    5.54
  12  -2  -4   35.97    3.62
 -12   2   4   39.54    8.51
 -12   2  -4   30.80    5.62
  -2 -12   4   32.96    2.69
   2  12   5   33.68    8.02
   2  12  -5   30.95    6.07
  12  -2  -5   30.32    2.99
 -12   2   5   29.92    9.34
 -12   2  -5   47.31    5.60
  -2 -12   5   30.13    5.23
   2  12   6  139.65    4.64
   2  12  -6  132.42   13.37
  12  -2  -6  130.65    4.93
 -12   2   6  134.91    6.55
 -12   2  -6  128.92    9.30
  -2 -12   6  136.19    5.03
   2  12   7   21.80    5.91
   2  12  -7   26.66    6.19
  12  -2  -7   25.12    6.96
 -12   2   7   24.39    6.41
 -12   2  -7   29.07    5.62
  -2 -12   7   24.23    6.97
   2  12   8   11.35    4.37
   2  12  -8   15.07    3.49
  12  -2  -8   12.64    2.98
 -12   2   8   15.33    2.95
 -12   2  -8   15.04    3.31
  -2 -12   8   20.80    4.14
   2  12   9    6.31    2.02
   2  12  -9   11.22    3.97
  12  -2  -9   16.35    2.43
 -12   2   9    8.82    2.43
 -12   2  -9   15.66    4.79
  -2 -12   9    9.13    1.86
   2  12  10   37.75    2.63
   2  12 -10   25.02    4.37
  12  -2 -10   32.09    2.94
 -12   2  10   38.11    6.66
 -12   2 -10   37.37    3.12
  -2 -12  10   38.70    8.63
   2  12  11   10.47    1.69
   2  12 -11   10.13    2.24
  12  -2 -11   12.68    2.34
 -12   2  11   12.95    2.30
 -12   2 -11    6.87    1.18
  12  -2  11   10.15    2.37
  -2 -12  11   16.42    2.48
   2  12  12    7.36    2.36
   2  12 -12   14.00    2.92
  12  -2 -12   11.70    2.23
 -12   2  12   15.17    3.31
 -12   2 -12    9.73    2.31
  12  -2  12    6.92    2.37
  -2 -12  12   12.32    2.59
   2  12 -13   12.60    3.52
  12  -2 -13   15.41    3.18
 -12   2  13   14.32    3.61
 -12   2 -13   11.63    2.58
  12  -2  13   12.52    3.80
  -2 -12  13   12.82    3.48
   1  12   0  112.34    9.75
  12  -1   0  113.59    3.44
 -12   1   0  120.49    4.29
   1  12   1   18.55    3.66
   1  12  -1   14.22    3.01
  12  -1  -1   14.85    3.56
  12  -1   1   13.31    2.58
 -12   1   1   16.17    3.27
 -12   1  -1   14.29    2.00
   1  12   2   58.43    9.74
   1  12  -2   59.80    8.31
  12  -1  -2   53.23    7.43
  12  -1   2   49.63    2.11
 -12   1   2   53.72    3.36
 -12   1  -2   52.72    3.42
  -1 -12   2   58.35    3.06
   1  12   3   10.02    2.54
   1  12  -3   10.65    2.52
  12  -1  -3   10.56    2.45
  12  -1   3    6.94    2.07
 -12   1   3    5.20    2.50
 -12   1  -3   12.74    2.13
  -1 -12   3   10.03    1.90
   1  12   4   56.52    6.78
   1  12  -4   54.78    6.96
  12  -1  -4   45.22    3.83
  12  -1   4   54.52    2.11
 -12   1   4   54.02    4.11
 -12   1  -4   43.56    3.72
  -1 -12   4   52.13    3.12
   1  12   5    3.21    1.28
   1  12  -5    2.27    1.29
  12  -1  -5    3.00    1.59
 -12   1   5    1.63    1.51
 -12   1  -5    1.25    0.84
  -1 -12   5    2.81    1.25
   1  12   6   11.67    2.29
   1  12  -6   16.89    2.72
  12  -1  -6   14.84    4.24
 -12   1   6   17.66    3.72
 -12   1  -6   14.85    3.03
  -1 -12   6   15.28    2.49
   1  12   7    2.27    0.75
   1  12  -7   -0.80    1.41
  12  -1  -7   -0.55    1.12
 -12   1   7    2.36    1.59
 -12   1  -7    0.09    1.12
  -1 -12   7    2.16    1.03
   1  12   8   44.74    9.10
   1  12  -8   38.10    8.23
  12  -1  -8   38.94    9.12
 -12   1   8   41.30   10.62
 -12   1  -8   34.71    6.69
  -1 -12   8   46.17    5.62
   1  12   9    1.42    1.95
   1  12  -9    2.69    0.93
  12  -1  -9    2.48    1.35
 -12   1   9    4.97    1.48
 -12   1  -9    1.90    0.62
  -1 -12   9    2.76    1.79
   1  12  10   27.65    5.95
   1  12 -10   23.69    4.67
  12  -1 -10   28.19    5.62
 -12   1  10   23.65    6.90
 -12   1 -10   29.63    2.12
  -1 -12  10   22.43    4.94
   1  12  11    0.94    0.67
   1  12 -11    0.41    1.39
  12  -1 -11    0.60    1.64
 -12   1 -11    1.82    1.04
  -1 -12  11    3.55    1.76
   1  12  12   20.81    5.64
   1  12 -12   29.29    3.83
  12  -1 -12   26.36    6.44
 -12   1  12   26.12    4.95
 -12   1 -12   29.39    3.19
  -1 -12  12   23.03    7.48
   1  12  13    2.67    1.53
   1  12 -13    4.30    1.54
  12  -1 -13    7.63    2.09
 -12   1  13    5.65    1.84
 -12   1 -13    6.66    0.81
  12  -1  13    2.62    1.77
  -1 -12  13    2.32    2.01
   1  12 -14   14.48    3.05
  12  -1 -14   23.92    3.88
 -12   1  14   17.33    3.26
 -12   1 -14   18.05    2.35
  12  -1  14   14.81    3.87
  -1 -12  14   17.62    5.48
   0  12   0  223.34    5.78
  12   0   0  224.04    6.65
 -12   0   0  235.06    5.70
   0  12   1   -3.08    1.39
   0  12  -1    0.47    0.97
  12   0  -1   -0.35    0.85
  12   0   1    0.62    0.83
 -12   0   1   -0.57    1.44
 -12   0  -1    1.71    0.95
   0  12   2   23.61    6.68
   0  12  -2   24.92    3.39
  12   0  -2   24.56    6.58
  12   0   2   21.48    2.42
 -12   0   2   28.36    3.35
 -12   0  -2   22.57    4.75
   0 -12   2   24.41    2.24
   0  12   3   41.93    9.20
   0  12  -3   40.75    6.22
  12   0   3   40.32    2.01
 -12   0   3   40.78    4.97
 -12   0  -3   46.50    3.78
   0 -12   3   38.06    2.77
   0  12   4   57.44    3.27
   0  12  -4   55.80    5.09
  12   0  -4   60.15    3.14
  12   0   4   50.12    2.90
 -12   0   4   66.37   13.77
 -12   0  -4   56.35    4.54
   0 -12   4   63.73    3.37
   0  12   5   12.29    2.04
   0  12  -5   12.10    2.64
  12   0  -5   11.53    2.29
 -12   0   5   12.04    2.73
 -12   0  -5    6.86    2.35
   0 -12   5   13.30    2.06
   0  12   6    1.76    0.91
   0  12  -6    8.13    1.86
  12   0  -6    2.30    1.19
 -12   0   6    4.60    2.48
 -12   0  -6    3.52    1.95
   0 -12   6    2.41    1.45
   0  12   7   14.33    2.51
   0  12  -7   15.86    3.51
  12   0  -7   13.11    3.59
 -12   0   7   15.53    5.37
 -12   0  -7   13.87    3.62
   0 -12   7   19.16    4.53
   0  12   8    1.17    0.74
   0  12  -8    2.67    1.61
  12   0  -8   -1.00    1.19
 -12   0   8    0.39    1.10
 -12   0  -8    1.76    1.25
   0 -12   8   -0.64    1.62
   0  12   9   59.67    6.27
   0  12  -9   59.46   10.32
  12   0  -9   49.61   11.65
 -12   0   9   55.55   12.96
 -12   0  -9   62.53    8.44
   0 -12   9   49.95   11.16
   0  12  10   10.30    2.43
   0  12 -10    7.37    2.10
  12   0 -10    4.93    1.72
 -12   0  10   15.63    3.52
 -12   0 -10   11.50    1.87
   0 -12  10   10.80    2.72
   0  12  11   -0.38    1.30
   0  12 -11    0.48    1.22
  12   0 -11    0.53    0.67
 -12   0  11    2.36    1.19
 -12   0 -11    1.95    1.14
   0 -12  11   -1.36    1.68
   0  12  12   11.78    4.11
   0  12 -12   17.83    2.88
  12   0 -12   19.54    2.99
 -12   0  12   21.75    4.60
 -12   0 -12   21.34    2.44
   0 -12  12   22.01    5.42
   0  12  13    8.03    2.24
   0  12 -13    6.48    1.47
  12   0 -13    8.70    1.46
 -12   0  13    6.36    2.43
 -12   0 -13    6.94    1.22
   0 -12  13    6.28    1.72
   0  12 -14    0.98    0.83
  12   0 -14    0.83    0.90
 -12   0  14    1.88    1.32
 -12   0 -14    1.91    1.07
   0 -12  14    0.05    1.48
  -1  12   0  116.72    4.48
  12   1   0  120.07    3.53
 -12  -1   0  118.83    9.69
  -1  12   1   10.54    2.19
  -1  12  -1   15.64    1.91
  12   1  -1   11.98    3.14
  12   1   1   10.83    3.23
 -12  -1   1   13.47    1.94
 -12  -1  -1   16.02    2.22
   1 -12   1   14.36    2.24
  -1  12   2   60.04    3.67
  -1  12  -2   54.15    3.60
  12   1  -2   57.06    4.01
  12   1   2   50.47    3.76
 -12  -1   2   51.89    6.88
 -12  -1  -2   54.31    4.76
   1 -12   2   51.10    8.64
  -1  12   3   13.19    4.00
  -1  12  -3    8.62    2.50
  12   1  -3    8.79    2.08
  12   1   3    7.42    2.28
 -12  -1   3   10.18    2.10
 -12  -1  -3    7.79    1.92
   1 -12   3   12.12    2.02
  -1  12   4   41.46   11.41
  -1  12  -4   52.28    7.82
  12   1  -4   56.12    3.25
 -12  -1   4   53.68    3.72
 -12  -1  -4   58.10    3.19
   1 -12   4   50.36    2.97
  -1  12   5    1.46    1.13
  -1  12  -5    3.68    1.26
  12   1  -5    3.02    1.80
 -12  -1   5    1.00    1.50
 -12  -1  -5    3.78    1.53
   1 -12   5    3.26    1.09
  -1  12   6   15.31    3.83
  -1  12  -6   10.37    1.71
  12   1  -6   11.98    3.03
 -12  -1   6   16.33    2.52
 -12  -1  -6   13.56    2.84
   1 -12   6   10.81    2.01
  -1  12   7    1.89    1.46
  -1  12  -7    1.85    1.04
  12   1  -7    1.50    1.26
 -12  -1   7    0.93    1.27
 -12  -1  -7   -0.11    0.81
   1 -12   7    0.27    1.41
  -1  12   8   39.94    8.93
  -1  12  -8   38.58    8.97
  12   1  -8   48.56    3.22
 -12  -1   8   41.87   11.52
 -12  -1  -8   40.60    5.77
   1 -12   8   44.54    3.78
  -1  12   9    3.62    1.36
  -1  12  -9    2.03    0.89
  12   1  -9    6.35    1.78
 -12  -1   9    2.21    1.25
 -12  -1  -9    2.35    1.34
   1 -12   9    2.93    1.36
  -1  12  10   29.42    6.19
  -1  12 -10   18.89    4.05
  12   1 -10   29.53    3.13
 -12  -1  10   30.85    7.56
 -12  -1 -10   19.97    4.47
   1 -12  10   28.04    5.50
  -1  12  11    5.33    1.50
  -1  12 -11    0.87    0.75
  12   1 -11    3.70    1.75
 -12  -1  11    1.76    1.18
 -12  -1 -11    0.88    1.09
   1 -12  11    1.42    2.09
  -1  12  12   19.05    4.25
  -1  12 -12   27.98    2.31
  12   1 -12   30.36    3.94
 -12  -1  12   22.75    4.45
 -12  -1 -12   26.18    2.22
   1 -12  12   25.08    4.93
  -1  12  13    3.74    1.71
  -1  12 -13    3.60    1.17
 -12  -1  13    6.96    2.39
 -12  -1 -13    7.08    1.06
   1 -12  13   11.89    2.33
  -1  12  14   12.04    3.09
  -1  12 -14   15.59    2.54
  12   1 -14   16.62    3.67
 -12  -1  14   19.13    5.84
 -12  -1 -14   13.82    3.69
   1 -12  14   12.62    4.03
  -2  12   0   20.85    2.95
  12   2   0   18.01    4.85
 -12  -2   0   20.70    2.23
  -2  12   0   17.14    2.21
   2 -12   0   18.95    1.94
  -2  12   1   20.75    2.61
  -2  12  -1   21.64    4.07
  12   2  -1   21.69    3.43
  12   2   1   22.65    1.69
 -12  -2   1   21.94    6.97
 -12  -2  -1   19.65    4.96
  -2  12  -1   19.70    5.35
   2 -12   1   25.56    2.20
  -2  12   2   55.12   12.30
  -2  12  -2   66.95    8.10
  12   2  -2   66.45    3.26
  12   2   2   58.92    2.55
 -12  -2   2   74.00    8.05
 -12  -2  -2   65.89    5.81
   2 -12   2   70.42    4.74
  -2  12   3   28.56    8.15
  -2  12  -3   33.90    7.91
  12   2   3   31.82    4.34
 -12  -2   3   37.77    3.88
 -12  -2  -3   33.39    9.89
   2 -12   3   34.75    6.73
  -2  12   4   34.76    8.15
  -2  12  -4   32.59    8.88
  12   2  -4   36.69    3.04
  12   2   4   29.26    1.56
 -12  -2   4   29.61    5.51
 -12  -2  -4   37.20    7.32
   2 -12   4   32.64    6.80
  -2  12   5   33.04    8.72
  -2  12  -5   34.16    6.60
  12   2  -5   34.06    8.28
 -12  -2   5   38.59    4.06
 -12  -2  -5   33.78    8.62
   2 -12   5   34.00    5.78
  -2  12   6  120.32    4.34
  -2  12  -6  133.09    4.68
  12   2  -6  140.03    4.90
 -12  -2   6  140.88    5.06
 -12  -2  -6  139.71    9.24
   2 -12   6  126.95   11.56
  -2  12   7   25.78    3.81
  -2  12  -7   27.40    6.42
  12   2  -7   30.39    2.83
 -12  -2   7   28.61    6.16
 -12  -2  -7   24.02    4.65
   2 -12   7   31.73    3.39
  -2  12   8   14.00    2.65
  -2  12  -8   12.05    2.65
  12   2  -8   15.25    3.81
 -12  -2   8   15.60    3.99
 -12  -2  -8   10.52    4.48
   2 -12   8   15.00    4.23
  -2  12   9   15.73    2.48
  -2  12  -9    7.42    2.26
  12   2  -9   12.24    2.26
 -12  -2   9   12.64    3.63
 -12  -2  -9   12.62    1.97
   2 -12   9    9.67    2.28
  -2  12  10   40.81    8.74
  -2  12 -10   32.13    7.41
  12   2 -10   36.89    3.74
 -12  -2  10   32.19    6.37
 -12  -2 -10   30.65    7.33
   2 -12  10   32.17    9.56
  -2  12  11    8.93    2.58
  -2  12 -11   11.12    2.62
  12   2 -11   12.94    2.93
 -12  -2  11    9.28    3.48
 -12  -2 -11    8.47    1.53
   2 -12  11   10.76    3.18
  -2  12  12   13.57    2.79
  -2  12 -12    7.53    1.51
  12   2 -12    9.21    2.32
 -12  -2  12   17.60    2.30
 -12  -2 -12   13.14    3.13
   2 -12  12   14.39    2.56
  -2  12  13   16.36    3.90
  -2  12 -13   12.97    2.19
  12   2 -13   18.21    3.05
 -12  -2  13   18.32    3.48
 -12  -2 -13   13.69    1.78
   2 -12  13   17.27    3.04
  -3  12   0   33.31    4.50
  12   3   0   27.30    6.73
 -12  -3   0   32.83    2.79
  -3  12   0   25.47    3.00
   3 -12   0   31.53    2.38
  -3  12   1   42.86    3.59
  -3  12  -1   41.79    9.83
  12   3  -1   38.80    3.01
  12   3   1   50.72    6.56
 -12  -3   1   45.21    3.73
 -12  -3  -1   46.12    3.93
  -3  12   1   46.22    2.09
  -3  12  -1   41.97    2.03
   3 -12   1   40.88    6.93
  -3  12   2  100.07    6.23
  -3  12  -2   99.09    3.96
  12   3  -2   97.38    3.85
  12   3   2  101.29    3.52
 -12  -3   2  105.30    3.97
 -12  -3  -2   97.89    3.83
  -3  12  -2   92.80    3.07
   3 -12   2  108.91    9.63
  -3  12   3   19.12    4.62
  -3  12  -3   21.09    2.23
  12   3  -3   17.05    4.84
  12   3   3   17.26    3.46
 -12  -3   3   21.17    3.31
 -12  -3  -3   19.34    4.33
  -3  12  -3   18.62    3.63
   3 -12   3   19.85    3.42
  -3  12   4   11.35    4.30
  -3  12  -4   12.51    2.69
  12   3  -4   14.68    2.58
 -12  -3   4   12.12    2.77
 -12  -3  -4   10.67    2.15
  -3  12  -4   12.29    2.59
   3 -12   4   13.26    2.40
  -3  12   5   21.55    4.61
  -3  12  -5   22.28    4.40
  12   3  -5   25.98    4.73
 -12  -3   5   20.68    3.18
 -12  -3  -5   25.91    4.68
  -3  12  -5   17.26    4.94
   3 -12   5   22.88    4.49
  -3  12   6    3.34    1.14
  -3  12  -6    2.36    1.86
  12   3  -6    6.87    2.13
 -12  -3   6    9.13    2.04
 -12  -3  -6    5.96    2.63
   3 -12   6    3.99    2.03
  -3  12   7   18.95    4.78
  -3  12  -7   22.25    4.29
  12   3  -7   22.15    4.96
 -12  -3   7   20.42    3.63
 -12  -3  -7   20.66    4.01
   3 -12   7   19.26    4.56
  -3  12   8   15.40    2.92
  -3  12  -8   15.86    3.31
  12   3  -8   22.72    2.70
 -12  -3   8   16.20    3.57
 -12  -3  -8   16.80    3.52
   3 -12   8   13.32    2.48
  -3  12   9   11.31    2.35
  -3  12  -9    8.92    2.12
  12   3  -9   12.19    2.10
 -12  -3   9    8.99    2.43
 -12  -3  -9    8.81    1.61
   3 -12   9   11.79    2.35
  -3  12  10   18.65    5.10
  -3  12 -10   16.62    3.33
  12   3 -10   17.45    2.68
 -12  -3  10   19.39    4.31
 -12  -3 -10   19.21    2.90
   3 -12  10   18.01    2.71
  -3  12  11   16.83    3.87
  -3  12 -11   12.79    3.15
  12   3 -11   22.45    3.12
 -12  -3  11   23.96    4.49
 -12  -3 -11   14.68    2.94
   3 -12  11   14.83    5.07
  -3  12  12    2.99    1.50
  -3  12 -12    4.16    1.09
  12   3 -12    9.11    2.38
 -12  -3  12    5.05    2.37
 -12  -3 -12    5.02    1.18
   3 -12  12    4.88    2.14
  -3  12  13    3.21    0.97
  12   3 -13    0.47    1.06
 -12  -3  13   -1.83    1.61
 -12  -3 -13    1.41    0.81
   3 -12  13    1.33    1.80
  -4  12   0    5.95    1.96
  12   4   0    4.10    1.19
 -12  -4   0    6.23    2.10
  -4  12   0    6.21    1.37
   4 -12   0    8.07    1.19
  -4  12   1   15.68    3.94
  -4  12  -1   15.92    3.03
  12   4  -1   19.04    2.21
  12   4   1   14.51    3.89
 -12  -4   1   19.80    3.03
 -12  -4  -1   15.23    3.61
  -4  12   1   12.42    4.08
  -4  12  -1   11.63    3.51
   4 -12   1   17.36    1.85
   4 -12  -1   12.38    2.25
  -4  12   2    9.78    2.00
  -4  12  -2   10.01    1.76
  12   4  -2   10.21    1.72
  12   4   2    7.14    2.11
 -12  -4   2   11.72    3.10
 -12  -4  -2    9.61    2.28
  -4  12  -2    8.36    2.32
   4 -12   2    9.57    2.01
  -4  12   3   97.46    7.28
  -4  12  -3   86.56    8.47
  12   4  -3   91.99    5.40
  12   4   3   98.34    2.92
 -12  -4   3  102.45    4.13
 -12  -4  -3  103.60    8.65
  -4  12  -3  100.00    3.38
   4 -12   3   91.88    7.03
  -4  12   4   19.34    4.89
  -4  12  -4   16.63    2.97
  12   4  -4   22.05    4.32
 -12  -4   4   23.16    4.39
 -12  -4  -4   15.94    4.78
  -4  12  -4   14.73    3.86
   4 -12   4   21.24    3.65
  -4  12   5   13.02    3.05
  -4  12  -5   18.07    2.38
  12   4  -5   14.65    2.41
 -12  -4   5   12.39    2.18
 -12  -4  -5   13.13    4.96
  -4  12  -5   18.78    3.28
   4 -12   5   14.35    3.39
  -4  12   6   24.74    4.32
  -4  12  -6   20.10    4.40
  12   4  -6   22.67    5.41
 -12  -4   6   23.45    5.54
 -12  -4  -6   21.20    4.33
  -4  12  -6   27.33    6.65
   4 -12   6   19.02    3.55
  -4  12   7   19.64    5.05
  -4  12  -7   17.98    3.61
  12   4  -7   20.92    2.50
 -12  -4   7   15.54    3.35
 -12  -4  -7   15.26    4.54
  -4  12  -7   17.23    4.93
   4 -12   7   22.77    3.56
  -4  12   8   46.55    9.07
  -4  12  -8   50.61    4.32
  12   4  -8   48.87    5.00
 -12  -4   8   42.95    8.76
 -12  -4  -8   39.98    5.74
  -4  12  -8   46.94    3.22
   4 -12   8   49.78    4.87
  -4  12   9   22.29    6.21
  -4  12  -9   19.75    4.10
  12   4  -9   21.24    3.62
 -12  -4   9   22.92    5.70
 -12  -4  -9   19.48    2.94
   4 -12   9   26.10    4.59
  -4  12  10   16.48    3.26
  -4  12 -10   15.87    2.34
  12   4 -10   16.58    3.71
 -12  -4  10   14.19    3.47
 -12  -4 -10   17.93    3.15
   4 -12  10   12.40    2.74
  -4  12  11   15.25    3.98
  -4  12 -11   10.23    2.09
  12   4 -11   23.93    3.63
 -12  -4  11   14.80    5.11
 -12  -4 -11   12.92    2.03
   4 -12  11   18.41    3.33
  -4  12  12   10.67    2.81
  12   4 -12   14.02    2.79
 -12  -4  12   12.68    3.36
   4 -12  12   16.68    5.21
  -4  12  13    7.71    2.43
  12   4 -13    6.98    2.27
 -12  -4  13    6.24    1.77
   4 -12  13    4.81    1.86
  -5  12   0    3.90    1.46
  12   5   0    1.84    1.04
 -12  -5   0    1.55    0.72
  -5  12   0    3.18    0.97
   5 -12   0    3.90    0.99
  -5  12   1   64.86    4.06
  -5  12  -1   53.67   10.71
  12   5   1   67.10    3.06
  12   5  -1   58.86    6.28
 -12  -5   1   70.46    5.27
 -12  -5  -1   59.99    6.68
  -5  12   1   63.46    2.58
  -5  12  -1   63.68    3.01
   5 -12   1   60.55    5.28
   5 -12  -1   66.35    4.63
  -5  12   2   10.63    3.03
  -5  12  -2    8.54    2.07
  12   5   2   11.50    2.59
  12   5  -2   11.92    2.26
 -12  -5   2   11.83    3.01
 -12  -5  -2   11.90    1.97
  -5  12   2   10.40    3.02
  -5  12  -2    8.69    2.51
   5 -12   2   12.96    1.72
  -5  12   3   26.33    4.85
  -5  12  -3   30.18    5.83
  12   5  -3   28.21    6.72
  12   5   3   23.08    1.91
 -12  -5   3   32.22    7.32
 -12  -5  -3   29.27    5.48
  -5  12  -3   25.29    6.88
   5 -12   3   28.15    6.90
  -5  12   4   20.60    6.73
  -5  12  -4   16.86    3.97
  12   5  -4   21.59    2.62
 -12  -5   4   20.65    6.11
 -12  -5  -4   19.03    4.21
  -5  12  -4   19.34    6.22
   5 -12   4   25.29    5.36
  -5  12   5   22.11    6.71
  -5  12  -5   15.90    3.81
  12   5  -5   22.45    4.61
 -12  -5   5   15.15    3.44
 -12  -5  -5   17.37    2.68
  -5  12  -5   16.54    4.72
   5 -12   5   19.51    4.17
  -5  12   6   13.13    2.78
  -5  12  -6   13.43    1.61
  12   5  -6   12.78    2.93
 -12  -5   6   10.34    3.64
 -12  -5  -6    9.12    2.91
  -5  12  -6   16.35    4.55
   5 -12   6   11.59    2.25
  -5  12   7   10.98    1.89
  -5  12  -7    3.58    1.48
  12   5  -7    9.55    2.31
 -12  -5   7    7.80    3.34
 -12  -5  -7    5.22    1.21
  -5  12  -7    6.54    1.50
   5 -12   7    4.36    1.19
  -5  12  -8   39.70    6.57
  12   5  -8   40.88    7.32
 -12  -5   8   47.73    9.44
 -12  -5  -8   42.86    7.79
  -5  12  -8   48.55    4.03
   5 -12   8   40.60   11.44
  -5  12   9    5.52    1.55
  -5  12  -9    5.20    1.55
  12   5  -9    3.06    1.11
 -12  -5   9    3.83    1.57
 -12  -5  -9    3.67    0.89
  -5  12  -9    6.27    2.29
   5 -12   9    8.15    2.50
  -5  12  10    2.91    1.36
  -5  12 -10    5.95    1.55
  12   5 -10    5.30    1.87
 -12  -5  10    3.85    1.19
   5 -12  10    5.29    2.05
  -5  12  11   27.98    8.50
  12   5 -11   28.32    8.54
 -12  -5  11   28.33    7.82
   5 -12  11   31.55    5.03
  -5  12  12    2.15    1.15
  12   5 -12    2.01    0.80
 -12  -5  12    2.75    1.99
   5 -12  12    2.54    1.52
  12   5 -13    7.04    2.20
 -12  -5  13    5.84    1.89
  -6  12   0   12.54    3.67
  12   6   0   16.27    1.70
 -12  -6   0   15.57    2.05
   6 -12   0   18.92    1.81
  -6  12   1    5.71    2.14
  -6  12  -1    4.42    1.52
  12   6   1    6.15    1.47
  12   6  -1    8.72    1.65
 -12  -6   1    5.88    1.36
 -12  -6  -1    5.21    1.17
  -6  12   1    3.36    1.34
  -6  12  -1    4.50    1.43
   6 -12   1    6.86    1.60
   6 -12  -1    5.16    1.45
  -6  12   2   76.60    6.94
  -6  12  -2   83.14    7.86
  12   6  -2   83.55    4.09
 -12  -6   2   86.50   11.27
 -12  -6  -2   87.03    6.13
  -6  12   2   82.29    2.83
  -6  12  -2   78.89    3.19
   6 -12   2   82.58    8.10
  -6  12   3   10.77    2.85
  -6  12  -3    8.32    2.28
  12   6   3    6.30    1.90
  12   6  -3    5.54    1.58
 -12  -6   3    6.71    0.91
 -12  -6  -3    9.08    1.88
  -6  12  -3    7.78    1.65
   6 -12   3    8.52    1.63
  -6  12   4   24.14    6.92
  -6  12  -4   24.28    4.61
  12   6  -4   27.72    4.23
 -12  -6   4   24.95    5.93
 -12  -6  -4   18.43    3.56
  -6  12  -4   24.17    2.77
   6 -12   4   25.73    4.48
  -6  12   5   31.18    7.80
  -6  12  -5   28.46    5.23
  12   6  -5   31.60    7.05
 -12  -6   5   26.79    8.02
 -12  -6  -5   24.53    4.06
  -6  12  -5   27.14    7.43
   6 -12   5   26.43    4.12
  -6  12   6   -0.29    1.73
  -6  12  -6    2.27    0.91
  12   6  -6    0.16    0.80
 -12  -6   6    4.04    1.00
 -12  -6  -6    2.12    0.81
  -6  12  -6    0.78    0.92
   6 -12   6    0.73    1.15
  -6  12   7   47.56    8.14
  -6  12  -7   40.13    6.96
  12   6  -7   45.01    4.37
 -12  -6   7   42.09    9.14
 -12  -6  -7   38.60    6.55
  -6  12  -7   42.98    2.91
   6 -12   7   38.26    8.36
  -6  12   8    8.58    1.90
  -6  12  -8   10.12    1.93
  12   6  -8   12.46    2.74
 -12  -6   8    5.34    1.42
  -6  12  -8    9.97    2.72
   6 -12   8    9.23    2.42
  -6  12   9   19.73    4.43
  -6  12  -9   18.51    3.38
  12   6  -9   23.15    4.70
 -12  -6   9   20.59    6.19
  -6  12  -9   27.16    8.48
   6 -12   9   26.27    4.38
  -6  12  10   21.79    4.91
  -6  12 -10   19.89    4.89
  12   6 -10   23.63    6.11
 -12  -6  10   25.72    3.64
  -6  12 -10   21.21    6.14
   6 -12  10   23.83    3.87
  -6  12  11   -0.69    1.49
  12   6 -11    1.11    1.01
 -12  -6  11    1.39    1.26
  -6  12 -11    1.27    1.08
   6 -12  11    0.66    1.38
  -6  12  12    1.09    1.25
  12   6 -12    2.75    2.21
 -12  -6  12   -0.52    1.54
   6 -12  12    3.67    1.13
  -7  12   0    0.28    0.80
  12   7   0    2.92    1.29
 -12  -7   0    1.98    1.27
  -7  12   0    0.38    0.76
   7 -12   0    2.09    1.26
  -7  12   1   34.29    7.37
  -7  12  -1   33.03    6.44
  12   7   1   29.22    7.49
  12   7  -1   30.61    7.22
 -12  -7   1   38.99    3.22
 -12  -7  -1   34.27    3.21
  -7  12   1   33.49    3.59
  -7  12  -1   31.59    2.21
   7 -12   1   34.94    2.64
   7 -12  -1   29.60    5.07
  -7  12   2   25.30    5.51
  -7  12  -2   27.82    5.06
  12   7   2   20.19    5.42
  12   7  -2   24.06    5.51
 -12  -7   2   22.47    5.45
 -12  -7  -2   23.65    4.21
  -7  12   2   18.24    5.57
  -7  12  -2   21.62    6.99
   7 -12   2   19.02    4.85
  -7  12   3   10.65    2.44
  -7  12  -3   13.05    2.28
  12   7   3    9.25    2.16
  12   7  -3   13.15    2.73
 -12  -7   3   15.88    1.98
 -12  -7  -3   10.57    2.85
  -7  12   3    7.16    3.12
  -7  12  -3    8.03    2.58
   7 -12   3    9.02    1.43
  -7  12   4    2.51    1.50
  -7  12  -4    1.17    1.20
  12   7  -4    1.24    0.87
 -12  -7   4    3.91    1.46
 -12  -7  -4    1.64    0.80
  -7  12  -4    1.93    1.19
   7 -12   4    1.54    0.86
  -7  12   5   72.12   12.74
  -7  12  -5   58.31   12.18
  12   7  -5   65.23    7.98
 -12  -7   5   78.28    6.20
 -12  -7  -5   69.65    4.23
  -7  12  -5   78.88    3.56
   7 -12   5   69.44    5.63
  -7  12   6   12.84    3.38
  -7  12  -6    6.84    1.62
  12   7  -6    5.81    1.83
 -12  -7   6   12.79    2.51
  -7  12  -6    9.02    2.47
   7 -12   6   10.65    2.71
  -7  12   7    6.36    2.63
  -7  12  -7   10.45    1.66
  12   7  -7   10.67    2.69
 -12  -7   7   11.54    2.17
  -7  12  -7   10.98    2.80
   7 -12   7    9.92    3.04
  -7  12   8    1.94    1.51
  -7  12  -8    2.00    1.12
  12   7  -8    3.01    1.83
 -12  -7   8    2.90    0.79
  -7  12  -8    1.24    0.98
   7 -12   8    4.10    2.18
  -7  12   9    1.35    1.11
  -7  12  -9    4.61    1.18
  12   7  -9    2.87    1.54
 -12  -7   9    4.42    1.28
  -7  12  -9    2.17    0.87
   7 -12   9    3.10    1.37
  -7  12  10   16.47    2.90
  12   7 -10   15.70    3.13
 -12  -7  10   13.91    3.58
  -7  12 -10   14.13    3.88
   7 -12  10   15.08    3.46
  -7  12  11   12.70    4.45
  12   7 -11   16.73    2.87
 -12  -7  11   18.45    3.02
  -7  12 -11   16.83    3.76
   7 -12  11   13.56    2.96
  -8  12   0    1.37    0.65
  12   8   0    0.53    0.72
 -12  -8   0    0.54    0.93
  -8  12   0    1.37    0.74
  -8  12   1    9.03    1.69
  -8  12  -1    7.96    1.87
  12   8   1    5.33    1.71
  12   8  -1    8.15    2.47
 -12  -8   1    9.80    2.16
 -12  -8  -1   10.66    1.59
  -8  12   1    6.69    1.31
  -8  12  -1    9.94    2.54
   8 -12   1    6.03    1.25
  -8  12   2    6.93    2.16
  -8  12  -2    4.15    1.28
  12   8   2    5.24    2.19
  12   8  -2    2.15    0.94
 -12  -8   2    6.95    1.26
 -12  -8  -2    2.69    1.40
  -8  12   2    3.35    1.46
  -8  12  -2    5.40    1.53
   8 -12   2    5.07    1.27
  -8  12   3   78.30    7.52
  -8  12  -3   69.35    4.52
  12   8   3   63.40    5.76
  12   8  -3   70.77    3.64
 -12  -8   3   75.27    6.28
 -12  -8  -3   65.96    7.05
  -8  12   3   74.21    3.01
  -8  12  -3   66.13    5.57
   8 -12   3   68.57   10.23
  -8  12   4   32.41    7.42
  -8  12  -4   31.98    6.50
  12   8  -4   31.41    4.35
 -12  -8   4   28.09    4.50
  -8  12  -4   25.30    6.06
   8 -12   4   31.00    2.58
  -8  12   5    6.25    1.31
  -8  12  -5    8.77    1.19
  12   8  -5    8.70    2.15
 -12  -8   5    7.11    1.81
  -8  12  -5    7.63    1.93
   8 -12   5    7.59    1.66
  -8  12   6   14.08    3.07
  -8  12  -6   14.20    2.27
  12   8  -6   12.72    3.94
 -12  -8   6    6.60    2.36
  -8  12  -6   10.80    2.86
   8 -12   6   13.86    3.05
  -8  12   7   26.37    4.11
  -8  12  -7   28.61    4.61
  12   8  -7   26.99    3.04
 -12  -8   7   25.35    6.44
  -8  12  -7   20.83    6.16
   8 -12   7   24.65    4.96
  -8  12   8   19.99    4.57
  -8  12  -8   15.80    4.27
  12   8  -8   21.88    3.96
 -12  -8   8   24.96    7.13
  -8  12  -8   18.83    4.23
   8 -12   8   18.98    4.33
  -8  12   9   25.36    6.33
  12   8  -9   26.16    4.86
 -12  -8   9   25.74    4.63
  -8  12  -9   20.55    6.28
   8 -12   9   21.92    4.87
  -8  12  10    8.06    2.14
  12   8 -10    6.82    2.36
 -12  -8  10    6.19    1.52
  -8  12 -10    9.38    2.57
  12   8 -11    0.81    1.24
 -12  -8  11    1.40    1.11
  -8  12 -11    1.21    0.57
  -9  12   0   35.31    6.14
  12   9   0   32.35    6.94
 -12  -9   0   34.90    7.10
  -9  12   0   28.72    7.98
  -9  12   1   14.07    2.46
  -9  12  -1   15.30    4.29
  12   9   1   18.94    2.40
  12   9  -1   10.37    2.76
 -12  -9   1   11.94    1.84
 -12  -9  -1   15.09    1.81
  -9  12   1    7.31    2.87
  -9  12  -1   12.73    4.21
  -9  12   2    0.92    1.17
  -9  12  -2    1.61    1.05
  12   9   2    2.02    0.89
  12   9  -2   -1.36    1.11
 -12  -9   2    2.10    1.59
  -9  12   2    1.18    0.37
  -9  12  -2    1.68    1.04
   9 -12   2    1.00    0.61
  -9  12   3   21.99    2.96
  -9  12  -3   17.86    3.19
  12   9   3   16.40    2.12
  12   9  -3   16.11    4.72
 -12  -9   3   18.39    5.00
  -9  12   3   15.93    4.03
  -9  12  -3   21.01    4.00
   9 -12   3   15.94    3.33
  -9  12   4    1.30    0.90
  -9  12  -4    2.60    0.99
  12   9  -4    3.04    1.01
 -12  -9   4    2.12    0.92
  -9  12  -4    1.66    2.13
   9 -12   4    1.91    1.34
  -9  12   5   40.84    8.15
  -9  12  -5   47.66    3.65
  12   9  -5   39.18    9.56
 -12  -9   5   43.89    9.92
  -9  12  -5   41.97   10.25
   9 -12   5   45.55    4.56
  -9  12   6    2.56    1.22
  -9  12  -6    0.30    0.74
  12   9  -6    1.78    1.44
 -12  -9   6    2.43    1.10
  -9  12  -6    0.34    1.17
   9 -12   6    1.69    0.75
  -9  12   7   25.22    6.54
  -9  12  -7   16.64    5.68
  12   9  -7   20.98    5.20
 -12  -9   7   24.43    5.30
  -9  12  -7   16.24    4.64
   9 -12   7   23.07    5.99
  -9  12   8    4.21    1.88
  12   9  -8    3.74    1.73
 -12  -9   8    5.62    1.54
  -9  12  -8    3.97    0.95
   9 -12   8    5.25    1.60
  -9  12   9    0.81    1.18
  12   9  -9    4.98    1.71
 -12  -9   9    6.42    1.07
  -9  12  -9    5.44    1.46
   9 -12   9    5.52    2.62
  12   9 -10    2.72    0.97
 -12  -9  10    0.93    0.74
  -9  12 -10    0.93    0.65
   9 -12  10   -0.57    1.46
 -10  12   0   -0.55    1.50
  12  10   0    0.86    1.19
 -10  12   0    0.58    0.84
 -10  12   1   22.64    4.83
 -10  12  -1   24.58    4.25
  12  10   1   19.94    5.53
  12  10  -1   20.29    3.69
 -12 -10   1   26.42    3.00
 -10  12   1   21.11    4.94
 -10  12  -1   16.28    5.19
 -10  12   2    6.70    2.18
 -10  12  -2    5.05    1.68
  12  10   2    8.92    1.73
  12  10  -2    2.37    1.10
 -12 -10   2    4.41    1.23
 -10  12  -2    4.15    1.42
 -10  12   3   10.03    2.00
 -10  12  -3    8.06    2.04
  12  10   3    9.12    2.89
  12  10  -3   13.19    4.12
 -12 -10   3    8.62    2.44
 -10  12   3    9.27    2.52
 -10  12  -3    8.64    2.02
 -10  12   4    3.15    1.41
 -10  12  -4    0.90    0.89
  12  10  -4    0.87    1.20
 -12 -10   4    2.51    1.07
 -10  12   4    2.40    1.10
 -10  12  -4    0.84    0.95
  10 -12   4    1.02    1.16
 -10  12   5    2.70    1.38
 -10  12  -5    2.54    1.42
  12  10  -5    2.26    1.39
 -12 -10   5   -0.48    1.10
 -10  12  -5    0.65    1.11
  10 -12   5    1.25    1.26
 -10  12   6    3.36    1.25
 -10  12  -6    7.62    1.51
  12  10  -6    7.18    2.61
 -12 -10   6    6.84    1.92
 -10  12  -6    2.51    1.25
  10 -12   6    3.28    1.37
 -10  12   7   11.88    2.59
  12  10  -7    6.22    3.41
 -12 -10   7    5.22    1.65
 -10  12  -7    4.77    0.87
  10 -12   7    8.32    1.57
 -10  12   8    1.89    1.11
  12  10  -8    0.47    1.01
 -12 -10   8    1.64    0.84
 -10  12  -8    2.32    1.64
  10 -12   8    0.77    1.45
 -11  12   0   24.99    3.04
  12  11   0   28.14    3.11
 -11  12   0   22.16    6.21
 -11  12   1   27.81    5.92
 -11  12  -1   22.11    4.63
  12  11   1   21.53    7.14
  12  11  -1   26.87    6.09
 -11  12   1   20.52    6.44
 -11  12  -1   23.49    4.78
 -11  12   2    0.97    0.95
 -11  12  -2    1.72    0.79
  12  11   2    1.69    0.90
  12  11  -2    1.50    1.30
 -11  12   2    2.71    1.27
 -11  12  -2    1.69    1.40
 -11  12   3   10.12    1.78
 -11  12  -3    3.01    1.27
  12  11   3    6.48    2.71
  12  11  -3   10.72    2.37
 -12 -11   3    7.79    1.99
 -11  12   3    4.99    2.11
 -11  12  -3   10.69    3.33
 -11  12   4    9.97    2.06
 -11  12  -4    5.28    2.31
  12  11  -4    6.78    2.12
 -12 -11   4    7.05    1.44
 -11  12   4    6.03    1.77
 -11  12  -4    8.20    2.29
 -11  12   5   10.60    1.87
 -11  12  -5    6.79    2.29
  12  11  -5   13.59    3.47
 -12 -11   5    8.68    2.16
 -11  12  -5    7.52    2.24
 -11  12   6   15.43    3.06
  12  11  -6   15.05    3.19
 -12 -11   6   13.75    3.98
 -11  12  -6   16.93    4.47
  11 -12   6   12.80    3.50
 -11  12   7    5.08    1.88
  12  11  -7    7.74    2.78
 -12 -11   7    6.74    1.30
 -11  12  -7    7.05    2.34
  11 -12   7    4.50    1.32
 -12  12   0   13.48    3.90
  12  12   0    9.41    2.84
 -12  12   0    9.27    2.85
 -12  12   1    2.40    1.17
 -12  12  -1    1.27    1.48
  12  12   1    5.06    1.66
  12  12  -1    2.02    1.34
 -12  12   1    2.24    0.81
 -12  12  -1    3.29    1.33
 -12  12   2    0.89    1.22
 -12  12  -2    2.35    1.47
  12  12   2    1.25    1.02
  12  12  -2    1.48    1.44
 -12  12   2    1.44    1.29
 -12  12  -2    2.99    1.46
 -12  12   3   15.75    3.97
 -12  12  -3   14.44    2.29
  12  12   3   13.89    3.53
  12  12  -3   14.07    3.97
 -12  12   3   11.65    3.14
 -12  12  -3   15.57    3.04
 -12  12   4    9.27    1.32
 -12  12  -4    8.32    1.84
  12  12  -4    8.62    2.02
 -12  12   4    6.64    1.72
 -12  12  -4    8.53    3.31
 -13  11   0    1.99    1.06
  11  13   0    0.73    1.69
 -13  11   0    1.11    0.86
 -13  11   1    1.50    1.15
 -13  11  -1    2.99    1.25
  11  13   1    3.52    1.17
  11  13  -1    3.86    1.37
 -13  11   1    1.82    1.18
 -13  11  -1    4.59    1.47
 -13  11   2    2.47    1.15
 -13  11  -2    4.28    1.07
  11  13   2    4.23    1.13
  11  13  -2    2.07    1.86
 -13  11   2    2.63    1.41
 -13  11  -2    4.34    2.46
 -13  11   3    1.68    0.72
 -13  11  -3    2.11    1.25
  11  13   3    2.48    1.08
  11  13  -3    1.52    0.91
 -13  11   3    1.62    0.86
 -13  11  -3    0.06    1.47
 -13  11   4   19.03    2.38
  11  13  -4   23.15    5.06
 -13  11   4   14.30    6.13
 -13  11  -4   18.50    4.53
 -13  10   0   35.12    5.90
  10  13   0   37.02    7.16
 -13  10   0   35.68    3.00
 -13  10   1    3.12    1.19
 -13  10  -1    2.66    0.89
  10  13   1    4.06    1.55
  10  13  -1    2.85    0.89
 -13  10   1    1.80    1.63
 -13  10  -1    3.34    1.30
 -13  10   2   19.15    3.04
 -13  10  -2   13.38    3.34
  10  13   2   16.47    3.43
  10  13  -2   12.60    4.02
 -13  10   2   12.60    4.22
 -13  10  -2   16.02    3.84
 -13  10   3    7.01    2.48
 -13  10  -3    3.46    1.05
  10  13   3    2.23    1.02
  10  13  -3    2.77    1.46
 -13  10   3    1.24    1.17
 -13  10  -3    3.79    1.51
 -13  10   4   13.45    2.11
  10  13   4   12.30    3.56
  10  13  -4   13.93    4.65
 -13  10   4    9.76    1.77
 -13  10  -4   13.49    3.49
 -13  10   5   29.22    4.73
  10  13  -5   31.35    7.15
 -13  10   5   23.08    6.55
 -13  10  -5   31.02    7.67
 -13  10   6    5.35    2.03
  10  13  -6   11.69    2.42
 -13  10   6    4.02    2.64
 -13  10  -6    2.28    1.52
  13 -10   6    4.47    2.55
 -13   9   0    2.72    1.32
   9  13   0    1.62    1.45
 -13   9   1   15.65    3.55
 -13   9  -1   16.00    2.85
   9  13   1   13.28    4.01
   9  13  -1   17.55    2.39
 -13   9   1   15.16    3.07
 -13   9  -1   19.14    2.55
 -13   9   2   38.99    6.61
 -13   9  -2   30.99    7.23
   9  13   2   28.43    9.66
   9  13  -2   37.28    8.27
 -13   9   2   31.02    9.45
 -13   9  -2   34.23    9.25
 -13   9   3    8.68    2.55
   9  13   3    8.32    2.90
   9  13  -3   12.90    2.35
 -13   9   3    7.64    2.19
 -13   9  -3    7.35    2.14
 -13   9   4    3.27    1.37
   9  13   4    3.09    1.47
   9  13  -4    1.17    0.78
 -13   9   4    1.75    1.08
 -13   9  -4   -0.76    1.46
 -13   9   5   -0.80    1.15
   9  13   5    1.56    0.77
   9  13  -5    2.25    1.04
 -13   9   5    0.68    1.33
 -13   9  -5    2.09    1.71
  13  -9   5    1.67    0.96
 -13   9   6    2.76    1.50
   9  13  -6    4.07    1.96
 -13   9   6    2.19    1.31
 -13   9  -6    5.29    1.47
  13  -9   6    2.56    1.06
 -13   9   7    4.41    1.83
  -9 -13   7    2.56    1.39
 -13   9   7    3.90    1.26
 -13   9  -7    5.03    2.29
  13  -9   7    1.32    1.31
 -13   9   8    0.79    0.93
   9  13  -8    3.16    1.33
  -9 -13   8    1.52    0.92
 -13   9   8    1.37    0.94
 -13   9  -8    1.84    1.38
  13  -9   8    2.69    1.27
 -13   8   0    1.50    1.17
   8  13   0    1.74    1.03
 -13   8   0   -0.14    1.22
 -13   8   1    3.94    2.23
 -13   8  -1    3.67    1.20
   8  13   1    6.62    2.01
   8  13  -1    6.55    1.44
 -13   8   1    2.40    1.25
 -13   8  -1    2.72    1.47
 -13   8   2   10.35    3.48
 -13   8  -2   11.50    1.73
   8  13   2   12.05    3.43
   8  13  -2   11.97    3.39
 -13   8   2   12.73    3.53
 -13   8  -2   14.68    2.70
 -13   8   3   13.95    3.15
 -13   8  -3    6.69    1.11
   8  13   3    9.93    2.48
   8  13  -3    7.50    2.31
 -13   8   3   11.34    1.99
 -13   8  -3    8.73    2.38
 -13   8   4    2.63    0.94
   8  13   4    4.54    1.40
   8  13  -4    2.06    1.95
 -13   8   4    7.07    1.70
 -13   8  -4    5.13    1.96
  13  -8   4    3.77    0.78
 -13   8   5    6.78    1.26
   8  13   5    4.77    1.88
   8  13  -5    5.52    1.69
 -13   8   5    8.16    1.70
 -13   8  -5    5.80    1.84
  13  -8   5    4.32    1.67
 -13   8   6   47.59   11.07
   8  13   6   44.28    2.81
   8  13  -6   44.80   12.82
  -8 -13   6   38.86    7.84
 -13   8   6   43.51    9.49
 -13   8  -6   42.04    4.81
  13  -8   6   54.64    4.37
 -13   8   7    5.48    1.97
   8  13  -7    3.19    1.51
  -8 -13   7    3.19    1.11
 -13   8   7    2.00    1.76
 -13   8  -7    6.92    1.80
  13  -8   7    2.43    0.72
 -13   8   8    5.96    1.54
   8  13  -8    2.54    1.45
  -8 -13   8    7.12    1.98
 -13   8   8    5.68    1.84
 -13   8  -8    5.66    1.82
  13  -8   8    9.44    2.26
 -13   8   9    1.75    2.16
   8  13  -9    7.90    2.06
  -8 -13   9    2.19    1.34
 -13   8   9    3.57    1.51
 -13   8  -9    1.39    0.96
  13  -8   9    1.93    1.74
 -13   7   0    1.00    0.55
   7  13   0    0.41    0.67
 -13   7   0    0.87    1.16
 -13   7   1    2.82    0.69
 -13   7  -1    3.95    1.02
   7  13   1    2.41    1.37
   7  13  -1    1.65    1.02
 -13   7   1    3.49    1.54
 -13   7  -1    4.46    2.24
 -13   7   2    3.53    1.35
 -13   7  -2    1.09    0.43
   7  13   2    1.38    1.16
   7  13  -2    4.32    2.03
 -13   7   2    0.75    1.18
 -13   7  -2    2.47    1.16
 -13   7   3   58.70    5.53
 -13   7  -3   43.03    5.66
   7  13   3   47.53   11.68
   7  13  -3   49.30   10.61
 -13   7   3   42.23   12.20
 -13   7  -3   52.50    3.56
 -13   7   4   24.59    4.36
   7  13   4   23.83    5.86
   7  13  -4   24.12    6.99
 -13   7   4   24.08    3.75
 -13   7  -4   22.03    5.26
  13  -7   4   19.04    4.45
 -13   7   5   26.59    6.88
   7  13   5   28.26    8.53
   7  13  -5   29.09    6.82
  -7 -13   5   28.52    4.94
 -13   7   5   28.97    7.60
 -13   7  -5   29.42    7.03
  13  -7   5   32.84    5.71
 -13   7   6    5.57    1.50
   7  13   6    7.62    2.29
   7  13  -6    6.57    1.51
  -7 -13   6    9.92    1.81
 -13   7   6    3.25    2.08
 -13   7  -6    2.83    1.09
  13  -7   6    7.23    1.10
   7  13   7   27.97    7.48
   7  13  -7   34.43    9.43
  -7 -13   7   33.97    7.17
 -13   7   7   24.45    8.52
 -13   7  -7   34.19    8.42
  13  -7   7   35.18    7.30
   7  13  -8   18.11    3.43
  13  -7  -8   21.23    3.53
  -7 -13   8   17.39    4.30
 -13   7   8   20.06    5.40
 -13   7  -8   13.15    2.92
  13  -7   8   19.02    4.51
   7  13  -9   16.62    2.87
  13  -7  -9   17.03    4.47
  -7 -13   9   12.84    3.35
 -13   7   9   19.00    2.77
 -13   7  -9   16.67    4.17
  13  -7   9   19.46    4.84
   7  13 -10    3.01    1.64
  13  -7 -10    2.49    1.54
  -7 -13  10    1.32    1.55
 -13   7  10    6.13    1.78
 -13   7 -10    4.53    1.74
  13  -7  10    5.54    2.07
 -13   6   0   28.94    7.17
   6  13   0   35.14    3.23
 -13   6   0   35.93    3.06
 -13   6   1   29.71    7.14
 -13   6  -1   28.71    6.38
   6  13   1   32.61    7.92
   6  13  -1   29.36    7.32
 -13   6   1   30.18    9.19
 -13   6  -1   28.99    9.31
 -13   6   2    2.73    1.36
 -13   6  -2    0.69    0.44
   6  13   2    0.43    0.57
   6  13  -2    2.38    1.57
 -13   6   2   -1.80    1.71
 -13   6  -2    0.21    0.83
 -13   6   3   29.07    7.53
 -13   6  -3   32.05    7.43
   6  13   3   37.24   10.21
   6  13  -3   34.99    6.62
 -13   6   3   33.75   10.25
 -13   6  -3   38.09    6.57
  13  -6   3   28.83    6.45
   6  13   4   20.46    5.94
   6  13  -4   24.95    5.19
  13  -6  -4   17.77    6.15
 -13   6   4   18.71    3.72
 -13   6  -4   23.59    4.63
  13  -6   4   17.01    2.48
   6  13   5    5.67    1.76
   6  13  -5    3.00    1.67
  13  -6  -5    7.70    1.99
  -6 -13   5    4.29    1.17
 -13   6   5    4.96    1.59
 -13   6  -5    5.06    1.51
  13  -6   5    4.96    1.74
   6  13   6    0.57    0.69
   6  13  -6    0.37    1.27
  13  -6  -6    0.68    0.75
  -6 -13   6   -0.26    0.98
 -13   6   6    0.86    1.00
 -13   6  -6    2.33    0.89
  13  -6   6    0.53    0.74
   6  13   7    8.06    3.78
   6  13  -7   10.38    2.51
  13  -6  -7   10.96    3.49
  -6 -13   7    9.56    1.49
 -13   6   7   12.08    2.97
 -13   6  -7   10.08    2.55
  13  -6   7   13.00    2.62
   6  13   8    0.99    0.79
   6  13  -8    0.98    0.74
  13  -6  -8    0.67    0.99
  -6 -13   8   -0.10    0.55
 -13   6   8    1.16    1.30
 -13   6  -8    3.22    1.91
  13  -6   8    1.06    0.93
   6  13  -9    3.92    2.05
  13  -6  -9    5.99    2.72
  -6 -13   9   10.16    2.11
 -13   6   9   10.64    2.46
 -13   6  -9   11.10    2.74
  13  -6   9    9.26    1.81
   6  13 -10    1.82    1.55
  13  -6 -10   -0.51    1.34
  -6 -13  10    1.94    1.55
 -13   6  10    0.45    1.53
 -13   6 -10    2.99    1.93
  13  -6  10    1.43    1.66
  -6 -13  10    2.07    1.68
   6  13 -11    6.10    2.27
  13  -6 -11    3.68    1.14
  -6 -13  11    1.31    1.06
 -13   6  11    2.77    1.55
 -13   6 -11    4.95    1.73
  13  -6  11    6.11    1.36
  -6 -13  11    2.40    0.72
 -13   5   0    7.86    1.95
   5  13   0   10.51    2.79
 -13   5   0    3.86    1.42
 -13   5  -1   22.32    4.31
   5  13   1   29.39    4.73
   5  13  -1   21.89    4.78
  13  -5  -1   26.46    3.30
 -13   5   1   16.19    6.53
 -13   5  -1   20.82    4.24
 -13   5  -2   12.65    2.57
   5  13   2    7.42    2.28
   5  13  -2   10.58    1.90
  13  -5  -2    8.47    2.35
 -13   5   2    6.98    2.19
 -13   5  -2   10.98    2.44
  13  -5   2   10.66    1.91
 -13   5  -3   53.60    3.11
   5  13   3   55.16   12.13
   5  13  -3   51.09   11.25
  13  -5  -3   54.87    5.47
 -13   5   3   47.53    9.88
 -13   5  -3   53.43    9.45
  13  -5   3   48.10    6.88
   5  13   4   37.71    9.42
   5  13  -4   30.58    8.74
  13  -5  -4   36.25    8.26
  -5 -13   4   33.97    5.90
 -13   5   4   30.00   10.27
 -13   5  -4   35.02    8.87
  13  -5   4   35.36    4.98
   5  13   5    3.22    1.45
   5  13  -5    1.50    1.68
  13  -5  -5    3.57    0.97
  -5 -13   5    6.81    1.63
 -13   5   5    6.07    1.75
 -13   5  -5    3.22    1.87
  13  -5   5    3.00    0.78
   5  13   6    4.44    1.17
   5  13  -6    6.04    2.05
  13  -5  -6    8.11    2.23
  -5 -13   6    6.95    1.26
 -13   5   6   11.98    2.27
  13  -5   6    3.66    1.52
   5  13   7    5.12    2.43
   5  13  -7    4.94    1.48
  13  -5  -7    6.16    2.10
  -5 -13   7    7.37    1.68
 -13   5   7    5.34    2.78
 -13   5  -7    2.90    1.89
  13  -5   7    6.74    1.59
   5  13   8   20.88    7.24
   5  13  -8   26.62    6.56
  13  -5  -8   23.22    5.64
  -5 -13   8   24.18    3.76
 -13   5   8   21.30    5.22
 -13   5  -8   27.96    4.36
  13  -5   8   24.92    4.77
  -5 -13   8   22.08    6.50
   5  13   9    8.45    2.98
   5  13  -9   12.37    2.75
  13  -5  -9   14.95    2.88
  -5 -13   9    9.55    2.42
 -13   5   9   10.54    2.63
 -13   5  -9   13.49    3.43
  13  -5   9   14.43    2.64
  -5 -13   9   16.92    2.91
   5  13 -10    1.61    1.50
  13  -5 -10    4.89    2.42
  -5 -13  10    2.66    1.45
 -13   5  10    2.59    1.53
 -13   5 -10    1.36    1.42
  13  -5  10    4.00    1.50
  -5 -13  10    5.27    2.54
   5  13 -11    6.70    1.38
  13  -5 -11    3.59    1.73
  -5 -13  11    1.63    1.81
 -13   5  11    8.81    2.44
 -13   5 -11    2.04    1.24
  13  -5  11    5.60    2.45
  -5 -13  11    5.51    1.87
   4  13   0    1.42    1.26
  13  -4   0    1.86    0.82
 -13   4   0    3.78    1.92
   4  13   1    4.03    1.44
   4  13  -1    9.14    2.02
  13  -4  -1    5.05    1.43
 -13   4   1    5.83    2.51
 -13   4  -1    4.20    2.15
  13  -4   1    3.82    1.24
 -13   4  -2   36.80    2.80
   4  13   2   41.62    4.63
   4  13  -2   41.15    8.50
  13  -4  -2   36.72    2.91
 -13   4   2   39.82    8.89
 -13   4  -2   35.62    6.81
  13  -4   2   30.23    5.59
 -13   4  -3   14.38    3.38
   4  13   3   13.54    1.85
   4  13  -3   13.09    4.08
  13  -4  -3   12.73    4.98
 -13   4   3    9.95    2.41
 -13   4  -3   15.74    2.96
  13  -4   3   10.56    2.82
   4  13   4   26.74    6.89
   4  13  -4   41.06   10.28
  13  -4  -4   27.59    6.32
  -4 -13   4   26.83    5.79
 -13   4   4   23.79    9.43
 -13   4  -4   30.26    6.92
  13  -4   4   27.77    4.15
   4  13   5    6.42    1.64
   4  13  -5    5.90    1.21
  13  -4  -5    5.84    2.09
  -4 -13   5    4.77    1.00
 -13   4   5    9.12    1.98
 -13   4  -5    6.57    2.00
  13  -4   5   10.29    1.80
   4  13   6   23.92    6.36
   4  13  -6   30.61    6.39
  13  -4  -6   28.50    6.19
 -13   4   6   35.16    3.32
 -13   4  -6   33.23    6.05
  13  -4   6   24.30    6.35
   4  13   7   33.33    7.41
   4  13  -7   33.24    2.81
  13  -4  -7   30.99   10.56
 -13   4   7   31.40    5.46
 -13   4  -7   32.40    5.16
  13  -4   7   29.44    6.59
  -4 -13   7   36.93    7.14
   4  13   8    9.54    2.85
   4  13  -8    7.34    2.65
  13  -4  -8    4.67    2.41
 -13   4   8    8.94    3.46
 -13   4  -8    8.49    2.37
  13  -4   8   11.50    1.94
  -4 -13   8   11.06    2.24
   4  13   9   16.57    4.63
   4  13  -9   20.64    4.67
  13  -4  -9   18.70    4.34
 -13   4   9   20.93    2.70
 -13   4  -9   23.46    2.34
  13  -4   9   15.97    3.49
  -4 -13   9   22.41    2.75
   4  13  10   16.87    6.08
   4  13 -10   18.17    3.63
  13  -4 -10   18.48    2.82
 -13   4  10   17.61    3.25
 -13   4 -10   22.25    2.39
  13  -4  10   21.98    4.16
  -4 -13  10   24.48    3.46
   4  13 -11    3.84    2.03
  13  -4 -11    3.80    1.24
 -13   4  11    1.72    1.59
 -13   4 -11    2.54    1.10
  13  -4  11    2.46    1.41
  -4 -13  11    2.17    1.80
   4  13 -12    1.42    1.09
  13  -4 -12    1.02    0.69
 -13   4  12    2.07    1.57
 -13   4 -12    0.09    0.81
  13  -4  12   -0.49    1.09
  -4 -13  12    2.44    2.41
   3  13   0    5.63    1.70
  13  -3   0    0.53    0.74
 -13   3   0    3.48    1.37
   3  13   1   16.98    4.80
   3  13  -1   15.05    3.36
  13  -3  -1   15.99    3.87
  13  -3   1   19.90    5.19
 -13   3   1   15.56    2.83
 -13   3  -1   18.81    5.35
   3  13   2   81.16    4.01
   3  13  -2   67.40    7.75
  13  -3  -2   78.40    3.28
  13  -3   2   69.44    5.45
 -13   3   2   83.57    8.99
 -13   3  -2   71.14    7.43
 -13   3  -3    3.89    0.75
   3  13   3    1.88    1.61
   3  13  -3    8.17    2.59
  13  -3  -3    5.33    1.57
 -13   3   3    3.17    2.04
 -13   3  -3    3.16    1.76
   3  13   4    1.89    1.08
   3  13  -4   -0.03    1.60
  13  -3  -4   -0.11    1.16
 -13   3   4    4.82    1.90
 -13   3  -4    0.90    1.08
   3  13   5   20.30    5.35
   3  13  -5   24.05    5.53
  13  -3  -5   27.21    3.86
 -13   3   5   28.70    2.74
 -13   3  -5   25.26    6.19
  -3 -13   5   23.93    5.96
   3  13   6   42.87    3.88
   3  13  -6   37.90    7.28
  13  -3  -6   37.53    8.34
 -13   3   6   34.78    8.63
 -13   3  -6   39.29    9.18
  -3 -13   6   41.52   10.64
   3  13   7   24.32    4.16
   3  13  -7   21.29    4.47
  13  -3  -7   27.86    8.02
 -13   3   7   25.41    6.75
 -13   3  -7   22.49    4.19
  13  -3   7   22.36    4.01
  -3 -13   7   23.80    5.06
   3  13   8    2.88    1.74
   3  13  -8    2.64    1.98
  13  -3  -8    1.54    1.95
 -13   3   8    1.34    1.00
 -13   3  -8    3.05    1.68
  13  -3   8    2.15    0.81
  -3 -13   8    0.62    1.66
   3  13   9   12.21    4.37
   3  13  -9   11.17    2.30
  13  -3  -9   15.33    4.86
 -13   3   9   11.54    2.27
 -13   3  -9   17.80    2.51
  13  -3   9   14.12    2.27
  -3 -13   9   10.12    1.83
   3  13 -10   13.17    2.10
  13  -3 -10   11.48    2.10
 -13   3  10   14.22    3.50
 -13   3 -10   18.47    2.47
  13  -3  10   17.07    2.86
  -3 -13  10   10.56    1.67
   3  13  11   14.65    6.27
   3  13 -11   23.63    2.77
  13  -3 -11   17.56    4.30
 -13   3  11   20.35    5.82
 -13   3 -11   21.33    4.88
  13  -3  11   22.27    4.19
  -3 -13  11   16.08    4.32
   3  13 -12    0.85    1.27
  13  -3 -12    0.79    1.07
 -13   3  12    0.68    1.02
 -13   3 -12    1.04    1.16
  13  -3  12    1.20    0.87
  -3 -13  12    3.96    1.86
   2  13   0   43.09    9.86
  13  -2   0   44.01    2.35
 -13   2   0   51.73    3.96
   2  13   1   62.94    6.38
   2  13  -1   52.24    3.62
  13  -2  -1   56.59    2.68
 -13   2   1   53.57    4.40
 -13   2  -1   52.36   11.79
   2  13   2   27.29    5.82
   2  13  -2   26.25    6.47
  13  -2  -2   24.11    5.56
  13  -2   2   25.25    3.80
 -13   2   2   26.43    6.38
 -13   2  -2   29.82    7.03
   2  13   3   52.02   12.48
   2  13  -3   52.59   12.72
  13  -2  -3   55.01    6.18
  13  -2   3   51.11    5.02
 -13   2   3   61.06    3.83
 -13   2  -3   55.62   11.40
   2  13   4   27.16    3.89
   2  13  -4   20.79    4.49
  13  -2  -4   17.75    4.35
 -13   2   4   24.85    3.03
 -13   2  -4   20.70    5.58
  -2 -13   4   24.93    6.19
   2  13   5    9.98    1.83
   2  13  -5    8.58    1.96
  13  -2  -5    6.79    1.91
 -13   2   5    9.11    2.09
 -13   2  -5    5.36    1.88
  -2 -13   5    8.07    1.79
   2  13   6    2.86    1.08
   2  13  -6    3.94    1.87
  13  -2  -6    3.87    2.30
 -13   2   6    7.29    2.14
 -13   2  -6    3.96    1.64
  -2 -13   6    3.50    2.23
   2  13   7    5.59    1.69
   2  13  -7    2.67    1.91
  13  -2  -7    5.97    2.26
 -13   2   7    4.08    1.43
 -13   2  -7    6.76    1.60
  -2 -13   7    5.21    1.85
   2  13   8    8.43    1.89
   2  13  -8    5.70    1.32
  13  -2  -8    4.68    2.68
 -13   2   8    5.13    3.25
 -13   2  -8    8.30    1.54
  -2 -13   8    7.82    2.30
   2  13   9   10.32    3.01
   2  13  -9    9.64    2.62
  13  -2  -9    6.67    1.84
 -13   2   9    9.22    2.35
 -13   2  -9    9.49    1.55
  -2 -13   9   10.99    3.57
   2  13  10    1.16    1.11
   2  13 -10    4.23    1.15
  13  -2 -10    3.41    1.44
 -13   2  10    0.47    0.90
 -13   2 -10    4.73    1.46
  -2 -13  10   -1.84    1.40
   2  13  11    8.90    3.70
   2  13 -11   12.64    1.98
  13  -2 -11   14.44    2.67
 -13   2  11   15.28    2.51
 -13   2 -11   10.19    2.07
  13  -2  11    8.51    1.95
  -2 -13  11   12.27    3.27
   2  13  12    8.26    2.80
   2  13 -12    9.82    2.08
  13  -2 -12   11.02    2.76
 -13   2  12    6.70    3.33
 -13   2 -12   17.26    3.75
  13  -2  12    8.82    1.90
  -2 -13  12   14.31    3.10
   1  13   0   49.14    4.41
  13  -1   0   42.55    5.13
 -13   1   0   46.96    3.24
   1  13   1   38.39    9.67
   1  13  -1   54.68    5.01
  13  -1  -1   41.70    3.05
  13  -1   1   32.64    6.26
 -13   1   1   47.58    3.96
 -13   1  -1   41.55    6.94
   1  13   2   38.49    3.76
   1  13  -2   30.17    6.41
  13  -1  -2   30.24    8.39
  13  -1   2   30.11    1.76
 -13   1   2   31.04    8.01
 -13   1  -2   31.97    8.07
   1  13   3    5.08    2.35
   1  13  -3    3.14    1.68
  13  -1  -3    4.58    1.90
  13  -1   3    4.87    1.37
 -13   1   3    8.09    2.48
 -13   1  -3    6.01    1.50
  -1 -13   3    9.41    2.79
   1  13   4   33.75    8.62
   1  13  -4   29.47    6.05
  13  -1  -4   32.60    7.54
 -13   1   4   34.34   11.51
 -13   1  -4   33.52    6.96
  -1 -13   4   32.68    8.10
   1  13   5   45.43    3.59
   1  13  -5   37.05    7.42
  13  -1  -5   38.28    4.88
 -13   1   5   42.67    9.68
 -13   1  -5   33.17    6.12
  -1 -13   5   47.48    3.95
   1  13   6    1.19    1.16
   1  13  -6    2.40    1.35
  13  -1  -6    0.26    1.43
 -13   1   6    1.89    1.76
 -13   1  -6    0.75    0.87
  -1 -13   6    2.68    1.93
   1  13   7   29.45    8.65
   1  13  -7   34.87    7.12
  13  -1  -7   36.07    8.44
 -13   1   7   33.20    8.27
 -13   1  -7   29.80    4.97
  -1 -13   7   36.46    9.05
   1  13   8   25.89    2.59
   1  13  -8   30.48    6.14
  13  -1  -8   29.95    8.25
 -13   1   8   26.87    7.88
 -13   1  -8   28.03    5.14
  -1 -13   8   35.08    3.55
   1  13   9   -1.71    1.23
   1  13  -9    1.28    0.82
  13  -1  -9    1.27    1.15
 -13   1   9    0.99    1.33
 -13   1  -9    0.56    1.00
  -1 -13   9    0.85    1.07
   1  13  10   12.20    4.68
   1  13 -10   14.65    3.36
  13  -1 -10   11.28    3.31
 -13   1  10   11.29    3.54
 -13   1 -10   10.17    3.65
  -1 -13  10   12.26    2.24
   1  13  11   15.26    4.20
   1  13 -11   20.38    2.65
  13  -1 -11   19.59    5.13
 -13   1  11   17.19    4.55
 -13   1 -11   25.24    3.02
  -1 -13  11   13.90    5.30
   1  13  12   10.22    2.25
   1  13 -12   13.69    2.19
  13  -1 -12   15.39    3.49
 -13   1  12    8.92    2.46
 -13   1 -12   11.56    3.33
  -1 -13  12    7.22    3.39
   0  13   0    1.88    1.32
  13   0   0    3.79    1.19
 -13   0   0   -0.32    1.28
   0  13   1   24.64    2.77
   0  13  -1   21.75    7.80
  13   0  -1   24.15    5.50
  13   0   1   26.17    5.81
 -13   0   1   25.54    6.20
 -13   0  -1   28.84    4.98
   0  13   2    1.50    0.92
   0  13  -2    1.33    1.06
  13   0  -2    1.24    0.81
  13   0   2    0.84    0.82
 -13   0   2    2.58    1.38
 -13   0  -2    1.40    0.65
   0 -13   2    2.69    1.50
   0  13   3   33.55    7.39
   0  13  -3   26.96    5.53
  13   0  -3   32.18    7.14
  13   0   3   27.64    3.41
 -13   0   3   34.81    2.87
 -13   0  -3   36.63    6.65
   0 -13   3   33.07    5.76
   0  13   4   41.52    6.82
   0  13  -4   43.37    3.18
  13   0  -4   32.95    8.83
 -13   0   4   36.63   11.80
 -13   0  -4   31.91    5.54
   0 -13   4   36.50    6.71
   0  13   5   44.24   11.25
   0  13  -5   36.83    7.87
  13   0  -5   39.35    7.84
 -13   0   5   42.97    3.74
 -13   0  -5   41.23    2.94
   0 -13   5   45.15    3.13
   0  13   6   -0.10    1.57
   0  13  -6    1.94    1.42
  13   0  -6    2.04    1.28
 -13   0   6    3.02    2.17
 -13   0  -6    1.50    1.27
   0 -13   6    4.40    2.20
   0  13   7  104.26    4.33
   0  13  -7  103.20    5.32
  13   0  -7   90.41    8.11
 -13   0   7  101.53    4.87
 -13   0  -7  100.83   11.69
   0 -13   7   88.98   12.50
   0  13   8   21.19    5.33
   0  13  -8   19.76    4.76
  13   0  -8   21.58    6.33
 -13   0   8   29.31    3.66
 -13   0  -8   24.66    5.24
   0 -13   8   21.92    6.36
   0  13   9   42.90    9.09
   0  13  -9   49.48   10.09
  13   0  -9   40.38    9.53
 -13   0   9   40.01    9.82
 -13   0  -9   43.43    3.21
   0 -13   9   44.77    8.77
   0  13  10    1.45    0.85
   0  13 -10    0.90    1.17
  13   0 -10    2.22    0.78
 -13   0  10    3.53    1.63
 -13   0 -10    1.76    1.32
   0 -13  10   -0.58    1.90
   0  13  11   13.50    2.87
   0  13 -11   13.05    3.12
  13   0 -11   15.89    4.34
 -13   0  11   11.71    4.08
 -13   0 -11   13.65    3.52
   0 -13  11   20.49    2.98
   0  13  12    4.80    1.25
   0  13 -12    4.22    1.29
  13   0 -12    7.67    2.05
 -13   0  12    4.02    1.96
 -13   0 -12    3.14    2.02
   0 -13  12    6.57    3.01
   0  13 -13    1.80    1.17
  13   0 -13    0.76    1.32
 -13   0  13    0.01    2.16
  -1  13   0   41.66    8.65
  13   1   0   40.40    3.73
 -13  -1   0   48.21    7.31
  -1  13   1   42.76    9.71
  -1  13  -1   45.39    7.92
  13   1  -1   28.92    8.15
  13   1   1   44.30    4.42
 -13  -1   1   45.16    2.94
 -13  -1  -1   45.80    3.11
  -1  13   2   31.83    3.12
  -1  13  -2   34.43    3.54
  13   1  -2   28.56    7.37
  13   1   2   26.15    4.73
 -13  -1   2   37.47    3.13
 -13  -1  -2   36.48    3.18
   1 -13   2   34.78    2.85
  -1  13   3    4.02    1.99
  -1  13  -3    8.01    1.77
  13   1  -3    8.57    1.69
  13   1   3    5.17    1.26
 -13  -1   3    1.43    1.33
 -13  -1  -3    4.73    1.88
   1 -13   3    5.08    1.61
  -1  13   4   31.95    7.17
  -1  13  -4   42.07   10.16
  13   1  -4   44.12    3.23
 -13  -1   4   34.91    3.58
 -13  -1  -4   41.44    3.51
   1 -13   4   33.45    2.94
  -1  13   5   36.79   10.99
  -1  13  -5   42.09    3.13
  13   1  -5   45.01    3.93
 -13  -1   5   39.98    6.33
 -13  -1  -5   34.35    6.21
   1 -13   5   33.70    6.25
  -1  13   6    1.17    1.33
  -1  13  -6    1.53    0.83
  13   1  -6    1.41    1.51
 -13  -1   6    0.68    0.85
 -13  -1  -6    1.81    0.96
   1 -13   6    1.75    1.59
  -1  13   7   28.69    6.41
  -1  13  -7   33.74    8.78
  13   1  -7   31.66    9.68
 -13  -1   7   34.00    4.58
 -13  -1  -7   34.23    8.43
   1 -13   7   30.21    4.15
  -1  13   8   33.29    6.62
  -1  13  -8   26.85    6.92
  13   1  -8   30.05    7.52
 -13  -1   8   31.14    8.10
 -13  -1  -8   23.61    5.79
   1 -13   8   29.08    9.57
  -1  13   9    0.99    0.73
  -1  13  -9    0.75    0.89
  13   1  -9    1.01    1.34
 -13  -1   9    1.54    1.19
 -13  -1  -9    0.84    1.14
   1 -13   9    1.20    0.81
  -1  13 -10    9.17    1.78
  13   1 -10    7.65    2.77
 -13  -1  10   13.88    3.89
 -13  -1 -10    8.80    2.02
   1 -13  10   12.24    3.00
  -1  13  11   21.19    5.26
  -1  13 -11   17.72    4.49
  13   1 -11   16.58    4.30
 -13  -1  11   17.96    4.61
 -13  -1 -11   12.98    2.43
   1 -13  11   18.44    3.48
  -1  13  12   15.62    2.76
  -1  13 -12   11.46    3.29
  13   1 -12    8.59    1.47
 -13  -1  12   15.00    3.24
 -13  -1 -12   10.40    2.44
   1 -13  12   13.09    2.90
  -2  13   0   44.58   10.34
  13   2   0   41.79    5.04
 -13  -2   0   40.87    7.85
  -2  13   1   51.49    4.14
  -2  13  -1   58.69    5.08
  13   2  -1   55.38    7.22
 -13  -2   1   58.68    3.31
 -13  -2  -1   61.34    3.48
   2 -13   1   60.43    5.56
  -2  13   2   24.55    2.62
  -2  13  -2   24.10    2.53
  13   2  -2   25.70    2.18
  13   2   2   30.83    2.28
 -13  -2   2   29.40    3.57
 -13  -2  -2   25.20    4.83
   2 -13   2   33.14    6.01
  -2  13   3   57.40    3.95
  -2  13  -3   49.12    4.11
  13   2  -3   62.16    3.53
  13   2   3   49.31    2.66
 -13  -2   3   56.01    7.65
 -13  -2  -3   58.47    4.61
   2 -13   3   49.69   10.85
  -2  13   4   21.53    3.91
  -2  13  -4   22.96    4.32
  13   2  -4   24.18    2.35
 -13  -2   4   20.87    3.88
 -13  -2  -4   22.82    2.90
   2 -13   4   20.16    4.37
  -2  13   5    3.94    1.51
  -2  13  -5    4.09    1.88
  13   2  -5    1.24    1.42
 -13  -2   5    4.96    1.86
 -13  -2  -5    7.75    2.20
   2 -13   5    9.98    2.09
  -2  13   6    1.83    1.31
  -2  13  -6    3.17    1.69
  13   2  -6    2.01    2.29
 -13  -2   6    2.39    1.06
 -13  -2  -6    3.32    0.79
   2 -13   6    1.96    1.46
  -2  13   7    2.61    2.03
  -2  13  -7    4.71    1.52
  13   2  -7    7.09    2.28
 -13  -2   7    4.03    1.83
 -13  -2  -7    6.38    1.24
   2 -13   7    6.07    1.82
  -2  13   8    5.22    1.80
  -2  13  -8    8.07    1.74
  13   2  -8   10.66    2.90
 -13  -2   8    9.89    2.41
 -13  -2  -8    6.89    1.43
   2 -13   8    6.77    1.10
  -2  13   9    9.78    3.17
  -2  13  -9   11.87    2.04
  13   2  -9   10.01    2.59
 -13  -2   9   13.38    2.42
 -13  -2  -9   10.37    2.60
   2 -13   9    8.41    2.55
  -2  13  10    2.60    1.39
  -2  13 -10    1.12    0.68
  13   2 -10   -1.12    1.20
 -13  -2  10    3.03    1.34
 -13  -2 -10    1.10    1.07
   2 -13  10    2.72    1.95
  -2  13  11   13.74    3.17
  -2  13 -11   11.47    1.74
  13   2 -11   16.05    2.91
 -13  -2  11    7.92    2.03
 -13  -2 -11    8.70    1.59
   2 -13  11   12.24    2.78
  -2  13  12   11.62    2.69
  -2  13 -12    8.74    1.59
  13   2 -12   10.65    3.11
 -13  -2  12   12.57    2.55
 -13  -2 -12    5.98    1.61
   2 -13  12   13.60    3.67
  -3  13   0    3.35    1.43
  13   3   0    4.15    1.29
 -13  -3   0    4.29    1.60
   3 -13   0    2.78    1.11
  -3  13   1   19.76    3.97
  -3  13  -1   18.91    3.77
  13   3  -1   17.02    4.05
 -13  -3   1   17.78    2.49
 -13  -3  -1   22.86    4.25
  -3  13  -1   15.78    4.51
   3 -13   1   16.80    4.04
  -3  13   2   71.73   11.50
  -3  13  -2   67.95   11.19
  13   3  -2   68.64    6.36
  13   3   2   60.25    4.60
 -13  -3   2   67.56    7.19
 -13  -3  -2   75.03    3.69
  -3  13  -2   71.90    2.83
   3 -13   2   69.80    5.08
  -3  13   3    4.83    2.14
  -3  13  -3    2.04    1.53
  13   3  -3    0.91    1.13
  13   3   3    4.57    1.31
 -13  -3   3    8.59    2.65
 -13  -3  -3    2.47    1.58
   3 -13   3    6.55    2.71
  -3  13   4    2.51    1.37
  -3  13  -4    3.00    1.91
  13   3  -4    0.81    0.99
 -13  -3   4    2.65    1.37
 -13  -3  -4    0.50    0.78
   3 -13   4    3.46    1.66
  -3  13   5   32.67    5.39
  -3  13  -5   23.48    4.64
  13   3  -5   30.55    5.24
 -13  -3   5   30.74    3.73
 -13  -3  -5   22.51    5.62
   3 -13   5   28.94    6.21
  -3  13   6   39.11    9.72
  -3  13  -6   48.49    5.92
  13   3  -6   40.00    5.60
 -13  -3   6   39.50    9.29
 -13  -3  -6   34.00    5.85
   3 -13   6   53.69    5.10
  -3  13   7   28.32    6.19
  -3  13  -7   29.37    6.04
  13   3  -7   29.43    3.27
 -13  -3   7   26.52    4.82
 -13  -3  -7   29.73    2.44
   3 -13   7   24.46    7.82
  -3  13   8    4.20    1.73
  -3  13  -8    2.97    1.92
  13   3  -8    1.17    1.39
 -13  -3   8    5.37    1.90
 -13  -3  -8    1.48    0.74
   3 -13   8    0.00    1.48
  -3  13   9   14.58    3.47
  -3  13  -9   13.66    3.06
  13   3  -9   22.02    2.99
 -13  -3   9   13.86    2.02
 -13  -3  -9   15.11    2.97
   3 -13   9   16.04    2.45
  -3  13  10   17.65    3.44
  -3  13 -10   15.74    2.48
  13   3 -10   19.68    2.69
 -13  -3  10   15.96    3.29
 -13  -3 -10   11.62    2.71
   3 -13  10   20.19    3.45
  -3  13  11   19.69    3.22
  -3  13 -11   15.66    4.89
  13   3 -11   19.33    5.59
 -13  -3  11   21.59    3.93
 -13  -3 -11   15.94    3.36
   3 -13  11   18.67    4.53
  -3  13  12    1.56    1.04
  -3  13 -12    0.28    0.80
  13   3 -12   -0.03    0.66
 -13  -3  12    0.68    0.74
 -13  -3 -12    0.59    0.57
   3 -13  12    0.29    1.51
  -4  13   0   -1.03    1.27
  13   4   0    0.65    0.91
 -13  -4   0    1.83    1.39
   4 -13   0    2.44    0.61
  -4  13   1    7.54    1.52
  -4  13  -1    3.17    1.43
  13   4  -1    4.65    1.46
  13   4   1    5.20    1.61
 -13  -4   1    4.81    1.77
 -13  -4  -1    5.37    1.69
  -4  13  -1    3.35    1.60
   4 -13   1    5.92    1.41
  -4  13   2   36.81    8.37
  -4  13  -2   32.50    6.72
  13   4  -2   38.51    2.73
  13   4   2   35.35    5.24
 -13  -4   2   34.45    5.78
 -13  -4  -2   32.55    7.73
  -4  13  -2   36.06    4.12
   4 -13   2   42.23    3.08
  -4  13   3   17.55    3.36
  -4  13  -3    9.82    2.29
  13   4  -3    9.72    1.97
  13   4   3   12.92    1.50
 -13  -4   3   19.72    2.90
 -13  -4  -3    9.45    1.84
  -4  13  -3    9.09    2.81
   4 -13   3   15.51    2.91
  -4  13   4   36.86    6.81
  -4  13  -4   31.70    6.17
  13   4  -4   27.18    6.43
 -13  -4   4   39.40    4.52
 -13  -4  -4   33.87    3.92
  -4  13  -4   25.46    2.62
   4 -13   4   30.90    4.82
  -4  13   5    4.33    1.21
  -4  13  -5    6.12    2.15
  13   4  -5    3.98    1.12
 -13  -4   5    5.14    1.75
 -13  -4  -5    5.34    1.35
  -4  13  -5    6.37    1.54
   4 -13   5    9.47    2.01
  -4  13   6   21.80    5.03
  -4  13  -6   27.44    6.70
  13   4  -6   29.04    6.39
 -13  -4   6   29.84    5.34
 -13  -4  -6   26.39    4.90
  -4  13  -6   24.85    7.20
   4 -13   6   32.04    5.40
  -4  13   7   34.64   10.59
  -4  13  -7   29.36    6.78
  13   4  -7   29.02   10.69
 -13  -4   7   34.72    6.97
 -13  -4  -7   31.76    3.36
   4 -13   7   29.15    8.01
  -4  13   8   11.12    2.13
  -4  13  -8    9.89    2.58
  13   4  -8    5.62    1.93
 -13  -4   8    9.57    2.07
 -13  -4  -8    9.37    2.47
   4 -13   8    8.97    3.88
  -4  13   9   19.00    3.97
  -4  13  -9   22.94    2.75
  13   4  -9   18.58    4.10
 -13  -4   9   17.20    3.70
 -13  -4  -9   22.23    2.57
   4 -13   9   16.82    2.83
  -4  13  10   19.83    3.92
  -4  13 -10   17.69    4.03
  13   4 -10   22.33    3.50
 -13  -4  10   20.89    6.13
 -13  -4 -10   17.99    3.07
   4 -13  10   22.29    3.11
  -4  13  11    1.34    0.62
  -4  13 -11    1.20    0.78
  13   4 -11    4.97    2.15
 -13  -4  11    4.82    2.04
   4 -13  11    2.42    1.37
  -4  13  12    1.14    1.35
  13   4 -12    0.61    1.66
 -13  -4  12    0.89    1.20
   4 -13  12    2.24    2.06
  -5  13   0    8.68    1.70
  13   5   0    7.08    2.26
 -13  -5   0    8.65    1.92
  -5  13   0    6.18    2.62
   5 -13   0    6.61    2.32
  -5  13   1   23.00    4.91
  -5  13  -1   29.54    3.41
  13   5  -1   23.00    5.18
  13   5   1   20.44    6.24
 -13  -5   1   27.69    3.18
 -13  -5  -1   24.94    5.15
  -5  13  -1   23.65    4.72
   5 -13   1   30.69    3.85
  -5  13   2   11.63    3.01
  -5  13  -2    8.31    2.53
  13   5  -2    8.05    1.93
  13   5   2   10.19    2.18
 -13  -5   2   12.08    2.42
 -13  -5  -2    8.74    1.77
  -5  13  -2    7.36    2.27
   5 -13   2    9.73    2.01
  -5  13   3   51.07    9.58
  -5  13  -3   50.08    7.55
  13   5  -3   49.71    7.10
 -13  -5   3   55.20    8.57
 -13  -5  -3   55.57    4.25
  -5  13  -3   51.15    2.62
   5 -13   3   58.44    3.53
  -5  13   4   31.87    9.40
  -5  13  -4   32.92    3.08
  13   5  -4   32.39    7.38
 -13  -5   4   32.02    5.80
 -13  -5  -4   32.39    6.45
  -5  13  -4   36.00    7.58
   5 -13   4   41.12    2.87
  -5  13   5    0.49    1.74
  -5  13  -5    2.67    1.13
  13   5  -5    9.34    1.77
 -13  -5   5    6.95    1.69
 -13  -5  -5    3.27    1.16
  -5  13  -5    3.72    1.13
   5 -13   5    5.25    1.62
  -5  13   6    3.44    1.42
  -5  13  -6    5.50    1.61
  13   5  -6    2.99    1.50
 -13  -5   6    4.01    1.52
 -13  -5  -6    5.36    1.00
  -5  13  -6    5.02    1.48
   5 -13   6    4.53    1.81
  -5  13   7    4.16    2.74
  -5  13  -7    3.39    1.60
  13   5  -7    8.42    1.84
 -13  -5   7    4.35    2.46
 -13  -5  -7    4.55    0.90
  -5  13  -7    3.35    1.99
   5 -13   7    7.34    2.07
  -5  13   8   27.60    7.04
  -5  13  -8   22.29    4.76
  13   5  -8   23.11    4.34
 -13  -5   8   28.06    7.29
 -13  -5  -8   22.22    5.56
  -5  13  -8   26.92    3.57
   5 -13   8   23.98    4.06
  -5  13   9   14.19    3.68
  -5  13  -9    8.50    1.74
  13   5  -9    4.42    2.41
 -13  -5   9   15.17    3.29
   5 -13   9   11.48    4.10
  -5  13  10    3.04    0.79
  -5  13 -10    1.29    0.90
  13   5 -10    4.81    1.82
 -13  -5  10    2.29    1.28
   5 -13  10    0.98    0.88
  -5  13  11    4.70    2.50
  13   5 -11    5.99    1.65
 -13  -5  11    1.60    1.57
   5 -13  11    5.42    2.44
  -6  13   0   31.91    7.34
  13   6   0   31.30    6.27
 -13  -6   0   35.79    3.22
  -6  13   0   30.55    4.05
   6 -13   0   27.82    4.61
  -6  13   1   28.62    6.35
  -6  13  -1   28.46    6.84
  13   6  -1   28.62    3.27
  13   6   1   22.79    7.21
 -13  -6   1   32.76    2.55
 -13  -6  -1   30.69    3.18
  -6  13  -1   25.09    7.93
   6 -13   1   25.60    5.30
   6 -13  -1   29.39    5.24
  -6  13   2    9.62    3.06
  -6  13  -2    0.08    1.27
  13   6   2    1.68    0.84
  13   6  -2    1.14    0.77
 -13  -6   2    1.13    0.93
 -13  -6  -2    0.67    0.81
  -6  13  -2    0.70    0.44
   6 -13   2    0.41    1.06
  -6  13   3   40.15    8.26
  -6  13  -3   36.21    2.90
  13   6  -3   33.64    9.54
 -13  -6   3   34.21    8.19
 -13  -6  -3   32.02    7.81
  -6  13  -3   38.50    2.41
   6 -13   3   38.99    3.35
  -6  13   4   21.87    4.67
  -6  13  -4   23.92    6.25
  13   6  -4   24.05    2.43
 -13  -6   4   21.19    5.49
 -13  -6  -4   18.62    5.24
  -6  13  -4   18.28    5.13
   6 -13   4   24.38    3.06
  -6  13   5    8.50    2.10
  -6  13  -5    6.59    1.95
  13   6  -5    3.89    0.99
 -13  -6   5    8.78    1.70
 -13  -6  -5    3.49    1.22
  -6  13  -5    7.18    2.00
   6 -13   5    6.10    1.91
  -6  13   6    1.50    1.13
  -6  13  -6    1.07    0.93
  13   6  -6    2.00    1.26
 -13  -6   6   -0.93    1.34
 -13  -6  -6    1.30    1.16
  -6  13  -6    2.51    1.38
   6 -13   6    1.47    1.46
  -6  13   7   12.79    2.61
  -6  13  -7    9.19    2.40
  13   6  -7   12.74    2.43
 -13  -6   7    9.09    2.08
 -13  -6  -7    7.18    1.46
  -6  13  -7   11.42    4.02
   6 -13   7   10.44    2.06
  -6  13   8    0.49    0.99
  -6  13  -8    0.97    1.19
  13   6  -8    1.38    1.20
 -13  -6   8   -2.02    1.35
  -6  13  -8    2.19    1.33
   6 -13   8    2.57    1.73
  -6  13   9    6.66    2.55
  -6  13  -9    6.04    0.52
  13   6  -9    8.42    1.70
 -13  -6   9   13.37    2.85
  -6  13  -9    8.96    2.99
   6 -13   9   14.69    2.80
  -6  13  10    1.74    1.01
  13   6 -10   -0.68    1.49
 -13  -6  10    0.45    1.56
  -6  13 -10    1.85    0.91
   6 -13  10    3.26    1.73
  -6  13  11    5.80    2.60
  13   6 -11    2.71    1.32
 -13  -6  11    6.27    2.01
   6 -13  11    3.92    2.35
  -7  13   0    0.35    0.79
  13   7   0   -0.08    0.89
 -13  -7   0    2.45    1.53
  -7  13   0   -0.07    0.72
   7 -13   0    0.61    0.74
  -7  13   1    3.35    1.42
  -7  13  -1    0.56    0.71
  13   7  -1    2.37    1.07
  13   7   1    2.65    1.22
 -13  -7   1    2.98    1.32
 -13  -7  -1    0.77    1.00
  -7  13  -1    2.25    0.94
   7 -13   1    1.98    1.45
  -7  13   2    2.39    1.15
  -7  13  -2    2.38    1.11
  13   7   2    2.83    1.17
  13   7  -2    2.80    1.27
 -13  -7   2    1.70    0.73
 -13  -7  -2    1.69    0.82
  -7  13  -2    0.29    0.78
   7 -13   2    0.91    1.09
  -7  13   3   43.36    9.59
  -7  13  -3   49.13    3.91
  13   7  -3   50.67    8.44
 -13  -7   3   46.61    7.52
 -13  -7  -3   55.90    5.35
  -7  13  -3   38.17   10.43
   7 -13   3   54.40    4.27
  -7  13   4   21.24    3.59
  -7  13  -4   25.17    5.86
  13   7  -4   24.81    6.07
 -13  -7   4   23.55    4.06
 -13  -7  -4   19.96    3.92
  -7  13  -4   17.64    5.92
   7 -13   4   27.40    3.73
  -7  13   5   29.76    7.12
  -7  13  -5   28.97    8.48
  13   7  -5   25.57    8.49
 -13  -7   5   31.90    9.64
 -13  -7  -5   28.73    2.61
  -7  13  -5   27.32    6.47
   7 -13   5   29.87    6.76
  -7  13   6    4.49    1.97
  -7  13  -6    8.19    2.50
  13   7  -6    8.56    2.00
 -13  -7   6    5.97    1.45
  -7  13  -6    5.35    2.28
   7 -13   6    8.06    1.92
  -7  13   7   30.31    6.93
  -7  13  -7   35.60    3.60
  13   7  -7   35.53    3.75
 -13  -7   7   36.17    7.31
  -7  13  -7   29.10    9.10
   7 -13   7   40.68    4.26
  -7  13   8   14.98    4.93
  -7  13  -8   15.38    5.78
  13   7  -8   21.49    3.39
 -13  -7   8   18.26    3.53
  -7  13  -8   23.45    3.04
   7 -13   8   11.03    2.36
  -7  13   9   19.20    3.66
  13   7  -9   23.24    3.71
 -13  -7   9   15.06    3.85
  -7  13  -9   15.13    4.04
   7 -13   9   13.63    3.82
  -7  13  10   10.23    2.36
  13   7 -10    2.46    1.10
 -13  -7  10    4.35    1.76
  -7  13 -10    1.08    0.91
   7 -13  10    3.37    1.79
  -8  13   0   -0.52    1.20
  13   8   0    0.73    0.62
 -13  -8   0    2.50    1.46
  -8  13   0    0.75    0.79
  -8  13   1    2.50    1.33
  -8  13  -1    8.16    2.24
  13   8   1    3.68    1.38
  13   8  -1    3.51    2.03
 -13  -8   1    5.37    1.87
 -13  -8  -1    2.67    0.82
   8 -13   1    2.07    0.92
  -8  13   2   12.54    3.00
  -8  13  -2   12.93    1.92
  13   8   2   10.14    3.97
  13   8  -2    8.15    2.54
 -13  -8   2   12.18    1.86
 -13  -8  -2   11.18    2.60
  -8  13  -2    9.45    4.98
   8 -13   2   10.17    1.94
  -8  13   3    7.96    1.28
  -8  13  -3   11.30    2.28
  13   8  -3   10.86    2.67
 -13  -8   3   11.73    2.55
 -13  -8  -3    6.81    1.55
  -8  13  -3    8.47    2.55
   8 -13   3    6.76    1.74
  -8  13   4    9.10    1.56
  -8  13  -4    4.73    1.86
  13   8  -4    3.06    1.28
 -13  -8   4    5.23    1.72
  -8  13  -4    6.00    1.72
  -8  13   5    5.07    1.55
  -8  13  -5    5.52    1.50
  13   8  -5   10.90    2.55
 -13  -8   5    4.22    1.35
  -8  13  -5    7.26    1.89
   8 -13   5    5.75    1.17
  -8  13   6   47.98   11.74
  -8  13  -6   47.15    3.84
  13   8  -6   43.64    8.83
 -13  -8   6   51.88    8.33
  -8  13  -6   42.73   12.08
   8 -13   6   52.73    3.36
  -8  13   7   10.05    1.81
  -8  13  -7    3.34    0.92
  13   8  -7    4.20    1.60
 -13  -8   7    6.13    2.48
  -8  13  -7    4.08    2.21
   8 -13   7    7.07    2.08
  -8  13   8    5.98    2.43
  13   8  -8    4.07    1.17
 -13  -8   8    4.38    1.70
  -8  13  -8    4.10    2.19
   8 -13   8    6.26    2.35
  -8  13   9    3.92    1.56
  13   8  -9    3.79    1.64
 -13  -8   9    4.31    1.89
  -8  13  -9    4.95    2.62
   8 -13   9    4.66    1.07
  -9  13   0    2.67    1.09
  13   9   0    1.20    1.03
 -13  -9   0    2.24    1.23
  -9  13   1   14.13    1.63
  -9  13  -1   17.27    4.12
  13   9   1   12.69    4.68
  13   9  -1   14.13    5.42
 -13  -9   1   15.28    2.54
  -9  13   1   15.08    4.44
  -9  13  -1   13.38    4.70
  -9  13   2   36.98    6.85
  -9  13  -2   40.16    7.54
  13   9   2   26.11    8.97
  13   9  -2   37.76   10.82
 -13  -9   2   31.87    4.43
  -9  13  -2   28.06    8.22
  -9  13   3    9.35    1.95
  -9  13  -3    8.86    2.50
  13   9  -3    8.97    2.04
 -13  -9   3    8.18    1.94
  -9  13  -3    3.75    1.78
  -9  13   4    2.08    0.97
  -9  13  -4    1.18    1.14
  13   9  -4   -0.28    1.02
 -13  -9   4    2.28    1.21
  -9  13  -4    1.10    0.95
   9 -13   4    2.71    1.39
  -9  13   5    1.00    0.72
  -9  13  -5    0.35    0.74
  13   9  -5    2.33    1.37
 -13  -9   5    1.12    1.13
  -9  13  -5    0.93    0.81
   9 -13   5    1.69    0.96
  -9  13   6    5.21    2.03
  -9  13  -6    1.09    1.08
  13   9  -6    5.02    1.92
 -13  -9   6    2.67    1.03
  -9  13  -6    4.86    2.20
   9 -13   6    2.40    1.30
  -9  13   7    4.03    2.23
  -9  13  -7    3.84    1.41
  13   9  -7    4.35    1.65
 -13  -9   7    7.94    2.27
  -9  13  -7    3.38    2.32
   9 -13   7    4.08    1.70
  -9  13   8    0.89    1.20
  13   9  -8    5.45    1.70
 -13  -9   8    1.75    2.09
  -9  13  -8    2.18    1.33
   9 -13   8    1.45    1.43
 -10  13   0   33.94    5.96
  13  10   0   40.11    3.36
 -10  13   0   30.15    8.19
 -10  13   1    1.71    0.77
 -10  13  -1    2.64    1.05
  13  10   1    2.31    1.27
  13  10  -1    4.55    2.28
 -10  13   1    1.17    1.03
 -10  13  -1    2.88    1.45
 -10  13   2   19.81    4.22
 -10  13  -2   15.13    2.82
  13  10   2   11.80    4.34
  13  10  -2   14.75    4.63
 -13 -10   2   15.56    3.67
 -10  13  -2    9.36    2.66
 -10  13   3    1.07    0.91
 -10  13  -3    3.75    2.11
  13  10  -3    3.94    1.95
 -13 -10   3    3.00    1.26
 -10  13  -3    3.25    1.93
 -10  13   4   13.91    3.28
 -10  13  -4   17.01    2.22
  13  10  -4   14.88    2.93
 -13 -10   4   12.71    2.36
 -10  13  -4    9.80    3.31
 -10  13   5   28.96    7.14
 -10  13  -5   27.73    6.23
  13  10  -5   30.78    3.28
 -13 -10   5   27.72    6.01
 -10  13  -5   32.89    3.34
  10 -13   5   31.19    2.78
 -10  13   6    5.83    1.97
 -10  13  -6    4.12    1.90
  13  10  -6    4.04    1.06
 -13 -10   6    1.25    0.63
 -10  13  -6    1.96    1.02
  10 -13   6    3.32    1.78
 -11  13   0   -0.42    1.22
  13  11   0    2.53    1.13
 -11  13   0    0.87    0.60
 -11  13   1    4.18    1.26
 -11  13  -1    2.59    0.96
  13  11   1    2.56    1.03
  13  11  -1    0.85    1.41
 -11  13   1    1.70    0.73
 -11  13  -1    4.40    1.18
 -11  13   2    2.14    1.39
 -11  13  -2    2.20    1.74
  13  11   2    6.60    1.82
  13  11  -2    2.78    1.42
 -11  13   2    3.17    1.03
 -11  13  -2    3.19    1.13
 -11  13   3    1.94    1.10
 -11  13  -3    3.48    1.78
  13  11  -3    0.70    1.42
 -11  13  -3    2.08    1.29
 -11  13   4   24.65    5.60
 -11  13  -4   19.59    4.97
  13  11  -4   22.51    5.50
 -13 -11   4   18.78    4.41
 -11  13  -4   16.96    3.21
 -14  10   0    7.05    1.63
  10  14   0    4.57    2.37
 -14  10   0    5.55    1.65
 -14  10   1    5.71    1.57
 -14  10  -1    4.48    1.30
  10  14   1    7.52    2.19
  10  14  -1    4.24    1.69
 -14  10   1   10.15    2.66
 -14  10  -1    4.64    1.48
 -14  10   2    1.26    1.14
 -14  10  -2    2.69    1.52
  10  14   2    3.61    1.49
  10  14  -2    1.48    1.23
 -14  10   2    1.99    1.35
 -14  10  -2    1.28    0.92
 -14  10   3    8.14    2.30
  10  14   3    6.56    2.96
  10  14  -3    6.80    2.24
 -14  10   3    7.88    2.85
 -14  10  -3    3.70    1.51
 -14   9   0    2.65    0.84
   9  14   0    3.84    1.95
 -14   9   0    2.42    0.94
 -14   9   1   15.14    2.94
 -14   9  -1   13.48    3.46
   9  14   1   13.01    3.70
   9  14  -1   16.56    3.84
 -14   9   1   12.73    4.49
 -14   9  -1   14.07    2.29
 -14   9   2    5.79    1.38
 -14   9  -2    6.43    1.85
   9  14   2    4.97    1.77
   9  14  -2    8.60    2.22
 -14   9   2    6.67    1.57
 -14   9  -2    6.35    1.87
 -14   9   3   19.96    4.37
   9  14   3   11.22    3.86
   9  14  -3   17.31    2.75
 -14   9   3   13.86    4.54
 -14   9  -3   16.22    4.81
 -14   9   4    3.82    1.48
   9  14   4    2.69    1.26
   9  14  -4    3.25    2.60
 -14   9   4    2.01    1.49
 -14   9  -4    1.03    1.82
 -14   9   5    8.56    1.65
   9  14   5    7.35    2.73
   9  14  -5    7.66    3.64
 -14   9   5    8.75    3.03
 -14   9  -5   11.64    2.47
   9  14  -6   34.06    3.24
 -14   9   6   22.88    3.46
 -14   9  -6   23.82    5.30
 -14   8   0   16.12    2.46
   8  14   0   16.64    4.96
 -14   8   0   16.69    2.82
 -14   8   1    4.10    1.25
 -14   8  -1    3.16    1.05
   8  14   1    2.68    1.09
   8  14  -1    2.47    1.81
 -14   8   1    3.24    1.74
 -14   8  -1    3.33    1.88
 -14   8   2   28.48    5.79
 -14   8  -2   23.72    4.09
   8  14   2   30.93    7.86
   8  14  -2   29.77    7.13
 -14   8   2   28.61    5.68
 -14   8  -2   27.15    3.14
 -14   8   3   11.81    1.74
   8  14   3   11.15    4.14
   8  14  -3   13.35    3.15
 -14   8   3   10.30    3.10
 -14   8  -3   10.95    2.55
 -14   8   4    2.94    1.66
   8  14   4    2.25    1.28
   8  14  -4    2.19    1.59
 -14   8   4    2.62    1.20
 -14   8  -4    3.58    1.35
 -14   8   5    6.30    2.45
   8  14   5    5.62    2.16
   8  14  -5    8.65    1.97
 -14   8   5    4.53    2.64
 -14   8  -5    6.26    1.14
 -14   8   6    2.16    0.84
   8  14   6    3.60    1.56
   8  14  -6    3.22    2.25
 -14   8   6    2.39    1.17
 -14   8  -6    2.89    1.70
  14  -8   6    3.06    1.48
 -14   8   7   12.63    3.33
   8  14  -7   10.07    3.12
 -14   8  -7   12.57    2.85
  14  -8   7   10.28    2.81
 -14   7   0   14.88    3.14
   7  14   0   13.62    3.26
 -14   7   0   15.79    4.71
 -14   7   1    1.85    0.95
 -14   7  -1    0.77    0.84
   7  14   1   -0.01    1.30
   7  14  -1    1.26    0.68
 -14   7   1    1.04    1.19
 -14   7  -1    3.75    1.63
 -14   7   2    1.82    1.18
 -14   7  -2    3.15    1.18
   7  14   2    1.89    0.90
   7  14  -2    7.33    1.90
 -14   7   2    2.43    1.56
 -14   7  -2    3.63    2.47
 -14   7   3    3.58    2.03
   7  14   3    0.14    1.26
   7  14  -3    2.28    1.41
 -14   7   3    1.37    0.83
 -14   7  -3    2.63    1.67
 -14   7   4   13.01    3.05
   7  14   4   11.85    3.29
   7  14  -4   18.37    3.80
 -14   7   4    5.94    2.33
 -14   7  -4   12.79    3.75
 -14   7   5   25.77    5.52
   7  14   5   20.58    5.83
   7  14  -5   31.38    6.18
 -14   7   5   26.71    2.95
 -14   7  -5   23.97    7.02
  14  -7   5   19.23    3.99
 -14   7   6    3.45    1.67
   7  14   6    1.68    0.80
   7  14  -6    3.94    2.07
 -14   7   6    2.50    1.20
 -14   7  -6    2.91    1.21
  14  -7   6    3.38    1.51
 -14   7   7    9.77    2.50
   7  14   7   11.83    3.82
   7  14  -7    4.15    1.78
 -14   7   7   11.29    2.59
 -14   7  -7   11.51    3.00
  14  -7   7   15.95    3.38
   7  14  -8   17.41    3.14
  -7 -14   8   10.31    2.28
 -14   7   8   13.60    3.75
 -14   7  -8   14.78    3.82
  14  -7   8   11.02    2.75
 -14   6   0   -0.45    1.16
   6  14   0    0.39    1.12
 -14   6   0    2.81    1.40
 -14   6   1   14.16    3.08
 -14   6  -1   14.41    2.14
   6  14   1   14.05    3.21
   6  14  -1   14.71    2.78
 -14   6   1    8.19    2.05
 -14   6  -1   16.24    4.55
 -14   6   2    5.83    1.33
 -14   6  -2    8.09    1.73
   6  14   2    9.06    2.47
   6  14  -2    4.39    2.79
 -14   6   2   12.75    1.92
 -14   6  -2    6.03    2.64
 -14   6   3    9.04    1.71
   6  14   3    9.13    1.83
   6  14  -3   10.35    2.85
 -14   6   3    5.88    3.22
 -14   6  -3   10.64    3.01
   6  14   4   42.47   10.79
   6  14  -4   40.81   11.03
  14  -6  -4   40.33    9.94
 -14   6   4   43.86   10.68
 -14   6  -4   50.04    6.42
  14  -6   4   36.69    8.75
   6  14   5   16.60    7.30
   6  14  -5   17.89    4.05
  14  -6  -5   19.67    2.10
 -14   6   5   22.95    3.69
 -14   6  -5   20.34    2.68
  14  -6   5   17.11    2.87
   6  14   6   15.16    4.55
   6  14  -6   14.90    2.76
  14  -6  -6   10.42    4.36
 -14   6   6   11.60    2.14
 -14   6  -6   11.65    2.38
  14  -6   6   14.23    2.53
   6  14   7    0.00    0.86
   6  14  -7    2.30    1.31
  14  -6  -7    1.78    1.74
  -6 -14   7    0.57    0.72
 -14   6   7    1.15    0.81
 -14   6  -7    1.53    1.66
  14  -6   7   -1.99    1.15
   6  14   8   15.35    4.83
  14  -6  -8   18.35    4.79
  -6 -14   8   14.60    1.63
 -14   6   8   17.29    4.35
 -14   6  -8   19.71    3.72
  14  -6   8   18.64    3.08
   6  14  -9    1.39    0.96
  14  -6  -9    1.06    1.35
  -6 -14   9    1.85    0.81
 -14   6   9    2.36    2.35
 -14   6  -9    1.10    1.58
  14  -6   9    1.22    0.84
 -14   5   0    4.39    1.51
   5  14   0    0.66    1.42
 -14   5   0    4.63    2.05
 -14   5  -1    6.39    1.32
   5  14   1    7.08    1.84
   5  14  -1    4.04    1.49
 -14   5   1    5.41    1.76
 -14   5  -1    4.14    1.59
 -14   5  -2   29.79    4.85
   5  14   2   27.04    8.54
   5  14  -2   29.66    8.54
  14  -5  -2   34.31    3.08
 -14   5   2   28.20    8.03
 -14   5  -2   31.63    7.06
   5  14   3   11.34    4.14
   5  14  -3   19.31    4.20
  14  -5  -3   14.42    3.75
 -14   5   3   14.49    3.75
 -14   5  -3   14.25    2.45
  14  -5   3   12.43    2.56
   5  14   4    0.82    1.00
   5  14  -4    1.19    1.56
  14  -5  -4    3.40    1.45
 -14   5   4    2.06    1.68
 -14   5  -4    2.95    1.76
  14  -5   4    2.28    0.73
   5  14   5   13.40    2.41
   5  14  -5   16.02    3.99
  14  -5  -5   18.09    2.29
 -14   5   5   13.28    2.72
 -14   5  -5   18.43    4.17
  14  -5   5   11.09    3.06
   5  14   6    2.94    1.84
   5  14  -6    4.40    1.93
  14  -5  -6    6.39    1.51
  -5 -14   6    5.26    1.29
 -14   5   6    3.88    1.01
 -14   5  -6    5.46    1.95
  14  -5   6    6.24    1.58
   5  14   7   13.46    3.47
   5  14  -7   17.16    3.80
  14  -5  -7   12.06    4.03
  -5 -14   7   12.68    3.70
 -14   5   7   17.87    2.58
 -14   5  -7   12.86    2.57
  14  -5   7   12.16    1.91
   5  14   8    1.51    0.66
   5  14  -8   -0.05    1.31
  14  -5  -8    0.72    1.97
  -5 -14   8    1.65    1.33
 -14   5   8   -0.65    1.22
 -14   5  -8    2.05    1.20
  14  -5   8    1.05    0.58
   5  14   9    9.69    3.21
   5  14  -9   11.46    2.03
  14  -5  -9   10.01    2.81
  -5 -14   9    9.05    2.09
 -14   5   9   10.97    2.75
  14  -5   9    8.52    1.90
  -5 -14   9    5.71    2.58
   5  14 -10   19.09    3.42
  14  -5 -10   19.35    4.30
  -5 -14  10   15.16    4.52
 -14   5  10   14.29    4.29
 -14   5 -10   15.55    2.98
  14  -5  10   16.21    3.80
  -5 -14  10   14.57    5.35
   4  14   0    0.16    0.73
  14  -4   0    1.33    0.99
 -14   4   0    1.65    0.90
 -14   4  -1   12.73    3.12
   4  14   1   14.29    2.58
   4  14  -1    9.69    3.62
  14  -4  -1   13.33    4.12
 -14   4   1   13.59    3.01
 -14   4  -1   19.34    4.91
 -14   4  -2   56.29    4.43
   4  14   2   46.60   10.27
   4  14  -2   57.85   12.24
  14  -4  -2   47.18    4.44
 -14   4   2   49.15   12.50
 -14   4  -2   62.30    4.22
   4  14   3   10.01    2.35
   4  14  -3    5.71    2.02
  14  -4  -3    5.67    1.84
 -14   4   3    4.10    1.16
 -14   4  -3    8.16    2.08
  14  -4   3    3.58    1.51
   4  14   4   -0.26    1.30
   4  14  -4    3.92    2.94
  14  -4  -4    0.49    0.81
 -14   4   4    2.10    1.31
 -14   4  -4    2.43    1.61
  14  -4   4    0.38    1.00
   4  14   5   14.51    4.46
   4  14  -5   20.31    4.34
  14  -4  -5   13.03    3.78
 -14   4   5   20.22    4.50
 -14   4  -5   20.21    4.00
  14  -4   5   17.68    3.74
   4  14   6    7.19    2.90
   4  14  -6    5.91    1.90
  14  -4  -6    5.47    1.44
  -4 -14   6    7.08    1.76
 -14   4   6   10.55    2.34
 -14   4  -6    8.06    2.67
  14  -4   6    5.21    1.65
   4  14   7   17.22    4.53
   4  14  -7   13.76    2.93
  14  -4  -7   16.26    4.83
 -14   4   7   18.34    2.76
 -14   4  -7   14.27    2.88
  14  -4   7   16.58    4.28
   4  14   8    1.17    1.14
   4  14  -8   -1.08    1.37
  14  -4  -8    1.48    0.89
 -14   4   8    0.68    1.56
 -14   4  -8    0.93    1.35
  14  -4   8    1.99    0.81
  -4 -14   8    4.66    1.71
   4  14   9    3.90    0.89
   4  14  -9    4.22    1.56
  14  -4  -9    1.23    1.34
 -14   4   9    1.49    1.45
 -14   4  -9    5.25    1.67
  14  -4   9    1.41    0.58
  -4 -14   9    3.97    2.14
   4  14  10   10.48    3.00
   4  14 -10   10.56    2.45
  14  -4 -10    8.78    2.37
 -14   4  10    8.82    3.06
 -14   4 -10   10.86    3.18
  14  -4  10   11.37    2.15
  -4 -14  10   11.13    2.86
   3  14   0    0.57    1.61
  14  -3   0    0.57    0.55
 -14   3   0   -0.73    1.86
   3  14   1   28.18    2.98
   3  14  -1   25.57    2.64
  14  -3  -1   26.60    3.24
  14  -3   1   24.15    6.37
 -14   3   1   25.21    4.03
 -14   3  -1   27.57    6.91
   3  14   2    0.86    1.79
   3  14  -2    1.24    1.24
  14  -3  -2    1.68    1.17
  14  -3   2    1.40    0.77
 -14   3   2    0.69    1.73
 -14   3  -2    0.71    1.07
   3  14   3   16.82    3.59
   3  14  -3   21.40    4.70
  14  -3  -3   14.43    5.16
 -14   3   3   17.05    3.21
 -14   3  -3   17.64    3.72
   3  14   4   14.13    3.14
   3  14  -4    6.77    2.65
  14  -3  -4    8.47    2.79
 -14   3   4   10.31    2.49
 -14   3  -4    4.67    2.99
   3  14   5    8.52    1.70
   3  14  -5    8.63    1.92
  14  -3  -5    5.16    1.25
 -14   3   5    3.02    1.67
   3  14   6   20.60    4.81
   3  14  -6   23.06    5.90
  14  -3  -6   19.91    6.51
 -14   3   6   28.96    3.57
 -14   3  -6   22.62    6.19
  14  -3   6   22.28    4.14
  -3 -14   6   30.09    5.11
   3  14   7    2.36    0.76
   3  14  -7    0.53    0.92
  14  -3  -7    0.63    0.73
 -14   3   7    6.20    5.17
 -14   3  -7    1.63    1.10
  14  -3   7    0.26    0.78
  -3 -14   7    2.57    0.88
   3  14   8   15.30    2.92
   3  14  -8   13.91    2.26
  14  -3  -8   23.44    3.08
 -14   3   8   11.21    3.69
 -14   3  -8   16.39    3.41
  14  -3   8   14.47    3.04
  -3 -14   8   13.52    3.05
   3  14   9    2.51    1.39
   3  14  -9   -0.38    1.18
  14  -3  -9    4.20    2.07
 -14   3   9    4.26    1.80
 -14   3  -9    0.58    0.87
  14  -3   9   -0.08    1.44
  -3 -14   9    0.73    1.16
   3  14  10    5.98    2.28
   3  14 -10    8.93    2.08
  14  -3 -10    7.72    1.73
 -14   3  10    5.06    1.78
  14  -3  10    7.90    1.86
  -3 -14  10    5.95    2.17
   3  14  11   -0.28    1.04
   3  14 -11    4.64    1.74
  14  -3 -11    3.31    1.62
 -14   3  11    1.30    0.71
 -14   3 -11    2.47    1.63
  14  -3  11    2.08    1.69
  -3 -14  11    1.36    1.30
   2  14   0   42.85    8.61
  14  -2   0   44.28    7.72
 -14   2   0   45.86   10.71
   2  14   1    1.32    1.11
   2  14  -1    2.97    1.44
  14  -2  -1    2.53    1.14
  14  -2   1    1.33    0.82
 -14   2   1    2.99    2.66
 -14   2  -1    1.37    0.73
   2  14   2    6.68    1.81
   2  14  -2    5.42    2.56
  14  -2  -2    8.26    1.67
  14  -2   2    7.14    1.22
 -14   2   2    3.45    2.34
 -14   2  -2    3.13    1.71
   2  14   3   14.85    4.30
   2  14  -3   17.10    2.64
  14  -2  -3   14.47    4.22
 -14   2   3   12.99    3.85
 -14   2  -3   15.36    2.71
   2  14   4   22.20    4.83
   2  14  -4   26.46    5.34
  14  -2  -4   26.76    5.44
 -14   2   4   21.47    2.95
 -14   2  -4   29.66    3.99
   2  14   5   14.88    2.94
   2  14  -5   15.05    3.51
  14  -2  -5   12.01    2.78
 -14   2   5   16.43    2.56
 -14   2  -5   16.32    4.00
  -2 -14   5   15.80    3.99
   2  14   6    2.30    1.41
   2  14  -6    1.46    0.98
  14  -2  -6    1.53    0.99
 -14   2   6    5.11    1.32
 -14   2  -6    2.81    1.26
  -2 -14   6    0.53    1.39
   2  14   7   20.74    4.53
   2  14  -7   20.95    4.18
  14  -2  -7   25.13    5.66
 -14   2   7   30.13    3.60
 -14   2  -7   24.42    4.99
  -2 -14   7   22.76    3.70
   2  14   8    4.18    1.89
   2  14  -8    4.77    1.29
  14  -2  -8    7.51    2.22
 -14   2   8    5.71    2.98
 -14   2  -8    4.72    2.08
  -2 -14   8    6.51    2.58
   2  14   9   17.96    6.14
   2  14  -9   32.32    3.51
  14  -2  -9   17.92    3.75
 -14   2   9   25.88    6.65
 -14   2  -9   27.52    3.04
  -2 -14   9   24.65    5.04
   2  14  10    2.57    1.18
   2  14 -10    3.08    1.43
  14  -2 -10    2.10    1.54
 -14   2  10    4.09    2.02
 -14   2 -10    1.97    1.13
  14  -2  10    3.33    1.89
  -2 -14  10    2.95    2.09
   2  14  11    6.96    2.09
   2  14 -11    9.15    2.03
  14  -2 -11    3.64    2.55
 -14   2  11    6.98    1.92
 -14   2 -11    3.74    1.46
  14  -2  11    5.80    2.29
  -2 -14  11    3.99    2.76
   1  14   0   46.79    6.34
  14  -1   0   36.71    2.59
 -14   1   0   36.13    7.01
   1  14   1    1.25    1.22
   1  14  -1    0.25    1.73
  14  -1  -1    1.76    0.80
  14  -1   1    1.80    1.06
 -14   1   1    0.22    1.43
 -14   1  -1    2.28    1.00
   1  14   2   58.83    5.28
   1  14  -2   63.86    3.96
  14  -1  -2   63.30    3.21
  14  -1   2   52.75    4.37
 -14   1   2   46.65   12.17
 -14   1  -2   63.13    5.07
   1  14   3   36.71    5.32
   1  14  -3   31.10    6.17
  14  -1  -3   31.34    5.74
 -14   1   3   32.36    3.47
 -14   1  -3   33.73    2.95
   1  14   4   27.87   10.59
   1  14  -4   28.41    6.52
  14  -1  -4   27.89    2.74
 -14   1   4   30.30    3.59
 -14   1  -4   32.80    2.75
  -1 -14   4   28.93    5.90
   1  14   5   18.83    5.01
   1  14  -5   20.17    2.65
  14  -1  -5   18.65    2.24
 -14   1   5   25.14    5.37
 -14   1  -5   14.78    2.86
  -1 -14   5   17.73    5.66
   1  14   6    3.56    1.61
   1  14  -6    3.87    1.72
  14  -1  -6    4.91    1.82
 -14   1   6    4.94    1.96
 -14   1  -6    5.61    1.88
  -1 -14   6    3.06    1.47
   1  14   7   19.59    3.99
   1  14  -7   22.77    4.67
  14  -1  -7   22.66    6.83
 -14   1   7   16.86    4.23
 -14   1  -7   20.39    7.83
  -1 -14   7   22.65    3.01
   1  14   8   21.31    2.47
   1  14  -8   19.16    3.40
  14  -1  -8   20.25    4.56
 -14   1   8   19.36    5.41
 -14   1  -8   22.89    2.45
  -1 -14   8   13.77    2.32
   1  14   9   25.14    8.17
   1  14  -9   32.55    8.13
  14  -1  -9   36.30    8.76
 -14   1   9   34.38    7.42
 -14   1  -9   41.87    3.50
  -1 -14   9   32.55    5.09
   1  14  10   15.25    2.20
   1  14 -10   11.50    2.11
  14  -1 -10   10.84    3.39
 -14   1  10   10.04    2.70
 -14   1 -10   15.20    1.95
  -1 -14  10   13.75    3.03
   1  14  11   -0.28    0.89
   1  14 -11    2.78    1.35
  14  -1 -11    2.14    1.28
 -14   1  11    1.68    2.40
 -14   1 -11    0.72    1.04
  -1 -14  11    1.78    1.29
   0  14   0    2.35    1.32
  14   0   0    0.63    0.68
 -14   0   0    0.89    1.45
   0  14   1   64.98    8.46
   0  14  -1   66.72    5.22
  14   0  -1   64.30    3.14
  14   0   1   64.27    3.46
 -14   0   1   62.18    7.42
 -14   0  -1   51.84    8.63
   0  14   2   10.54    3.08
   0  14  -2   11.63    2.53
  14   0  -2   14.07    3.20
  14   0   2    8.52    3.54
 -14   0   2   12.21    1.77
 -14   0  -2   13.63    2.00
   0  14   3   31.56    7.06
   0  14  -3   39.94    3.80
  14   0  -3   30.08    6.88
 -14   0   3   33.40    4.04
 -14   0  -3   27.57    3.74
   0 -14   3   31.68    7.56
   0  14   4    1.54    2.34
   0  14  -4   -0.36    1.33
  14   0  -4    1.82    1.29
 -14   0   4    2.48    1.73
 -14   0  -4    1.68    1.39
   0 -14   4    1.13    1.22
   0  14   5   15.03    3.94
   0  14  -5   18.04    4.00
  14   0  -5   15.63    2.08
 -14   0   5   12.86    3.43
 -14   0  -5   11.75    2.98
   0 -14   5   19.04    2.82
   0  14   6   77.44    4.04
   0  14  -6   65.11   12.93
  14   0  -6   72.30    3.72
 -14   0   6   77.59    9.98
 -14   0  -6   61.16   12.38
   0 -14   6   79.87    8.86
   0  14   7   19.39    4.84
   0  14  -7   20.25    4.31
  14   0  -7   23.32    2.61
 -14   0   7   16.16    4.39
 -14   0  -7   18.95    2.04
   0 -14   7   19.79    4.14
   0  14   8    3.53    1.69
   0  14  -8    2.80    0.96
  14   0  -8    3.75    1.58
 -14   0   8    2.53    1.61
 -14   0  -8    2.45    0.86
   0 -14   8    2.05    1.19
   0  14   9    1.70    0.97
   0  14  -9    1.86    1.71
  14   0  -9    4.72    1.67
 -14   0   9    1.43    1.48
 -14   0  -9    0.31    0.98
   0 -14   9    1.78    1.47
   0  14  10   12.95    2.51
   0  14 -10   14.58    2.25
  14   0 -10   11.28    2.73
 -14   0  10   14.70    3.19
 -14   0 -10   11.05    2.58
   0 -14  10   15.05    3.33
   0  14 -11    3.06    1.60
  14   0 -11    9.06    2.46
 -14   0  11    3.35    1.67
 -14   0 -11    6.62    1.71
   0 -14  11    7.46    2.62
  -1  14   0   37.29    8.30
  14   1   0   32.38    2.13
 -14  -1   0   37.72    3.60
  -1  14   1    0.31    1.71
  -1  14  -1   -0.83    1.55
  14   1  -1    1.61    1.14
  14   1   1    1.83    0.95
 -14  -1   1    1.97    1.90
 -14  -1  -1    1.78    1.05
  -1  14   2   56.31   11.79
  -1  14  -2   62.98    4.82
  14   1  -2   59.48    7.89
  14   1   2   56.29    5.44
 -14  -1   2   67.29    3.73
 -14  -1  -2   55.86    6.18
   1 -14   2   55.36    6.83
  -1  14   3   32.02    5.33
  -1  14  -3   28.96    6.98
  14   1  -3   28.14    9.23
 -14  -1   3   26.52    5.75
 -14  -1  -3   31.18    4.64
   1 -14   3   27.33    8.83
  -1  14   4   37.73    3.16
  -1  14  -4   29.44    6.63
  14   1  -4   21.51    7.03
 -14  -1   4   30.08    6.17
 -14  -1  -4   27.00    3.52
   1 -14   4   38.84    3.70
  -1  14   5   24.11    2.99
  -1  14  -5   21.21    5.00
  14   1  -5   23.07    5.22
 -14  -1   5   19.26    3.28
 -14  -1  -5   21.98    3.61
   1 -14   5   20.56    3.00
  -1  14   6    5.42    2.75
  -1  14  -6    4.35    1.08
  14   1  -6    5.15    1.48
 -14  -1   6    5.46    1.75
 -14  -1  -6    3.37    1.41
   1 -14   6    5.20    1.81
  -1  14   7   22.20    6.15
  -1  14  -7   19.43    2.56
  14   1  -7   19.65    5.09
 -14  -1   7   23.37    4.04
 -14  -1  -7   21.16    4.02
   1 -14   7   21.39    3.94
  -1  14   8   14.71    2.77
  -1  14  -8   19.76    4.16
  14   1  -8   19.27    5.02
 -14  -1   8   17.02    3.56
 -14  -1  -8   19.15    4.49
   1 -14   8   18.21    4.49
  -1  14   9   36.80    9.08
  -1  14  -9   36.29   10.03
  14   1  -9   32.07    9.86
 -14  -1   9   38.30    9.77
 -14  -1  -9   36.97    7.87
   1 -14   9   40.95    6.73
  -1  14  10   11.04    4.65
  -1  14 -10    9.23    2.20
  14   1 -10   12.68    2.79
 -14  -1  10    9.03    2.67
 -14  -1 -10   12.84    3.65
   1 -14  10   12.73    3.62
  -1  14  11    0.15    0.81
  -1  14 -11    1.01    1.37
  14   1 -11   -1.04    1.36
 -14  -1  11    1.59    1.76
 -14  -1 -11    0.43    0.82
   1 -14  11    1.11    1.35
  -2  14   0   45.42   10.23
  14   2   0   44.30    5.17
 -14  -2   0   44.94    3.75
  -2  14   1    2.92    2.01
  -2  14  -1    0.92    1.33
  14   2   1    3.06    0.86
 -14  -2   1    2.36    1.09
 -14  -2  -1    0.15    0.92
  -2  14   2    5.87    1.64
  -2  14  -2    6.43    1.61
  14   2  -2    8.12    1.91
  14   2   2    4.58    1.56
 -14  -2   2    4.97    1.77
 -14  -2  -2    7.88    1.71
   2 -14   2    2.88    1.42
  -2  14   3   17.46    2.93
  -2  14  -3   18.12    2.93
  14   2  -3   17.15    2.97
 -14  -2   3   12.70    3.23
 -14  -2  -3   10.61    2.14
   2 -14   3   14.62    2.36
  -2  14   4   27.81    6.08
  -2  14  -4   19.79    6.63
  14   2  -4   22.80    5.39
 -14  -2   4   27.91    6.75
 -14  -2  -4   22.08    4.07
   2 -14   4   29.09    5.19
  -2  14   5   13.36    2.91
  -2  14  -5   17.54    2.48
  14   2  -5   15.39    3.59
 -14  -2   5   13.95    3.62
 -14  -2  -5   22.40    2.57
   2 -14   5   16.43    2.40
  -2  14   6   -0.07    0.72
  -2  14  -6    0.87    0.77
  14   2  -6    0.53    1.10
 -14  -2   6    2.57    1.18
 -14  -2  -6    0.28    1.23
   2 -14   6    0.51    0.93
  -2  14   7   25.08    6.01
  -2  14  -7   26.24    7.34
  14   2  -7   25.49    2.78
 -14  -2   7   26.97    3.81
 -14  -2  -7   27.85    3.55
   2 -14   7   31.87    3.00
  -2  14   8    9.07    1.61
  -2  14  -8    3.00    2.15
  14   2  -8    3.97    2.11
 -14  -2   8    5.34    1.39
 -14  -2  -8    7.02    2.13
   2 -14   8    7.27    1.94
  -2  14   9   29.88    5.42
  -2  14  -9   28.60    3.24
  14   2  -9   25.85    3.97
 -14  -2   9   25.59    7.03
 -14  -2  -9   18.76    3.12
   2 -14   9   31.88    3.29
  -2  14  10    3.90    2.30
  -2  14 -10    2.97    1.34
  14   2 -10    5.33    1.98
 -14  -2  10    4.58    2.18
 -14  -2 -10    6.26    1.09
   2 -14  10    2.49    0.71
  -2  14  11    4.02    1.84
  -2  14 -11    5.89    1.66
  14   2 -11   10.46    2.41
 -14  -2  11    7.74    2.43
 -14  -2 -11    3.88    1.24
   2 -14  11    8.68    2.10
  -3  14   0   -0.72    1.28
  14   3   0    0.33    0.78
 -14  -3   0    0.73    0.59
  -3  14   1   33.71    3.14
  -3  14  -1   22.65    5.95
  14   3  -1   23.26    7.09
  14   3   1   23.74    2.60
 -14  -3   1   27.73    2.58
 -14  -3  -1   25.69    5.36
   3 -14   1   29.11    6.15
  -3  14   2    1.42    2.08
  -3  14  -2    1.02    1.45
  14   3  -2    1.57    0.96
  14   3   2    2.51    0.92
 -14  -3   2    1.15    0.93
 -14  -3  -2    2.38    0.73
   3 -14   2    2.02    1.19
  -3  14   3   17.90    4.38
  14   3  -3   14.32    1.90
 -14  -3   3   21.01    4.47
 -14  -3  -3   17.37    2.08
   3 -14   3   19.53    4.12
  -3  14   4   10.36    2.68
  -3  14  -4   12.07    2.22
  14   3  -4    8.06    1.80
 -14  -3   4   10.69    2.11
 -14  -3  -4   10.26    1.61
   3 -14   4    9.70    2.30
  -3  14   5    7.19    2.01
  -3  14  -5    1.91    1.11
  14   3  -5    4.28    1.60
 -14  -3   5    1.93    1.62
 -14  -3  -5    4.73    0.95
   3 -14   5    3.30    1.01
  -3  14   6   28.79    4.87
  -3  14  -6   22.16    4.24
  14   3  -6   21.38    5.05
 -14  -3   6   23.34    4.52
 -14  -3  -6   22.08    6.32
   3 -14   6   20.46    2.74
  -3  14   7   -0.37    1.55
  -3  14  -7    3.65    1.83
  14   3  -7    1.33    1.26
 -14  -3   7    1.21    1.53
 -14  -3  -7    3.31    1.71
   3 -14   7    2.72    1.05
  -3  14   8   18.99    4.19
  -3  14  -8   12.01    1.80
  14   3  -8   16.60    2.71
 -14  -3   8   16.87    2.83
 -14  -3  -8   14.53    3.22
   3 -14   8   12.21    4.14
  -3  14   9    0.94    1.53
  -3  14  -9    2.24    0.84
  14   3  -9    4.18    2.29
 -14  -3   9    2.99    1.24
 -14  -3  -9   -1.15    0.90
   3 -14   9    4.72    1.79
  -3  14  10    6.17    2.66
  -3  14 -10    8.72    1.97
  14   3 -10    6.50    1.93
 -14  -3  10    5.40    2.59
 -14  -3 -10    4.41    1.05
   3 -14  10    3.79    1.61
  -3  14  11    4.26    1.95
  -3  14 -11    1.75    0.89
  14   3 -11    4.89    1.61
 -14  -3  11    2.75    1.66
 -14  -3 -11    4.96    1.05
   3 -14  11    1.70    0.79
  -4  14   0    1.40    1.39
  14   4   0    0.37    0.89
 -14  -4   0    1.12    0.89
  -4  14   1   10.47    1.51
  -4  14  -1   15.19    2.43
  14   4  -1   14.18    4.09
  14   4   1   12.77    2.45
 -14  -4   1    9.92    1.68
 -14  -4  -1   16.45    2.26
   4 -14   1   13.09    1.64
  -4  14   2   55.22   13.78
  -4  14  -2   43.38   10.81
  14   4  -2   58.58    7.43
  14   4   2   52.52    2.60
 -14  -4   2   62.67    5.25
 -14  -4  -2   48.68    9.37
   4 -14   2   56.26   11.05
  -4  14   3    4.89    1.34
  14   4  -3    6.89    2.59
 -14  -4   3    1.49    1.62
 -14  -4  -3    3.59    1.63
  -4  14  -3    3.12    0.92
   4 -14   3    6.71    1.84
  -4  14   4    1.32    1.20
  -4  14  -4    2.49    1.32
  14   4  -4    1.44    0.65
 -14  -4   4    1.06    0.64
 -14  -4  -4    1.19    1.01
  -4  14  -4    0.94    0.72
   4 -14   4    0.74    1.40
  -4  14   5   19.25    5.72
  -4  14  -5   19.95    4.31
  14   4  -5   22.29    4.00
 -14  -4   5   17.66    2.01
 -14  -4  -5   16.57    2.98
  -4  14  -5   16.74    3.75
   4 -14   5   24.01    3.01
  -4  14   6    9.10    2.20
  -4  14  -6   11.08    2.56
  14   4  -6    4.01    1.68
 -14  -4   6    4.54    1.43
 -14  -4  -6    7.64    1.67
   4 -14   6   11.40    2.45
  -4  14   7   23.57    3.69
  -4  14  -7   18.16    2.44
  14   4  -7   18.68    3.21
 -14  -4   7   18.58    3.34
 -14  -4  -7   13.29    1.84
   4 -14   7   16.86    5.11
  -4  14   8    2.16    1.19
  -4  14  -8    1.82    1.11
  14   4  -8    3.50    1.54
 -14  -4   8   -1.60    1.61
 -14  -4  -8    0.66    0.65
   4 -14   8    2.14    0.72
  -4  14   9    4.82    1.19
  -4  14  -9    4.39    1.68
  14   4  -9    4.32    1.92
 -14  -4   9    3.87    2.00
 -14  -4  -9    3.55    0.91
   4 -14   9    4.33    1.88
  -4  14  10   13.41    2.36
  -4  14 -10    7.64    1.82
  14   4 -10   10.55    2.34
 -14  -4  10   10.09    2.74
 -14  -4 -10    7.45    1.83
   4 -14  10    9.94    2.47
  -5  14   0    2.28    1.49
  14   5   0    4.72    1.31
 -14  -5   0    2.19    0.57
   5 -14   0    2.16    0.96
  -5  14   1    3.63    2.06
  -5  14  -1    6.69    2.22
  14   5  -1    4.75    1.45
  14   5   1    3.33    1.43
 -14  -5   1    7.87    2.22
 -14  -5  -1    4.99    1.56
   5 -14   1    6.47    1.86
  -5  14   2   29.01    9.06
  -5  14  -2   36.52    3.07
  14   5  -2   35.00    2.97
  14   5   2   21.71    5.92
 -14  -5   2   30.57    3.00
 -14  -5  -2   33.86    6.87
  -5  14  -2   27.71    6.08
   5 -14   2   21.99    3.89
  -5  14   3   15.44    2.40
  -5  14  -3   16.67    4.15
  14   5  -3   15.60    2.20
 -14  -5   3   18.36    2.81
 -14  -5  -3   17.39    3.48
  -5  14  -3    9.41    3.47
   5 -14   3   13.22    3.35
  -5  14   4    1.63    1.85
  -5  14  -4    2.88    1.45
  14   5  -4    0.87    1.03
 -14  -5   4    3.87    0.95
 -14  -5  -4    3.96    0.74
  -5  14  -4    2.37    1.77
   5 -14   4    1.75    1.21
  -5  14   5   12.77    3.76
  -5  14  -5   12.98    2.20
  14   5  -5   13.97    3.76
 -14  -5   5   16.99    5.08
 -14  -5  -5   11.69    2.92
  -5  14  -5   10.97    4.17
   5 -14   5   20.95    7.55
  -5  14   6    3.13    2.15
  -5  14  -6    3.13    1.17
  14   5  -6    3.90    1.43
 -14  -5   6    8.72    2.22
 -14  -5  -6    4.73    1.10
  -5  14  -6    5.60    2.48
   5 -14   6    1.70    1.43
  -5  14   7   13.24    3.76
  -5  14  -7   15.44    2.41
  14   5  -7   12.50    4.12
 -14  -5   7   13.73    2.16
 -14  -5  -7   12.55    1.75
  -5  14  -7   13.00    5.17
   5 -14   7   13.72    3.19
  -5  14   8    1.84    1.22
  -5  14  -8    1.47    0.64
  14   5  -8    1.52    1.21
 -14  -5   8    3.03    1.42
 -14  -5  -8    0.64    0.86
   5 -14   8   -2.18    1.51
  -5  14   9    5.51    3.32
  -5  14  -9   10.92    2.01
  14   5  -9   12.09    3.44
 -14  -5   9    8.12    2.32
   5 -14   9    9.41    2.04
  -5  14  10   15.75    3.35
  -5  14 -10   12.24    3.11
  14   5 -10   14.13    3.74
 -14  -5  10   15.01    3.59
   5 -14  10   18.76    3.64
  -6  14   0    2.43    1.71
  14   6   0    1.79    0.62
 -14  -6   0    5.58    2.13
   6 -14   0    0.58    0.83
  -6  14   1   17.45    2.90
  -6  14  -1   13.52    1.97
  14   6  -1   11.03    2.77
  14   6   1   12.87    2.14
 -14  -6   1   14.05    2.34
 -14  -6  -1   13.27    3.72
   6 -14   1   15.66    2.06
  -6  14   2    9.88    1.81
  -6  14  -2    7.18    1.68
  14   6  -2    9.94    3.05
 -14  -6   2   10.17    3.57
 -14  -6  -2    8.48    1.74
  -6  14  -2    7.62    2.39
   6 -14   2    7.31    1.38
  -6  14   3    9.75    1.79
  -6  14  -3   12.25    2.25
  14   6  -3    5.33    1.28
 -14  -6   3    7.57    3.21
 -14  -6  -3    7.87    1.68
   6 -14   3    3.64    1.40
  -6  14   4   44.44    4.55
  -6  14  -4   55.61    5.71
  14   6  -4   47.40    9.24
 -14  -6   4   44.33    8.84
 -14  -6  -4   46.68    7.77
  -6  14  -4   50.35    2.84
   6 -14   4   41.83    6.71
  -6  14   5   20.53    4.88
  -6  14  -5   19.57    3.45
  14   6  -5   20.94    5.01
 -14  -6   5   22.75    2.61
 -14  -6  -5   17.38    3.68
  -6  14  -5   16.80    5.80
   6 -14   5   17.25    2.37
  -6  14   6   13.69    2.38
  -6  14  -6   10.23    1.93
  14   6  -6   12.70    2.54
 -14  -6   6   10.83    2.35
 -14  -6  -6    8.42    2.20
  -6  14  -6   12.89    4.66
   6 -14   6   11.14    3.48
  -6  14   7   -0.34    1.16
  -6  14  -7    2.82    1.25
  14   6  -7    1.12    0.42
 -14  -6   7   -2.68    1.37
  -6  14  -7    2.02    1.10
   6 -14   7    0.58    1.31
  -6  14   8   22.64    6.38
  -6  14  -8   18.22    2.23
  14   6  -8   21.82    3.13
 -14  -6   8   18.04    3.23
  -6  14  -8   15.37    4.27
   6 -14   8   14.61    4.30
  -6  14   9   -1.12    1.72
  -6  14  -9    2.09    1.15
  14   6  -9    2.84    1.52
 -14  -6   9    2.64    1.30
  -6  14  -9    1.05    1.15
   6 -14   9    0.43    1.12
  -7  14   0   14.53    2.29
  14   7   0   11.14    3.06
 -14  -7   0   14.60    2.05
  -7  14   1    1.86    1.17
  14   7   1    2.36    1.13
  14   7  -1    5.13    1.46
 -14  -7   1    0.95    1.15
 -14  -7  -1    2.66    1.28
  -7  14  -1    1.72    1.06
   7 -14   1    0.42    1.08
  -7  14   2    3.23    1.14
  -7  14  -2    3.11    1.52
  14   7  -2    2.27    1.08
 -14  -7   2    3.24    1.57
 -14  -7  -2    5.45    1.48
  -7  14  -2    3.52    1.48
   7 -14   2    1.33    1.27
  -7  14   3    4.76    1.33
  -7  14  -3    0.69    0.92
  14   7  -3    2.90    1.74
 -14  -7   3    1.09    0.36
 -14  -7  -3    0.96    1.32
   7 -14   3   -0.14    1.07
  -7  14   4   13.75    2.69
  -7  14  -4   12.74    3.08
  14   7  -4   16.96    2.09
 -14  -7   4   11.07    2.66
 -14  -7  -4   12.90    2.20
  -7  14  -4    9.91    3.05
   7 -14   4   11.72    2.48
  -7  14   5   32.29    8.33
  -7  14  -5   30.48    3.31
  14   7  -5   22.19    5.13
 -14  -7   5   23.80    4.88
  -7  14  -5   19.03    6.07
   7 -14   5   27.23    3.32
  -7  14   6    4.66    1.90
  -7  14  -6    2.76    1.87
  14   7  -6    5.17    1.71
 -14  -7   6    3.70    2.12
  -7  14  -6    1.79    1.05
   7 -14   6    2.73    1.47
  -7  14   7   14.27    3.45
  -7  14  -7    6.85    3.15
  14   7  -7   11.80    3.03
 -14  -7   7   11.43    2.37
  -7  14  -7    9.86    3.08
   7 -14   7    9.16    2.58
  -7  14   8   15.50    5.50
  -7  14  -8    5.39    1.94
  14   7  -8   10.54    6.52
 -14  -7   8   15.89    3.36
  -7  14  -8    7.75    1.66
   7 -14   8   13.51    3.58
  -8  14   0   19.45    3.53
  14   8   0   15.36    4.51
 -14  -8   0   19.81    2.09
  -8  14   1    1.10    1.22
  -8  14  -1    6.62    1.75
  14   8   1    1.90    0.63
  14   8  -1    2.12    1.01
 -14  -8   1    1.69    0.75
 -14  -8  -1    2.32    1.07
  -8  14  -1    1.84    1.53
  -8  14   2   28.15    6.61
  -8  14  -2   26.71    7.39
  14   8  -2   27.77    6.54
 -14  -8   2   27.74    5.41
 -14  -8  -2   28.05    3.36
  -8  14  -2   23.09    6.72
   8 -14   2   25.07    3.79
  -8  14   3   10.82    2.24
  -8  14  -3   14.57    3.84
  14   8  -3   12.91    3.71
 -14  -8   3   10.52    3.07
  -8  14  -3    8.94    3.76
   8 -14   3    8.86    2.72
  -8  14   4    3.59    1.48
  -8  14  -4    2.71    0.89
  14   8  -4    4.00    1.84
 -14  -8   4    2.69    1.20
  -8  14  -4    2.06    1.36
   8 -14   4    3.19    2.10
  -8  14   5    5.93    2.59
  -8  14  -5    3.79    1.98
  14   8  -5    3.93    1.98
 -14  -8   5    6.95    1.87
  -8  14  -5    4.68    1.80
   8 -14   5    5.06    2.22
  -8  14   6    2.11    1.75
  -8  14  -6    0.73    1.26
  14   8  -6    2.81    0.80
 -14  -8   6    3.13    1.83
  -8  14  -6    2.94    1.36
   8 -14   6    2.82    1.62
  -8  14   7   14.54    3.54
  -8  14  -7   10.63    2.45
  14   8  -7   12.85    3.31
 -14  -8   7   12.44    2.74
  -8  14  -7   12.62    3.27
   8 -14   7   10.76    2.84
  14   9   0    1.33    0.94
 -14  -9   0    4.22    1.32
  -9  14   1   12.82    2.47
  -9  14  -1   12.11    2.12
  14   9   1   10.60    3.17
  14   9  -1   11.10    2.50
 -14  -9   1   10.77    3.29
  -9  14  -1    8.78    3.01
  -9  14   2    8.60    1.37
  -9  14  -2    5.01    1.70
  14   9  -2    8.50    1.80
 -14  -9   2    5.69    2.06
  -9  14  -2    3.57    1.23
  -9  14   3   15.35    2.94
  -9  14  -3   14.90    3.88
  14   9  -3   11.25    4.96
 -14  -9   3   16.00    3.07
  -9  14  -3   13.02    5.43
  -9  14   4    1.64    1.94
  -9  14  -4    1.77    1.17
  14   9  -4    4.13    2.01
 -14  -9   4    2.83    1.85
   9 -14   4    4.12    1.52
  -9  14   5    8.95    2.49
  -9  14  -5   11.38    2.93
  14   9  -5   10.83    2.94
 -14  -9   5   13.75    4.10
  -9  14  -5    6.14    1.47
   9 -14   5    8.98    3.27
  -9  14   6   28.04    7.40
  -9  14  -6   33.12    2.77
  14   9  -6   20.41    7.89
 -14  -9   6   27.74    6.16
  -9  14  -6   22.47    7.27
   9 -14   6   17.80    4.03
 -10  14   0    5.50    1.60
 -10  14   1    6.02    1.50
 -10  14  -1    7.62    1.82
  14  10   1    2.51    1.11
  14  10  -1    8.48    1.51
 -10  14  -1    5.55    2.44
 -10  14   2   -0.40    1.25
 -10  14  -2   -0.27    1.17
  14  10  -2    2.29    0.79
 -14 -10   2    1.14    1.25
 -10  14  -2    0.34    1.04
 -10  14   3   10.60    2.02
 -10  14  -3   11.87    2.58
  14  10  -3    3.17    1.97
 -14 -10   3    5.79    1.16
 -10  14  -3    2.13    1.11
 -15   9   0    4.70    1.47
   9  15   0    6.38    2.90
 -15   9   0    0.43    2.16
   9  15   1    1.75    1.37
   9  15  -1    1.57    0.89
 -15   9   1    0.59    0.56
 -15   9  -1    3.29    1.72
 -15   8   0    7.12    2.39
   8  15   0    6.02    2.51
 -15   8   0    8.95    2.41
 -15   8   1    8.17    1.99
 -15   8  -1   12.89    2.33
   8  15   1    3.36    2.85
   8  15  -1    9.63    2.71
 -15   8   1    7.53    4.23
 -15   8  -1    8.79    2.41
 -15   8   2    4.27    2.33
   8  15   2    4.10    2.16
   8  15  -2    2.65    1.11
 -15   8   2    2.95    2.47
 -15   8  -2    5.74    1.88
 -15   8   3    6.72    2.11
   8  15   3    9.02    2.42
   8  15  -3    4.29    2.41
 -15   8   3   11.09    2.27
 -15   8  -3    8.17    2.15
 -15   8   4   16.62    3.21
   8  15   4   19.44    2.39
   8  15  -4   12.46    2.33
 -15   8   4   16.44    4.15
 -15   8  -4   21.36    4.92
 -15   7   0   27.41    6.69
   7  15   0   24.45    8.33
 -15   7   0   25.07    2.90
 -15   7   1   11.16    2.32
 -15   7  -1   13.54    2.33
   7  15   1   12.78    3.07
   7  15  -1   14.50    3.79
 -15   7   1   14.80    3.45
 -15   7  -1   11.29    3.05
 -15   7   2    1.80    1.69
   7  15   2    4.39    1.52
   7  15  -2    2.79    1.66
 -15   7   2    2.50    1.08
 -15   7  -2    2.59    1.69
 -15   7   3   18.32    3.41
   7  15   3   20.85    3.27
   7  15  -3   14.63    3.43
 -15   7   3   14.84    4.51
 -15   7  -3   20.54    4.17
 -15   7   4    3.85    1.51
   7  15   4    3.16    1.22
   7  15  -4    4.22    1.75
 -15   7   4    7.37    1.42
 -15   7  -4    8.29    1.98
 -15   7   5    2.89    1.92
   7  15   5    1.22    0.50
   7  15  -5    0.85    1.27
 -15   7   5    0.72    1.35
 -15   7  -5    1.50    0.95
 -15   7   6    2.94    1.21
   7  15   6    2.36    0.91
   7  15  -6    2.88    1.65
 -15   7   6    1.75    0.87
 -15   7  -6    2.28    1.20
 -15   6   0    1.35    1.07
   6  15   0    0.47    1.08
 -15   6   0    2.62    1.37
 -15   6   1    0.96    1.15
 -15   6  -1    2.70    0.94
   6  15   1    1.32    1.11
   6  15  -1    3.08    1.61
 -15   6   1    2.60    1.55
 -15   6  -1    2.46    1.81
 -15   6   2   12.54    3.59
   6  15   2   14.66    4.55
   6  15  -2   16.37    4.03
 -15   6   2   19.40    3.80
 -15   6  -2   18.57    4.65
 -15   6   3   12.66    2.78
   6  15   3   11.64    2.98
   6  15  -3   14.29    4.25
 -15   6   3   15.64    3.35
 -15   6  -3   16.15    2.64
   6  15   4    0.64    1.24
   6  15  -4   -0.90    1.46
 -15   6   4    0.39    0.85
 -15   6  -4   -0.96    1.28
   6  15   5   15.24    4.81
   6  15  -5   16.12    4.86
  15  -6  -5   16.97    4.72
 -15   6   5   20.67    2.80
 -15   6  -5   19.90    3.32
   6  15   6   12.40    2.63
   6  15  -6    5.14    1.79
  15  -6  -6   12.84    2.57
 -15   6   6    9.95    2.21
 -15   6  -6    4.50    1.71
  15  -6   6   10.76    2.90
   6  15   7   10.84    2.88
   6  15  -7   21.72    5.77
  15  -6  -7   14.03    3.49
 -15   6   7   11.92    2.98
 -15   6  -7   20.24    3.16
  15  -6   7   12.78    3.21
 -15   5   0    5.15    1.42
   5  15   0    3.67    2.12
 -15   5   0    4.88    2.52
 -15   5   1    2.28    0.90
 -15   5  -1    4.34    2.14
   5  15   1    9.94    2.57
   5  15  -1    2.99    1.60
 -15   5   1    4.66    2.39
 -15   5  -1    1.53    0.92
   5  15   2   10.59    3.07
   5  15  -2   13.25    3.02
  15  -5  -2   14.01    3.84
 -15   5   2   11.55    3.02
 -15   5  -2   11.86    3.75
   5  15   3   17.47    4.74
   5  15  -3   17.42    5.52
  15  -5  -3   16.28    4.73
 -15   5   3   18.28    2.08
 -15   5  -3   16.53    3.90
   5  15   4    4.09    1.89
   5  15  -4    6.11    1.04
  15  -5  -4    4.43    1.12
 -15   5   4    6.31    2.38
 -15   5  -4    3.11    1.46
   5  15   5   10.01    4.53
   5  15  -5    9.97    3.92
  15  -5  -5    7.46    2.73
 -15   5   5    6.02    2.04
 -15   5  -5   11.40    2.98
  15  -5   5    8.81    1.45
   5  15   6   26.58    2.79
   5  15  -6   20.38    4.73
  15  -5  -6   18.37    2.54
 -15   5   6   17.63    4.50
 -15   5  -6   19.96    3.75
  15  -5   6   19.66    4.92
   5  15   7    9.12    2.86
   5  15  -7   11.15    2.70
  15  -5  -7   16.88    2.50
 -15   5   7   11.41    2.19
 -15   5  -7   14.23    2.58
  15  -5   7    7.23    2.45
   5  15  -8   -0.01    1.39
  15  -5  -8    1.06    1.11
 -15   5   8    0.59    1.30
 -15   5  -8    1.56    1.25
  15  -5   8    2.09    1.69
   4  15   0    8.12    3.20
  15  -4   0    6.80    2.78
 -15   4   0   11.40    2.27
 -15   4  -1   13.07    3.79
   4  15   1   19.80    5.15
   4  15  -1   14.23    3.56
  15  -4  -1   12.60    4.42
 -15   4   1   16.20    4.25
 -15   4  -1   13.55    4.60
   4  15   2    7.11    1.53
   4  15  -2    8.65    2.71
  15  -4  -2    8.42    2.09
 -15   4   2    4.94    2.12
 -15   4  -2    4.85    2.11
   4  15   3   17.75    2.58
   4  15  -3   10.62    2.46
  15  -4  -3   11.32    3.93
 -15   4   3   10.26    2.07
 -15   4  -3   14.44    3.13
   4  15   4   13.13    3.31
   4  15  -4   13.83    4.16
  15  -4  -4   10.57    2.84
 -15   4   4   10.71    2.79
 -15   4  -4   12.74    2.76
  15  -4   4   10.88    2.60
   4  15   5    0.79    1.48
   4  15  -5    0.79    1.33
  15  -4  -5   -0.54    1.00
 -15   4   5    1.03    1.20
 -15   4  -5    0.98    1.48
  15  -4   5    0.50    0.77
   4  15   6    3.47    2.12
   4  15  -6    2.47    1.78
  15  -4  -6    3.32    1.61
 -15   4   6    9.80    2.11
 -15   4  -6    5.44    1.92
  15  -4   6    6.65    1.30
   4  15   7    2.41    1.17
   4  15  -7    0.74    1.08
  15  -4  -7    1.35    0.65
 -15   4   7    1.60    1.03
 -15   4  -7    2.13    1.10
  15  -4   7    1.51    1.33
   4  15   8    1.80    0.67
   4  15  -8    2.92    1.68
  15  -4  -8   -0.13    0.86
  -4 -15   8    1.72    1.58
 -15   4   8    2.33    1.60
 -15   4  -8    0.53    1.12
  15  -4   8    0.88    1.28
   4  15   9    2.38    1.57
   4  15  -9    1.48    1.41
  15  -4  -9    1.44    1.41
 -15   4   9    3.11    1.31
 -15   4  -9    3.26    1.31
   3  15   0   39.15    9.62
  15  -3   0   40.02    4.09
 -15   3   0   45.56    5.73
   3  15   1    3.34    1.91
   3  15  -1    2.21    1.79
  15  -3  -1    0.97    0.74
  15  -3   1    2.48    1.20
 -15   3   1    2.51    1.55
 -15   3  -1    4.24    1.96
   3  15   2    8.77    3.46
   3  15  -2   14.15    2.34
  15  -3  -2    8.10    2.02
 -15   3   2    7.81    1.94
 -15   3  -2    4.76    2.46
   3  15   3   20.62    3.91
   3  15  -3   26.01    4.74
  15  -3  -3   20.38    3.47
 -15   3   3   15.58    2.61
 -15   3  -3   20.46    2.73
   3  15   4   18.00    6.54
   3  15  -4   24.95    4.37
  15  -3  -4   20.97    3.91
 -15   3   4   18.72    5.40
 -15   3  -4   17.47    5.20
  15  -3   4   21.25    5.74
   3  15   5   11.53    2.27
   3  15  -5    6.85    2.06
  15  -3  -5   10.97    2.71
 -15   3   5   10.49    2.10
 -15   3  -5    8.47    3.47
  15  -3   5    6.73    1.96
   3  15   6    1.13    1.30
   3  15  -6    2.04    1.55
  15  -3  -6    2.01    0.80
 -15   3   6    2.97    1.84
 -15   3  -6    1.01    1.44
  15  -3   6    2.28    0.76
   3  15   7    9.91    2.02
   3  15  -7   10.96    2.39
  15  -3  -7   11.85    2.89
 -15   3   7   13.49    2.60
 -15   3  -7   11.21    3.70
  15  -3   7   10.17    2.13
  -3 -15   7   11.16    3.59
   3  15   8   11.15    2.78
   3  15  -8   14.65    3.21
  15  -3  -8   14.01    2.96
 -15   3   8   12.53    3.09
 -15   3  -8   14.48    3.12
  15  -3   8   13.96    2.42
  -3 -15   8   17.08    2.78
   3  15   9    7.85    3.38
   3  15  -9   10.25    2.75
  15  -3  -9   10.65    4.08
 -15   3   9   15.19    3.31
 -15   3  -9   12.75    3.62
  15  -3   9    9.82    3.20
  -3 -15   9    9.91    2.38
   2  15   0    3.93    2.06
  15  -2   0    0.85    0.50
 -15   2   0    0.78    1.20
   2  15   1    0.99    0.91
   2  15  -1    2.38    1.58
  15  -2  -1   -0.07    0.61
  15  -2   1    1.05    0.82
 -15   2   1   -0.08    0.91
 -15   2  -1    2.37    1.26
   2  15   2    3.35    1.28
   2  15  -2    3.70    1.71
  15  -2  -2    3.82    1.28
 -15   2   2    4.03    1.54
 -15   2  -2    2.35    1.19
   2  15   3    1.29    1.49
   2  15  -3   -0.09    1.92
  15  -2  -3    1.02    0.65
 -15   2   3    0.42    1.75
 -15   2  -3    2.80    1.47
   2  15   4   22.19    5.74
   2  15  -4   22.82    2.69
  15  -2  -4   15.52    4.26
 -15   2   4   17.64    5.78
 -15   2  -4   19.09    2.55
   2  15   5   14.55    4.84
   2  15  -5   17.46    2.71
  15  -2  -5   17.90    4.27
 -15   2   5   21.13    2.77
 -15   2  -5   18.41    3.80
   2  15   6    2.47    0.98
   2  15  -6    2.76    1.58
  15  -2  -6    0.51    1.08
 -15   2   6    2.76    1.71
 -15   2  -6    3.30    1.93
  -2 -15   6    4.40    1.89
   2  15   7   31.02    7.91
   2  15  -7   29.48    6.31
  15  -2  -7   21.03    7.12
 -15   2   7   27.90    7.38
 -15   2  -7   21.18    3.66
  -2 -15   7   39.88    3.52
   2  15   8   46.02    3.64
   2  15  -8   38.70    3.91
  15  -2  -8   35.47    9.11
 -15   2   8   33.63   10.56
 -15   2  -8   32.11    4.98
  -2 -15   8   36.40    9.94
   2  15   9    4.96    2.19
   2  15  -9    3.51    1.23
  15  -2  -9    3.77    2.21
 -15   2   9    7.94    2.06
 -15   2  -9    6.59    1.50
  -2 -15   9    5.94    2.00
   1  15   0   27.11    6.96
  15  -1   0   21.99    5.69
 -15   1   0   27.34    4.85
   1  15   1   13.71    3.60
   1  15  -1    9.49    2.41
  15  -1  -1   11.74    4.20
  15  -1   1   12.25    3.46
 -15   1   1   15.84    2.45
 -15   1  -1   12.85    2.29
   1  15   2    7.99    2.48
   1  15  -2    9.85    2.99
  15  -1  -2    5.84    1.18
 -15   1   2    9.36    2.03
 -15   1  -2    8.72    2.27
   1  15   3    2.12    1.44
   1  15  -3    3.14    1.06
  15  -1  -3    0.58    0.71
 -15   1   3    2.57    1.83
 -15   1  -3    1.63    1.39
   1  15   4   18.10    2.79
   1  15  -4   16.26    3.70
  15  -1  -4   15.73    4.70
 -15   1   4   17.82    4.30
 -15   1  -4   20.79    2.71
   1  15   5   12.05    2.54
   1  15  -5   12.83    2.75
  15  -1  -5   12.16    3.05
 -15   1   5   10.45    2.70
 -15   1  -5   10.95    2.22
  -1 -15   5    8.09    2.31
   1  15   6   17.20    2.87
   1  15  -6   22.32    7.15
  15  -1  -6   18.67    3.11
 -15   1   6   13.37    2.86
 -15   1  -6   16.64    2.62
  -1 -15   6   17.55    2.90
   1  15   7    4.01    1.78
   1  15  -7    5.36    2.28
  15  -1  -7    3.73    1.73
 -15   1   7    4.92    2.08
 -15   1  -7    2.07    1.32
  -1 -15   7    3.20    0.98
   1  15   8   12.61    5.61
   1  15  -8   13.81    2.50
  15  -1  -8   14.14    3.92
 -15   1   8   19.76    3.44
 -15   1  -8   16.95    2.64
  -1 -15   8   17.98    5.38
   1  15   9    0.87    0.53
   1  15  -9    1.32    1.49
  15  -1  -9    1.40    1.46
 -15   1   9    0.82    0.80
 -15   1  -9    0.92    1.23
  -1 -15   9    0.59    1.13
   0  15   0    1.27    1.21
  15   0   0   -0.21    0.39
 -15   0   0    2.24    1.12
   0  15   1   21.75    4.11
   0  15  -1   23.43    5.29
  15   0  -1   18.63    5.08
  15   0   1   15.13    4.97
 -15   0   1   24.90    2.88
 -15   0  -1   16.56    3.99
   0  15   2  131.22    5.94
   0  15  -2  132.08   15.68
  15   0  -2  122.09    4.41
 -15   0   2  103.17   19.81
 -15   0  -2  114.09    7.76
   0  15   3   44.32    5.80
   0  15  -3   33.77    7.71
  15   0  -3   30.10   10.45
 -15   0   3   45.58    3.36
 -15   0  -3   41.43    3.78
   0  15   4    1.94    1.50
   0  15  -4    3.95    1.40
  15   0  -4    1.82    1.14
 -15   0   4    1.98    1.69
 -15   0  -4    2.51    1.67
   0 -15   4    1.72    0.97
   0  15   5    3.63    2.29
   0  15  -5    0.95    1.53
  15   0  -5    1.59    1.25
 -15   0   5   -0.03    1.08
 -15   0  -5    0.61    0.49
   0 -15   5   -0.12    1.40
   0  15   6    3.51    1.65
   0  15  -6    4.35    1.62
  15   0  -6    0.53    1.34
 -15   0   6    1.79    1.69
 -15   0  -6    2.08    0.93
   0 -15   6    3.54    1.65
   0  15   7   -0.60    1.25
   0  15  -7    3.15    1.02
  15   0  -7    2.38    1.64
 -15   0   7    2.03    1.03
 -15   0  -7    1.83    1.08
   0 -15   7    3.19    1.39
   0  15   8    6.86    2.02
   0  15  -8    3.56    1.75
  15   0  -8    8.43    1.83
 -15   0   8    3.72    2.39
 -15   0  -8    4.43    1.18
   0 -15   8    8.56    2.48
   0  15   9    0.39    1.20
   0  15  -9    1.84    1.03
  15   0  -9    1.30    1.26
 -15   0   9    0.67    1.49
 -15   0  -9   -0.56    0.86
   0 -15   9    1.39    0.53
   0  15  10   21.49    5.98
   0  15 -10   30.51    3.97
  15   0 -10   27.69    3.70
 -15   0  10   21.33    4.82
 -15   0 -10   28.57    6.30
   0 -15  10   25.35    5.69
  -1  15   0   24.04    4.54
  15   1   0   20.34    6.13
 -15  -1   0   28.08    3.02
  -1  15   1   13.49    3.94
  -1  15  -1   13.53    2.88
  15   1  -1   10.05    3.65
  15   1   1   11.53    2.49
 -15  -1   1   11.68    2.35
 -15  -1  -1   13.21    1.67
  -1  15   2    5.62    0.94
  -1  15  -2   10.74    2.06
  15   1  -2    7.34    1.82
 -15  -1   2   10.50    2.15
 -15  -1  -2    9.29    2.93
  -1  15   3   -1.14    1.53
  -1  15  -3   -0.86    1.38
  15   1  -3    2.12    1.23
 -15  -1   3    2.94    1.58
 -15  -1  -3    0.07    1.15
   1 -15   3    2.15    0.97
  -1  15   4   18.22    2.86
  -1  15  -4   11.78    2.59
  15   1  -4   12.60    3.15
 -15  -1   4   19.66    4.71
 -15  -1  -4   11.73    3.14
   1 -15   4   17.25    3.09
  -1  15   5   15.14    2.73
  -1  15  -5   13.97    3.43
  15   1  -5    8.11    2.87
 -15  -1   5   15.54    2.18
 -15  -1  -5   10.83    2.13
   1 -15   5   11.67    2.15
  -1  15   6   21.63    4.51
  -1  15  -6   15.86    3.26
  15   1  -6   13.40    5.00
 -15  -1   6   22.77    5.23
 -15  -1  -6   13.92    2.80
   1 -15   6   19.96    2.95
  -1  15   7    5.06    1.68
  -1  15  -7    4.38    1.30
  15   1  -7    3.09    1.41
 -15  -1   7    8.75    3.20
 -15  -1  -7    2.99    1.09
   1 -15   7    2.13    1.52
  -1  15   8   13.03    3.44
  -1  15  -8   19.18    3.69
  15   1  -8   16.19    3.86
 -15  -1   8   17.81    3.72
 -15  -1  -8   20.08    2.63
   1 -15   8   15.47    3.26
  -1  15   9    1.53    1.69
  -1  15  -9   -0.35    1.37
  15   1  -9    1.67    1.00
 -15  -1   9    1.79    0.67
 -15  -1  -9    1.53    0.61
   1 -15   9    0.17    1.78
  -2  15   0    4.76    2.41
  15   2   0    0.86    0.47
 -15  -2   0   -1.95    1.29
  -2  15   1    1.47    1.56
  -2  15  -1    1.27    0.77
  15   2  -1    1.50    0.91
  15   2   1    0.66    0.65
 -15  -2   1    1.21    0.81
 -15  -2  -1    1.54    0.84
  -2  15   2    4.81    2.96
  -2  15  -2    3.47    1.51
  15   2  -2    3.93    1.53
 -15  -2   2    4.32    1.67
 -15  -2  -2    7.19    1.65
   2 -15   2    6.48    2.18
  -2  15   3   -0.77    1.42
  -2  15  -3    0.33    1.16
  15   2  -3    1.49    1.17
 -15  -2   3   -0.21    1.51
 -15  -2  -3    4.89    1.55
   2 -15   3    2.88    1.61
  -2  15   4   21.07    3.37
  -2  15  -4   23.68    3.93
  15   2  -4   15.16    5.11
 -15  -2   4   18.21    3.85
 -15  -2  -4   20.37    5.44
   2 -15   4   20.01    5.31
  -2  15   5   13.40    3.37
  -2  15  -5   15.10    3.33
  15   2  -5   13.24    2.79
 -15  -2   5   16.38    4.46
 -15  -2  -5   15.52    4.69
   2 -15   5   18.44    3.04
  -2  15   6    2.56    1.09
  -2  15  -6    3.81    1.60
  15   2  -6    3.20    1.50
 -15  -2   6    4.06    0.77
 -15  -2  -6    2.51    1.08
   2 -15   6    2.93    1.06
  -2  15   7   23.68    6.99
  -2  15  -7   29.79    4.33
  15   2  -7   27.33    8.26
 -15  -2   7   30.40    5.55
 -15  -2  -7   24.47    3.54
   2 -15   7   32.09    3.03
  -2  15   8   35.77    9.41
  -2  15  -8   41.73    5.00
  15   2  -8   43.86    6.96
 -15  -2   8   37.12   10.18
 -15  -2  -8   36.07    8.33
   2 -15   8   43.20    3.50
  -2  15   9    3.74    1.68
  -2  15  -9    8.72    1.78
  15   2  -9    8.08    2.18
 -15  -2   9    8.77    2.95
 -15  -2  -9    6.13    2.03
   2 -15   9    5.77    1.91
  -3  15   0   39.94   10.15
  15   3   0   40.21    2.38
 -15  -3   0   35.88    7.39
  -3  15   1    2.63    1.88
  -3  15  -1    2.66    1.76
  15   3  -1    3.89    1.50
  15   3   1    0.53    1.01
 -15  -3   1    2.51    0.72
 -15  -3  -1    3.54    1.50
  -3  15   2    4.20    2.19
  -3  15  -2    5.56    1.58
  15   3  -2    6.65    1.85
 -15  -3   2    9.60    2.08
 -15  -3  -2    9.27    2.39
   3 -15   2    8.38    1.43
  -3  15   3   18.98    2.82
  -3  15  -3   17.45    3.11
  15   3  -3   14.90    3.86
 -15  -3   3   20.28    2.59
 -15  -3  -3   18.94    2.97
   3 -15   3   19.10    2.97
  -3  15   4   19.31    5.28
  -3  15  -4   19.61    4.95
  15   3  -4   16.99    5.24
 -15  -3   4   23.73    5.03
 -15  -3  -4   20.92    4.43
   3 -15   4   20.45    4.11
  -3  15   5    3.00    1.86
  -3  15  -5    6.77    2.05
  15   3  -5    9.11    2.67
 -15  -3   5    9.98    2.28
 -15  -3  -5    6.44    1.07
   3 -15   5    5.48    2.96
  -3  15   6    2.09    1.73
  -3  15  -6    4.07    2.08
  15   3  -6    0.19    0.93
 -15  -3   6    5.28    1.22
 -15  -3  -6    2.46    1.20
   3 -15   6    0.82    0.60
  -3  15   7    8.94    3.31
  -3  15  -7   14.69    3.71
  15   3  -7    6.88    2.25
 -15  -3   7   13.71    2.30
 -15  -3  -7    7.58    1.60
   3 -15   7    9.09    2.08
  -3  15   8    6.13    2.17
  -3  15  -8    8.90    3.84
  15   3  -8   13.09    2.90
 -15  -3   8   15.97    3.04
 -15  -3  -8   12.01    2.18
   3 -15   8   16.99    3.09
  -3  15   9    8.16    1.41
  -3  15  -9   13.36    2.56
  15   3  -9   11.18    2.51
 -15  -3   9   20.83    3.46
 -15  -3  -9   11.18    3.54
   3 -15   9   16.02    3.54
  -4  15   0    8.13    1.78
  15   4   0    4.37    2.30
 -15  -4   0    5.15    1.76
  -4  15   1   17.49    2.70
  -4  15  -1   12.44    2.13
  15   4  -1   16.19    2.37
  15   4   1   17.53    2.17
 -15  -4   1   17.45    3.17
 -15  -4  -1   15.36    2.66
   4 -15   1   17.26    2.29
  -4  15   2    8.05    2.18
  -4  15  -2    7.22    1.84
  15   4  -2    5.60    2.15
 -15  -4   2    8.74    2.04
 -15  -4  -2   10.51    1.78
   4 -15   2    4.29    1.62
  -4  15   3   13.81    2.72
  -4  15  -3   10.21    2.14
  15   4  -3    9.35    3.14
 -15  -4   3    5.11    1.62
 -15  -4  -3    9.50    2.48
   4 -15   3   10.49    2.86
  -4  15   4   14.76    3.08
  -4  15  -4   12.41    2.81
  15   4  -4    9.78    3.41
 -15  -4   4   10.98    1.57
 -15  -4  -4    8.48    2.49
   4 -15   4    8.82    1.54
  -4  15   5   -0.64    1.50
  -4  15  -5    0.61    1.25
  15   4  -5    0.36    0.95
 -15  -4   5    1.96    0.99
 -15  -4  -5    1.12    1.00
   4 -15   5   -0.95    1.50
  -4  15   6    4.19    1.21
  -4  15  -6    5.15    2.57
  15   4  -6    3.78    1.66
 -15  -4   6    6.98    1.73
 -15  -4  -6    3.11    1.02
   4 -15   6    4.34    1.75
  -4  15   7    2.88    1.15
  -4  15  -7    1.56    1.18
  15   4  -7    1.14    1.06
 -15  -4   7    2.67    1.65
 -15  -4  -7    0.06    0.67
   4 -15   7    5.47    4.01
  -4  15   8    3.08    1.48
  -4  15  -8    0.84    0.74
  15   4  -8    3.18    1.51
 -15  -4   8    0.36    1.40
 -15  -4  -8    0.31    1.06
   4 -15   8    0.46    0.87
  -4  15  -9    0.55    1.52
  15   4  -9    6.59    2.15
 -15  -4   9    3.08    1.08
 -15  -4  -9    1.87    1.03
  -5  15   0    5.75    1.82
  15   5   0    4.91    2.90
 -15  -5   0    3.83    1.07
  -5  15   1    3.10    1.61
  -5  15  -1    5.89    1.89
  15   5  -1    2.43    2.08
  15   5   1    4.60    1.22
 -15  -5   1    4.61    2.23
 -15  -5  -1    6.01    2.07
   5 -15   1    3.46    1.17
  -5  15   2   12.53    3.65
  -5  15  -2   10.43    2.09
  15   5  -2   13.19    3.22
 -15  -5   2   15.78    2.67
 -15  -5  -2   14.36    2.59
   5 -15   2   11.43    2.66
  -5  15   3   18.03    2.96
  -5  15  -3   18.84    4.08
  15   5  -3   15.62    5.75
 -15  -5   3   20.26    2.89
 -15  -5  -3   18.46    3.83
   5 -15   3   19.12    4.94
  -5  15   4    3.02    1.67
  -5  15  -4    3.79    2.02
  15   5  -4    4.48    1.61
 -15  -5   4    5.08    2.27
 -15  -5  -4    2.38    1.39
   5 -15   4    1.40    0.91
  -5  15   5   12.96    3.23
  -5  15  -5   11.74    2.57
  15   5  -5    9.12    2.41
 -15  -5   5   11.78    3.03
 -15  -5  -5   13.13    3.48
  -5  15  -5    9.12    3.88
   5 -15   5   10.06    2.32
  -5  15   6   13.82    4.10
  -5  15  -6   14.67    3.45
  15   5  -6   18.47    2.80
 -15  -5   6   19.31    2.96
 -15  -5  -6   17.10    3.64
   5 -15   6   15.52    2.38
  -5  15   7   10.90    3.33
  -5  15  -7    8.05    1.66
  15   5  -7   10.31    2.04
 -15  -5   7   10.55    2.45
 -15  -5  -7    8.85    2.38
   5 -15   7   13.27    3.46
  -5  15   8    1.65    0.98
  -5  15  -8    1.48    1.30
  15   5  -8    1.38    1.50
 -15  -5   8   -2.68    1.54
   5 -15   8    1.66    1.55
  -6  15   0    4.17    1.70
  15   6   0    1.38    0.52
 -15  -6   0    1.85    0.71
  -6  15   1    0.33    0.94
  -6  15  -1    1.67    0.78
  15   6  -1    4.05    1.44
 -15  -6   1    1.66    0.97
 -15  -6  -1    2.70    1.44
   6 -15   1    1.81    0.97
  -6  15   2   19.24    3.67
  -6  15  -2   13.85    3.16
  15   6  -2   16.45    2.46
 -15  -6   2   16.47    4.87
 -15  -6  -2   13.32    2.70
   6 -15   2   12.98    2.85
  -6  15   3   14.41    3.21
  -6  15  -3   10.92    3.52
  15   6  -3   16.71    2.24
 -15  -6   3   13.76    3.67
 -15  -6  -3   14.76    2.44
   6 -15   3   14.55    3.49
  -6  15   4    2.06    0.89
  -6  15  -4    1.50    1.16
  15   6  -4    1.15    1.30
 -15  -6   4    2.27    0.87
 -15  -6  -4   -0.19    0.85
  -6  15  -4    0.83    0.89
   6 -15   4    1.56    0.85
  -6  15   5   23.41    4.92
  -6  15  -5   19.62    3.51
  15   6  -5   16.36    4.27
 -15  -6   5   20.81    3.02
 -15  -6  -5   14.76    2.11
  -6  15  -5   17.57    3.23
   6 -15   5   18.65    2.45
  -6  15   6    9.56    2.38
  -6  15  -6   13.98    3.10
  15   6  -6    9.88    3.35
 -15  -6   6   13.42    2.86
  -6  15  -6    7.54    4.67
   6 -15   6   10.63    2.17
  -6  15   7   20.71    3.56
  -6  15  -7   13.27    3.27
  15   6  -7   11.60    3.97
 -15  -6   7    8.20    2.29
  -6  15  -7    6.85    3.53
   6 -15   7   15.93    4.22
  -7  15   0   26.77    6.09
  15   7   0   18.07    7.08
 -15  -7   0   25.97    4.29
  -7  15   1   18.42    4.32
  -7  15  -1   12.85    2.53
  15   7  -1   12.27    2.03
 -15  -7   1   13.68    2.20
 -15  -7  -1    8.43    2.52
  -7  15   2    7.07    2.51
  -7  15  -2    5.69    1.81
  15   7  -2    4.81    1.47
 -15  -7   2    2.09    0.88
 -15  -7  -2    4.14    1.37
   7 -15   2    3.05    1.16
  -7  15   3   19.96    3.93
  -7  15  -3   16.00    3.73
  15   7  -3   15.52    7.23
 -15  -7   3   18.38    3.54
 -15  -7  -3   21.72    2.82
   7 -15   3   19.66    2.84
  -7  15   4    6.55    2.90
  -7  15  -4    9.25    2.01
  15   7  -4   10.32    2.33
 -15  -7   4    6.18    2.54
  -7  15  -4    5.35    2.42
   7 -15   4    5.01    2.14
  -7  15   5    2.11    1.42
  -7  15  -5    2.37    0.90
  15   7  -5    0.68    1.40
 -15  -7   5   -0.69    1.42
  -7  15  -5    1.77    1.18
   7 -15   5    0.58    0.82
  -7  15   6   -0.15    0.92
  -7  15  -6    0.51    1.21
  15   7  -6    1.65    0.77
 -15  -7   6    2.48    2.14
  -7  15  -6    0.52    0.90
   7 -15   6    1.28    1.36
  -8  15   0    5.74    1.81
  15   8   0    6.93    1.51
 -15  -8   0    9.03    1.96
  -8  15   1   11.42    2.06
  -8  15  -1   11.38    3.16
  15   8  -1   10.74    1.75
 -15  -8   1   14.34    2.48
 -15  -8  -1    7.87    2.04
  -8  15   2    3.89    1.77
  -8  15  -2    3.58    2.06
  15   8  -2    2.99    1.04
 -15  -8   2    4.32    2.14
  -8  15   3    5.04    1.99
  -8  15  -3    7.05    2.01
  15   8  -3    8.17    3.68
 -15  -8   3    9.68    3.11
  -8  15   4   14.80    2.47
  -8  15  -4   15.51    3.22
  15   8  -4   15.74    2.89
 -15  -8   4   17.38    4.99
  -8  15  -4   12.18    3.08
   8 -15   4   19.57    2.23
  -9  15   0    5.70    1.85
  15   9   0    4.45    2.24
  -9  15   1    4.00    1.37
  -9  15  -1    1.19    1.01
  15   9  -1    1.11    0.82
 -15  -9   1    2.64    1.46
 -16   7   0   13.46    2.57
   7  16   0   18.02    2.73
 -16   7   0   11.88    3.40
 -16   7   1    1.98    1.48
   7  16   1    2.74    1.72
   7  16  -1    5.46    1.93
 -16   7   1    2.84    1.20
 -16   7  -1    1.98    1.28
 -16   6   0    7.90    1.18
   6  16   0    4.55    1.74
 -16   6   0    6.62    1.97
 -16   6   1   11.46    2.81
   6  16   1   14.14    3.92
   6  16  -1   16.91    4.34
 -16   6   1    6.92    2.02
 -16   6  -1   12.13    3.91
 -16   6   2   10.97    3.01
   6  16   2   15.58    4.21
   6  16  -2   17.87    2.74
 -16   6   2   12.43    3.85
 -16   6  -2    7.06    4.09
 -16   6   3    1.19    0.88
   6  16   3    2.39    1.09
   6  16  -3    3.39    1.72
 -16   6   3    4.14    1.80
 -16   6  -3    1.84    1.60
 -16   6   4    1.91    1.54
   6  16   4    1.70    1.03
   6  16  -4    0.54    1.07
 -16   6   4    0.34    0.44
 -16   6  -4    1.34    1.58
 -16   5   0    1.72    0.83
   5  16   0    4.06    2.21
 -16   5   0    3.88    1.70
 -16   5   1    7.11    2.26
   5  16  -1    8.75    2.36
 -16   5   1    9.61    1.63
 -16   5  -1    5.39    2.01
   5  16   2   17.87    4.99
   5  16  -2   15.69    3.77
 -16   5   2   16.27    2.65
 -16   5  -2   18.11    5.42
   5  16  -3    7.78    2.15
  16  -5  -3    5.96    1.61
 -16   5   3    6.43    2.38
 -16   5  -3    7.63    1.51
   5  16   4   19.17    5.05
   5  16  -4   16.98    3.57
  16  -5  -4   12.75    5.06
 -16   5   4   19.07    3.85
 -16   5  -4   17.09    2.88
   5  16   5    2.85    1.25
   5  16  -5    0.66    0.91
  16  -5  -5    0.46    1.13
 -16   5   5    2.18    1.24
 -16   5  -5    1.75    1.63
   4  16   0    8.48    3.34
 -16   4   0    8.59    2.07
   4  16   1    5.48    1.85
   4  16  -1    8.54    2.28
  16  -4  -1    7.12    2.65
 -16   4   1   10.67    2.78
 -16   4  -1   11.41    2.34
   4  16   2    2.07    1.68
   4  16  -2    1.14    1.43
  16  -4  -2    2.15    1.05
 -16   4   2   -0.10    1.01
 -16   4  -2    2.54    1.73
   4  16   3    4.41    1.60
   4  16  -3    7.23    2.26
  16  -4  -3    3.13    1.34
 -16   4   3    4.04    1.88
 -16   4  -3   -0.08    1.56
   4  16   4   25.03    3.03
   4  16  -4   17.28    5.07
  16  -4  -4   17.28    4.18
 -16   4   4   16.23    3.88
 -16   4  -4   18.61    3.79
   4  16   5   18.87    8.41
   4  16  -5   20.83    3.52
  16  -4  -5   23.75    8.09
 -16   4   5   32.45    5.26
 -16   4  -5   29.12    5.31
   4  16   6    2.01    1.41
   4  16  -6    4.39    1.89
  16  -4  -6    1.07    1.57
 -16   4   6    3.05    1.90
 -16   4  -6    0.18    1.33
  16  -4   6   -0.37    1.11
   3  16   0   13.89    3.07
  16  -3   0    6.71    4.34
 -16   3   0    6.50    2.78
   3  16   1    2.16    1.29
   3  16  -1    0.42    1.70
  16  -3  -1    1.73    0.85
 -16   3   1   -0.53    1.05
 -16   3  -1    1.60    1.07
   3  16   2    8.09    2.00
   3  16  -2    9.59    2.30
  16  -3  -2    7.54    2.76
 -16   3   2   10.92    3.00
 -16   3  -2    5.84    2.29
   3  16   3   13.30    3.47
   3  16  -3   16.39    4.90
  16  -3  -3   13.22    4.55
 -16   3   3   14.46    3.94
 -16   3  -3   12.63    2.35
   3  16   4    9.16    4.60
   3  16  -4    7.60    2.57
  16  -3  -4    9.95    2.37
 -16   3   4   12.68    3.09
 -16   3  -4    8.79    2.33
   3  16   5    0.75    1.11
   3  16  -5    3.68    1.68
  16  -3  -5    1.25    1.33
 -16   3   5    1.87    1.95
 -16   3  -5    2.27    0.99
  16  -3   5    1.11    0.99
   3  16   6    1.68    1.20
   3  16  -6    3.90    2.30
  16  -3  -6    4.21    2.73
 -16   3   6    2.60    1.82
 -16   3  -6    1.98    1.57
  16  -3   6    3.43    1.56
   3  16   7    6.34    2.77
   3  16  -7    7.08    1.67
  16  -3  -7    3.27    1.28
 -16   3   7    5.57    2.00
 -16   3  -7    6.92    1.71
  16  -3   7    5.13    0.98
   2  16   0   19.71    3.83
  16  -2   0   10.20    3.41
 -16   2   0   11.26    4.67
   2  16   1   15.04    4.26
   2  16  -1   14.87    3.30
  16  -2  -1   14.02    4.89
 -16   2   1   17.97    7.29
 -16   2  -1   14.78    1.99
   2  16   2    5.31    1.58
   2  16  -2    5.05    2.03
  16  -2  -2    2.08    1.31
 -16   2   2    3.31    1.69
 -16   2  -2    5.65    2.52
   2  16   3    7.53    2.25
   2  16  -3   14.74    2.85
 -16   2   3   12.86    2.32
 -16   2  -3    8.48    2.12
   2  16   4    4.83    1.78
   2  16  -4    0.48    1.17
  16  -2  -4    2.36    1.55
 -16   2   4    2.61    1.13
 -16   2  -4    2.92    1.63
   2  16   5   15.21    5.15
   2  16  -5   15.54    4.08
  16  -2  -5   12.69    2.89
 -16   2   5   16.05    3.45
 -16   2  -5   16.53    2.86
   2  16   6   13.23    2.90
   2  16  -6   15.56    2.53
  16  -2  -6   13.27    4.09
 -16   2   6   19.75    2.97
 -16   2  -6   12.18    4.54
   2  16   7    2.57    1.87
   2  16  -7   11.49    2.65
  16  -2  -7    7.16    1.66
 -16   2   7    2.81    1.79
 -16   2  -7    7.12    1.62
  -2 -16   7    4.96    2.14
   1  16   0    0.78    1.61
  16  -1   0    0.21    0.54
 -16   1   0    1.60    1.22
   1  16   1   19.39    6.33
   1  16  -1   24.29    5.28
  16  -1  -1   20.73    5.93
 -16   1   1   23.73    7.79
 -16   1  -1   24.32    3.24
   1  16   2    0.54    0.83
   1  16  -2   -1.80    1.88
  16  -1  -2    0.34    0.67
 -16   1   2    1.35    1.22
 -16   1  -2    1.35    1.29
   1  16   3   25.97    7.73
   1  16  -3   27.28    9.22
  16  -1  -3   27.57    8.56
 -16   1   3   41.69    7.26
 -16   1  -3   32.01    8.76
   1  16   4    1.43    1.29
   1  16  -4    4.26    1.56
  16  -1  -4    2.10    1.67
 -16   1   4    3.09    1.76
 -16   1  -4    3.21    1.69
   1  16   5    1.27    0.85
   1  16  -5    2.27    1.10
  16  -1  -5    1.31    0.74
 -16   1   5    3.64    1.75
 -16   1  -5    3.34    1.40
   1  16   6    2.10    0.98
   1  16  -6    3.31    1.63
  16  -1  -6    4.93    1.77
 -16   1   6    2.95    2.29
 -16   1  -6    3.01    1.37
  -1 -16   6    2.23    0.78
   1  16   7   11.01    3.06
   1  16  -7    7.33    2.08
 -16   1   7   10.02    2.38
 -16   1  -7    6.27    2.68
  -1 -16   7    7.19    2.33
   0  16   0   12.32    2.25
  16   0   0    8.79    2.35
 -16   0   0   11.20    2.25
   0  16   1    1.99    0.96
   0  16  -1    3.58    1.81
  16   0  -1    3.00    0.81
 -16   0   1    3.12    1.33
 -16   0  -1    2.06    1.53
   0  16   2   -0.18    1.60
   0  16  -2    1.66    1.84
  16   0  -2    0.43    1.13
 -16   0   2    1.68    1.01
 -16   0  -2   -0.25    1.31
   0  16   3    0.08    0.86
   0  16  -3    1.98    1.64
  16   0  -3    1.30    0.96
 -16   0   3    1.32    0.99
 -16   0  -3    2.41    1.40
   0  16   4    4.25    1.75
   0  16  -4    3.49    1.56
  16   0  -4    0.84    0.88
 -16   0   4    5.06    2.49
 -16   0  -4    2.98    1.27
   0  16   5   -0.89    1.56
   0  16  -5    2.62    1.55
  16   0  -5    0.67    1.27
 -16   0   5    1.42    1.93
 -16   0  -5    1.03    1.20
   0 -16   5    4.20    1.42
   0  16   6   11.28    3.21
   0  16  -6   10.92    1.39
  16   0  -6    9.76    2.63
 -16   0   6    8.29    2.35
 -16   0  -6   14.28    2.95
   0 -16   6    8.80    1.85
   0  16   7   22.20    6.56
   0  16  -7   19.48    4.08
  16   0  -7   14.95    4.95
 -16   0   7   19.71    2.71
 -16   0  -7   16.19    2.36
   0 -16   7   19.60    2.70
  -1  16   0    1.22    1.06
  16   1   0    0.08    0.72
 -16  -1   0    2.25    0.90
  -1  16   1   23.69    4.47
  -1  16  -1   23.86    5.51
  16   1  -1   13.97    5.29
 -16  -1   1   22.33    4.56
 -16  -1  -1   22.90    4.28
  -1  16   2   -2.89    1.53
  -1  16  -2   -0.40    0.97
  16   1  -2    1.36    0.79
 -16  -1   2    1.34    2.24
 -16  -1  -2   -1.12    1.19
  -1  16   3   29.74    6.35
  -1  16  -3   30.63    7.15
  16   1  -3   25.23    8.42
 -16  -1   3   28.79    8.90
 -16  -1  -3   38.74    4.10
  -1  16   4    3.79    1.89
  -1  16  -4    0.44    1.49
  16   1  -4    2.34    1.24
 -16  -1   4    1.43    1.49
 -16  -1  -4    0.10    1.15
   1 -16   4    1.26    1.56
  -1  16   5    1.57    1.59
  -1  16  -5    1.63    1.72
  16   1  -5    1.22    0.97
 -16  -1   5    2.71    1.24
 -16  -1  -5    1.51    1.07
   1 -16   5    0.68    1.28
  -1  16   6    3.30    1.39
  -1  16  -6    1.75    1.33
  16   1  -6    2.10    1.25
 -16  -1   6    2.69    1.88
 -16  -1  -6    2.81    2.34
   1 -16   6    2.38    1.77
  -1  16   7    9.58    2.14
  -1  16  -7    7.20    2.20
  16   1  -7   10.56    2.91
 -16  -1   7   11.15    2.37
 -16  -1  -7    8.45    2.20
   1 -16   7    7.08    1.78
  -2  16   0   12.38    2.42
  16   2   0   11.19    3.45
 -16  -2   0   12.27    3.83
  -2  16   1   19.03    3.19
  -2  16  -1   21.88    3.52
  16   2  -1   12.62    5.33
 -16  -2   1   18.88    5.15
 -16  -2  -1   18.84    2.91
  -2  16   2    4.55    2.05
  -2  16  -2    4.88    1.18
  16   2  -2    2.03    0.88
 -16  -2   2    1.58    1.70
 -16  -2  -2    5.74    1.60
  -2  16   3   14.57    3.12
  -2  16  -3    9.85    1.74
  16   2  -3    9.43    2.64
 -16  -2   3   12.50    2.81
   2 -16   3    6.19    1.65
  -2  16   4   -0.37    1.73
  -2  16  -4    2.38    1.24
  16   2  -4    0.18    0.89
 -16  -2   4    3.84    2.32
 -16  -2  -4    1.98    1.45
   2 -16   4    2.79    2.12
  -2  16   5   10.31    3.66
  -2  16  -5   19.09    4.37
  16   2  -5   13.57    4.71
 -16  -2   5   16.38    5.41
 -16  -2  -5   12.87    2.15
   2 -16   5   11.29    2.80
  -2  16   6   20.84    4.24
  -2  16  -6   18.34    4.80
  16   2  -6   13.99    4.68
 -16  -2   6   12.60    2.54
 -16  -2  -6   13.64    2.33
   2 -16   6   13.35    3.06
  -2  16   7   11.52    2.88
  -2  16  -7    1.80    1.40
  16   2  -7    2.87    1.88
 -16  -2   7    8.65    2.47
 -16  -2  -7    4.05    1.62
   2 -16   7    4.97    1.61
  -3  16   0    8.77    2.50
  16   3   0    5.85    2.36
 -16  -3   0   11.84    2.00
  -3  16   1    0.41    1.06
  -3  16  -1    2.00    0.93
  16   3  -1    0.86    0.79
 -16  -3   1    0.65    0.85
 -16  -3  -1    1.32    1.08
  -3  16   2    6.63    2.38
  -3  16  -2    8.54    2.40
  16   3  -2    6.12    3.52
 -16  -3   2    9.04    2.66
 -16  -3  -2    7.60    1.87
  -3  16   3   11.75    2.47
  -3  16  -3   13.61    2.93
  16   3  -3   14.16    2.70
 -16  -3   3   16.86    2.34
 -16  -3  -3   16.39    2.76
   3 -16   3   15.76    3.07
  -3  16   4   12.78    2.61
  -3  16  -4    9.59    3.36
  16   3  -4   11.00    2.83
 -16  -3   4   16.93    2.40
 -16  -3  -4    8.15    2.70
   3 -16   4   12.43    2.19
  -3  16   5    4.96    2.54
  -3  16  -5    5.14    2.17
  16   3  -5    0.10    1.05
 -16  -3   5    1.60    0.90
 -16  -3  -5    2.96    0.88
   3 -16   5    2.81    1.48
  -3  16   6    5.16    2.77
  -3  16  -6    3.36    1.06
  16   3  -6    4.96    1.52
 -16  -3   6   -0.78    1.72
 -16  -3  -6    1.74    1.00
   3 -16   6    4.52    1.69
  -3  16   7    4.58    2.75
  -3  16  -7    9.43    2.42
  16   3  -7    5.27    1.41
 -16  -3   7    5.48    2.00
 -16  -3  -7    7.61    1.67
   3 -16   7    4.64    1.69
  -4  16   0    8.06    1.75
  16   4   0    4.95    2.09
 -16  -4   0    7.32    1.83
  -4  16   1   13.21    2.65
  -4  16  -1   13.16    2.20
  16   4  -1    5.03    2.93
 -16  -4   1   13.35    2.98
 -16  -4  -1    9.61    2.76
  -4  16   2    1.60    1.11
  -4  16  -2    1.19    1.17
  16   4  -2    0.82    0.93
 -16  -4   2    1.61    1.60
 -16  -4  -2    1.89    1.18
   4 -16   2    0.89    1.16
  -4  16   3    2.78    2.25
  -4  16  -3    1.95    1.23
  16   4  -3    1.56    1.39
 -16  -4   3    4.43    1.73
 -16  -4  -3    2.85    1.12
   4 -16   3    2.49    0.97
  -4  16   4   19.01    4.73
  -4  16  -4   20.23    4.52
  16   4  -4   12.55    3.98
 -16  -4   4   18.39    3.26
 -16  -4  -4   13.81    3.80
   4 -16   4   20.80    3.41
  -4  16   5   23.99    5.69
  -4  16  -5   22.46    4.35
  16   4  -5   26.05    6.44
 -16  -4   5   23.55    4.28
 -16  -4  -5   21.88    5.10
   4 -16   5   21.81    3.92
  -4  16   6    3.77    1.37
  -4  16  -6    2.35    0.98
  16   4  -6    0.84    1.34
 -16  -4   6    1.29    1.97
 -16  -4  -6    0.26    0.72
   4 -16   6    3.15    1.81
  -5  16   0    3.64    1.85
 -16  -5   0    4.55    1.39
  -5  16   1   10.27    1.99
  -5  16  -1    6.23    2.71
  16   5  -1    6.30    2.03
 -16  -5   1    5.75    1.68
 -16  -5  -1    5.80    2.21
  -5  16   2   24.48    3.14
  -5  16  -2   14.20    2.40
  16   5  -2   11.91    3.69
 -16  -5   2   19.71    2.84
 -16  -5  -2   10.83    4.07
   5 -16   2   18.42    2.22
  -5  16   3    5.94    3.16
  -5  16  -3    7.11    2.15
  16   5  -3    7.96    1.47
 -16  -5   3    8.44    2.07
 -16  -5  -3    6.05    2.04
   5 -16   3    5.10    1.15
  -5  16   4   14.79    4.66
  -5  16  -4   15.46    4.49
  16   5  -4   18.60    4.86
 -16  -5   4    9.03    2.22
 -16  -5  -4   17.04    3.93
   5 -16   4   16.88    4.08
  -5  16   5    0.92    1.09
  -5  16  -5    3.06    1.46
  16   5  -5    0.98    0.70
 -16  -5   5    1.70    1.08
 -16  -5  -5   -0.22    0.96
   5 -16   5    0.87    1.20
  -6  16   0   11.43    2.39
 -16  -6   0    5.77    2.23
  -6  16   1   15.19    3.97
  -6  16  -1   13.95    2.36
  16   6  -1   11.16    4.63
 -16  -6   1   15.67    3.32
 -16  -6  -1    8.12    1.71
  -6  16   2    9.50    3.21
  -6  16  -2   13.92    3.80
  16   6  -2    7.02    4.03
 -16  -6   2   14.37    2.48
 -16  -6  -2   14.82    4.30
  -6  16   3    1.16    1.21
  -6  16  -3    2.78    1.04
  16   6  -3    2.96    1.09
 -16  -6   3    1.27    1.12
 -16  -6  -3    1.97    0.85
   6 -16   3    2.14    1.45
  -6  16   4    0.74    0.98
  -6  16  -4    2.15    0.88
  16   6  -4    1.85    0.99
 -16  -6   4    1.22    0.91
 -16  -6  -4    1.14    0.69
   6 -16   4    0.40    1.43
  -7  16   0   11.72    2.63
 -16  -7   0   11.63    2.91
  -7  16   1    6.20    1.05
  -7  16  -1    2.96    1.38
  16   7  -1    4.82    1.49
 -16  -7  -1    7.33    1.58
   4  17   0    4.15    2.65
 -17   4   0   -0.45    1.37
   4  17   1    1.72    1.23
   4  17  -1    3.70    1.30
  17  -4  -1    2.69    1.21
 -17   4   1    0.37    1.24
 -17   4  -1    2.69    1.40
   3  17   0    3.23    1.54
 -17   3   0    1.88    1.44
   3  17   1    4.95    2.20
   3  17  -1    4.55    1.89
  17  -3  -1    4.94    2.83
 -17   3   1    8.66    2.22
 -17   3  -1   12.18    3.76
   3  17   2    6.45    2.33
   3  17  -2    5.43    1.62
  17  -3  -2    6.56    1.70
 -17   3   2    3.79    0.97
 -17   3  -2    5.79    2.41
   3  17  -3    7.62    2.18
  17  -3  -3    6.61    1.39
 -17   3   3    5.82    1.54
 -17   3  -3    3.93    1.66
   2  17   0    0.36    0.63
 -17   2   0    1.80    1.67
   2  17   1    4.66    2.47
   2  17  -1    3.95    1.71
  17  -2  -1    1.26    1.04
 -17   2   1    1.17    1.07
 -17   2  -1    3.47    1.20
   2  17   2   28.52    8.91
   2  17  -2   32.53   10.03
  17  -2  -2   23.49    9.10
 -17   2   2   39.39    4.38
 -17   2  -2   28.69    8.24
   2  17   3    3.79    1.83
   2  17  -3    2.68    2.44
  17  -2  -3    3.77    1.47
 -17   2   3    3.79    2.47
 -17   2  -3    4.99    1.38
   2  17   4    2.20    1.36
   2  17  -4    0.94    1.04
  17  -2  -4    0.16    0.60
 -17   2   4   -0.41    1.56
 -17   2  -4    1.51    1.29
   1  17   0   12.13    2.92
 -17   1   0   12.89    2.45
   1  17   1    3.83    1.72
   1  17  -1   13.72    2.52
  17  -1  -1    3.32    2.46
 -17   1   1    2.37    2.55
 -17   1  -1    9.48    2.77
   1  17   2    0.19    1.15
   1  17  -2    1.76    1.45
  17  -1  -2    0.28    0.50
 -17   1   2    0.58    1.67
 -17   1  -2    2.31    1.34
   1  17   3    2.08    1.89
   1  17  -3    1.49    1.71
  17  -1  -3    2.22    1.35
 -17   1   3    1.87    1.80
 -17   1  -3    1.54    2.10
   1  17   4   12.45    3.29
   1  17  -4    5.77    1.77
  17  -1  -4    5.52    1.45
 -17   1   4    7.22    1.51
 -17   1  -4    5.21    1.90
   0  17   0    1.13    1.16
 -17   0   0    1.27    1.14
   0  17   1    2.24    1.65
   0  17  -1   -1.95    1.77
  17   0  -1    0.57    0.81
 -17   0   1    3.35    1.25
 -17   0  -1    0.49    1.12
   0  17   2    2.05    1.68
   0  17  -2    1.83    1.62
  17   0  -2    2.70    1.48
 -17   0   2    3.35    1.87
 -17   0  -2    1.52    1.28
   0  17   3    1.77    1.49
   0  17  -3    3.40    1.13
  17   0  -3    1.45    0.75
 -17   0   3    1.92    0.95
 -17   0  -3    1.59    0.82
   0  17   4   12.92    3.66
   0  17  -4   18.18    3.09
  17   0  -4   10.34    3.12
 -17   0   4   14.31    4.42
 -17   0  -4    9.02    2.34
  -1  17   0   12.49    2.88
 -17  -1   0   13.38    2.83
  -1  17   1   11.96    2.50
  -1  17  -1    7.85    2.39
  17   1  -1    3.66    1.28
 -17  -1   1    9.00    1.64
 -17  -1  -1    4.09    1.62
  -1  17   2    3.59    1.43
  -1  17  -2    1.60    1.19
  17   1  -2    1.90    1.02
 -17  -1   2    5.51    1.83
 -17  -1  -2    1.30    1.00
  -1  17   3    4.26    2.18
  -1  17  -3    1.85    1.39
  17   1  -3    2.28    0.56
 -17  -1   3    3.43    1.40
 -17  -1  -3    3.18    1.43
  -1  17   4    6.83    2.44
  -1  17  -4    9.89    2.48
  17   1  -4    7.33    2.17
 -17  -1   4    4.39    1.60
 -17  -1  -4    8.47    1.75
  -2  17   0    0.66    1.02
 -17  -2   0    0.84    0.85
  -2  17   1    3.20    1.61
  -2  17  -1    6.11    1.85
  17   2  -1    3.06    1.28
 -17  -2   1    6.32    2.16
 -17  -2  -1    2.31    1.44
  -2  17   2   35.77    3.50
  -2  17  -2   33.23    8.58
  17   2  -2   23.92    6.64
 -17  -2   2   32.61    6.99
 -17  -2  -2   28.54    6.89
  -2  17   3    5.05    2.37
  -2  17  -3    6.75    2.84
  17   2  -3    4.97    1.95
 -17  -2   3    4.49    1.40
 -17  -2  -3    7.12    2.04
  -2  17   4   -1.32    1.60
  -2  17  -4    1.52    0.87
  17   2  -4    1.10    0.89
 -17  -2   4    1.07    0.95
 -17  -2  -4   -0.82    1.33
   2 -17   4    3.02    1.84
  -3  17   0    0.29    1.49
 -17  -3   0    2.77    1.43
  -3  17   1   15.97    3.04
  -3  17  -1   10.10    2.61
 -17  -3   1    9.77    2.54
 -17  -3  -1    7.63    2.57
  -3  17   2    5.35    2.26
  -3  17  -2    4.50    1.91
  17   3  -2    1.49    0.88
 -17  -3   2    6.71    2.39
 -17  -3  -2    4.15    2.07
  -3  17   3    5.53    1.25
  -3  17  -3    9.34    3.14
  17   3  -3    7.94    1.85
 -17  -3   3    3.41    2.39
 -17  -3  -3    7.90    1.99
  -4  17   0    1.05    1.65
 -17  -4   0    1.97    1.81
  -4  17   1   -0.59    1.74
  -4  17  -1    1.55    1.59
 -17  -4   1    2.37    1.63
 -17  -4  -1    2.10    1.99
   0   0   0    0.00    0.00
;
_shelx_hkl_checksum              36687
#END Tags that were not found in dictionaries
loop_
_space_group_symop_operation_xyz
'x, y, z'
'-y+1/2, x+1/2, z+3/4'
'-x, -y, z+1/2'
'y+1/2, -x+1/2, z+1/4'
'x+1/2, -y+1/2, -z+1/4'
'-x+1/2, y+1/2, -z+3/4'
'y, x, -z'
'-y, -x, -z+1/2'
loop_
_atom_site_label
_atom_site_type_symbol
_atom_site_fract_x
_atom_site_fract_y
_atom_site_fract_z
_atom_site_U_iso_or_equiv
_atom_site_adp_type
_atom_site_occupancy
_atom_site_site_symmetry_order
_atom_site_calc_flag
_atom_site_refinement_flags_posn
_atom_site_refinement_flags_adp
_atom_site_refinement_flags_occupancy
Cu1 Cu 0.29531(3) 0.02687(3) 0.03524(3) 0.03142(14) Uani 1 1 d . . .
O1 O 0.2049(2) 0.1170(2) 0.10436(16) 0.0407(6) Uani 1 1 d . . .
O2 O 0.36031(19) -0.05386(19) -0.05982(17) 0.0360(6) Uani 1 1 d . . .
O3 O 0.4344(2) 0.1190(2) 0.04346(18) 0.0436(6) Uani 1 1 d . . .
C1 C 0.1676(3) 0.1532(3) -0.0501(2) 0.0307(7) Uani 1 1 d . . .
C2 C 0.2589(3) 0.0483(3) -0.1550(2) 0.0343(7) Uani 1 1 d . . .
H2A H 0.2858 0.1030 -0.1906 0.041 Uiso 1 1 calc R U .
C3 C 0.1717(4) 0.0025(5) -0.2048(4) 0.0726(18) Uani 1 1 d . . .
H3A H 0.1215 0.0519 -0.2139 0.109 Uiso 1 1 calc R U .
H3B H 0.1449 -0.0510 -0.1701 0.109 Uiso 1 1 calc R U .
H3C H 0.1937 -0.0221 -0.2618 0.109 Uiso 1 1 calc R U .
C4 C 0.3401(3) -0.0298(3) -0.1405(2) 0.0314(7) Uani 1 1 d . . .
C5 C 0.2898(3) -0.1630(3) 0.1392(2) 0.0373(8) Uani 1 1 d . . .
C6 C 0.3279(3) -0.2055(3) 0.2175(3) 0.0341(7) Uani 1 1 d . . .
C7 C 0.3854(3) -0.1333(3) 0.2563(3) 0.0438(9) Uani 1 1 d . . .
C8 C 0.2249(5) -0.2072(4) 0.0695(3) 0.0764(18) Uani 1 1 d . . .
H8A H 0.2119 -0.1590 0.0237 0.115 Uiso 1 1 calc R U .
H8B H 0.1635 -0.2275 0.0963 0.115 Uiso 1 1 calc R U .
H8C H 0.2572 -0.2636 0.0435 0.115 Uiso 1 1 calc R U .
C9 C 0.4474(5) -0.1316(5) 0.3390(4) 0.087(2) Uani 1 1 d . . .
H9A H 0.4781 -0.0678 0.3450 0.131 Uiso 1 1 calc R U .
H9B H 0.4977 -0.1817 0.3349 0.131 Uiso 1 1 calc R U .
H9C H 0.4064 -0.1442 0.3903 0.131 Uiso 1 1 calc R U .
C10 C 0.3102(3) -0.3102(3) 0.2500 0.0431(13) Uani 1 2 d S T P
H10A H 0.3554 -0.3250 0.2980 0.052 Uiso 1 1 d R U .
N1 N 0.3206(2) -0.0691(2) 0.1324(2) 0.0347(7) Uani 1 1 d . . .
N2 N 0.3779(3) -0.0524(2) 0.2039(2) 0.0407(7) Uani 1 1 d . . .
H2B H 0.4065 0.0031 0.2151 0.049 Uiso 1 1 calc R U .
N3 N 0.2324(2) 0.0846(2) -0.06730(19) 0.0336(6) Uani 1 1 d . . .
loop_
_atom_site_aniso_label
_atom_site_aniso_U_11
_atom_site_aniso_U_22
_atom_site_aniso_U_33
_atom_site_aniso_U_23
_atom_site_aniso_U_13
_atom_site_aniso_U_12
Cu1 0.0332(2) 0.0343(2) 0.0268(2) 0.00016(17) -0.00053(17) 0.00736(16)
O1 0.0460(15) 0.0492(15) 0.0268(11) 0.0005(11) -0.0027(12) 0.0199(12)
O2 0.0374(14) 0.0386(14) 0.0320(13) -0.0025(10) -0.0013(10) 0.0105(10)
O3 0.0456(15) 0.0520(17) 0.0333(13) -0.0077(13) -0.0035(12) -0.0166(12)
C1 0.0318(17) 0.0354(18) 0.0250(16) -0.0007(13) 0.0000(13) 0.0043(13)
C2 0.0365(18) 0.041(2) 0.0251(15) -0.0026(14) -0.0011(14) 0.0065(14)
C3 0.051(3) 0.110(5) 0.057(3) -0.041(3) -0.020(2) 0.017(3)
C4 0.0342(17) 0.0304(16) 0.0296(16) -0.0046(14) 0.0011(14) 0.0027(13)
C5 0.0379(19) 0.0380(18) 0.0360(18) -0.0004(15) 0.0005(16) -0.0075(15)
C6 0.0323(16) 0.0320(16) 0.0379(17) 0.0069(15) 0.0039(15) -0.0056(13)
C7 0.042(2) 0.051(2) 0.0380(19) 0.0158(18) -0.0054(17) -0.0163(18)
C8 0.106(5) 0.068(3) 0.056(3) 0.008(3) -0.029(3) -0.041(3)
C9 0.095(5) 0.094(5) 0.072(4) 0.043(3) -0.046(3) -0.057(4)
C10 0.0367(17) 0.0367(17) 0.056(3) 0.0105(17) 0.0105(17) -0.005(2)
N1 0.0420(18) 0.0299(15) 0.0323(15) 0.0018(12) -0.0027(13) -0.0010(12)
N2 0.053(2) 0.0387(18) 0.0303(16) 0.0043(13) -0.0079(15) -0.0144(14)
N3 0.0363(16) 0.0376(16) 0.0268(13) -0.0035(12) -0.0004(12) 0.0090(12)
loop_
_atom_type_symbol
_atom_type_description
_atom_type_scat_dispersion_real
_atom_type_scat_dispersion_imag
_atom_type_scat_source
C C 0.0033 0.0016 'International Tables Vol C Tables 4.2.6.8 and 6.1.1.4'
H H 0.0000 0.0000 'International Tables Vol C Tables 4.2.6.8 and 6.1.1.4'
N N 0.0061 0.0033 'International Tables Vol C Tables 4.2.6.8 and 6.1.1.4'
O O 0.0106 0.0060 'International Tables Vol C Tables 4.2.6.8 and 6.1.1.4'
Cu Cu 0.3201 1.2651 'International Tables Vol C Tables 4.2.6.8 and 6.1.1.4'
loop_
_geom_angle_atom_site_label_1
_geom_angle_atom_site_label_2
_geom_angle_atom_site_label_3
_geom_angle
_geom_angle_site_symmetry_1
_geom_angle_site_symmetry_3
N3 Cu1 N1 158.48(14) . .
N3 Cu1 O2 81.34(11) . .
N1 Cu1 O2 95.02(11) . .
N3 Cu1 O1 83.92(11) . .
N1 Cu1 O1 97.22(12) . .
O2 Cu1 O1 164.71(11) . .
N3 Cu1 O3 100.85(13) . .
N1 Cu1 O3 100.24(12) . .
O2 Cu1 O3 88.49(11) . .
O1 Cu1 O3 98.29(12) . .
C1 O1 Cu1 109.5(2) 7 .
C4 O2 Cu1 116.0(2) . .
C4 O3 Cu1 128.2(2) 4 .
O1 C1 N3 129.0(3) 7 .
O1 C1 C1 119.2(4) 7 7
N3 C1 C1 111.8(4) . 7
N3 C2 C3 112.9(3) . .
N3 C2 C4 106.4(3) . .
C3 C2 C4 110.0(3) . .
O3 C4 O2 124.1(3) 2_544 .
O3 C4 C2 118.5(3) 2_544 .
O2 C4 C2 117.4(3) . .
N1 C5 C6 109.8(3) . .
N1 C5 C8 120.7(4) . .
C6 C5 C8 129.5(4) . .
C7 C6 C5 105.6(3) . .
C7 C6 C10 128.1(3) . .
C5 C6 C10 126.3(3) . .
N2 C7 C6 106.7(3) . .
N2 C7 C9 120.7(4) . .
C6 C7 C9 132.6(4) . .
C6 C10 C6 113.5(5) . 8
N2 N1 C5 106.1(3) . .
N2 N1 Cu1 125.2(2) . .
C5 N1 Cu1 128.6(3) . .
N1 N2 C7 111.8(3) . .
C1 N3 C2 126.0(3) . .
C1 N3 Cu1 115.6(2) . .
C2 N3 Cu1 118.4(2) . .
loop_
_geom_bond_atom_site_label_1
_geom_bond_atom_site_label_2
_geom_bond_distance
_geom_bond_site_symmetry_2
Cu1 N3 1.916(3) .
Cu1 N1 1.974(3) .
Cu1 O2 1.993(2) .
Cu1 O1 2.009(3) .
Cu1 O3 2.257(3) .
O1 C1 1.269(4) 7
O2 C4 1.276(4) .
O3 C4 1.229(4) 4
C1 O1 1.269(4) 7
C1 N3 1.300(4) .
C1 C1 1.522(6) 7
C2 N3 1.442(4) .
C2 C3 1.524(6) .
C2 C4 1.537(5) .
C4 O3 1.229(4) 2_544
C5 N1 1.339(5) .
C5 C6 1.401(5) .
C5 C8 1.486(6) .
C6 C7 1.375(6) .
C6 C10 1.514(5) .
C7 N2 1.347(5) .
C7 C9 1.491(6) .
C10 C6 1.514(5) 8
N1 N2 1.337(4) .
