#------------------------------------------------------------------------------
#$Date: 2016-03-23 22:33:44 +0200 (Wed, 23 Mar 2016) $
#$Revision: 179485 $
#$URL: svn://www.crystallography.net/cod/cif/4/33/82/4338280.cif $
#------------------------------------------------------------------------------
#
# This file is available in the Crystallography Open Database (COD),
# http://www.crystallography.net/
#
# All data on this site have been placed in the public domain by the
# contributors.
#
data_4338280
loop_
_publ_author_name
'Lin, Lang'
'Yu, Rongmin'
'Wu, Xiao-Yuan'
'Yang, Wen-Bin'
'Zhang, Jian'
'Guo, Xiang-Guang'
'Lin, Zu-Jin'
'Lu, Can-Zhong'
_publ_section_title
;
 Enantioselective inclusion of alcohols by solvent-controlled assembled
 flexible metal-organic frameworks.
;
_journal_issue                   10
_journal_name_full               'Inorganic chemistry'
_journal_page_first              4794
_journal_page_last               4796
_journal_paper_doi               10.1021/ic500436g
_journal_volume                  53
_journal_year                    2014
_chemical_absolute_configuration ad
_chemical_formula_moiety         'C27 H34 Cu2 N6 O7'
_chemical_formula_sum            'C27 H34 Cu2 N6 O7'
_chemical_formula_weight         681.68
_chemical_name_systematic
;
 ?
;
_space_group_crystal_system      orthorhombic
_space_group_IT_number           19
_space_group_name_Hall           'P 2ac 2ab'
_space_group_name_H-M_alt        'P 21 21 21'
_symmetry_space_group_name_Hall  'P 2ac 2ab'
_symmetry_space_group_name_H-M   'P 21 21 21'
_atom_sites_solution_hydrogens   geom
_audit_creation_method           SHELXL-2013
_cell_angle_alpha                90
_cell_angle_beta                 90
_cell_angle_gamma                90
_cell_formula_units_Z            4
_cell_length_a                   13.041(3)
_cell_length_b                   14.411(4)
_cell_length_c                   16.307(4)
_cell_measurement_reflns_used    8060
_cell_measurement_temperature    293(2)
_cell_measurement_theta_max      27.4623
_cell_measurement_theta_min      1.9987
_cell_volume                     3064.6(13)
_computing_cell_refinement       'CrystalClear (Rigaku Inc., 2008)'
_computing_data_collection       'CrystalClear (Rigaku Inc., 2008)'
_computing_data_reduction        'CrystalClear (Rigaku Inc., 2008)'
_computing_molecular_graphics    DIAMOND
_computing_publication_material  'SHELXL-2013 (Sheldrick, 2013)'
_computing_structure_refinement  'SHELXL-2013 (Sheldrick, 2013)'
_computing_structure_solution    'SHELXL-2013 (Sheldrick, 2013)'
_diffrn_ambient_temperature      293(2)
_diffrn_detector_area_resol_mean 28.5714
_diffrn_measured_fraction_theta_full 0.989
_diffrn_measured_fraction_theta_max 0.981
_diffrn_measurement_method       CCD_Profile_fitting
_diffrn_radiation_type           MoK\a
_diffrn_radiation_wavelength     0.71073
_diffrn_reflns_av_R_equivalents  0.0440
_diffrn_reflns_av_unetI/netI     0.0491
_diffrn_reflns_Laue_measured_fraction_full 0.989
_diffrn_reflns_Laue_measured_fraction_max 0.981
_diffrn_reflns_limit_h_max       14
_diffrn_reflns_limit_h_min       -16
_diffrn_reflns_limit_k_max       18
_diffrn_reflns_limit_k_min       -18
_diffrn_reflns_limit_l_max       20
_diffrn_reflns_limit_l_min       -21
_diffrn_reflns_number            24349
_diffrn_reflns_point_group_measured_fraction_full 0.986
_diffrn_reflns_point_group_measured_fraction_max 0.971
_diffrn_reflns_theta_full        25.242
_diffrn_reflns_theta_max         27.456
_diffrn_reflns_theta_min         2.000
_exptl_absorpt_coefficient_mu    1.441
_exptl_absorpt_correction_T_max  0.866
_exptl_absorpt_correction_T_min  0.841
_exptl_absorpt_correction_type   multi-scan
_exptl_crystal_colour            green
_exptl_crystal_density_diffrn    1.477
_exptl_crystal_description       block
_exptl_crystal_F_000             1408
_exptl_crystal_size_max          0.150
_exptl_crystal_size_mid          0.100
_exptl_crystal_size_min          0.100
_refine_diff_density_max         0.611
_refine_diff_density_min         -0.739
_refine_diff_density_rms         0.239
_refine_ls_abs_structure_details
;
 Flack x determined using 2133 quotients [(I+)-(I-)]/[(I+)+(I-)]
 (Parsons and Flack (2004), Acta Cryst. A60, s61).
;
_refine_ls_abs_structure_Flack   0.035(6)
_refine_ls_extinction_method     none
_refine_ls_goodness_of_fit_ref   1.035
_refine_ls_hydrogen_treatment    constr
_refine_ls_matrix_type           full
_refine_ls_number_parameters     379
_refine_ls_number_reflns         6785
_refine_ls_number_restraints     0
_refine_ls_restrained_S_all      1.035
_refine_ls_R_factor_all          0.0515
_refine_ls_R_factor_gt           0.0398
_refine_ls_shift/su_max          0.000
_refine_ls_shift/su_mean         0.000
_refine_ls_structure_factor_coef Fsqd
_refine_ls_weighting_details
;
 w=1/[\s^2^(Fo^2^)+(0.0736P)^2^]
 where P=(Fo^2^+2Fc^2^)/3
;
_refine_ls_weighting_scheme      calc
_refine_ls_wR_factor_gt          0.1007
_refine_ls_wR_factor_ref         0.1232
_reflns_Friedel_coverage         0.774
_reflns_Friedel_fraction_full    0.981
_reflns_Friedel_fraction_max     0.959
_reflns_number_gt                5940
_reflns_number_total             6785
_reflns_threshold_expression     'I > 2\s(I)'
_cod_data_source_file            ic500436g_si_001.cif
_cod_data_source_block           D-3-1-PEA
_cod_depositor_comments
'Adding full bibliography for 4338272--4338281.cif.'
_cod_original_cell_volume        3064.7(12)
_cod_database_code               4338280
#BEGIN Tags that were not found in dictionaries:
_shelx_space_group_comment
;
The symmetry employed for this shelxl refinement is uniquely defined
by the following loop, which should always be used as a source of
symmetry information in preference to the above space-group names.
They are only intended as comments.
;
_shelx_estimated_absorpt_t_min   0.813
_shelx_estimated_absorpt_t_max   0.869
_shelxl_version_number           2013-2
_shelx_res_file
;
TITL a in P2(1)2(1)2(1)
CELL 0.71073 13.0410 14.4115 16.3067 90.000 90.000 90.000
ZERR 4.0000 0.0030 0.0035 0.0038 0.000 0.000 0.000
LATT -1
SYMM 0.5-X, -Y, 0.5+Z
SYMM 0.5+X, 0.5-Y, -Z
SYMM -X, 0.5+Y, 0.5-Z
SFAC C H N O CU
UNIT 108 136 24 28 8
MERG 2
FMAP 2
GRID
PLAN 20
BOND
ACTA
SIZE 0.1 0.1 0.15
L.S. 30
WGHT    0.073600
FVAR       0.36446
CU1   5    0.440183    0.036977    0.914018    11.00000    0.03817    0.03069 =
         0.02704    0.00044    0.00020   -0.00833
O1    4    0.790851    0.357286    0.928701    11.00000    0.03989    0.03635 =
         0.03126   -0.00056    0.00236   -0.01221
O2    4    0.787707    0.392356    1.062467    11.00000    0.05204    0.05292 =
         0.03100   -0.00615   -0.00386   -0.01512
O3    4    0.626282    0.197213    0.780151    11.00000    0.05672    0.04484 =
         0.03035   -0.00316    0.00870   -0.01918
O4    4    0.520717    0.137283    0.973447    11.00000    0.04719    0.04151 =
         0.02881    0.00134    0.00208   -0.01755
O5    4    0.379238   -0.078451    0.695429    11.00000    0.06183    0.04190 =
         0.03432   -0.01147    0.00128   -0.02079
O6    4    0.386500   -0.051140    0.829285    11.00000    0.04493    0.03576 =
         0.02930   -0.00258   -0.00069   -0.01100
O7    4    0.690634   -0.000166    1.003843    11.00000    0.17161    0.16531 =
         0.11095   -0.00719   -0.02125    0.02844
AFIX  83
H7D   2    0.641085    0.034337    1.009197    11.00000   -1.50000
AFIX   0
C1    1    0.750990    0.354533    1.001904    11.00000    0.04236    0.02899 =
         0.02831    0.00353   -0.00016   -0.00717
C2    1    0.647349    0.304652    1.009341    11.00000    0.04857    0.03653 =
         0.02562   -0.00244    0.00409   -0.01288
AFIX  13
H2A   2    0.648670    0.260750    1.055223    11.00000   -1.20000
AFIX   0
C3    1    0.562300    0.376652    1.021988    11.00000    0.04761    0.05222 =
         0.04961   -0.00930    0.01148   -0.00547
AFIX  33
H3A   2    0.497474    0.345612    1.027045    11.00000   -1.50000
H3B   2    0.560375    0.417970    0.975836    11.00000   -1.50000
H3C   2    0.575783    0.411469    1.071006    11.00000   -1.50000
AFIX   0
C4    1    0.572020    0.184051    0.921225    11.00000    0.03336    0.03393 =
         0.02845    0.00039   -0.00260   -0.00616
C5    1    0.567146    0.156262    0.830979    11.00000    0.04203    0.03389 =
         0.02842   -0.00058    0.00433   -0.00632
C6    1    0.479856    0.049187    0.740001    11.00000    0.05734    0.04632 =
         0.02562   -0.00425    0.00574   -0.02189
AFIX  13
H6A   2    0.544420    0.027816    0.715732    11.00000   -1.20000
AFIX   0
C7    1    0.428784    0.116652    0.680865    11.00000    0.15577    0.06142 =
         0.05282    0.02476   -0.04044   -0.04583
AFIX  33
H7A   2    0.473311    0.168656    0.671621    11.00000   -1.50000
H7B   2    0.365295    0.137975    0.703946    11.00000   -1.50000
H7C   2    0.415548    0.085856    0.629747    11.00000   -1.50000
AFIX   0
C8    1    0.411338   -0.034069    0.754437    11.00000    0.03344    0.03123 =
         0.03662   -0.00291    0.00118   -0.00249
C9    1    0.850570    0.371490    0.538342    11.00000    0.08722    0.08168 =
         0.04418    0.02134    0.02352    0.03993
AFIX  33
H9A   2    0.783503    0.398275    0.532987    11.00000   -1.50000
H9B   2    0.858371    0.322241    0.499195    11.00000   -1.50000
H9C   2    0.901537    0.418228    0.528424    11.00000   -1.50000
AFIX   0
C10   1    0.863774    0.332877    0.624912    11.00000    0.04546    0.03471 =
         0.02863   -0.00060    0.00825    0.00677
C11   1    0.943122    0.288963    0.664231    11.00000    0.03531    0.02639 =
         0.03432   -0.00400    0.00345    0.00263
C12   1    0.907902    0.275238    0.744499    11.00000    0.03467    0.04073 =
         0.03537   -0.00068    0.00178    0.00746
C13   1    0.961200    0.234243    0.816328    11.00000    0.07778    0.12577 =
         0.03984    0.00803   -0.00405    0.05277
AFIX  33
H13A  2    0.916444    0.235618    0.863054    11.00000   -1.50000
H13B  2    1.021983    0.269410    0.828032    11.00000   -1.50000
H13C  2    0.979636    0.171194    0.804346    11.00000   -1.50000
AFIX   0
C14   1    0.497526   -0.193397    0.949134    11.00000    0.10525    0.04884 =
         0.04976   -0.00178    0.01002    0.02732
AFIX  33
H14A  2    0.500926   -0.155077    0.901055    11.00000   -1.50000
H14B  2    0.453556   -0.245510    0.938733    11.00000   -1.50000
H14C  2    0.565021   -0.215112    0.962697    11.00000   -1.50000
AFIX   0
C15   1    0.456003   -0.138637    1.018403    11.00000    0.03784    0.02897 =
         0.03725    0.00251   -0.00427    0.00297
C16   1    0.437088   -0.167246    1.099342    11.00000    0.02735    0.03584 =
         0.03796    0.00833   -0.00590    0.00121
C17   1    0.450782   -0.264167    1.133199    11.00000    0.03192    0.03754 =
         0.04999    0.01192   -0.00692   -0.00033
AFIX  23
H17A  2    0.432356   -0.308063    1.090581    11.00000   -1.20000
H17B  2    0.402586   -0.272449    1.177912    11.00000   -1.20000
AFIX   0
C18   1    0.398961   -0.090015    1.138319    11.00000    0.05223    0.04945 =
         0.03086    0.01014   -0.00231    0.01668
C19   1    0.364841   -0.071262    1.225009    11.00000    0.11288    0.08844 =
         0.04011    0.01622    0.01891    0.05394
AFIX  33
H19A  2    0.343326   -0.007786    1.229780    11.00000   -1.50000
H19B  2    0.420805   -0.082584    1.261922    11.00000   -1.50000
H19C  2    0.308648   -0.111465    1.238569    11.00000   -1.50000
AFIX   0
C20   1    0.791814    0.104064    1.126821    11.00000    0.10726    0.09015 =
         0.14861   -0.00809   -0.01565   -0.00548
AFIX  43
H20A  2    0.805394    0.119015    1.072414    11.00000   -1.20000
AFIX   0
C21   1    0.821956    0.163229    1.190334    11.00000    0.13898    0.10006 =
         0.18597   -0.01914   -0.03289   -0.01072
AFIX  43
H21A  2    0.856345    0.218337    1.179187    11.00000   -1.20000
AFIX   0
C22   1    0.799507    0.137971    1.269909    11.00000    0.17123    0.14961 =
         0.11507   -0.04602   -0.02351    0.06568
AFIX  43
H22A  2    0.816842    0.178978    1.311706    11.00000   -1.20000
AFIX   0
C23   1    0.753832    0.057207    1.290757    11.00000    0.17071    0.15354 =
         0.11316    0.00529    0.01334    0.07285
AFIX  43
H23A  2    0.744458    0.040097    1.345234    11.00000   -1.20000
AFIX   0
C24   1    0.721368    0.000650    1.225970    11.00000    0.14663    0.10469 =
         0.11389   -0.00184    0.02278    0.02936
AFIX  43
H24A  2    0.685230   -0.053440    1.237466    11.00000   -1.20000
AFIX   0
C25   1    0.741488    0.023043    1.146753    11.00000    0.07710    0.09035 =
         0.08447   -0.00272   -0.00346    0.00060
C26   1    0.711865   -0.046686    1.082035    11.00000    0.10453    0.11471 =
         0.11045   -0.00822   -0.00413   -0.01894
AFIX  13
H26A  2    0.650166   -0.079803    1.099935    11.00000   -1.20000
AFIX   0
C27   1    0.796029   -0.115953    1.066262    11.00000    0.13379    0.10942 =
         0.20376   -0.06243    0.01460   -0.01124
AFIX  33
H27A  2    0.774305   -0.158976    1.024810    11.00000   -1.50000
H27B  2    0.810995   -0.149039    1.115937    11.00000   -1.50000
H27C  2    0.856446   -0.084006    1.047983    11.00000   -1.50000
AFIX   0
N1    3    0.630734    0.255471    0.932189    11.00000    0.04663    0.03316 =
         0.02548   -0.00372    0.00194   -0.01045
N2    3    0.501772    0.091801    0.818531    11.00000    0.04892    0.03708 =
         0.02704   -0.00349   -0.00096   -0.01579
N3    3    0.811311    0.306748    0.751552    11.00000    0.03809    0.03740 =
         0.03053    0.00586    0.00382    0.00485
N4    3    0.786783    0.340833    0.677896    11.00000    0.03391    0.04263 =
         0.02874    0.00073    0.00180    0.01017
AFIX  43
H4A   2    0.728285    0.364987    0.666190    11.00000   -1.20000
AFIX   0
N5    3    0.397414   -0.020449    1.082956    11.00000    0.04984    0.03378 =
         0.03212    0.00406   -0.00009    0.01597
AFIX  43
H5A   2    0.377587    0.035191    1.093540    11.00000   -1.20000
AFIX   0
N6    3    0.430713   -0.049022    1.009292    11.00000    0.04049    0.02831 =
         0.03127    0.00282    0.00005    0.00523
CU2   5    0.709913    0.294492    0.839670    11.00000    0.03722    0.02973 =
         0.02835   -0.00066    0.00462   -0.00579

HKLF 4

REM  a in P2(1)2(1)2(1)
REM R1 =  0.0398 for    5940 Fo > 4sig(Fo)  and  0.0515 for all    6785 data
REM    379 parameters refined using      0 restraints

END

WGHT      0.0688      0.0000

REM Highest difference peak  0.611,  deepest hole -0.739,  1-sigma level  0.239
Q1    1   0.8756 -0.0159  0.9951  11.00000  0.05    0.61
Q2    1   0.3387 -0.2427  1.2511  11.00000  0.05    0.61
Q3    1   0.6056  0.0316  1.4085  11.00000  0.05    0.58
Q4    1   0.6761  0.0381  1.4343  11.00000  0.05    0.56
Q5    1   0.4470  0.4670  0.9960  11.00000  0.05    0.56
Q6    1   0.4747  0.4728  1.0816  11.00000  0.05    0.56
Q7    1   0.9367 -0.0575  0.9597  11.00000  0.05    0.54
Q8    1   0.8635  0.0363  1.0203  11.00000  0.05    0.54
Q9    1   0.4342 -0.4231  1.0924  11.00000  0.05    0.53
Q10   1   0.4471  0.4030  1.0863  11.00000  0.05    0.52
Q11   1   0.4052  0.4606  1.0520  11.00000  0.05    0.52
Q12   1   0.7207  0.1252  1.2329  11.00000  0.05    0.50
Q13   1   0.8653  0.1382  1.0997  11.00000  0.05    0.49
Q14   1   0.6963  0.2015  1.2625  11.00000  0.05    0.49
Q15   1   0.7200  0.2182  1.2337  11.00000  0.05    0.49
Q16   1   0.4213  0.4679  1.1205  11.00000  0.05    0.49
Q17   1   0.3187 -0.2230  1.2873  11.00000  0.05    0.49
Q18   1   1.0179  0.4691  0.4896  11.00000  0.05    0.48
Q19   1   0.5926 -0.0131  1.3432  11.00000  0.05    0.48
Q20   1   0.5621  0.4607  1.0595  11.00000  0.05    0.48
;
_shelx_res_checksum              39820
_shelx_hkl_file
;
   0   0  -3   -0.76    1.62
   0   0  -3    1.40    0.67
   0   0   3   -0.54    1.31
   0   0  -3   -0.29    1.04
   0   0  -4   19.00    5.46
   0   0  -4   27.80    6.26
   0   0   4   19.54    4.55
   0   0  -5   -0.91    2.65
   0   0  -5   -1.65    4.88
   0   0   5    1.18    1.52
   0   0  -6   98.26    4.08
   0   0  -6   99.80   10.65
   0   0   6  105.01    5.13
   0   0  -7   -3.19    2.75
   0   0  -7   -1.35    4.66
   0   0   7    1.90    2.26
   0   0  -8  538.29    8.74
   0   0  -8  534.23   10.03
   0   0   8  561.93    7.87
   0   0  -9   -0.01    2.72
   0   0  -9   -5.04    5.18
   0   0   9    2.55    1.55
   0   0 -10   27.83    8.96
   0   0 -10   31.06    7.81
   0   0  10   32.86    9.42
   0   0 -11    3.08    1.98
   0   0 -11    2.17    4.70
   0   0  11    3.88    2.16
   0   0 -12 3578.89   24.14
   0   0 -12 3466.63   88.46
   0   0  12 3624.16   27.10
   0   0 -13    2.58    3.54
   0   0 -13    6.08    5.52
   0   0  13    4.70    3.00
   0   0 -14   25.55    6.33
   0   0 -14   22.77    7.88
   0   0  14   21.09    4.29
   0   0 -15   -2.51    3.72
   0   0 -15    6.80    4.45
   0   0  15    2.40    2.21
   0   0 -16   96.26   22.16
   0   0 -16   93.07   36.95
   0   0  16   88.76    8.59
   0   0 -17   -0.17    4.34
   0   0 -17    6.39    8.90
   0   0 -18    7.89    3.81
   0   0 -18   21.04   12.04
   0   0 -19    2.47    2.22
   0   0 -19   -1.41    6.76
   0   0 -20   19.75    6.25
   0   0 -20   30.89   10.93
   0   0 -21    1.86    3.00
   0   0 -21    4.32    8.05
   0  -1  -2   26.59    3.21
   0  -1   2   53.17    4.47
   0   1  -3  222.05    8.05
   0  -1  -3  220.75    7.96
   0   1  -3  217.95    8.59
   0  -1   3  213.80    7.38
   0   1  -3  221.42    7.46
   0   1   3  230.61    8.40
   0   1  -4  817.38   14.86
   0  -1  -4  798.86   14.28
   0   1  -4  837.03   16.38
   0  -1  -4  765.78   14.69
   0  -1   4  805.88   13.44
   0   1  -4  787.09   13.12
   0   1  -5  374.66   13.53
   0  -1  -5  357.05   12.65
   0   1  -5  353.21   13.64
   0  -1  -5  372.85   13.81
   0  -1   5  366.38   13.48
   0   1   5  382.24   14.42
   0   1  -6  137.12   12.48
   0  -1  -6  139.94    4.41
   0   1  -6  136.15   14.83
   0  -1  -6  135.19    8.73
   0  -1   6  127.23    5.49
   0   1   6  134.35    3.96
   0   1  -7   18.30    6.74
   0  -1  -7   14.32    2.47
   0   1  -7   20.68    5.00
   0  -1  -7   25.05    6.46
   0  -1   7   17.60    1.73
   0   1   7   19.97    7.88
   0   1  -8   91.26    7.45
   0  -1  -8   86.18   10.57
   0   1  -8  112.02    9.25
   0  -1  -8   86.52    7.94
   0  -1   8   88.53    6.48
   0   1   8   77.46    7.86
   0   1  -9  669.76   20.01
   0  -1  -9  662.51   20.03
   0   1  -9  635.57   20.38
   0  -1  -9  676.38   21.31
   0  -1   9  646.03   18.45
   0   1   9  680.35   20.11
   0   1 -10  383.73    7.73
   0  -1 -10  375.01    7.40
   0   1 -10  385.76   10.96
   0  -1 -10  387.26   11.07
   0  -1  10  370.21    5.49
   0   1  10  392.59    9.16
   0   1 -11  239.68   13.88
   0  -1 -11  213.18   12.66
   0   1 -11  203.34   13.30
   0  -1 -11  212.09   13.84
   0  -1  11  217.75   15.39
   0   1  11  233.30   15.92
   0   1 -12  125.81    9.69
   0  -1 -12  103.95   11.50
   0   1 -12  125.03   33.12
   0  -1 -12   99.76   19.35
   0  -1  12  123.05    8.09
   0   1  12   97.03    8.21
   0   1 -13  575.87   21.78
   0  -1 -13  589.18   21.94
   0   1 -13  621.76   26.46
   0  -1 -13  588.25   24.74
   0  -1  13  604.48   23.12
   0   1  13  560.73   23.37
   0   1 -14   80.77    7.22
   0  -1 -14   85.03    7.69
   0   1 -14   73.59   19.88
   0  -1 -14   68.94   24.19
   0  -1  14   69.88    5.94
   0   1  14   72.91    8.76
   0   1 -15    9.63    5.10
   0  -1 -15    8.89    3.03
   0   1 -15    5.17    3.06
   0  -1 -15    5.69    8.66
   0  -1  15    9.96    3.97
   0   1  15   10.30    3.10
   0   1 -16    6.57    2.48
   0  -1 -16    7.29    3.17
   0   1 -16   -2.61    8.18
   0  -1 -16    5.25    4.08
   0   1  16    4.84    3.06
   0   1 -17   15.12    5.31
   0  -1 -17   21.51    5.14
   0   1 -17   10.13   10.68
   0  -1 -17    8.12    6.84
   0   1  17   12.26    4.42
   0   1 -18   -0.57    4.79
   0  -1 -18    4.68    4.72
   0   1 -18   10.59    8.53
   0   1 -19   31.23    9.27
   0  -1 -19   22.23    5.70
   0   1 -19   17.23   13.82
   0  -1 -19   32.47    8.08
   0   1 -20   36.24   13.15
   0  -1 -20   39.51   17.60
   0   1 -20   46.52   21.83
   0  -1 -20   55.76    9.48
   0   1 -21   27.42   13.26
   0  -1 -21   42.55   16.37
   0   1 -21   40.11   20.56
   0  -1 -21   35.77   17.16
   0  -2   0   -1.54    1.73
   0   2   0    0.17    1.36
   0   2   0   -3.39    1.63
   0  -2   1   44.30    4.86
   0   2   1   57.24    1.92
   0   2  -2  573.06   19.15
   0  -2  -2  629.71   20.99
   0   2  -2  589.91   19.76
   0   2  -3 1353.24   23.03
   0  -2  -3 1278.73   21.57
   0   2  -3 1305.51   22.89
   0   2  -3 1339.64   21.39
   0   2   3 1299.58   22.48
   0   2  -4  191.13   12.57
   0  -2  -4  187.83   12.23
   0   2  -4  184.75    5.06
   0   2  -4  188.67   11.72
   0   2   4  185.47   13.43
   0   2  -5 1621.90   27.48
   0  -2  -5 1573.87   26.36
   0   2  -5 1628.39   27.94
   0  -2   5 1684.98   27.11
   0   2  -5 1631.79   26.18
   0   2   5 1644.12   28.01
   0   2  -6 2333.08   38.74
   0  -2  -6 2295.15   37.88
   0   2  -6 2388.55   40.29
   0  -2  -6 2365.10   39.57
   0  -2   6 2398.78   38.26
   0   2  -7  122.24    9.11
   0  -2  -7  109.76    7.74
   0   2  -7  125.01   10.03
   0  -2  -7  117.19   10.53
   0  -2   7  123.98    8.06
   0   2   7  114.37    8.15
   0   2  -8    4.30    2.65
   0  -2  -8   -0.66    2.76
   0   2  -8    4.53    3.43
   0  -2  -8    4.30    4.37
   0  -2   8    1.39    1.51
   0   2   8    1.60    2.70
   0   2  -9  147.13    4.99
   0  -2  -9  165.24   10.27
   0   2  -9  145.87    8.43
   0  -2  -9  144.81    7.97
   0  -2   9  173.36    8.22
   0   2   9  148.46    5.17
   0   2 -10 1169.97   36.16
   0  -2 -10 1202.60   34.91
   0   2 -10 1188.10   36.00
   0  -2 -10 1194.65   35.83
   0  -2  10 1377.97   39.04
   0   2  10 1220.92   35.51
   0   2 -11  291.12   16.34
   0  -2 -11  311.11    8.85
   0   2 -11  290.47   22.19
   0  -2 -11  300.93   11.30
   0  -2  11  318.50    7.27
   0   2  11  310.19    8.52
   0   2 -12   30.57   11.57
   0  -2 -12   34.34    7.72
   0   2 -12   29.40    9.56
   0  -2 -12   29.49    9.23
   0  -2  12   25.55    4.32
   0   2  12   22.80    5.33
   0   2 -13   53.60   17.03
   0  -2 -13   53.96   15.42
   0   2 -13   43.10   10.44
   0  -2 -13   60.04   12.36
   0  -2  13   51.57    6.71
   0   2  13   56.95    5.88
   0   2 -14   12.12    5.84
   0  -2 -14   11.23    4.68
   0   2 -14   12.07    8.18
   0  -2 -14   28.47    7.62
   0  -2  14   20.64    6.87
   0   2  14   21.19    6.96
   0   2 -15  170.82   21.60
   0  -2 -15  158.76   10.79
   0   2 -15  159.82   10.80
   0  -2 -15  136.91   10.16
   0  -2  15  150.31    6.71
   0   2  15  154.51   11.03
   0   2 -16   -2.01    4.40
   0  -2 -16    4.79    3.11
   0   2 -16    3.26    5.09
   0  -2 -16    4.62    8.04
   0   2  16    1.80    1.48
   0   2 -17   72.37   16.99
   0  -2 -17   79.62   18.03
   0   2 -17   58.78   25.14
   0  -2 -17   71.86   46.62
   0   2  17   62.29    8.03
   0   2 -18  275.26   21.91
   0  -2 -18  269.20   20.77
   0   2 -18  243.49   40.63
   0  -2 -18  270.35   14.02
   0   2  18  243.58   23.43
   0   2 -19    8.74    6.07
   0  -2 -19   -1.34    4.33
   0   2 -19    2.44    6.99
   0  -2 -19   18.11    7.15
   0   2 -20    4.69    4.39
   0  -2 -20    2.34    3.86
   0   2 -20   -0.77    7.46
   0  -2 -20    0.68    7.19
   0   2 -21   28.09   11.31
   0  -2 -21   32.93   17.97
   0   2 -21   32.64   17.26
   0  -2 -21   34.19   15.32
   0  -3   0    0.75    1.67
   0   3   0    1.39    3.90
   0  -3  -1    9.77    4.13
   0  -3   1    8.00    3.48
   0   3   1    8.65    6.64
   0   3  -1    6.55    5.72
   0  -3  -2  197.26    9.05
   0  -3   2  198.88    9.51
   0   3   2  194.88    8.37
   0   3  -2  193.37    8.85
   0  -3  -3  717.14   13.64
   0  -3   3  680.57   41.45
   0   3  -3  679.32   41.40
   0   3   3  689.58   13.92
   0   3  -4    2.51    2.61
   0  -3  -4   -2.38    3.61
   0   3  -4   -0.52    4.04
   0   3   4   -2.06    4.28
   0   3  -5 1293.08   22.90
   0  -3  -5 1311.86   22.66
   0   3  -5 1340.92   24.05
   0   3  -5 1336.64   21.67
   0   3   5 1289.85   23.03
   0   3  -6  899.00   16.90
   0  -3  -6  851.63   15.98
   0   3  -6  869.07   17.07
   0   3   6  869.49   16.83
   0   3  -7  403.86    8.36
   0  -3  -7  409.58    7.73
   0   3  -7  408.72    9.10
   0   3   7  439.90    8.83
   0   3  -8   66.82    5.81
   0  -3  -8   62.69    9.72
   0   3  -8   60.36    6.23
   0  -3  -8   58.12    7.14
   0   3   8   65.39   19.62
   0   3  -9   67.23    8.42
   0  -3  -9   67.02    9.10
   0   3  -9   59.23    6.40
   0  -3  -9   65.67    6.91
   0  -3   9   67.08    3.02
   0   3   9   76.36    5.01
   0   3 -10 1086.60   19.86
   0  -3 -10 1030.94   17.81
   0   3 -10 1026.74   30.06
   0  -3 -10 1056.56   19.87
   0  -3  10 1053.89   16.67
   0   3  10 1044.30   19.94
   0   3 -11  130.18   12.52
   0  -3 -11  129.95    9.41
   0   3 -11  143.83   16.53
   0  -3 -11  148.46   21.34
   0  -3  11  134.87   10.88
   0   3  11  132.04    8.66
   0   3 -12    6.94    2.77
   0  -3 -12    3.85    3.73
   0   3 -12    7.11    3.69
   0  -3 -12    6.44    7.07
   0  -3  12   11.97    3.60
   0   3  12   12.80    6.15
   0   3 -13  125.05    6.87
   0  -3 -13  132.09   12.20
   0   3 -13  131.90   38.32
   0  -3 -13  122.27   38.29
   0  -3  13  112.28   11.33
   0   3  13  109.17   11.48
   0   3 -14  242.83   19.35
   0  -3 -14  255.99   18.85
   0   3 -14  280.83   19.64
   0  -3 -14  233.18   18.20
   0  -3  14  252.65   15.76
   0   3  14  250.79   19.70
   0   3 -15   61.42   20.81
   0  -3 -15   50.68   18.98
   0   3 -15   72.01   12.46
   0  -3 -15   63.19   10.02
   0   3  15   67.81    6.55
   0   3 -16    9.81    4.05
   0  -3 -16    9.45    4.31
   0   3 -16    4.84    6.35
   0  -3 -16    2.86    7.15
   0   3  16    8.85    3.02
   0   3 -17   59.14   13.35
   0  -3 -17   52.82   22.70
   0   3 -17   52.30   11.20
   0  -3 -17   54.29   13.37
   0   3  17   51.04   14.23
   0   3 -18   92.63   20.40
   0  -3 -18  106.49   13.25
   0   3 -18   86.04   28.79
   0  -3 -18  108.56   12.35
   0   3  18  106.69   10.36
   0   3 -19   59.70   26.98
   0  -3 -19   65.63   23.11
   0   3 -19   75.31   26.27
   0  -3 -19   55.14   20.27
   0   3 -20    4.38    3.77
   0  -3 -20    4.51    2.88
   0   3 -20   -4.56    7.23
   0  -3 -20    6.29    4.22
   0  -4   0    7.81    5.98
   0   4   0   11.24    5.57
   0  -4  -1 3320.88   53.71
   0  -4   1 3344.61   54.09
   0   4   1 3283.35   53.08
   0   4  -1 3411.59   54.93
   0  -4  -2  726.38   14.00
   0  -4   2  726.72   14.07
   0   4   2  748.21   14.20
   0   4  -2  733.29   14.05
   0  -4  -3 1392.86   24.20
   0  -4   3 1483.38   25.67
   0   4  -3 1402.32   24.34
   0  -4  -4  376.23   13.71
   0  -4   4  394.20   14.50
   0   4  -4  382.53   16.59
   0   4   4  396.95   14.77
   0   4  -5    6.65    4.62
   0  -4  -5    5.15    3.57
   0   4  -5   12.96    4.39
   0   4   5   11.48    4.29
   0   4  -6  482.96    8.57
   0  -4  -6  514.15    8.48
   0   4  -6  492.50    9.50
   0   4   6  499.05    9.38
   0   4  -7   41.42   12.86
   0  -4  -7   48.18    5.21
   0   4  -7   37.33   13.88
   0   4   7   46.82    8.61
   0   4  -8   25.74    7.47
   0  -4  -8   20.65    7.81
   0   4  -8   26.92    5.81
   0   4   8   24.42    5.81
   0   4  -9    3.98    2.08
   0  -4  -9    1.73    2.06
   0   4  -9    0.57    3.56
   0   4   9    2.57    1.87
   0   4 -10   24.06    6.30
   0  -4 -10   33.76    4.78
   0   4 -10   24.93   15.53
   0  -4 -10   20.77   10.28
   0   4  10   26.82    8.93
   0   4 -11 1228.29   34.92
   0  -4 -11 1248.64   33.33
   0   4 -11 1242.84   34.88
   0  -4 -11 1212.28   33.65
   0   4  11 1220.68   32.43
   0   4 -12  611.96   23.34
   0  -4 -12  578.30   21.57
   0   4 -12  590.99   23.87
   0  -4 -12  615.96   25.82
   0   4  12  583.06   22.10
   0   4 -13  237.55   26.21
   0  -4 -13  226.05   26.04
   0   4 -13  221.14   31.90
   0  -4 -13  212.14   12.98
   0   4  13  221.84   10.11
   0   4 -14   46.85   11.14
   0  -4 -14   35.31   11.25
   0   4 -14   29.16   10.66
   0  -4 -14   38.05   13.36
   0   4  14   31.05    8.77
   0   4 -15  108.19   12.22
   0  -4 -15  104.16    7.10
   0   4 -15   89.71    8.10
   0  -4 -15   91.56   30.62
   0   4  15  113.99   15.70
   0   4 -16   76.45   17.84
   0  -4 -16   94.34    8.21
   0   4 -16   86.25   23.13
   0  -4 -16   82.31   10.78
   0   4  16   87.53   11.31
   0   4 -17   11.19    4.47
   0  -4 -17   19.78    6.20
   0   4 -17    7.57    7.65
   0  -4 -17   11.30    7.14
   0   4  17   13.28    4.91
   0   4 -18    9.10    3.71
   0  -4 -18    7.44    4.17
   0   4 -18   10.03    7.54
   0  -4 -18    4.19    8.30
   0   4  18    8.44    2.36
   0   4 -19    7.66    4.94
   0  -4 -19    6.42    3.04
   0   4 -19    2.29    5.65
   0  -4 -19    9.75    6.39
   0   4  19    6.18    2.19
   0   4 -20   12.17    6.96
   0  -4 -20    8.62    3.46
   0   4 -20   18.26    7.67
   0  -4 -20   18.46    7.52
   0  -5   0   -3.58    4.07
   0   5   0    2.48    2.47
   0  -5  -1   83.02    6.18
   0  -5   1   89.92   15.90
   0   5   1   86.94    5.05
   0   5  -1   73.65    3.90
   0  -5  -2    1.35    2.20
   0  -5   2    1.82    3.54
   0   5   2    3.01    2.16
   0   5  -2    3.86    2.25
   0  -5  -3  335.29   14.75
   0  -5   3  328.51   12.77
   0   5   3  322.41   12.53
   0   5  -3  328.58   12.59
   0  -5  -4  217.02    9.52
   0  -5   4  229.88   10.48
   0   5  -4  194.13    9.04
   0   5   4  211.92    9.03
   0  -5  -5 1182.49   33.54
   0  -5   5 1201.37   34.10
   0   5  -5 1194.93   34.03
   0   5   5 1212.26   34.49
   0  -5  -6    4.62    2.85
   0  -5   6    7.60    5.53
   0   5  -6   14.71    4.78
   0   5   6    5.55    3.10
   0   5  -7  372.82    9.90
   0  -5  -7  376.37    7.95
   0   5  -7  392.50   10.58
   0   5   7  375.53   12.84
   0   5  -8 1142.85   33.65
   0  -5  -8 1159.23   33.72
   0   5  -8 1139.78   34.37
   0   5   8 1150.50   34.24
   0   5  -9   28.19    6.77
   0  -5  -9   27.08    3.82
   0   5  -9   31.63   10.90
   0   5   9   44.80   13.24
   0   5 -10  117.63    9.59
   0  -5 -10  120.67    8.98
   0   5 -10  126.98   17.15
   0   5  10  121.97   11.53
   0   5 -11  296.86   14.31
   0  -5 -11  301.72   18.09
   0   5 -11  277.35   16.15
   0  -5 -11  288.08   14.48
   0   5  11  284.60   12.09
   0   5 -12   40.56   12.76
   0  -5 -12   38.96    8.30
   0   5 -12   33.62   11.42
   0  -5 -12   36.20    9.44
   0   5  12   36.40   10.09
   0   5 -13    1.89    3.45
   0  -5 -13    5.70    3.10
   0   5 -13    5.24    7.65
   0  -5 -13   16.13    6.45
   0   5  13    3.84    3.42
   0   5 -14  100.38   17.99
   0  -5 -14   85.13    9.40
   0   5 -14   88.79    9.92
   0  -5 -14   79.26   10.37
   0   5  14   91.51   12.89
   0   5 -15    7.63    7.10
   0  -5 -15   -1.31    3.16
   0   5 -15    4.68    7.15
   0  -5 -15    4.24    5.41
   0   5  15    7.46    5.42
   0   5 -16   66.74   18.19
   0  -5 -16   57.71   20.69
   0   5 -16   93.22   11.85
   0  -5 -16   66.50   23.31
   0   5  16   60.97   21.23
   0   5 -17  113.49   28.55
   0  -5 -17  109.45   16.87
   0   5 -17  114.63   24.65
   0  -5 -17  114.96   18.63
   0   5  17  119.10    8.78
   0   5 -18   35.54   10.44
   0  -5 -18   33.76   14.81
   0   5 -18   41.11   19.18
   0   5  18   43.80    8.89
   0   5 -19    4.72    5.52
   0  -5 -19    2.64    4.32
   0   5 -19   10.94    8.68
   0  -5 -19    9.77    6.29
   0   5  19    8.49    4.60
   0   5 -20   69.75   10.30
   0  -5 -20   63.06   25.30
   0   5 -20   56.66   16.87
   0  -5 -20   60.26   15.25
   0   5  20   77.56   12.18
   0  -6   0  465.14   17.02
   0   6   0  483.00   17.34
   0  -6  -1  740.17   15.21
   0  -6   1  759.32   14.99
   0   6   1  762.45   15.11
   0   6  -1  774.90   15.30
   0  -6  -2  289.63   12.17
   0  -6   2  296.99   18.71
   0   6   2  279.22   15.84
   0   6  -2  310.53   11.98
   0  -6  -3  636.20   19.39
   0  -6   3  624.59   18.94
   0   6   3  616.10    8.40
   0   6  -3  606.22    9.11
   0  -6  -4   19.67    6.05
   0  -6   4   21.55    9.46
   0   6  -4   28.85    9.80
   0   6   4   19.19   10.13
   0  -6  -5 2173.19   59.86
   0  -6   5 2001.60   55.77
   0   6  -5 2036.01   56.40
   0   6   5 2072.88   57.78
   0  -6  -6   37.83   13.34
   0  -6   6   29.64    8.83
   0   6  -6   31.81    9.93
   0   6   6   42.80    7.15
   0  -6  -7 2131.50   61.86
   0  -6   7 2095.02   60.43
   0   6  -7 2246.99   22.05
   0   6   7 2071.41   60.74
   0  -6  -8   96.25    5.84
   0  -6   8   90.50    6.33
   0   6  -8  102.77   12.18
   0   6   8   93.86    7.06
   0  -6  -9 1646.73   19.54
   0  -6   9 1567.18   27.11
   0   6  -9 1552.50   27.91
   0   6   9 1578.71   28.35
   0   6 -10   44.12   15.65
   0  -6 -10   32.41   12.26
   0   6 -10   38.05    9.23
   0   6  10  274.83   88.95
   0   6 -11  260.94   21.37
   0  -6 -11  260.15   12.55
   0   6 -11  272.08   15.27
   0   6  11  248.96   19.81
   0   6 -12  160.63   13.10
   0  -6 -12  154.43   11.31
   0   6 -12  161.30    9.55
   0  -6 -12  150.19    8.25
   0   6  12  168.39    9.68
   0   6 -13   34.44   10.25
   0  -6 -13   27.35    6.37
   0   6 -13   27.29    9.15
   0  -6 -13   26.01    5.83
   0   6  13   21.01    7.81
   0   6 -14    5.08    4.78
   0  -6 -14    3.50    2.90
   0   6 -14   -1.58    6.97
   0  -6 -14   10.43    6.90
   0   6  14    1.26    3.43
   0   6 -15  163.82   15.02
   0  -6 -15  151.55   16.44
   0   6 -15  152.09   31.12
   0  -6 -15  147.84   17.70
   0   6  15  144.91   20.90
   0   6 -16   39.36   18.47
   0  -6 -16   44.84    7.91
   0   6 -16   26.60   17.28
   0  -6 -16   42.26   12.96
   0   6  16   34.34   11.84
   0   6 -17   97.45   32.65
   0  -6 -17   86.79    9.42
   0   6 -17   91.70   35.31
   0  -6 -17   89.84   28.97
   0   6  17  115.96   15.71
   0   6 -18    0.96    6.04
   0  -6 -18    4.74    4.29
   0   6 -18    0.39    5.41
   0  -6 -18    7.41    6.74
   0   6  18    2.85    3.40
   0   6 -19   27.90   17.77
   0  -6 -19   42.60   12.89
   0   6 -19   50.31   12.74
   0  -6 -19   48.52    9.91
   0   6  19   35.90    9.53
   0   6 -20    4.64    6.66
   0  -6 -20   -2.87    4.11
   0   6 -20   -6.60    7.98
   0  -6 -20    3.28    5.89
   0   6  20   -1.69    4.19
   0  -7   0    5.26    3.00
   0   7   0    1.74    2.90
   0  -7  -1   72.60   10.95
   0  -7   1   64.06    5.87
   0   7   1   70.75    6.82
   0   7  -1   53.02    5.05
   0  -7  -2   86.51    7.24
   0  -7   2   88.47   14.26
   0   7   2  106.07    9.66
   0   7  -2  110.36    8.92
   0  -7  -3  141.00   10.26
   0  -7   3  168.72    7.48
   0   7   3  171.05    6.37
   0   7  -3  159.81   11.17
   0  -7  -4  446.15    9.54
   0  -7   4  441.41    9.39
   0   7   4  450.77    8.76
   0   7  -4  415.13    9.03
   0   7   4  441.16    9.21
   0  -7  -5  319.03   12.65
   0  -7   5  301.64    8.36
   0   7  -5  299.52   16.23
   0   7   5  293.85    7.94
   0  -7  -6   25.75    8.11
   0  -7   6   26.74    5.28
   0   7  -6   38.40   10.28
   0   7   6   39.11   10.53
   0  -7  -7   15.91    4.06
   0  -7   7   10.57    7.90
   0   7  -7    7.92    6.62
   0   7   7    7.75    6.72
   0  -7  -8  750.35   15.48
   0  -7   8  766.11   17.34
   0   7  -8  772.68   18.31
   0   7   8  758.60   17.40
   0  -7  -9    5.83    5.15
   0  -7   9    3.38    3.32
   0   7  -9    3.29    5.89
   0   7   9   -1.97    6.21
   0  -7 -10   -0.46    5.59
   0  -7  10    5.36    3.98
   0   7 -10    0.54    5.52
   0   7  10   13.48    6.63
   0  -7 -11   99.55   16.31
   0  -7  11  103.75   18.62
   0   7 -11  101.45    8.19
   0   7  11  129.63   16.54
   0  -7 -12    5.83    4.85
   0  -7  12    4.05    5.65
   0   7 -12    5.84    4.01
   0   7  12    5.96    2.67
   0  -7 -13  232.70   19.24
   0  -7  13  252.29   11.41
   0   7 -13  205.52   28.07
   0  -7 -13  225.21   21.11
   0   7  13  234.71   11.13
   0  -7 -14   64.04    6.58
   0  -7  14   77.84   15.57
   0   7 -14   71.49   30.88
   0  -7 -14   62.92   29.24
   0   7  14   69.15   32.04
   0  -7 -15   25.48   17.13
   0  -7  15   20.10   15.29
   0   7 -15   26.48   10.29
   0  -7 -15   25.67    7.65
   0   7  15   28.04    7.53
   0  -7 -16   12.70    8.03
   0  -7  16   14.35    7.96
   0   7 -16   14.81    7.24
   0  -7 -16   18.08    8.83
   0   7  16   12.98    5.80
   0  -7 -17  185.20   24.04
   0  -7  17  186.35    9.90
   0   7 -17  169.98   25.35
   0  -7 -17  160.04   31.46
   0   7  17  159.50   11.93
   0  -7 -18   31.60   11.54
   0  -7  18   46.07   10.97
   0   7 -18    8.49    7.85
   0  -7 -18   26.90    9.19
   0   7  18   20.53    9.73
   0  -7 -19    2.51    2.63
   0  -7  19    3.90    3.52
   0   7 -19    8.83    8.57
   0  -7 -19   -8.57    6.89
   0   7  19   -1.53    5.01
   0  -8   0  588.78   10.50
   0   8   0  564.49   10.07
   0  -8  -1  566.75   11.25
   0  -8   1  519.54   10.84
   0   8   1  571.20   10.97
   0   8  -1  573.94   10.74
   0  -8  -2  789.83   24.20
   0  -8   2  788.64   24.24
   0   8   2  763.42   23.02
   0   8  -2  778.31   23.52
   0  -8  -3  853.54   26.60
   0  -8   3  860.32   26.58
   0   8   3  855.47   25.97
   0   8  -3  865.27   26.63
   0  -8  -4  123.96    7.69
   0  -8   4  119.95   16.39
   0   8   4  141.21    6.89
   0   8  -4  110.81    6.19
   0   8   4  142.34    8.68
   0  -8  -5    6.03    3.48
   0  -8   5   -2.01    5.46
   0   8  -5    5.87    3.51
   0   8   5    3.20    3.73
   0  -8  -6   31.12   13.83
   0  -8   6   42.59   11.24
   0   8  -6   41.73   11.67
   0   8   6   44.00   11.91
   0  -8  -7   27.71    8.56
   0  -8   7   39.74   24.08
   0   8  -7   39.67   13.75
   0   8   7   35.99    7.65
   0  -8  -8    6.89    5.69
   0  -8   8    9.68    8.03
   0   8  -8   -2.19    7.64
   0   8   8    1.56    4.78
   0  -8  -9   73.76    7.42
   0  -8   9   66.91    7.55
   0   8  -9   63.34   26.07
   0   8   9   76.60   29.72
   0  -8 -10    7.35    3.86
   0  -8  10    4.45    4.11
   0   8 -10    5.25    3.80
   0   8  10    4.54    4.31
   0  -8 -11  171.77   12.54
   0  -8  11  175.96   14.21
   0   8 -11  179.45   27.99
   0   8  11  246.23   19.70
   0  -8 -12  197.02   18.39
   0  -8  12  196.25   14.29
   0   8 -12  206.15   21.39
   0   8  12  198.62   12.98
   0  -8 -13  331.11   10.72
   0  -8  13  338.95   12.44
   0   8 -13  379.70   15.15
   0   8  13  306.83   11.16
   0  -8 -14   -0.33    5.05
   0  -8  14    1.14    3.97
   0   8 -14    6.15    3.96
   0  -8 -14    0.12    5.81
   0   8  14   -3.24    6.27
   0  -8 -15  326.97   11.52
   0  -8  15  321.68   27.48
   0   8 -15  307.04   20.63
   0  -8 -15  359.61   15.98
   0   8  15  299.44   13.34
   0  -8 -16   41.94   20.04
   0  -8  16   55.20   21.99
   0   8 -16   39.36   18.14
   0  -8 -16   53.23   11.53
   0   8  16   49.55   22.07
   0  -8 -17   27.63   10.11
   0  -8  17   26.97    9.06
   0   8 -17   18.37   12.43
   0  -8 -17   47.06    9.88
   0   8  17   17.49    8.54
   0  -8 -18    6.95    5.00
   0  -8  18   27.35    8.05
   0   8 -18   29.05   20.19
   0  -8 -18   13.30   10.54
   0   8  18   14.61    6.90
   0  -8 -19   30.53   13.53
   0  -8  19   28.06   15.65
   0   8 -19   29.79   15.61
   0  -8 -19   24.78   13.42
   0   8  19   20.56    8.73
   0  -9   0   -1.37    5.46
   0   9   0    4.49    4.43
   0  -9  -1   75.29   13.16
   0  -9   1   57.30   21.50
   0   9   1   78.03    6.32
   0   9  -1   63.03   22.65
   0  -9  -2  626.38   21.30
   0  -9   2  632.22   21.53
   0   9   2  599.72   21.06
   0   9  -2  616.31   20.51
   0  -9  -3  618.00   15.07
   0  -9   3  585.38   15.04
   0   9   3  615.96   13.93
   0   9  -3  622.24   14.81
   0  -9  -4   68.09    9.85
   0  -9   4   59.16   24.74
   0   9   4   63.10   21.52
   0   9  -4   70.43   22.14
   0   9   4   68.29   27.46
   0  -9  -5  926.63   19.62
   0  -9   5  892.72   19.21
   0   9  -5  853.20   18.23
   0   9   5  898.10   20.85
   0  -9  -6  133.37   23.72
   0  -9   6  120.66   15.85
   0   9  -6  100.53   19.52
   0   9   6  110.09   11.72
   0  -9  -7  330.86   19.73
   0  -9   7  309.29   14.64
   0   9  -7  320.09   25.12
   0   9   7  313.56   13.84
   0  -9  -8    8.63    4.95
   0  -9   8   18.71    6.75
   0   9  -8   18.82    9.59
   0   9   8   16.87    8.00
   0  -9  -9   51.60   19.59
   0  -9   9   51.78   16.45
   0   9  -9   45.30   17.06
   0   9   9   45.19   13.98
   0  -9 -10  251.04   22.29
   0  -9  10  260.64   34.80
   0   9 -10  245.85   17.28
   0   9  10  260.93   22.19
   0  -9 -11   28.14    7.19
   0  -9  11   23.17   10.77
   0   9 -11   25.18   14.64
   0   9  11  168.69   96.41
   0  -9 -12    7.45    5.27
   0  -9  12    6.05    7.05
   0   9 -12    4.40    4.58
   0   9  12    3.29    3.60
   0  -9 -13    2.47    3.04
   0  -9  13    0.27    4.99
   0   9 -13   -4.90    8.98
   0   9  13    4.03    6.67
   0  -9 -14   89.28   25.98
   0  -9  14  101.62   35.01
   0   9 -14   78.82   26.86
   0  -9 -14   82.23   11.06
   0   9  14  100.07   18.26
   0  -9 -15   18.05    9.22
   0  -9  15   22.89   14.04
   0   9 -15   29.68   11.79
   0  -9 -15   24.15   10.95
   0   9  15   20.92    7.33
   0  -9 -16    1.49    3.27
   0  -9  16   -2.27    6.25
   0   9 -16    1.46   10.19
   0  -9 -16   -3.61    6.54
   0   9  16   -2.52    4.90
   0  -9 -17   23.60   13.04
   0  -9  17   27.31   12.47
   0   9 -17   33.84   12.55
   0  -9 -17   41.39   15.47
   0   9  17   35.71   15.65
   0  -9 -18    9.56    6.20
   0  -9  18    9.81    9.61
   0   9 -18   10.80   10.24
   0  -9 -18   10.37    9.26
   0   9  18    9.83    6.54
   0 -10   0    9.03    7.40
   0  10   0   13.96    7.53
   0 -10  -1    2.52    7.51
   0 -10   1    4.51    4.70
   0  10   1    5.60    3.32
   0  10  -1    3.33    5.88
   0 -10  -2  435.54   27.02
   0 -10   2  460.39   15.32
   0  10   2  470.70   13.22
   0  10  -2  471.50   14.85
   0 -10  -3  245.85   21.98
   0 -10   3  237.56   12.33
   0  10   3  199.93   12.62
   0  10  -3  224.01   15.39
   0  10   3  221.72   15.82
   0 -10  -4   42.88   10.31
   0 -10   4   27.70   15.19
   0  10   4   21.53    9.54
   0  10  -4   27.44   11.75
   0  10   4   31.45   10.56
   0 -10  -5  180.96   14.75
   0 -10   5  193.20   14.41
   0  10  -5  208.78   28.09
   0  10   5  185.57   13.12
   0 -10  -6  511.27   21.70
   0 -10   6  529.86   22.87
   0  10  -6  533.28   20.49
   0  10   6  485.28   29.77
   0 -10  -7    3.79    5.52
   0 -10   7    1.22    4.21
   0  10  -7    5.29    4.56
   0  10   7    5.51    6.28
   0 -10  -8    5.26    4.18
   0 -10   8    6.28    3.92
   0  10  -8   -0.35    5.47
   0  10   8    4.20    3.64
   0 -10  -9  229.45   16.00
   0 -10   9  240.78   17.34
   0  10  -9  225.19   15.09
   0  10   9  237.27   27.43
   0 -10 -10  292.48   19.59
   0 -10  10  316.06   14.28
   0  10  10  312.40   14.52
   0 -10 -11   71.41    5.91
   0 -10  11   75.18   32.05
   0  10 -11   71.04   26.76
   0  10  11  101.04   51.82
   0 -10 -12    4.68    4.41
   0 -10  12    4.91    6.23
   0  10 -12   16.18    6.75
   0  10  12   12.98    7.78
   0 -10 -13   26.08   15.88
   0 -10  13   16.09    9.97
   0  10 -13   26.96   12.35
   0  10  13   20.04    9.71
   0 -10 -14    2.30    4.68
   0 -10  14    6.01    4.37
   0  10 -14   -4.28    6.18
   0  10  14    0.64    5.94
   0 -10 -15   18.57    5.57
   0 -10  15   22.17    8.82
   0  10 -15    8.43    6.83
   0 -10 -15   11.67    6.99
   0  10  15   16.68    6.88
   0 -10 -16    8.80    7.03
   0 -10  16   23.47   15.02
   0  10 -16   18.91   10.12
   0 -10 -16   28.72    8.91
   0  10  16   19.63   11.90
   0 -10 -17   37.18    8.27
   0 -10  17   28.56   18.99
   0  10 -17   25.56   14.51
   0 -10 -17   47.37    8.00
   0  10  17   21.32   10.01
   0 -11   0   -2.20    7.76
   0  11   0    2.02    4.07
   0 -11  -1  339.94   15.35
   0 -11   1  317.94   27.99
   0  11   1  327.33   12.82
   0  11  -1  322.63   13.22
   0 -11  -2  169.73   30.60
   0 -11   2  150.69   40.74
   0  11   2  164.22   10.46
   0  11  -2  167.40   23.20
   0 -11  -3  354.64   16.86
   0 -11   3  347.15   17.03
   0  11   3  347.11   15.35
   0  11  -3  374.66   16.38
   0  11   3  368.85   17.00
   0 -11  -4    6.62    7.14
   0 -11   4    3.88    4.85
   0  11   4    6.29    3.59
   0  11  -4    3.04    3.92
   0  11   4    0.44    6.20
   0 -11  -5    6.40    6.03
   0 -11   5    3.52    2.51
   0  11   5    6.83    4.12
   0  11  -5    9.84    5.95
   0  11   5    2.94    6.26
   0 -11  -6   29.20    9.79
   0 -11   6   10.01    7.11
   0  11  -6   10.66    9.27
   0  11   6   11.82    7.20
   0 -11  -7   63.09    9.75
   0 -11   7   79.11   26.58
   0  11  -7   84.70   30.17
   0  11   7   77.46   23.66
   0 -11  -8   44.91    8.69
   0 -11   8   40.20   13.18
   0  11  -8   39.54   14.22
   0  11   8   22.75   13.35
   0 -11  -9    5.99    3.79
   0 -11   9    5.60    4.55
   0  11  -9    8.40    5.82
   0  11   9    8.02    4.55
   0 -11 -10    9.78    6.04
   0 -11  10   10.94    9.28
   0  11 -10    4.14    7.49
   0  11  10    3.52    9.25
   0 -11 -11   11.33    5.34
   0 -11  11    7.97    8.85
   0  11 -11   12.49    8.27
   0  11  11    9.92    9.56
   0 -11 -12    6.80    4.85
   0 -11  12   12.21    8.01
   0  11 -12    9.64   13.29
   0  11  12   11.87    4.96
   0 -11 -13  152.53   19.97
   0 -11  13  168.01    9.46
   0  11 -13  187.80   27.21
   0  11  13  149.23   13.22
   0 -11 -14   44.65    8.22
   0 -11  14   46.58   15.38
   0  11 -14   44.99   16.58
   0  11  14   57.32    9.43
   0 -11 -15   65.75   26.74
   0 -11  15   62.26   23.09
   0  11 -15   65.23   25.99
   0  11  15   47.70   29.80
   0 -11 -16    7.80    5.18
   0 -11  16    6.43    5.12
   0  11 -16    5.28    5.02
   0 -11 -16   -4.16    6.69
   0  11  16    5.76    5.78
   0 -11 -17   10.07    7.08
   0 -11  17   14.00   13.31
   0  11 -17   13.44   11.90
   0 -11 -17   34.10    9.91
   0  11  17   23.66    7.64
   0 -12   0 1178.83   36.26
   0  12   0 1219.49   19.12
   0 -12  -1   48.86   19.85
   0 -12   1   55.44   19.86
   0  12   1   43.46   21.97
   0  12  -1   44.50   15.65
   0 -12  -2   29.12    6.86
   0 -12   2   22.10   11.15
   0  12   2   12.47    5.53
   0  12  -2   19.93    6.57
   0  12   2   16.35   13.14
   0 -12  -3  124.00   10.27
   0 -12   3  132.46   13.05
   0  12   3  120.35   15.51
   0  12  -3  133.39   24.08
   0  12   3  124.51    7.94
   0 -12  -4   16.15    6.61
   0 -12   4   15.29   11.59
   0  12   4   18.68    4.66
   0  12  -4   13.01    7.58
   0  12   4   15.76    6.99
   0 -12  -5   11.53    4.79
   0 -12   5   14.44    7.67
   0  12   5   21.99    7.00
   0  12  -5   14.28    7.90
   0  12   5   13.63    8.57
   0 -12  -6    1.88    2.97
   0 -12   6    3.42    4.72
   0  12  -6   -2.80    6.62
   0  12   6   -1.76    6.26
   0 -12  -7   11.72    8.10
   0 -12   7    8.44    7.85
   0  12  -7   17.60    8.74
   0  12   7   14.62    9.15
   0 -12  -8    9.62    3.91
   0 -12   8    7.04    4.06
   0  12  -8    3.94    3.29
   0  12   8    1.10    7.14
   0 -12  -9  204.45   19.68
   0 -12   9  216.46   37.83
   0  12  -9  195.49   16.08
   0  12   9  224.38   18.84
   0 -12 -10   31.81   15.72
   0 -12  10   27.69   15.53
   0  12 -10   30.88   13.23
   0  12  10   27.75   15.24
   0 -12 -11   15.21    6.36
   0 -12  11   16.34    9.20
   0  12 -11   13.75    6.65
   0  12  11   12.30   16.69
   0 -12 -12  401.63   29.55
   0 -12  12  466.96   16.11
   0  12 -12  453.62   15.58
   0  12  12  428.23   28.33
   0 -12 -13    0.61    2.24
   0 -12  13    2.26    5.65
   0  12 -13   10.10   11.56
   0  12  13   -1.15    6.35
   0 -12 -14   -2.76    4.92
   0 -12  14   -1.97    7.67
   0  12 -14    2.11    4.11
   0  12  14   11.76    6.36
   0 -12 -15    9.44    4.38
   0 -12  15   18.37   11.45
   0  12 -15   -2.30    7.45
   0  12  15    7.77    6.68
   0 -12 -16  135.11    9.80
   0 -12  16  123.07    9.80
   0  12 -16  109.01   38.61
   0 -12 -16  142.81   10.28
   0  12  16  164.91   12.78
   0 -13   0   11.74   12.55
   0  13   0    4.41    3.47
   0  13   0    4.57    5.20
   0 -13  -1   15.14   11.27
   0 -13   1   18.63   12.22
   0  13   1    9.99    7.03
   0  13  -1   17.93    5.66
   0  13   1   20.94   10.07
   0 -13  -2   57.15   22.30
   0 -13   2   77.42    7.58
   0  13   2   58.84   14.48
   0  13  -2   57.38   22.17
   0  13   2   70.34    5.92
   0 -13  -3   66.41   22.46
   0 -13   3   59.73   25.81
   0  13   3   65.39   18.33
   0  13  -3   64.19   20.44
   0  13   3   71.57   24.61
   0 -13  -4  484.31   17.29
   0 -13   4  488.87   18.15
   0  13   4  514.71   13.86
   0  13  -4  511.08   24.04
   0  13   4  477.06   17.04
   0 -13  -5    1.86    5.39
   0 -13   5    3.89    6.48
   0  13   5    7.29    5.59
   0  13  -5    3.98    3.25
   0  13   5    0.98    3.37
   0 -13  -6   20.35   16.95
   0 -13   6   32.28   21.57
   0  13  -6   33.89   18.26
   0  13   6   40.26   19.78
   0 -13  -7  100.98   30.76
   0 -13   7   90.08   37.43
   0  13  -7  115.81   37.71
   0  13   7  100.84   41.40
   0 -13  -8  326.81   11.65
   0 -13   8  386.50   15.09
   0  13  -8  351.71   32.03
   0  13   8  402.91   16.00
   0 -13  -9   15.31    8.76
   0 -13   9   16.34   11.95
   0  13  -9   14.57    6.47
   0  13   9   12.88    5.06
   0 -13 -10   13.88    7.10
   0 -13  10    9.01   10.68
   0  13 -10    8.81    7.51
   0  13  10   13.64    9.25
   0 -13 -11    5.32    3.99
   0 -13  11   -6.84    6.01
   0  13 -11    3.59    2.50
   0  13  11   22.76   43.17
   0 -13 -12    3.47    2.22
   0 -13  12    0.75    5.65
   0  13 -12   -0.01    7.41
   0  13  12    4.04    6.91
   0 -13 -13    8.30    5.01
   0 -13  13   13.32   12.34
   0  13 -13   21.05   10.25
   0  13  13   10.11   12.14
   0 -13 -14    7.80    5.79
   0 -13  14   13.48   11.35
   0  13 -14   10.04    7.28
   0  13  14    5.82    7.59
   0 -13 -15    7.62    5.34
   0 -13  15   10.91   10.79
   0  13 -15   12.85    7.38
   0  13  15   12.43    8.94
   0 -14   0    5.36    5.98
   0  14   0   17.91    9.26
   0  14   0   11.04    5.44
   0 -14  -1   18.62   13.31
   0 -14   1   30.53    8.53
   0  14   1   29.02   10.64
   0  14  -1   18.58    9.83
   0  14   1   20.87    5.89
   0  14  -1   26.36   10.69
   0 -14  -2   76.22   28.34
   0 -14   2  104.89    9.94
   0  14   2   80.16   25.06
   0  14  -2   91.61    7.99
   0  14   2   92.16   10.42
   0  14  -2   69.10    7.01
   0 -14  -3    5.41    3.65
   0 -14   3    3.38    3.37
   0  14   3    3.72    5.40
   0  14  -3    1.87    3.72
   0  14   3    3.17    4.29
   0 -14  -4   23.37   10.14
   0 -14   4   16.01   12.14
   0  14   4   18.10   10.25
   0  14  -4   24.75   16.76
   0  14   4   29.00   15.10
   0 -14  -5  137.22   31.73
   0 -14   5  160.38   15.46
   0  14   5  120.23    9.05
   0  14  -5  140.82   18.79
   0  14   5  143.83   33.46
   0 -14  -6  673.35   19.83
   0 -14   6  681.11   19.05
   0  14  -6  644.81   18.15
   0  14   6  639.34   17.07
   0 -14  -7   57.48   11.18
   0 -14   7   52.93   22.01
   0  14  -7   58.83   17.92
   0  14   7   52.06   12.60
   0 -14  -8   14.83    8.83
   0 -14   8   13.83    8.80
   0  14  -8   12.62    6.01
   0  14   8   12.61   10.35
   0 -14  -9    2.12    3.80
   0 -14   9    0.39    5.86
   0  14  -9    2.83    3.22
   0  14   9   11.74    7.51
   0 -14 -10   46.48   15.75
   0 -14  10   47.80   14.50
   0  14 -10   44.34   21.92
   0  14  10   67.89   18.05
   0 -14 -11   64.40   29.70
   0 -14  11   90.71   31.02
   0  14 -11   92.44   37.69
   0  14  11  124.09   48.53
   0 -14 -12   19.67    7.33
   0 -14  12    8.21    5.35
   0  14 -12   15.01    8.92
   0  14  12   -1.12    4.82
   0 -14 -13   10.95    3.87
   0 -14  13    9.99    5.50
   0  14 -13   15.95   10.36
   0  14  13   10.04    9.12
   0 -14 -14   10.39    5.20
   0 -14  14    8.40    4.59
   0  14 -14    4.06    3.55
   0  14  14    6.47    7.62
   0 -15   0    5.52    5.45
   0  15   0    1.25    2.77
   0  15   0    5.91    7.05
   0 -15  -1   19.19    8.59
   0 -15   1    2.16    8.50
   0  15   1    4.66    6.23
   0  15  -1    2.71    4.83
   0  15   1    6.96    5.30
   0  15  -1    1.74    4.54
   0 -15  -2  304.46   13.72
   0 -15   2  292.11   11.03
   0  15   2  322.48   13.27
   0  15  -2  283.70   10.65
   0  15   2  359.83   14.70
   0  15  -2  312.92   13.22
   0 -15  -3   42.94   12.29
   0 -15   3   47.68   10.46
   0  15   3   18.69    6.21
   0  15  -3   33.87    8.36
   0  15   3   30.66   13.56
   0  15  -3   25.20   13.12
   0 -15  -4    5.19    6.36
   0 -15   4    5.87    3.60
   0  15   4   -1.77    6.59
   0  15  -4    9.39    5.74
   0  15   4    2.90    3.19
   0  15  -4    8.50    5.17
   0 -15  -5   87.32   26.13
   0 -15   5   75.98   34.15
   0  15  -5  120.90   14.91
   0  15   5  113.27   12.55
   0  15  -5   81.30   27.60
   0 -15  -6   12.96   10.05
   0 -15   6   15.55    7.00
   0  15  -6    6.32    5.32
   0  15   6   11.90    7.73
   0 -15  -7   57.62   10.16
   0 -15   7   49.84   19.20
   0  15  -7   54.86   17.09
   0  15   7   52.80   21.33
   0 -15  -8    3.59    3.31
   0 -15   8   -6.05    7.60
   0  15  -8    2.44    4.37
   0  15   8    2.22    4.03
   0 -15  -9   23.35   11.98
   0 -15   9   31.70    9.33
   0  15  -9   15.95    7.65
   0  15   9   25.66   13.57
   0 -15 -10  128.50   28.01
   0 -15  10  111.17   58.16
   0  15 -10  121.30   44.40
   0  15  10  228.81   31.61
   0 -15 -11    1.06    3.56
   0 -15  11   -3.45    8.55
   0  15 -11   -4.59    8.83
   0  15  11    0.12    8.15
   0 -15 -12    1.06    3.94
   0 -15  12   -2.13    8.05
   0  15 -12   12.57    7.22
   0  15  12    5.85    5.48
   0 -16   0  107.75   35.96
   0  16   0  108.87   29.91
   0  16   0  120.69   22.57
   0 -16  -1   89.26   12.13
   0 -16   1   83.22   27.42
   0  16   1   85.09   18.23
   0  16  -1   82.75   20.25
   0  16   1  109.47    9.86
   0  16  -1   81.00   25.99
   0 -16  -2   12.55    7.18
   0 -16   2    6.15    4.19
   0  16   2    3.65    5.82
   0  16  -2   10.52    7.57
   0  16   2   -5.41    5.75
   0  16  -2    8.79    5.39
   0 -16  -3   38.96   14.05
   0 -16   3   18.24    5.55
   0  16   3   30.30   12.64
   0  16  -3   24.95    8.47
   0  16   3   25.78   17.14
   0  16  -3   28.60    6.24
   0 -16  -4   59.97   26.17
   0 -16   4   78.23    9.50
   0  16   4   65.74   28.15
   0  16  -4   82.46   23.70
   0  16   4   72.59   31.48
   0  16  -4   88.05   24.34
   0 -16  -5    6.54    5.51
   0 -16   5   -0.19    8.75
   0  16  -5   16.47    9.33
   0  16   5    8.99    6.84
   0 -16  -6    3.12    4.88
   0 -16   6    5.12    4.91
   0  16  -6   10.22    4.82
   0  16   6    6.97    6.62
   0 -16  -7    3.48    7.54
   0 -16   7    7.98    6.93
   0  16  -7    7.52    5.85
   0  16   7    9.65    7.52
   0 -16  -8    3.63    3.84
   0 -16   8    7.41    6.14
   0  16  -8   -2.61    7.01
   0  16   8    1.84    3.54
   0 -16  -9    9.97    6.96
   0 -16   9   15.53   16.64
   0  16  -9   18.63   13.61
   0  16   9    4.50   10.66
   0 -16 -10    4.71    4.68
   0 -16  10   -1.71    9.26
   0  16 -10    9.02    6.83
   0  16  10   11.43   11.96
   0 -17   0    7.20    7.94
   0  17   0    6.28    4.31
   0  17   0   -1.15    5.76
   0 -17  -1    1.15    7.60
   0 -17   1   -0.60    8.05
   0  17   1    4.98    3.73
   0  17  -1    3.26    6.60
   0  17   1   -0.84    3.91
   0  17  -1    7.62    6.25
   0 -17  -2    7.45    7.79
   0 -17   2    6.94    7.28
   0  17   2   15.01    5.97
   0  17  -2   13.37    6.06
   0  17   2    2.78    4.59
   0  17  -2    8.66    5.09
   0 -17  -3    4.68    5.81
   0 -17   3    6.07    8.40
   0  17   3    2.33    3.85
   0  17  -3    4.37    9.89
   0  17   3   -0.09    5.20
   0  17  -3    4.33    2.67
   0 -17  -4   44.31   17.52
   0 -17   4   39.57   19.59
   0  17   4   61.08   27.97
   0  17  -4   66.52   27.95
   0  17   4   49.90   15.15
   0 -17  -5   45.35    9.68
   0 -17   5   39.68   15.70
   0  17  -5   57.04   19.28
   0  17   5   35.82   12.96
   0 -17  -6    8.53    8.73
   0 -17   6   13.99    7.56
   0  17  -6    6.00    7.24
   0  17   6    8.33    8.25
   0 -17  -7   15.09    8.82
   0  17  -7   18.13   10.13
   0  17   7   11.59   12.67
   0 -17  -8  109.52   24.27
   0 -17   8  125.74   21.90
   0  17  -8  133.47   22.91
   0  17   8  130.02   30.27
   0 -18   0   77.86   13.42
   0  18   0   77.26   28.29
   0  18   0   50.85   23.54
   0 -18  -1    4.49    5.25
   0 -18   1   12.20    7.81
   0  18   1    1.54    2.90
   0  18  -1    6.55    6.74
   0  18   1    3.41    5.86
   0  18  -1    3.40    2.81
   0 -18  -2    2.48    9.21
   0 -18   2   14.44    9.40
   0  18   2   14.63    8.78
   0  18  -2    8.43    5.38
   0  18   2    4.04    5.31
   0  18  -2   10.14    6.06
   0 -18  -3    4.00    4.74
   0 -18   3   24.05   11.59
   0  18   3   18.43   14.21
   0  18  -3    3.96    6.71
   0  18   3    8.60    8.50
   0 -18  -4    1.97    6.05
   0 -18   4   11.19    8.91
   0  18   4    8.50    7.91
   0  18  -4    8.55    6.79
   0  18   4    4.22    7.46
   0 -18  -5   37.78   26.50
   0 -18   5   40.76   21.17
   0  18  -5   47.56   14.41
   0  18   5   36.26   25.93
  -1   0   1    0.51    0.47
   1   0  -3  196.18    6.82
  -1   0   3  198.60    6.85
  -1   0  -3  216.69    8.21
  -1   0  -3  213.58    8.91
   1   0  -3  183.90    5.59
  -1   0   3  197.31    7.16
   1   0  -4 2327.18   37.27
  -1   0  -4 2323.59   38.03
  -1   0  -4 2229.21   36.53
   1   0  -4 2295.06   38.22
  -1   0   4 2319.01   37.43
   1   0   4 2281.52   36.52
   1   0  -5  206.02    7.87
  -1   0  -5  224.24   11.11
  -1   0  -5  208.24    8.84
   1   0  -5  206.96   15.11
  -1   0   5  221.25    8.32
   1   0   5  215.66    7.88
   1   0  -6   15.12    4.56
  -1   0  -6   16.36    3.51
  -1   0  -6   15.95    3.53
   1   0  -6   13.49    5.63
  -1   0   6   14.99    4.40
   1   0   6  120.96   37.99
   1   0  -7   75.83    3.52
  -1   0  -7   85.99    4.89
  -1   0  -7   88.33    5.66
   1   0  -7   75.08    5.68
  -1   0   7   88.67    3.40
   1   0   7   93.34    3.22
   1   0  -8   79.11    6.08
  -1   0  -8   62.68    6.16
  -1   0  -8   64.81    7.19
   1   0  -8   73.17    7.17
  -1   0   8   76.88    5.99
   1   0   8   68.22    5.08
   1   0  -9 1418.53   39.66
  -1   0  -9 1370.00   38.76
  -1   0  -9 1436.16   40.96
   1   0  -9 1401.89   40.06
  -1   0   9 1407.67   39.07
   1   0   9 1405.66   38.66
   1   0 -10   36.98    3.25
  -1   0 -10   39.73   13.61
  -1   0 -10   46.92   16.69
   1   0 -10   37.78   14.87
  -1   0  10   35.43    3.25
   1   0  10   46.38    4.41
   1   0 -11  415.09   10.27
  -1   0 -11  390.74   10.77
  -1   0 -11  387.36   11.98
   1   0 -11  361.97   29.49
  -1   0  11  373.95   10.13
   1   0  11  375.76    8.66
   1   0 -12  232.40   17.19
  -1   0 -12  211.23   24.74
  -1   0 -12  193.35   22.05
   1   0 -12  206.25   17.55
  -1   0  12  205.02   15.64
   1   0  12  201.03   11.53
   1   0 -13  117.33    8.97
  -1   0 -13  135.63   18.40
  -1   0 -13  144.26   19.21
   1   0 -13  118.01   13.15
  -1   0  13  128.77   10.44
   1   0  13  145.36    7.89
   1   0 -14  113.83    9.44
  -1   0 -14  115.73    8.37
  -1   0 -14  128.27   10.82
   1   0 -14  106.71   33.84
  -1   0  14  112.11    9.64
   1   0  14  106.80   10.62
   1   0 -15   70.63   17.40
  -1   0 -15   44.74   16.19
  -1   0 -15   52.06    7.09
   1   0 -15   52.44   19.48
  -1   0  15   57.95   10.98
   1   0  15   58.16   12.51
   1   0 -16   -1.39    4.17
  -1   0 -16   -3.69    4.63
  -1   0 -16    2.35    3.55
   1   0 -16    5.05    6.44
  -1   0  16    1.89    1.33
   1   0  16    3.65    2.94
   1   0 -17   10.59    4.52
  -1   0 -17   13.39    6.54
  -1   0 -17   19.87   11.11
   1   0 -17    5.25    5.79
  -1   0  17    4.61    3.26
   1   0 -18   32.17   10.55
  -1   0 -18   43.14    9.21
  -1   0 -18   45.11   18.30
   1   0 -18   35.92   14.68
   1   0 -19   20.19    6.89
  -1   0 -19   19.47    6.46
  -1   0 -19   16.32    7.54
   1   0 -19   19.59    7.23
   1   0 -20   59.76   23.81
  -1   0 -20   69.84   13.26
  -1   0 -20   61.61   28.32
   1   0 -20   72.30   24.45
   1   0 -21   31.38   15.24
  -1   0 -21   31.41   15.80
  -1   0 -21   30.12   11.98
   1   0 -21   45.73   14.87
  -1  -1   0   -0.01    0.67
   1   1   0   -1.07    0.45
  -1  -1   0   -0.95    0.51
  -1   1  -1    0.14    0.51
  -1  -1  -1    0.18    0.41
  -1   1   1   -0.11    0.40
  -1  -1   1    0.26    0.43
  -1   1  -1    0.04    0.57
   1   1  -1   -3.32    1.20
  -1   1   1    0.26    0.46
   1   1  -3   40.36    2.47
  -1   1  -3   42.41    4.55
   1  -1  -3   46.78    2.10
  -1  -1  -3   50.46    9.56
  -1   1   3   49.86    1.86
  -1   1  -3   51.29    3.45
   1   1  -3   46.62   15.05
  -1  -1  -3   44.81    2.96
  -1  -1   3   45.69    2.26
  -1   1   3   46.06    3.66
   1  -1   3   46.97    1.10
   1   1  -4   69.58    4.18
  -1   1  -4   58.00   11.32
   1  -1  -4   71.08    3.16
  -1  -1  -4   74.62    7.96
  -1   1  -4   70.93    4.51
   1   1  -4   79.88   11.20
  -1  -1  -4   64.87    4.90
   1  -1  -4   83.46    5.85
  -1  -1   4   75.88    3.39
  -1   1   4   72.41    3.83
   1  -1   4   63.99    1.88
   1   1  -5 1152.84   19.61
  -1   1  -5 1112.44   23.08
   1  -1  -5 1098.21   18.61
  -1  -1  -5 1146.06   20.22
  -1   1  -5 1161.61   20.66
   1   1  -5 1140.04   20.75
  -1  -1  -5 1219.07   21.47
   1  -1  -5 1123.07   22.31
  -1  -1   5 1077.95   18.44
  -1   1   5 1217.77   20.99
   1  -1   5 1141.49   18.53
   1   1   5 1125.75   19.38
   1   1  -6   26.09    2.46
  -1   1  -6   24.21    9.04
   1  -1  -6   25.35    2.91
  -1  -1  -6   30.36    8.66
  -1   1  -6   29.95    5.82
   1   1  -6   34.20    7.66
  -1  -1  -6   29.50    9.44
   1  -1  -6   38.58   13.97
  -1  -1   6   27.82    8.52
  -1   1   6   32.60    2.84
   1  -1   6   22.88    1.98
   1   1   6   24.01    7.67
   1   1  -7  886.04   16.10
  -1   1  -7  895.13   17.02
   1  -1  -7  857.32   15.56
  -1  -1  -7  888.24   16.90
  -1   1  -7  908.88   17.54
   1   1  -7  866.52   16.92
  -1  -1  -7  888.78   16.91
   1  -1  -7  908.90   17.90
  -1  -1   7  878.84   15.66
  -1   1   7  909.75   16.65
   1  -1   7  927.75   15.76
   1   1   7  923.89   18.84
   1   1  -8  180.53    9.66
  -1   1  -8  191.80    5.87
   1  -1  -8  196.79    5.79
  -1  -1  -8  209.08    8.57
  -1   1  -8  198.97    6.58
   1   1  -8  182.95    6.31
  -1  -1  -8  203.88    7.71
   1  -1  -8  206.12   22.07
  -1  -1   8  201.61    4.91
   1  -1   8  196.20    4.57
  -1   1   8  196.80    8.03
   1   1   8  214.18    5.62
   1   1  -9   52.28    6.17
  -1   1  -9   40.94    6.00
   1  -1  -9   52.96   10.30
  -1  -1  -9   62.64    9.39
  -1   1  -9   50.68    7.50
   1   1  -9   56.40   10.75
  -1  -1  -9   64.87   19.54
   1  -1  -9   54.93   17.90
  -1  -1   9   47.20    4.45
   1  -1   9   53.92    4.69
  -1   1   9   54.76    5.31
   1   1   9   50.93    4.85
   1   1 -10    4.34    2.40
  -1   1 -10    9.12    4.03
   1  -1 -10    6.99    2.78
  -1  -1 -10    9.94    3.70
  -1   1 -10   11.77    5.89
   1   1 -10   22.02    6.25
  -1  -1 -10    9.19    6.18
   1  -1 -10   -3.71    6.66
  -1  -1  10    6.71    2.64
   1  -1  10   15.29    4.75
  -1   1  10    8.19    5.78
   1   1  10   12.31    4.03
   1   1 -11 1462.01   23.90
  -1   1 -11 1421.78   28.74
   1  -1 -11 1381.28   23.24
  -1  -1 -11 1440.86   27.26
  -1   1 -11 1460.35   26.82
   1   1 -11 1460.27   27.89
  -1  -1 -11 1454.61   27.56
   1  -1 -11 1417.66   26.79
  -1  -1  11 1414.46   23.73
   1  -1  11 1416.96   21.96
  -1   1  11 1381.81   24.06
   1   1  11 1411.07   25.74
   1   1 -12  321.30   16.29
  -1   1 -12  316.63   13.61
   1  -1 -12  327.96   16.41
  -1  -1 -12  302.96   26.79
  -1   1 -12  347.12   16.70
   1   1 -12  309.67   15.26
  -1  -1 -12  302.52   14.88
   1  -1 -12  339.47   15.58
  -1  -1  12  327.44   10.16
   1  -1  12  323.97   12.09
  -1   1  12  328.17   11.03
   1   1  12  305.14    9.88
   1   1 -13  377.89   21.90
  -1   1 -13  382.32   15.66
   1  -1 -13  408.96   16.56
  -1  -1 -13  405.65   17.22
  -1   1 -13  400.82   33.62
   1   1 -13  378.21   16.94
  -1  -1 -13  408.82   19.71
   1  -1 -13  431.45   20.15
  -1  -1  13  390.18   18.71
   1  -1  13  411.63   16.26
  -1   1  13  404.35   15.56
   1   1  13  388.77   14.71
   1   1 -14  115.42    5.75
  -1   1 -14  134.29   22.89
   1  -1 -14  133.90   12.59
  -1  -1 -14  112.71   16.16
  -1   1 -14  120.26    7.97
   1   1 -14  116.80   16.00
  -1  -1 -14  130.09   33.79
   1  -1 -14  130.02   33.64
  -1  -1  14  122.66   15.36
   1  -1  14  119.17    9.99
  -1   1  14  114.63    8.58
   1   1  14  126.96   13.27
   1   1 -15   11.36    3.84
  -1   1 -15   23.28    7.44
   1  -1 -15   16.56    5.92
  -1  -1 -15   19.98    8.98
  -1   1 -15   21.28    8.72
   1   1 -15   12.33    7.64
  -1  -1 -15   21.90    7.94
   1  -1 -15   29.75   10.57
  -1  -1  15   24.41    8.20
   1  -1  15   19.41    5.22
  -1   1  15   21.87    5.57
   1   1  15   33.19    7.26
   1   1 -16   17.62    6.50
  -1   1 -16    3.84    4.03
   1  -1 -16    6.45    3.61
  -1  -1 -16    8.08    2.75
  -1   1 -16    4.27    4.70
   1   1 -16   21.23    8.68
  -1  -1 -16   11.48    6.58
   1  -1 -16    9.39    5.33
  -1  -1  16    4.63    4.38
  -1   1  16   16.66    5.18
   1   1  16    2.01    1.57
   1   1 -17  190.74   14.88
  -1   1 -17  178.77    8.50
   1  -1 -17  193.78    9.35
  -1  -1 -17  216.05   18.04
  -1   1 -17  186.79   33.26
   1   1 -17  183.06   36.67
  -1  -1 -17  192.73   13.35
   1  -1 -17  183.49   35.34
  -1   1  17  170.16    8.70
   1   1  17  208.49    8.67
   1   1 -18    7.87    6.06
  -1   1 -18    2.60    4.13
   1  -1 -18    5.12    3.38
  -1  -1 -18    5.58    3.15
  -1   1 -18    2.96    3.51
   1   1 -18    4.12    6.72
  -1  -1 -18    6.38    8.06
   1  -1 -18    1.79    9.27
  -1   1  18    3.23    2.44
   1   1 -19   58.86   14.88
  -1   1 -19   42.75   16.91
   1  -1 -19   63.60   20.37
  -1  -1 -19   63.58    6.30
  -1   1 -19   44.01   16.77
   1   1 -19   57.77   18.33
  -1  -1 -19   60.90   15.32
   1  -1 -19   55.58   11.64
   1   1 -20    2.49    3.55
  -1   1 -20    3.23    3.64
   1  -1 -20   -0.25    4.64
  -1  -1 -20   -0.77    4.59
  -1   1 -20    1.64    2.84
   1   1 -20    2.38    3.65
  -1  -1 -20   -0.68    6.57
   1  -1 -20    6.22    7.18
   1   1 -21    5.49    5.25
  -1   1 -21    9.32    6.29
   1  -1 -21   11.58    3.85
  -1   1 -21   10.83    5.62
   1   1 -21   16.35   13.38
  -1  -1 -21    4.84    5.94
   1  -1 -21   10.04    4.32
  -1  -2  -1 2041.25   32.92
  -1  -2   1 1775.62   28.73
  -1   2   1 1830.77   29.57
   1   2   1 2022.90   32.20
  -1  -2  -1 2033.86   32.34
  -1   2  -1 1827.24   29.39
  -1   2  -2 3094.68   49.34
  -1  -2  -2 2932.44   47.05
  -1   2   2 2965.30   46.78
  -1  -2   2 3098.01   49.37
  -1   2  -2 3019.52   48.01
   1   2  -2 2969.11   47.44
  -1   2   2 2951.25   47.30
  -1   2  -3  487.76   17.20
  -1  -2  -3  375.98   14.31
   1  -2  -3  506.74   18.31
  -1  -2   3  502.03   17.26
  -1   2  -3  491.66   17.28
   1   2  -3  390.79   15.54
  -1   2   3  390.98   14.27
   1   2  -4  182.17    5.36
  -1   2  -4  174.51    6.18
  -1  -2  -4  179.18    5.78
  -1   2  -4  170.82    6.09
   1   2  -4  193.72    9.75
  -1   2   4  184.85    5.74
   1   2  -5  123.38    4.29
  -1   2  -5   85.92    9.41
  -1  -2  -5  118.23    5.36
  -1   2  -5   86.53    5.73
   1   2  -5  124.18    6.46
  -1   2   5  117.26    5.11
   1   2  -6  381.90   13.74
  -1   2  -6  363.93   13.68
   1  -2  -6  369.09   13.19
  -1  -2  -6  369.23   13.67
  -1   2  -6  349.15   12.94
   1   2  -6  370.98   14.63
  -1  -2  -6  391.12   14.38
   1  -2  -6  359.98   14.16
  -1  -2   6  374.55   13.13
   1  -2   6  380.01   12.59
  -1   2   6  373.86   13.67
   1   2   6  362.25   13.03
   1   2  -7  432.82   13.09
  -1   2  -7  479.68    9.68
   1  -2  -7  486.71   12.11
  -1  -2  -7  412.67    8.03
   1   2  -7  431.91   10.41
  -1  -2  -7  426.54    7.99
   1  -2  -7  476.05    9.59
  -1   2   7  412.51    7.72
   1   2  -8  354.10    7.04
  -1   2  -8  384.87    7.99
   1  -2  -8  400.15    7.15
  -1  -2  -8  362.29    8.06
  -1   2  -8  375.76    9.02
   1   2  -8  366.42    9.93
  -1  -2  -8  359.02    8.61
   1  -2  -8  389.05    9.23
  -1  -2   8  396.49    8.68
   1  -2   8  351.53    4.92
  -1   2   8  365.82   12.13
   1   2   8  408.23    7.80
   1   2  -9  299.44    6.70
  -1   2  -9  327.84    7.00
   1  -2  -9  322.85    6.77
  -1  -2  -9  305.83    7.23
  -1   2  -9  301.65    7.99
   1   2  -9  321.12    9.58
  -1  -2  -9  292.21    8.55
   1  -2  -9  344.38   10.17
  -1  -2   9  326.32    5.92
   1  -2   9  298.78    4.66
  -1   2   9  311.53    9.31
   1   2 -10  425.86   11.77
  -1   2 -10  372.45    8.93
   1  -2 -10  371.73    7.20
  -1  -2 -10  428.30    8.64
  -1   2 -10  392.20   10.46
   1   2 -10  456.48   18.20
  -1  -2 -10  413.09   10.02
   1  -2 -10  397.15   11.81
  -1  -2  10  390.75    6.59
   1  -2  10  420.11    5.14
  -1   2  10  430.11   12.42
   1   2  10  384.60    7.82
   1   2 -11   68.14    4.29
  -1   2 -11   50.85   19.23
   1  -2 -11   77.80    7.56
  -1  -2 -11   59.68   20.52
  -1   2 -11   59.95   10.93
   1   2 -11   75.96   21.69
  -1  -2 -11   60.49    8.32
   1  -2 -11   88.33   26.43
  -1  -2  11   75.40    8.35
   1  -2  11   59.93    2.84
  -1   2  11   77.21    5.11
   1   2  11   64.29    5.25
   1   2 -12  233.93   14.46
  -1   2 -12  243.79   11.19
   1  -2 -12  217.15   13.63
  -1  -2 -12  267.63   21.04
  -1   2 -12  224.85   17.48
   1   2 -12  208.90   17.33
  -1  -2 -12  253.52   19.38
   1  -2 -12  214.15   16.26
  -1  -2  12  214.73   12.54
   1  -2  12  235.76   13.42
  -1   2  12  215.43   16.67
   1   2  12  270.26   20.37
   1   2 -13  535.62   20.74
  -1   2 -13  483.24   28.90
   1  -2 -13  501.63   19.36
  -1  -2 -13  521.57   20.26
  -1   2 -13  522.76   22.13
   1   2 -13  508.64   21.04
  -1  -2 -13  541.07   22.62
   1  -2 -13  528.48   23.08
  -1  -2  13  540.02   19.31
   1  -2  13  532.69   18.33
  -1   2  13  542.24   20.69
   1   2  13  521.50   20.83
   1   2 -14  334.91   20.48
  -1   2 -14  310.39   19.02
   1  -2 -14  315.43   27.38
  -1  -2 -14  323.20   25.32
  -1   2 -14  339.17   22.18
   1   2 -14  334.21   23.42
  -1  -2 -14  310.06   20.49
   1  -2 -14  331.30   30.06
  -1  -2  14  335.65   21.35
   1  -2  14  331.03   19.04
  -1   2  14  344.20   20.90
   1   2  14  328.70   20.52
   1   2 -15    3.87    2.92
  -1   2 -15   10.89    5.39
   1  -2 -15   14.66    4.61
  -1  -2 -15    6.35    2.54
  -1   2 -15   15.36    5.94
   1   2 -15    0.84    7.35
  -1  -2 -15   -1.63    6.98
   1  -2 -15   11.08    5.57
  -1  -2  15    5.56    2.54
  -1   2  15    7.92    3.79
   1   2  15   12.17    4.79
   1   2 -16    4.61    3.47
  -1   2 -16    4.14    4.59
   1  -2 -16    5.01    4.57
  -1  -2 -16    7.26    2.15
  -1   2 -16    9.27    7.85
   1   2 -16    6.10    4.96
  -1  -2 -16    2.14    8.81
   1  -2 -16    8.23    8.16
  -1   2  16    8.96    3.54
   1   2  16    2.64    1.64
   1   2 -17   52.37   11.75
  -1   2 -17   55.43   15.33
   1  -2 -17   56.72   17.25
  -1  -2 -17   56.17   11.31
  -1   2 -17   58.25   13.12
   1   2 -17   43.41   17.58
  -1  -2 -17   44.03   14.97
   1  -2 -17   41.74   28.13
  -1   2  17   44.39   11.82
   1   2  17   54.37    7.76
   1   2 -18   64.26   23.07
  -1   2 -18   57.29   15.68
   1  -2 -18   58.91   17.52
  -1  -2 -18   47.46   18.20
  -1   2 -18   55.79   20.55
   1   2 -18   62.59   23.48
  -1  -2 -18   51.85   22.34
   1  -2 -18   59.83   21.51
  -1   2  18   58.13    7.05
   1   2 -19   91.01   13.20
  -1   2 -19  102.31    7.56
   1  -2 -19   96.34    8.62
  -1  -2 -19   91.85   11.21
  -1   2 -19  110.90   15.90
   1   2 -19   94.98   35.96
  -1  -2 -19  111.59   12.31
   1  -2 -19   66.90   23.47
   1   2 -20   50.26    8.02
  -1   2 -20   40.52   19.15
   1  -2 -20   44.80   23.25
  -1   2 -20   42.98   21.61
   1   2 -20   51.04    9.90
  -1  -2 -20   39.48    7.38
   1  -2 -20   57.85   13.51
  -1  -3   0 3538.18   56.67
   1  -3   0 3659.38   58.17
   1   3   0 3473.60   55.23
  -1   3   0 3531.57   56.20
  -1  -3  -1 3261.89   52.69
   1  -3  -1 3241.05   51.71
  -1  -3   1 3169.56   51.09
   1  -3   1 3437.24   55.14
  -1   3   1 3288.53   53.55
   1   3   1 3148.34   50.32
  -1   3  -1 3353.59   53.72
   1   3  -1 3966.97  238.59
  -1   3   1 3223.63   51.73
  -1   3  -1 3374.02   53.47
  -1   3  -2  391.93   14.16
  -1  -3  -2  343.43   13.47
   1  -3  -2  448.52   15.88
  -1  -3   2  416.41   15.22
  -1   3   2  361.76   13.15
   1   3   2  414.98   14.35
  -1   3  -2  408.37   14.62
   1   3  -2  347.31   12.79
  -1   3   2  356.69   13.14
  -1   3  -3  314.60   11.85
  -1  -3  -3  322.59   11.92
   1  -3  -3  319.42   11.40
  -1  -3   3  337.41   12.71
  -1   3  -3  296.84   10.84
   1   3  -3  365.47   13.91
  -1   3   3  378.51   14.04
  -1   3  -4  535.82   18.70
  -1  -3  -4  495.98   17.80
   1  -3  -4  521.44   17.76
  -1  -3   4  554.49   19.38
  -1   3  -4  531.24   18.83
   1   3  -4  470.66   17.12
   1   3  -5  159.28    5.00
  -1   3  -5  202.28    8.61
  -1  -3  -5  176.53    5.94
   1  -3  -5  199.25    7.91
  -1   3  -5  188.30   17.28
   1   3  -5  157.11    7.89
  -1   3  -5  191.86    6.33
  -1   3   5  169.63    5.87
   1   3  -6 1562.19   26.92
  -1   3  -6 1554.36   27.13
   1  -3  -6 1596.42   26.98
  -1  -3  -6 1605.69   27.83
  -1   3  -6 1541.77   27.00
   1   3  -6 1647.98   29.07
  -1   3   6 1612.56   28.40
  -1   3  -6 1611.33   25.47
   1   3   6 1567.14   27.35
   1   3  -7   13.37    4.11
  -1   3  -7   11.12    3.65
   1  -3  -7    9.01    2.74
  -1  -3  -7   13.99    7.71
  -1   3  -7    4.62    3.86
   1   3  -7   24.81    8.92
  -1   3   7   12.57    7.45
   1   3   7    5.85    3.26
  -1   3  -7    6.92    2.02
   1   3  -8  177.96   10.36
  -1   3  -8  141.93   12.49
   1  -3  -8  156.66   11.31
  -1  -3  -8  184.27    6.03
  -1   3  -8  160.92   14.21
   1   3  -8  172.61   20.01
  -1  -3  -8  204.60    8.34
   1  -3  -8  151.51   11.68
  -1   3   8  188.43    6.15
   1   3   8  154.83   10.52
   1   3  -9   33.72   12.27
  -1   3  -9   48.00    5.25
   1  -3  -9   38.93    3.74
  -1  -3  -9   44.58   10.72
  -1   3  -9   50.96   11.93
   1   3  -9   41.43   13.48
  -1  -3  -9   42.50    5.76
   1  -3  -9   38.99    9.96
   1  -3   9   39.28    1.86
  -1   3   9   42.52   14.61
   1   3   9   43.43    4.48
   1   3 -10  332.52    8.81
  -1   3 -10  311.83    8.75
   1  -3 -10  321.52   11.04
  -1  -3 -10  312.74   10.72
  -1   3 -10  306.17   21.58
   1   3 -10  344.60   22.74
  -1  -3 -10  350.64   10.68
   1  -3 -10  338.57   15.63
  -1  -3  10  349.34    7.42
   1  -3  10  313.75    5.93
  -1   3  10  325.76    8.98
   1   3 -11  755.68   15.21
  -1   3 -11  759.76   16.47
   1  -3 -11  758.24   14.71
  -1  -3 -11  751.68   15.36
  -1   3 -11  772.24   17.83
   1   3 -11  721.22   17.76
  -1  -3 -11  796.22   17.62
   1  -3 -11  790.83   29.41
  -1  -3  11  748.20   14.37
   1  -3  11  769.45   12.14
  -1   3  11  768.04   15.61
   1   3  11  783.99   17.59
   1   3 -12  319.78   20.80
  -1   3 -12  300.37   11.37
   1  -3 -12  337.13   11.77
  -1  -3 -12  310.83   12.33
  -1   3 -12  325.08   16.39
   1   3 -12  347.41   30.66
  -1  -3 -12  319.52   15.07
   1  -3 -12  305.33   14.77
  -1  -3  12  336.93   11.30
   1  -3  12  332.19    9.68
  -1   3  12  328.80   12.29
   1   3  12  309.34   16.83
   1   3 -13  171.10   19.07
  -1   3 -13  159.54    8.44
   1  -3 -13  181.00    9.48
  -1  -3 -13  134.12    7.72
  -1   3 -13  179.43   33.32
   1   3 -13  145.19    9.40
  -1  -3 -13  164.41   11.49
   1  -3 -13  178.21   14.47
  -1  -3  13  160.37    9.30
   1  -3  13  163.24    6.20
  -1   3  13  150.88   10.01
   1   3  13  179.87   13.37
   1   3 -14    2.77    2.04
  -1   3 -14    3.73    3.69
   1  -3 -14    5.50    3.23
  -1  -3 -14    2.97    4.25
  -1   3 -14    0.33    3.51
   1   3 -14    3.47    3.15
  -1  -3 -14    3.30    5.67
   1  -3 -14    5.03    3.69
  -1  -3  14    4.45    2.92
  -1   3  14    4.12    3.10
   1   3  14    6.43    2.99
   1   3 -15  120.78    7.27
  -1   3 -15  112.55   26.35
   1  -3 -15  116.14    7.31
  -1  -3 -15  108.52    9.30
  -1   3 -15   95.93   33.88
   1   3 -15   97.60    9.11
  -1  -3 -15   92.75    8.86
   1  -3 -15  113.26   19.02
  -1  -3  15  118.93    7.21
  -1   3  15  104.61    9.44
   1   3  15  108.78    9.25
   1   3 -16   78.86    9.14
  -1   3 -16  107.69   16.90
   1  -3 -16   93.08    7.81
  -1  -3 -16   70.48   21.78
  -1   3 -16   93.32   25.55
   1   3 -16   76.53   31.55
  -1  -3 -16   79.10   29.10
   1  -3 -16   86.22   27.98
  -1   3  16   89.80    8.32
   1   3  16  113.52   10.88
   1   3 -17   52.50   17.13
  -1   3 -17   53.08   16.40
   1  -3 -17   62.72   18.61
  -1  -3 -17   59.57   17.15
  -1   3 -17   45.55   19.42
   1   3 -17   44.04    8.23
  -1  -3 -17   55.68   10.42
   1  -3 -17   51.46   26.58
  -1   3  17   66.14    7.30
   1   3  17   46.39   10.59
   1   3 -18   72.11   16.68
  -1   3 -18   76.42   22.05
   1  -3 -18   59.50    6.87
  -1  -3 -18   60.03   16.45
  -1   3 -18   60.91   28.47
   1   3 -18   76.01   24.58
  -1  -3 -18   57.17   22.90
   1  -3 -18   51.92   19.71
  -1   3  18   64.61   15.50
   1   3  18   69.29    7.27
   1   3 -19    9.01    4.64
  -1   3 -19   10.62    7.60
   1  -3 -19   10.07    4.95
  -1  -3 -19   10.70    3.78
  -1   3 -19   16.13    6.18
   1   3 -19    4.70    8.97
  -1  -3 -19    6.41    6.54
   1  -3 -19    9.37   10.62
  -1   3  19    7.46    3.12
   1   3 -20   44.43   12.33
  -1   3 -20   56.45   25.80
   1  -3 -20   40.11   19.03
  -1  -3 -20   55.57   11.32
  -1   3 -20   51.06   18.85
   1   3 -20   32.39   19.90
  -1  -3 -20   51.17   10.06
   1  -3 -20   61.50   18.07
  -1  -4   0    7.67    4.14
   1  -4   0   13.30    4.51
  -1   4   0   12.44    5.61
   1   4   0   14.80    4.65
  -1   4   0   16.22    3.59
  -1  -4  -1  152.84    7.29
   1  -4  -1  127.54    8.07
  -1  -4   1  126.36    6.33
   1  -4   1  160.27   11.80
  -1   4   1  168.77    8.06
   1   4   1  121.07    4.42
  -1   4  -1  115.08    8.11
   1   4  -1  155.26    5.44
  -1   4   1  142.78    5.34
  -1  -4  -2 1028.10   19.05
   1  -4  -2 1027.74   18.22
  -1  -4   2 1012.88   18.51
   1  -4   2 1027.06   18.55
  -1   4   2 1004.79   18.25
   1   4   2 1068.18   19.00
  -1   4  -2 1002.50   18.28
   1   4  -2 1001.36   18.32
  -1   4   2  978.91   17.96
  -1  -4  -3  771.27   15.20
   1  -4  -3  684.19   42.04
  -1  -4   3  663.86   40.76
   1  -4   3  723.72   14.07
   1   4   3  669.33   42.10
  -1   4  -3  756.53   15.08
   1   4  -3  756.14   14.87
  -1   4   3  767.02   14.88
  -1   4  -4  336.60   12.37
  -1  -4  -4  290.43   11.54
  -1  -4   4  350.94   12.91
  -1   4  -4  348.49   13.35
  -1   4   4  277.53   10.97
  -1   4  -5  562.24   19.81
  -1  -4  -5  529.81   19.18
   1  -4  -5  565.84   19.47
  -1  -4   5  578.36   20.38
  -1   4  -5  558.41   19.84
   1   4  -5  516.60   18.34
  -1   4   5  591.61   21.02
  -1   4  -6  350.98    7.80
  -1  -4  -6  380.64    8.64
   1  -4  -6  358.36    7.08
  -1  -4   6  338.99    6.83
  -1   4  -6  365.69    7.59
   1   4  -6  359.46    9.10
  -1   4  -6  372.54    3.70
  -1   4   6  362.32    8.30
   1   4  -7 1875.76   53.18
  -1   4  -7 1831.52   51.23
   1  -4  -7 1817.57   49.95
  -1  -4  -7 1927.38   53.37
  -1   4  -7 1776.67   49.44
   1   4  -7 1916.28   53.49
  -1   4  -7 1898.34   50.66
  -1   4   7 1919.99   53.53
   1   4   7 1849.46   51.49
   1   4  -8  482.53    9.24
  -1   4  -8  481.81    9.59
   1  -4  -8  470.24    8.41
  -1  -4  -8  447.43    8.74
  -1   4  -8  475.92   10.53
   1   4  -8  489.25    9.74
  -1   4   8  473.52    9.60
  -1   4  -8  464.82    4.65
   1   4   8  463.52    9.69
   1   4  -9  315.22    9.99
  -1   4  -9  290.90    7.99
   1  -4  -9  290.87   11.37
  -1  -4  -9  342.60    7.94
  -1   4  -9  290.24   15.96
   1   4  -9  323.26   10.28
  -1  -4  -9  342.68   14.31
  -1   4   9  318.05   12.29
   1   4   9  319.26    8.21
   1   4 -10   74.22   20.30
  -1   4 -10   85.13   18.20
   1  -4 -10   82.90    9.57
  -1  -4 -10   77.87   14.31
  -1   4 -10  100.51   29.69
   1   4 -10   60.83    8.77
  -1  -4 -10   88.64    9.39
   1  -4 -10   93.37   30.88
  -1   4  10   78.64   10.64
   1   4  10   83.09    5.89
   1   4 -11   54.37    7.69
  -1   4 -11   38.69   14.50
   1  -4 -11   46.10   16.16
  -1  -4 -11   39.00   14.45
  -1   4 -11   46.66   13.46
   1   4 -11   52.59   12.47
  -1  -4 -11   51.64   11.35
   1  -4 -11   45.12   10.94
  -1   4  11   43.58   16.89
   1   4  11   76.54   29.33
   1   4 -12  156.28   14.04
  -1   4 -12  153.45    9.47
   1  -4 -12  154.62   11.01
  -1  -4 -12  153.15   14.06
  -1   4 -12  166.07   26.32
   1   4 -12  149.92   25.73
  -1  -4 -12  158.75   29.67
   1  -4 -12  170.50   28.87
  -1   4  12  145.59   10.79
   1   4  12  167.53   17.16
   1   4 -13  254.47   21.56
  -1   4 -13  240.65   10.94
   1  -4 -13  241.26   15.55
  -1  -4 -13  239.81   20.02
  -1   4 -13  223.29   17.31
   1   4 -13  252.28   14.07
  -1  -4 -13  243.20   25.51
   1  -4 -13  223.70   25.58
  -1   4  13  260.84   28.02
   1   4  13  216.50   21.35
   1   4 -14    2.34    2.31
  -1   4 -14    5.20    3.86
   1  -4 -14    3.71    3.68
  -1  -4 -14    5.15    4.64
  -1   4 -14   -8.89    6.45
   1   4 -14   -3.97    8.06
  -1  -4 -14    8.07    4.78
   1  -4 -14    2.63    4.29
  -1   4  14   -0.17    4.13
   1   4  14   -0.17    4.36
   1   4 -15  162.02   19.28
  -1   4 -15  151.37   14.74
   1  -4 -15  148.04   15.20
  -1  -4 -15  170.02   11.52
  -1   4 -15  153.32   23.64
   1   4 -15  167.87   34.29
  -1  -4 -15  157.30   13.83
   1  -4 -15  146.50   13.53
  -1   4  15  157.23   14.30
   1   4  15  152.07    8.36
   1   4 -16   77.16   10.28
  -1   4 -16   63.12   24.58
   1  -4 -16   72.54   17.19
  -1  -4 -16   61.62   25.52
  -1   4 -16   63.87   24.99
   1   4 -16   54.37   14.61
  -1  -4 -16   84.94   10.83
   1  -4 -16   74.08   24.97
  -1   4  16   56.78   15.50
   1   4  16   61.11   18.89
   1   4 -17    7.76    5.30
  -1   4 -17   16.83    7.63
   1  -4 -17   10.11    6.00
  -1  -4 -17    9.35    3.55
  -1   4 -17    7.20    6.46
   1   4 -17    4.23    6.59
  -1  -4 -17    2.46    5.11
   1  -4 -17    3.93    9.58
  -1   4  17    5.73    5.25
   1   4  17    5.81    6.05
   1   4 -18   13.86    7.16
  -1   4 -18   18.80    6.79
   1  -4 -18   16.35    6.73
  -1  -4 -18   19.52    5.49
  -1   4 -18    4.92    4.92
   1   4 -18    5.51    5.88
  -1  -4 -18   10.65    7.82
   1  -4 -18   14.02    5.25
  -1   4  18   22.55    5.15
   1   4  18   17.96    7.29
   1   4 -19   76.46   18.22
  -1   4 -19   77.05   28.49
   1  -4 -19   90.29   21.99
  -1  -4 -19   81.82   19.99
  -1   4 -19   96.61   22.74
   1   4 -19   60.49   25.10
  -1  -4 -19   62.29   32.13
   1  -4 -19   76.32   19.38
  -1   4  19   63.05   27.36
   1   4  19   84.57   30.98
   1   4 -20   24.80   10.03
  -1   4 -20   27.14    7.83
  -1  -4 -20   22.02    9.89
  -1   4 -20   21.19   10.74
   1   4 -20   23.38   10.22
  -1  -4 -20   19.00    7.23
   1  -4 -20   41.02   11.52
  -1   4  20   12.62    8.01
  -1  -5   0  392.01   14.36
   1  -5   0  413.68   15.24
  -1   5   0  387.31   14.21
   1   5   0  393.66   14.36
  -1   5   0  406.36   20.62
  -1  -5  -1  161.01    4.95
   1  -5  -1  170.36    8.65
  -1  -5   1  181.41    6.46
   1  -5   1  178.21    6.67
  -1   5   1  177.52    5.32
   1   5   1  165.76    5.03
  -1   5  -1  163.55    5.59
   1   5  -1  184.64    5.48
  -1   5   1  175.27    7.50
  -1  -5  -2  591.70   21.63
   1  -5  -2  639.54   22.01
  -1  -5   2  623.26   21.86
   1  -5   2  612.15   22.37
  -1   5   2  606.47   21.17
   1   5   2  613.95   21.16
  -1   5  -2  585.40   20.19
   1   5  -2  595.58   20.75
  -1   5   2  596.37   20.77
  -1  -5  -3  720.50   14.81
   1  -5  -3  716.67   13.85
  -1  -5   3  714.89   14.86
   1  -5   3  698.58   13.99
  -1   5   3  703.94   14.07
   1   5   3  704.74   13.66
  -1   5  -3  698.19   14.24
   1   5  -3  679.97   41.63
  -1   5   3  713.21   14.79
  -1  -5  -4 1197.36   22.05
   1  -5  -4 1228.84   21.82
  -1  -5   4 1258.98   23.12
   1  -5   4 1201.21   21.90
   1   5  -4 1211.45   21.94
  -1   5   4 1236.28   22.88
  -1  -5  -5  329.20    9.71
   1  -5  -5  302.41    6.70
  -1  -5   5  300.98    6.77
  -1   5  -5  316.53   15.72
   1   5  -5  338.71    8.59
  -1   5   5  341.88   12.16
  -1   5  -6  219.34    7.17
  -1  -5  -6  217.40    6.58
   1  -5  -6  195.79    5.72
  -1  -5   6  212.78    6.48
  -1   5  -6  212.93    6.88
   1   5  -6  208.03    8.05
  -1   5  -6  225.19    3.65
  -1   5   6  233.00    7.81
  -1   5  -7  857.56   25.36
  -1  -5  -7  869.46   25.67
   1  -5  -7  883.65   25.45
  -1  -5   7  909.53   26.95
  -1   5  -7  856.29   26.99
   1   5  -7  869.55   26.45
  -1   5  -7  878.61   23.75
  -1   5   7  976.63   29.20
   1   5   7  851.53   26.11
  -1   5  -8  682.60   21.58
   1  -5  -8  691.91   21.10
  -1  -5  -8  615.51   20.15
  -1  -5   8  693.65   22.05
  -1   5  -8  662.91   21.53
   1   5  -8  634.24   20.86
  -1   5  -8  667.44   18.45
  -1   5   8  620.64   19.81
   1   5   8  700.33   22.33
  -1   5  -9  126.79    9.38
   1  -5  -9  124.81    9.03
  -1  -5  -9  140.06   22.45
  -1   5  -9  141.57   11.85
   1   5  -9  148.32   21.11
  -1   5   9  134.17    9.59
   1   5   9  117.49    8.36
  -1   5  -9  125.17    6.45
   1   5 -10  466.85   15.71
  -1   5 -10  490.05   13.33
   1  -5 -10  456.83   16.55
  -1  -5 -10  486.27   12.86
  -1   5 -10  476.42   14.00
   1   5 -10  461.03   13.74
  -1   5  10  466.18   19.53
   1   5  10  486.30   13.10
   1   5 -11   44.84   17.76
  -1   5 -11   36.41   11.49
   1  -5 -11   53.24    6.40
  -1  -5 -11   48.44   15.10
  -1   5 -11   36.30   17.84
   1   5 -11   24.52    8.64
  -1  -5 -11   31.37   12.41
   1  -5 -11   53.39   12.45
  -1   5  11   30.78   13.71
   1   5  11   50.86    8.67
   1   5 -12  570.31   21.99
  -1   5 -12  543.29   21.55
   1  -5 -12  521.87   19.89
  -1  -5 -12  546.68   20.95
  -1   5 -12  552.66   23.93
   1   5 -12  559.74   22.97
  -1  -5 -12  563.30   22.76
   1  -5 -12  509.34   22.40
  -1   5  12  547.17   21.56
   1   5  12  565.66   22.39
   1   5 -13   -3.86    4.45
  -1   5 -13    2.57    2.03
   1  -5 -13    2.85    4.30
  -1  -5 -13    7.73    5.84
  -1   5 -13    6.74    7.17
   1   5 -13    7.35    3.69
  -1  -5 -13   -8.46    6.12
   1  -5 -13    7.15    4.93
  -1   5  13    6.62    3.87
   1   5  13   13.00    5.78
   1   5 -14   57.01    8.75
  -1   5 -14   85.14   19.91
   1  -5 -14   93.28    7.45
  -1  -5 -14   72.06    7.00
  -1   5 -14  103.54   10.12
   1   5 -14   63.60   24.47
  -1  -5 -14   67.06    9.14
   1  -5 -14  112.00   29.41
  -1   5  14   63.91   17.45
   1   5  14  102.62   10.46
   1   5 -15   27.52   13.80
  -1   5 -15   20.84    9.18
   1  -5 -15   16.99    7.76
  -1  -5 -15   14.66    6.16
  -1   5 -15   14.06   13.49
   1   5 -15   28.60   14.16
  -1  -5 -15   25.31   11.13
   1  -5 -15   20.95    8.89
  -1   5  15   21.19    9.75
   1   5  15   11.63    5.95
   1   5 -16  240.19   20.34
  -1   5 -16  229.22   19.29
   1  -5 -16  214.17   14.80
  -1  -5 -16  264.35   10.80
  -1   5 -16  227.39   15.04
   1   5 -16  261.59   14.07
  -1  -5 -16  256.88   18.24
   1  -5 -16  238.52   24.79
  -1   5  16  269.15   18.81
   1   5  16  204.44    9.88
   1   5 -17   29.76    9.69
  -1   5 -17   32.79   12.67
  -1  -5 -17   31.39   12.69
  -1   5 -17   42.43   14.52
   1   5 -17   48.07   11.74
  -1  -5 -17   55.57   17.19
   1  -5 -17   33.17   11.64
  -1   5  17   47.75   13.46
   1   5  17   34.75   18.64
   1   5 -18   14.35    8.08
  -1   5 -18   23.51    6.87
   1  -5 -18   16.44    3.96
  -1  -5 -18   13.45    4.81
  -1   5 -18    8.23   11.26
   1   5 -18   17.37    7.18
  -1  -5 -18   18.40    9.65
   1  -5 -18   11.11    5.72
  -1   5  18   10.88    4.58
   1   5  18   11.77    4.28
   1   5 -19   11.56    4.02
  -1   5 -19   10.40    5.54
   1  -5 -19   10.95    5.16
  -1  -5 -19    3.82    3.06
  -1   5 -19   11.10    6.63
   1   5 -19   17.99   12.74
  -1  -5 -19    5.14    3.48
   1  -5 -19    7.49    4.72
  -1   5  19    6.72    3.87
   1   5  19    4.77    3.61
   1   5 -20   23.12   13.96
  -1   5 -20   42.58   13.43
  -1  -5 -20   30.06    9.72
  -1   5 -20   37.51   10.62
   1   5 -20   42.74   16.58
  -1  -5 -20   38.95   11.09
   1  -5 -20   16.88   10.58
  -1   5  20   28.85    9.00
  -1  -6   0   42.43   10.59
   1  -6   0   44.61    4.60
  -1   6   0   27.82   11.63
   1   6   0   43.74    4.86
  -1   6   0   31.54    4.25
  -1  -6  -1  190.50   12.66
   1  -6  -1  182.93    5.16
  -1  -6   1  173.87    5.57
   1  -6   1  183.64    6.49
  -1   6   1  163.67    8.08
   1   6   1  189.01   14.67
  -1   6  -1  190.55   12.63
   1   6  -1  186.94   12.70
  -1   6   1  190.04   13.14
  -1  -6  -2    7.79    6.03
   1  -6  -2   26.56    4.07
  -1  -6   2   27.05   11.84
   1  -6   2    9.81    3.87
  -1   6   2    3.73    3.10
   1   6   2   24.82   11.89
  -1   6  -2   16.95    9.61
   1   6  -2    9.65    3.73
  -1   6   2    8.12    5.25
  -1  -6  -3  803.72   23.86
   1  -6  -3  768.47   22.41
  -1  -6   3  781.01   23.41
   1  -6   3  877.85   25.76
  -1   6   3  859.87   25.31
   1   6   3  756.44   22.18
  -1   6  -3  783.29   23.17
   1   6  -3  786.75   23.11
  -1   6   3  807.44   23.86
  -1  -6  -4  410.41   17.53
   1  -6  -4  479.01    8.54
  -1  -6   4  456.84    9.39
   1  -6   4  416.47   10.23
  -1   6  -4  462.05    9.01
   1   6  -4  417.99    8.68
  -1   6   4  434.79    9.66
  -1  -6  -5    1.18    3.49
   1  -6  -5    2.50    2.46
  -1  -6   5    0.08    1.69
   1  -6   5   -0.41    4.56
  -1   6  -5    3.95    3.25
   1   6  -5   -0.91    2.15
  -1   6   5   -3.21    4.76
  -1  -6  -6 1564.42   44.03
   1  -6  -6 1589.15   44.24
  -1  -6   6 1615.77   45.66
   1  -6   6 1543.57   43.57
  -1   6  -6 1640.68   46.10
   1   6  -6 1631.58   46.33
  -1   6   6 1533.33   44.36
  -1  -6  -7  358.55   10.40
   1  -6  -7  372.54    7.86
  -1  -6   7  361.74   16.13
  -1   6  -7  323.84    7.92
   1   6  -7  331.50   10.11
  -1   6  -7  340.95    4.41
  -1   6   7  417.78   19.70
   1   6   7  328.18    8.02
  -1   6  -8   58.86   17.72
  -1  -6  -8   38.05   19.49
   1  -6  -8   36.48    5.40
  -1  -6   8   38.17   19.39
  -1   6  -8   52.48   20.26
   1   6  -8   37.20   12.79
  -1   6  -8   40.77    1.57
  -1   6   8   41.66   19.42
   1   6   8   51.97   12.40
  -1   6  -9  363.71   12.76
   1  -6  -9  319.39   19.63
  -1  -6  -9  307.87   10.15
  -1  -6   9  343.81   14.45
  -1   6  -9  334.90   10.44
   1   6  -9  289.99   18.92
  -1   6  -9  341.51    5.17
  -1   6   9  282.04   16.73
   1   6   9  356.71   12.13
  -1   6 -10  192.36   14.56
   1  -6 -10  198.26   13.40
  -1  -6 -10  173.41   19.27
  -1  -6  10  188.34   12.69
  -1   6 -10  192.62   14.99
   1   6 -10  185.16   31.42
  -1   6  10  153.14   11.32
   1   6  10  191.77   14.59
  -1   6 -11   70.88   21.03
   1  -6 -11   74.86   22.43
  -1  -6 -11   66.83   16.38
  -1  -6  11   75.93   25.77
  -1   6 -11   57.89   25.07
   1   6 -11   76.91   28.05
  -1   6  11   64.36    7.09
   1   6  11   69.09   10.60
  -1   6 -12  103.16   25.85
   1  -6 -12   90.46    9.91
  -1  -6 -12   71.19   10.11
  -1  -6  12   96.50    6.76
  -1   6 -12   94.15   11.85
   1   6 -12   81.91   25.90
  -1  -6 -12   76.37   11.43
   1  -6 -12   89.72   13.41
  -1   6  12   83.24   23.95
  -1   6 -13   63.20    9.57
   1  -6 -13   62.03    6.72
  -1  -6 -13   42.94   13.64
  -1  -6  13   52.97   20.64
  -1   6 -13   56.92   24.75
   1   6 -13   51.59   14.88
  -1  -6 -13   60.17   15.27
   1  -6 -13   58.96   11.82
  -1   6  13   52.97   15.96
   1   6  13   41.95   20.22
  -1   6 -14   49.17    9.69
   1  -6 -14   40.63   14.18
  -1  -6 -14   43.43   18.50
  -1  -6  14   46.25   15.51
  -1   6 -14   38.99   12.10
   1   6 -14   60.85   26.01
  -1  -6 -14   36.92   18.19
   1  -6 -14   58.93   14.49
  -1   6  14   54.33   21.91
   1   6  14   61.17    7.79
  -1   6 -15  132.80   15.19
   1  -6 -15  153.32   12.76
  -1  -6 -15  122.05   16.81
  -1   6 -15  136.93   22.72
   1   6 -15  148.09   14.52
  -1  -6 -15  137.53   29.10
   1  -6 -15  156.15   26.05
  -1   6  15  136.09   21.84
   1   6  15  138.36   19.35
  -1   6 -16   66.59   14.93
   1  -6 -16   49.08    7.14
  -1  -6 -16   40.54   11.44
  -1  -6  16   34.24   13.50
  -1   6 -16   38.57   18.95
   1   6 -16   51.22   18.81
  -1  -6 -16   50.47   17.19
   1  -6 -16   64.67   16.92
  -1   6  16   36.92   16.97
   1   6  16   47.53   18.47
  -1   6 -17   41.24   14.85
   1  -6 -17   41.61   13.17
  -1  -6 -17   46.26   16.82
  -1  -6  17   40.90   19.94
  -1   6 -17   32.93   10.58
   1   6 -17   55.68   16.67
  -1  -6 -17   51.24   16.72
   1  -6 -17   53.53   22.19
  -1   6  17   50.60   15.50
   1   6  17   58.03    8.26
  -1   6 -18   82.01   29.04
   1  -6 -18  115.52   25.82
  -1  -6 -18  108.15   31.01
  -1  -6  18   90.06   22.61
  -1   6 -18   90.98   37.82
   1   6 -18   81.22   42.35
  -1  -6 -18  122.72   28.86
   1  -6 -18   81.80   34.11
  -1   6  18   99.47   22.64
   1   6  18   90.87   26.90
  -1   6 -19   22.52   13.71
  -1  -6 -19   14.27    5.69
  -1  -6  19   13.99    5.64
  -1   6 -19   20.43    9.12
   1   6 -19   29.13   10.03
  -1  -6 -19   16.09    7.37
   1  -6 -19   48.26    8.72
  -1   6  19   28.81    8.60
   1   6  19   21.24   12.02
  -1  -7   0  843.94   25.13
   1  -7   0  837.70   24.94
  -1   7   0  827.78   26.05
   1   7   0  862.32   25.32
  -1   7   0  841.43   24.48
  -1  -7  -1  455.34    9.54
   1  -7  -1  464.56   10.01
  -1  -7   1  421.29    8.80
   1  -7   1  478.94    9.99
  -1   7   1  452.92    9.06
   1   7   1  457.68    9.00
  -1   7  -1  475.39    9.89
   1   7  -1  452.03   12.65
  -1   7   1  446.94    9.04
  -1  -7  -2 1291.24   36.89
   1  -7  -2 1257.49   36.06
  -1  -7   2 1197.51   34.70
   1  -7   2 1240.69   35.69
  -1   7   2 1338.67   39.20
   1   7   2 1229.15   34.95
  -1   7  -2 1210.30   34.66
   1   7  -2 1295.53   36.71
  -1   7   2 1238.74   35.35
  -1  -7  -3  138.06   10.67
   1  -7  -3  139.25    9.87
  -1  -7   3  135.40   10.07
   1  -7   3  130.52   12.50
  -1   7   3  133.11    9.92
   1   7   3  153.24   11.65
  -1   7  -3  149.98   10.53
   1   7  -3  138.16   15.83
  -1   7   3  124.50    9.90
  -1  -7  -4  467.13   10.47
   1  -7  -4  484.86   12.38
  -1  -7   4  493.36   10.21
   1  -7   4  475.87   10.69
   1   7   4  522.59    9.63
  -1   7  -4  512.40    9.97
   1   7  -4  443.41    9.66
  -1   7   4  447.74    9.97
  -1  -7  -5  236.11    7.67
   1  -7  -5  253.67    7.21
  -1  -7   5  218.15    7.16
   1  -7   5  233.42    8.30
  -1   7  -5  216.97   13.91
   1   7  -5  242.76    9.13
  -1   7   5  247.31    7.94
  -1  -7  -6  618.64   20.13
   1  -7  -6  589.62   18.60
  -1  -7   6  618.17   20.68
   1  -7   6  602.70   19.91
   1   7  -6  579.60   19.76
  -1   7   6  597.66   20.05
  -1  -7  -7  138.53   18.34
   1  -7  -7  101.10    7.08
  -1  -7   7  129.72   24.66
   1  -7   7   98.79   10.65
  -1   7  -7  111.82   10.64
   1   7  -7  110.46    8.75
  -1   7   7  121.02   25.55
   1   7   7  109.17   10.35
  -1  -7  -8  562.30   14.01
   1  -7  -8  506.51   12.30
  -1  -7   8  508.71   14.29
   1  -7   8  563.04   15.87
  -1   7  -8  491.82   12.63
   1   7  -8  545.89   15.70
   1   7   8  513.99   14.76
  -1  -7  -9  162.57   12.42
   1  -7  -9  164.74   11.26
  -1  -7   9  162.23   12.56
   1  -7   9  160.28   12.97
  -1   7  -9  164.31   29.97
   1   7  -9  169.11   22.66
  -1   7   9  169.21   13.59
   1   7   9  154.25   22.34
  -1  -7 -10  559.27   21.62
   1  -7 -10  548.87   21.13
  -1  -7  10  523.71   21.59
   1  -7  10  540.07   21.65
  -1   7 -10  562.21   22.60
   1   7 -10  537.74   22.31
  -1   7  10  525.90   20.83
   1   7  10  551.25   22.08
  -1   7 -11   81.64   25.19
   1  -7 -11   72.38    7.48
  -1  -7 -11   65.15    8.66
  -1  -7  11   76.23   27.38
  -1   7 -11   65.52   31.12
   1   7 -11   73.15   19.82
  -1   7  11   73.44    8.09
   1   7  11   82.10   17.98
  -1   7 -12  213.43   20.61
   1  -7 -12  218.45   18.20
  -1  -7 -12  242.16   19.16
  -1  -7  12  196.48   13.24
  -1   7 -12  235.54   35.22
   1   7 -12  222.48   24.09
  -1   7  12  238.85   15.94
   1   7  12  267.50   18.92
  -1   7 -13    3.49    5.04
   1  -7 -13   11.73    4.02
  -1  -7 -13   13.21    6.86
  -1  -7  13    3.39    3.44
  -1   7 -13   10.44    9.99
   1   7 -13    6.43    5.28
  -1  -7 -13   16.63    6.29
   1  -7 -13   19.31    6.03
  -1   7  13    7.66    5.67
   1   7  13    6.38    5.72
  -1   7 -14  249.94   23.19
   1  -7 -14  254.32   19.15
  -1  -7 -14  232.16   19.73
  -1  -7  14  242.22   19.83
  -1   7 -14  267.62   21.95
   1   7 -14  273.87   23.67
  -1  -7 -14  270.28   21.75
   1  -7 -14  273.29   22.65
  -1   7  14  261.73   27.51
   1   7  14  283.57   22.18
  -1   7 -15   32.78   10.33
   1  -7 -15   27.59   15.64
  -1  -7 -15   40.05   15.83
  -1  -7  15   30.73   13.11
  -1   7 -15   35.34   18.07
   1   7 -15   38.46   11.25
  -1  -7 -15   41.57   13.65
   1  -7 -15   49.65   20.11
  -1   7  15   42.06   18.04
   1   7  15   27.30   11.99
  -1   7 -16  130.65   15.78
   1  -7 -16  159.02   17.74
  -1  -7 -16  117.25   15.13
  -1  -7  16  146.32    9.43
  -1   7 -16  131.64    9.18
   1   7 -16  141.21   11.88
  -1  -7 -16  125.09   10.96
   1  -7 -16  140.42   18.12
  -1   7  16  130.57   21.40
   1   7  16  152.65    9.37
  -1   7 -17   20.68    7.50
   1  -7 -17    9.43    6.05
  -1  -7 -17   12.87    6.70
  -1  -7  17   11.62    7.67
  -1   7 -17   16.52    7.55
   1   7 -17   10.28    7.40
  -1  -7 -17   30.02   10.20
   1  -7 -17    3.36    7.48
  -1   7  17   17.49    8.95
   1   7  17    8.57    1.87
  -1   7 -18   30.98   10.73
   1  -7 -18   26.59   12.61
  -1  -7 -18   27.18    7.26
  -1  -7  18   25.54   11.84
  -1   7 -18   42.39   21.44
   1   7 -18   24.05   13.32
  -1  -7 -18   47.08   13.95
   1  -7 -18   39.31   12.37
  -1   7  18   40.69   11.53
   1   7  18   43.05   15.35
  -1   7 -19   32.53   13.74
  -1  -7 -19   14.49    8.32
  -1  -7  19   12.13    5.96
  -1   7 -19    7.35    4.06
   1   7 -19   11.65    7.86
  -1  -7 -19   14.60    6.55
   1  -7 -19    9.49    9.76
  -1   7  19   20.94    6.20
   1   7  19   14.37    6.57
  -1  -8   0  290.36    9.15
   1  -8   0  281.37    7.49
  -1   8   0  291.11    7.97
   1   8   0  292.73    7.73
  -1   8   0  313.69    8.18
  -1  -8  -1  344.56    9.27
   1  -8  -1  340.69    8.47
  -1  -8   1  361.59   13.68
   1  -8   1  341.04    8.19
  -1   8   1  349.44    8.15
   1   8   1  342.29    8.40
  -1   8  -1  351.65    9.43
   1   8  -1  365.90    8.45
  -1   8   1  332.25   16.85
  -1  -8  -2  276.40    7.70
   1  -8  -2  286.05    8.35
  -1  -8   2  275.69    9.19
   1  -8   2  273.98    7.10
  -1   8   2  272.35    7.04
   1   8   2  282.67    8.03
  -1   8  -2  280.87    8.32
   1   8  -2  277.52    6.98
  -1   8   2  286.29    8.67
  -1  -8  -3  660.49   21.49
   1  -8  -3  582.87   18.79
  -1  -8   3  631.66   20.67
   1  -8   3  610.72   19.42
  -1   8   3  605.88   24.76
   1   8   3  622.99   19.86
  -1   8  -3  609.59   19.65
   1   8  -3  622.42   20.05
  -1   8   3  632.56   23.96
  -1  -8  -4  513.57   17.26
   1  -8  -4  575.10   21.55
  -1  -8   4  573.66   22.26
   1  -8   4  545.95   27.61
  -1   8   4  569.36   18.72
   1   8   4  585.00   18.96
  -1   8  -4  534.37   17.37
   1   8  -4  541.38   18.14
  -1   8   4  545.51   18.58
  -1  -8  -5  252.99   16.96
   1  -8  -5  226.23   14.77
  -1  -8   5  230.09    7.97
   1  -8   5  227.79    9.95
  -1   8  -5  211.12   22.35
   1   8  -5  251.07    9.60
  -1   8   5  254.22    9.48
  -1  -8  -6  168.09   11.98
   1  -8  -6  148.47   11.01
  -1  -8   6  153.69   13.06
   1  -8   6  182.14   13.54
  -1   8  -6  158.78   12.15
   1   8  -6  214.05   15.89
  -1   8   6  172.09   18.57
  -1  -8  -7  298.38   10.73
   1  -8  -7  290.69   16.91
  -1  -8   7  271.65   16.41
   1  -8   7  310.76   12.31
  -1   8  -7  265.48   25.16
   1   8  -7  293.67   17.90
  -1   8   7  264.20   17.78
   1   8   7  253.63   15.41
  -1  -8  -8  165.16   29.24
   1  -8  -8  178.10   15.99
  -1  -8   8  192.49   27.92
   1  -8   8  164.86   14.31
  -1   8  -8  175.52   24.31
   1   8  -8  142.69   20.65
  -1   8   8  173.77   13.22
   1   8   8  149.81   11.88
  -1  -8  -9  351.46   21.13
   1  -8  -9  383.56   29.29
  -1  -8   9  400.63   17.93
   1  -8   9  359.00   16.42
  -1   8  -9  331.67   14.54
   1   8  -9  360.37   16.83
  -1   8   9  451.52   22.87
   1   8   9  349.13   17.13
   1  -8 -10   54.70   16.74
  -1  -8 -10   40.70    6.86
  -1  -8  10   48.65   16.96
   1  -8  10   48.50    9.87
  -1   8 -10   56.74   24.99
   1   8 -10   51.74   13.72
  -1   8  10   59.28   13.22
   1   8  10   54.97   24.34
   1  -8 -11   22.43    7.92
  -1  -8 -11   27.35    9.56
  -1  -8  11   22.26   13.82
   1  -8  11   21.13   15.49
  -1   8 -11   15.04   11.55
   1   8 -11   32.19   18.46
  -1   8  11   27.16    9.19
   1   8  11   29.01    6.95
   1  -8 -12   79.92    6.41
  -1  -8 -12   95.92   14.45
  -1  -8  12   86.90   12.95
   1  -8  12   95.04    7.43
  -1   8 -12   82.68   22.04
   1   8 -12   90.32   15.26
  -1   8  12  101.37    7.81
   1   8  12   85.81   13.33
   1  -8 -13    5.50    4.31
  -1  -8 -13    6.88    2.71
  -1  -8  13   10.71    3.66
   1  -8  13   19.04    7.16
  -1   8 -13    8.94    6.88
   1   8 -13   10.97   11.29
  -1   8  13    3.83    5.56
   1   8  13   17.25    8.47
   1  -8 -14   75.07    6.64
  -1  -8 -14   55.61   26.18
  -1  -8  14   55.28   16.28
   1  -8  14   62.87   30.34
  -1   8 -14   51.08   18.71
   1   8 -14   56.85   28.27
  -1  -8 -14   63.39   18.75
   1  -8 -14   47.22   13.68
  -1   8  14   55.29   21.27
   1   8  14   51.67   20.84
   1  -8 -15   36.78   18.28
  -1  -8 -15   46.44   19.39
  -1  -8  15   49.05   20.54
   1  -8  15   34.94   20.54
  -1   8 -15   54.14   13.55
   1   8 -15   43.49   14.53
  -1  -8 -15   51.86    9.70
   1  -8 -15   39.73   16.55
  -1   8  15   39.57   19.92
   1   8  15   67.41   10.35
   1  -8 -16   68.15    5.15
  -1  -8 -16   65.08   22.16
  -1  -8  16   61.97   20.52
   1  -8  16   65.33   25.61
  -1   8 -16   84.62   17.89
   1   8 -16   68.32   23.84
  -1  -8 -16   67.33   22.08
   1  -8 -16   67.45   27.37
  -1   8  16   69.75   22.87
   1   8  16   82.55   10.40
   1  -8 -17    5.09    3.82
  -1  -8 -17    4.76    3.79
  -1  -8  17    2.81    4.53
   1  -8  17    1.94    4.62
  -1   8 -17    4.80    3.64
   1   8 -17    2.68    2.82
  -1  -8 -17    2.93    4.67
   1  -8 -17    1.34    6.79
  -1   8  17   47.99   11.87
   1   8  17    6.24    4.73
  -1  -8 -18   54.75   20.04
  -1  -8  18   51.28   23.13
   1  -8  18   49.86   21.12
  -1   8 -18   43.23   19.55
   1   8 -18   65.33   25.29
  -1  -8 -18   44.94   21.29
   1  -8 -18   53.34   14.45
  -1   8  18   55.79   22.16
   1   8  18   56.46   25.27
  -1  -8 -19   20.85    9.22
  -1  -8  19   15.31   13.41
   1  -8  19   25.00   10.54
  -1   8 -19   31.33   12.26
   1   8 -19   17.06   15.12
  -1  -8 -19   18.19    7.49
   1  -8 -19   30.70   14.04
  -1   8  19   22.75    7.75
   1   8  19   22.19   15.34
  -1  -9   0   -2.73    6.28
   1  -9   0    7.27    5.48
  -1   9   0    1.84    5.53
   1   9   0    1.97    5.72
  -1   9   0    1.75    2.66
  -1  -9  -1  983.80   30.65
   1  -9  -1  921.88   28.63
  -1  -9   1  918.73   29.31
   1  -9   1  995.31   30.35
  -1   9   1  914.54   32.09
   1   9   1  939.58   28.80
  -1   9  -1  901.32   30.11
   1   9  -1 1012.83   30.72
  -1   9   1  958.86   28.99
  -1   9  -1  941.68   28.86
  -1  -9  -2  100.94    7.68
   1  -9  -2   98.67    6.85
  -1  -9   2   96.10   16.32
   1  -9   2   86.67    6.41
  -1   9   2  102.67    6.39
   1   9   2  100.20   17.74
  -1   9  -2   92.86    9.28
   1   9  -2   96.69    6.79
  -1   9   2   94.14    5.73
  -1  -9  -3   31.79   15.94
   1  -9  -3   53.76   16.30
  -1  -9   3   57.85   20.85
   1  -9   3   41.96   14.78
  -1   9   3   40.16   16.80
   1   9   3   62.69    9.34
  -1   9  -3   48.32   22.35
   1   9  -3   43.27    9.69
  -1   9   3   41.91    7.35
  -1  -9  -4 1186.26   22.77
   1  -9  -4 1149.57   21.05
  -1  -9   4 1176.70   22.56
   1  -9   4 1208.12   24.02
  -1   9   4 1209.60   22.74
   1   9   4 1173.95   21.52
  -1   9  -4 1173.17   22.16
   1   9  -4 1197.62   22.92
  -1   9   4 1195.16   22.94
  -1  -9  -5  182.89   12.06
   1  -9  -5  214.83   13.22
  -1  -9   5  195.37   13.45
   1  -9   5  168.11   11.70
  -1   9  -5  179.42   23.09
   1   9  -5  205.28   14.96
  -1   9   5  199.24   15.81
  -1  -9  -6   56.23   18.93
   1  -9  -6   52.36   20.09
  -1  -9   6   61.41   20.56
   1  -9   6   51.11   16.84
  -1   9  -6   47.01   17.98
   1   9  -6   50.79   23.20
  -1   9   6   55.16   26.00
   1   9   6   48.46    8.24
  -1  -9  -7   11.53    7.65
   1  -9  -7   14.85    8.44
  -1  -9   7   12.93    5.31
   1  -9   7   18.57    7.95
  -1   9  -7    8.15    6.33
   1   9  -7    5.40    5.26
  -1   9   7    6.98    6.71
   1   9   7   15.02   10.06
  -1  -9  -8  156.07   31.87
   1  -9  -8   98.11   29.22
  -1  -9   8  109.34   16.77
   1  -9   8  146.26   24.05
  -1   9  -8  114.34   27.64
   1   9  -8  153.67   23.93
  -1   9   8  141.75   11.06
   1   9   8  116.50   23.66
  -1  -9  -9   27.14    9.78
   1  -9  -9   12.06    5.58
   1  -9   9   11.68    6.04
  -1   9  -9   24.03    7.88
   1   9  -9   14.42    5.60
  -1   9   9   32.53   12.24
   1   9   9   27.31    8.18
  -1  -9 -10  183.75   13.69
   1  -9 -10  153.90   11.85
  -1  -9  10  167.11   21.56
   1  -9  10  161.56   13.38
  -1   9 -10  153.98   21.66
   1   9 -10  171.58   15.00
  -1   9  10  190.42   30.87
   1   9  10  153.99   14.14
  -1  -9 -11  184.00   14.20
   1  -9 -11  190.87   15.07
  -1  -9  11  210.03   11.71
   1  -9  11  193.89   11.74
  -1   9 -11  208.05   11.07
   1   9 -11  157.96   37.96
  -1   9  11  178.91   12.28
   1   9  11  192.19   19.59
   1  -9 -12   39.09    6.92
  -1  -9 -12   31.07   14.90
  -1  -9  12   26.29   14.60
   1  -9  12   37.04   19.65
   1   9 -12   14.13   11.08
  -1   9  12   23.39    6.74
   1   9  12   21.22   12.38
   1  -9 -13  123.48   15.75
  -1  -9 -13  146.17   13.33
  -1  -9  13  120.12   20.82
   1  -9  13  134.48   20.96
  -1   9 -13  110.00   17.22
   1   9 -13  133.69   28.66
  -1   9  13  121.95   21.00
   1   9  13  757.99  156.88
   1  -9 -14   60.88    7.16
  -1  -9 -14   45.88   19.88
  -1  -9  14   63.76   26.98
   1  -9  14   43.64   23.63
  -1   9 -14   57.13   19.98
   1   9 -14   51.50   22.99
  -1  -9 -14   49.09   19.20
  -1   9  14   53.35   23.96
   1   9  14   57.22   17.33
   1  -9 -15   86.89   10.33
  -1  -9 -15   73.08   18.26
  -1  -9  15   87.55   16.72
   1  -9  15   80.19   31.58
  -1   9 -15   83.04   29.23
   1   9 -15   80.33   11.84
  -1  -9 -15   78.46   10.45
   1  -9 -15   79.74   23.79
  -1   9  15   71.87   10.13
   1   9  15   74.32   26.03
   1  -9 -16   75.46    8.76
  -1  -9 -16   54.29   13.63
  -1  -9  16   59.41   25.74
   1  -9  16   72.27   26.32
  -1   9 -16   81.42   30.55
   1   9 -16   70.99   31.88
  -1  -9 -16   84.23   11.57
   1  -9 -16   85.05   11.10
  -1   9  16   65.94   26.76
   1   9  16   71.92   19.94
   1  -9 -17   25.25   17.17
  -1  -9 -17   28.44   13.04
  -1  -9  17   30.13    6.31
   1  -9  17   39.81   15.89
  -1   9 -17   26.43   14.15
   1   9 -17   29.74    9.53
  -1  -9 -17   33.20    7.06
   1  -9 -17   50.25   11.06
  -1   9  17   27.80   10.86
   1   9  17   35.23   18.42
  -1  -9 -18    3.13    3.74
  -1  -9  18   12.40    5.69
   1  -9  18    7.69    3.75
  -1   9 -18   11.56    9.30
   1   9 -18    6.08    6.68
  -1  -9 -18    8.94    6.27
   1  -9 -18    2.43    7.74
  -1   9  18    6.01    7.33
   1   9  18   -0.33    6.37
  -1 -10   0  231.63   15.08
   1 -10   0  238.12   23.23
  -1  10   0  231.56   26.04
   1  10   0  252.77   15.54
  -1  10   0  233.21   20.75
  -1 -10  -1  190.88   15.81
   1 -10  -1  153.28   20.26
  -1 -10   1  160.58   22.54
   1 -10   1  155.36   13.73
  -1  10   1  145.89   11.70
   1  10   1  161.84   10.92
  -1  10  -1  164.02   12.10
   1  10  -1  147.19    9.90
  -1  10   1  159.80   22.91
  -1  10  -1  171.56   11.06
  -1 -10  -2  385.79   12.03
   1 -10  -2  389.23   13.64
  -1 -10   2  380.06   32.84
   1 -10   2  427.50   13.70
  -1  10   2  405.30   12.97
   1  10   2  387.75   11.86
  -1  10  -2  407.47   12.71
   1  10  -2  437.94   13.65
  -1  10   2  390.95   22.14
  -1  10  -2  398.37   10.71
  -1 -10  -3  110.05   22.00
   1 -10  -3  105.54    9.42
  -1 -10   3  118.11   15.86
   1 -10   3   90.34    9.57
  -1  10   3  105.22   11.43
   1  10   3  127.34   20.54
  -1  10  -3  110.34    9.16
   1  10  -3  116.58    9.81
  -1  10   3  101.56    9.61
  -1 -10  -4  445.00   28.35
   1 -10  -4  430.96   15.99
  -1 -10   4  420.24   15.33
   1 -10   4  489.22   37.74
  -1  10   4  458.16   15.48
   1  10   4  465.24   16.84
  -1  10  -4  457.10   16.29
   1  10  -4  447.33   27.39
  -1  10   4  448.63   24.48
  -1 -10  -5  105.68   15.24
   1 -10  -5  114.06   23.86
  -1 -10   5  122.20   20.16
   1 -10   5   98.06    9.08
   1  10   5  136.18   19.17
  -1  10  -5  125.83   13.82
   1  10  -5  100.91    9.06
  -1  10   5  103.13   15.25
  -1 -10  -6  170.05   20.14
   1 -10  -6  141.22   11.08
  -1 -10   6  135.03   10.28
   1 -10   6  151.47   10.41
  -1  10  -6  134.94   21.94
   1  10  -6  157.64   21.98
  -1  10   6  180.66   13.27
   1  10   6  150.40   12.54
  -1 -10  -7  116.04   19.45
   1 -10  -7  112.33   14.11
  -1 -10   7  113.44    7.60
   1 -10   7   96.81    8.15
  -1  10  -7  106.53    7.44
   1  10  -7  118.49    9.65
  -1  10   7   93.88    8.06
   1  10   7  104.40    8.64
  -1 -10  -8  109.60   22.82
   1 -10  -8   95.61   22.06
  -1 -10   8  102.48    7.64
   1 -10   8  102.49   11.24
  -1  10  -8   99.72    6.95
   1  10  -8  109.62   14.16
  -1  10   8  107.73   17.87
   1  10   8  106.40   16.95
  -1  10  -8  109.17    3.99
  -1 -10  -9   51.31   19.48
   1 -10  -9   41.21   11.42
  -1 -10   9   40.73   16.15
   1 -10   9   53.85   12.65
  -1  10  -9   59.98   20.59
   1  10  -9   51.40   20.07
   1  10   9   50.96   17.95
  -1 -10 -10  119.67   11.47
   1 -10 -10  116.42   33.00
  -1 -10  10  114.97    8.76
   1 -10  10  101.25    8.59
  -1  10 -10  110.46   36.55
   1  10 -10  116.52   42.41
  -1  10  10  115.21   10.58
   1  10  10  122.98   17.69
  -1 -10 -11   33.54    9.17
   1 -10 -11   29.74   13.39
  -1 -10  11   40.59   14.28
   1 -10  11   46.86   13.35
  -1  10 -11   47.65   19.28
   1  10 -11   41.67   16.81
  -1  10  11   47.42   12.45
   1  10  11   39.03   12.85
  -1 -10 -12   14.23    6.57
   1 -10 -12   10.25    5.47
  -1 -10  12   11.85    4.07
   1 -10  12    5.42    8.23
  -1  10 -12   15.74    8.95
   1  10 -12    6.23    5.76
  -1  10  12    7.51    6.89
   1  10  12    8.64    8.51
   1 -10 -13   89.79   13.12
  -1 -10 -13   86.44   12.57
  -1 -10  13   82.33   27.73
   1 -10  13   89.26   12.79
  -1  10 -13  105.33   17.24
   1  10 -13   74.82   26.45
  -1  10  13   74.82    9.41
   1 -10 -14  120.99   12.62
  -1 -10 -14  117.88   16.94
  -1 -10  14  137.84    9.50
   1 -10  14  117.59   16.12
  -1  10 -14  113.59   16.73
   1  10 -14  118.34   43.31
  -1  10  14  125.62   10.70
   1  10  14  128.60   16.41
   1 -10 -15   14.89    9.19
  -1 -10 -15   17.60    4.22
  -1 -10  15   10.20    6.66
   1 -10  15   10.20    7.79
  -1  10 -15   22.45    8.38
   1  10 -15   14.74    8.22
  -1 -10 -15    6.79    5.17
   1 -10 -15   12.58    9.90
  -1  10  15    9.09    3.63
   1  10  15   17.53    7.78
   1 -10 -16   18.42    8.55
  -1 -10 -16   27.82    6.02
  -1 -10  16   23.44    8.02
   1 -10  16   22.03   14.85
  -1  10 -16   17.03    9.61
   1  10 -16   18.67    9.92
  -1 -10 -16   12.18    9.13
   1 -10 -16   17.82   10.35
  -1  10  16   33.47   11.40
   1  10  16   26.42   12.36
  -1 -10 -17   13.22    6.86
  -1 -10  17    4.69    6.88
   1 -10  17    6.27    4.69
  -1  10 -17   10.15    9.46
   1  10 -17    3.67    4.79
  -1 -10 -17    5.72    7.37
   1 -10 -17   -1.66    6.42
  -1  10  17    8.80    8.01
   1  10  17   12.38    7.29
  -1 -11   0  224.09   18.33
   1 -11   0  187.11   29.77
  -1  11   0  165.99   17.55
   1  11   0  173.80   13.54
  -1  11   0  163.15   11.05
  -1 -11  -1  256.86   13.72
   1 -11  -1  269.24   13.33
  -1 -11   1  266.83   13.48
   1 -11   1  250.72   24.31
  -1  11   1  242.54   20.24
   1  11   1  266.89   11.84
  -1  11  -1  248.94   25.20
   1  11  -1  236.84   13.46
  -1  11   1  267.97   12.48
  -1  11  -1  275.77   14.40
  -1 -11  -2   84.07   28.27
   1 -11  -2  110.10   11.79
  -1 -11   2   93.96    9.13
   1 -11   2   95.26   25.16
  -1  11   2   80.56   25.61
   1  11   2  105.05   13.44
  -1  11  -2  102.51   33.80
   1  11  -2   87.36   25.80
  -1  11   2   88.27   17.04
  -1  11  -2   98.53    7.96
  -1 -11  -3  193.63   13.48
   1 -11  -3  165.81   11.63
  -1 -11   3  170.57   16.43
   1 -11   3  199.08   13.32
  -1  11   3  183.86   23.51
   1  11   3  174.59   10.42
  -1  11  -3  177.75   11.45
   1  11  -3  205.62   12.79
  -1  11   3  184.73   13.00
  -1  11  -3  165.77   16.64
  -1 -11  -4   18.23    9.41
   1 -11  -4   31.57   14.29
  -1 -11   4   31.53    6.91
   1 -11   4   13.65    9.03
  -1  11   4   17.72    9.58
   1  11   4   23.88    5.86
  -1  11  -4   27.62    8.96
   1  11  -4   10.91    4.74
  -1  11   4   21.65    9.49
  -1  11  -4   28.47   10.09
  -1 -11  -5  195.99   21.15
   1 -11  -5  161.53   17.38
  -1 -11   5  155.94    9.19
   1 -11   5  187.11   33.04
   1  11   5  166.30   10.11
  -1  11  -5  165.10    9.41
   1  11  -5  169.45   19.63
  -1  11   5  179.85   10.29
  -1  11  -5  176.75    8.82
  -1 -11  -6   11.02    8.06
   1 -11  -6   11.36    9.02
  -1 -11   6    2.76    4.53
   1 -11   6    6.71    5.09
  -1  11  -6   10.89    5.42
   1  11  -6    2.79    4.13
  -1  11   6    5.85    5.23
   1  11   6   10.52    6.60
  -1  11  -6   10.75    4.51
  -1 -11  -7   46.47    7.79
   1 -11  -7   39.81    9.85
  -1 -11   7   39.61   16.08
   1 -11   7   37.39   12.88
  -1  11  -7   53.25   15.00
   1  11  -7   34.15   13.30
  -1  11   7   33.17   15.85
   1  11   7   29.41   13.60
  -1  11  -7   29.72    6.86
  -1 -11  -8   31.99   13.27
   1 -11  -8   39.33   12.48
  -1 -11   8   46.96   15.50
   1 -11   8   42.90   19.35
  -1  11  -8   66.61   16.50
   1  11  -8   44.93   14.08
  -1  11   8   61.69   19.34
   1  11   8   43.69   18.52
  -1 -11  -9  138.82   16.58
   1 -11  -9  152.11    8.06
  -1 -11   9  153.06   24.39
   1 -11   9  124.26    9.10
  -1  11  -9  152.02   24.70
   1  11  -9  161.09   24.66
   1  11   9  174.37   34.91
  -1 -11 -10   74.16   21.73
   1 -11 -10   63.67   11.87
  -1 -11  10   60.23   19.89
   1 -11  10   60.63   23.73
  -1  11 -10   44.04   20.93
   1  11 -10   73.10   24.93
  -1  11  10   63.04   16.75
   1  11  10   72.12   26.09
  -1 -11 -11  206.89   11.25
   1 -11 -11  187.51   11.51
  -1 -11  11  179.00   29.13
   1 -11  11  223.39   14.16
  -1  11 -11  182.09   28.11
   1  11 -11  215.06   11.72
  -1  11  11  182.10   10.52
   1  11  11  185.77   20.45
   1 -11 -12   55.87   18.83
  -1 -11 -12   48.33   14.96
  -1 -11  12   67.29   27.88
   1 -11  12   62.37   27.47
  -1  11 -12   58.61   18.68
   1  11 -12   54.51   24.29
  -1  11  12   76.38    9.90
   1  11  12   63.12   23.25
   1 -11 -13   48.67    8.71
  -1 -11 -13   27.87   19.36
  -1 -11  13   35.38   15.74
   1 -11  13   20.48    8.81
  -1  11 -13   43.19    8.89
   1  11 -13   36.55   15.96
   1  11  13  282.94  138.30
   1 -11 -14   40.29   18.20
  -1 -11 -14   68.09   17.13
  -1 -11  14   61.09   25.46
   1 -11  14   50.84   25.58
  -1  11 -14   93.17   13.76
   1  11 -14   71.07   12.49
  -1  11  14   64.43    8.77
   1  11  14   74.45   11.88
   1 -11 -15   12.14    6.48
  -1 -11 -15    6.49    3.11
  -1 -11  15   18.70   10.51
   1 -11  15   17.73    8.46
  -1  11 -15   15.36   14.32
   1  11 -15    4.63   10.26
  -1  11  15   11.31    8.32
   1  11  15    6.41    8.82
   1 -11 -16    2.13    5.45
  -1 -11 -16    2.68    4.95
  -1 -11  16    6.07    6.30
   1 -11  16    5.95    8.68
  -1  11 -16    0.77    4.76
   1  11 -16    5.63    6.85
  -1 -11 -16    0.29    4.88
   1 -11 -16    7.57    5.90
  -1  11  16    6.06    6.39
   1  11  16   -1.42    6.51
  -1 -11 -17   97.60    8.70
  -1 -11  17  111.79    9.37
   1 -11  17  101.70   51.02
  -1  11 -17   79.46   40.27
   1  11 -17  107.89   18.92
  -1 -11 -17  138.63   13.58
   1 -11 -17  122.80   17.95
  -1  11  17   83.38   32.07
   1  11  17   98.58   18.13
  -1 -12   0    5.12    4.68
   1 -12   0   14.80    7.05
  -1  12   0   11.35    4.14
   1  12   0    9.12    4.84
  -1  12   0    3.52    5.88
  -1 -12  -1  149.32   20.40
   1 -12  -1  152.22    8.92
  -1 -12   1  157.00   20.01
   1 -12   1  153.32   26.35
  -1  12   1  132.78    7.38
   1  12   1  142.17    7.09
  -1  12  -1  143.64    7.26
   1  12  -1  128.81   10.91
  -1  12   1  155.30   23.65
  -1  12  -1  138.22   19.07
  -1 -12  -2   25.33   14.69
   1 -12  -2   27.02   14.67
  -1 -12   2   32.01   11.62
   1 -12   2    8.71    7.32
  -1  12   2   17.14    8.23
   1  12   2   30.50    7.76
  -1  12  -2   23.11   10.41
   1  12  -2   11.99    9.71
  -1  12   2   29.25   10.50
  -1  12  -2   29.95    7.60
  -1 -12  -3  165.02   13.72
   1 -12  -3  155.94   15.49
  -1 -12   3  178.53   16.75
   1 -12   3  151.34    8.76
  -1  12   3  148.06   12.85
   1  12   3  162.84    8.41
  -1  12  -3  154.30   22.00
   1  12  -3  163.26    9.39
  -1  12   3  160.88    8.63
  -1  12  -3  179.08    8.70
  -1 -12  -4  326.44   21.39
   1 -12  -4  349.78   22.57
  -1 -12   4  313.72   21.69
   1 -12   4  316.09   21.21
  -1  12   4  337.16   21.92
   1  12   4  296.63   21.01
  -1  12  -4  337.38   22.08
   1  12  -4  297.52   33.50
  -1  12   4  311.82   20.86
  -1  12  -4  305.74   24.19
  -1 -12  -5   27.76   10.96
   1 -12  -5   15.80    4.67
  -1 -12   5   22.11   10.62
   1 -12   5   16.25    8.95
   1  12   5   11.97    5.17
  -1  12  -5   14.05    7.45
   1  12  -5   16.49    3.99
  -1  12   5   20.28    6.45
  -1  12  -5   18.55    5.26
   1  12   5   12.10    9.10
  -1 -12  -6   24.30   13.01
   1 -12  -6   22.10    9.16
  -1 -12   6   26.43    7.73
   1 -12   6   34.09    8.69
  -1  12  -6   36.01    8.69
   1  12  -6   21.81    9.23
  -1  12   6   24.28    9.60
  -1  12  -6   26.21    6.25
   1  12   6   14.02    7.35
  -1 -12  -7  126.91   14.67
   1 -12  -7  150.97   13.87
  -1 -12   7  141.68   38.93
   1 -12   7  142.84   21.62
  -1  12  -7  140.74   39.22
   1  12  -7  135.50    9.19
  -1  12   7  134.51    9.12
   1  12   7  151.46   19.90
  -1  12  -7  137.70    5.74
  -1 -12  -8  218.90   11.47
   1 -12  -8  249.58    9.97
  -1 -12   8  259.77   14.82
   1 -12   8  246.40   14.14
  -1  12  -8  278.14   11.71
   1  12  -8  242.56   14.04
  -1  12   8  235.25   21.84
   1  12   8  249.61   22.19
  -1 -12  -9   67.49   10.93
   1 -12  -9   52.81   15.69
  -1 -12   9   58.50   24.70
   1 -12   9   60.52   20.41
  -1  12  -9   54.12   26.54
   1  12  -9   69.42   27.29
  -1  12   9  417.95   85.32
   1  12   9   65.56   17.58
  -1 -12 -10   33.61   17.73
   1 -12 -10   41.18   13.14
  -1 -12  10   39.10   17.18
   1 -12  10   43.49   17.37
  -1  12 -10   36.04    7.53
   1  12 -10   26.56   10.31
  -1  12  10   40.46   15.59
   1  12  10   44.72   19.91
  -1 -12 -11   28.70   10.62
   1 -12 -11   36.99   16.50
  -1 -12  11   14.88    8.07
   1 -12  11   34.80   15.54
  -1  12 -11   36.58    6.99
   1  12 -11   32.16    8.75
  -1  12  11   23.52   12.05
   1  12  11   37.88   12.24
  -1 -12 -12   14.51    8.24
   1 -12 -12   22.51   14.78
  -1 -12  12   18.50    7.16
   1 -12  12   28.55   12.14
  -1  12 -12   21.37    9.57
   1  12 -12    8.38    7.14
  -1  12  12    8.01    6.90
   1  12  12   23.91    7.63
   1 -12 -13   15.26    7.15
  -1 -12 -13   11.72    6.49
  -1 -12  13   19.64   10.70
   1 -12  13   11.84    8.95
  -1  12 -13   14.79    8.90
   1  12 -13   18.06    7.75
  -1  12  13   20.28    7.52
   1  12  13  138.19   44.94
   1 -12 -14   20.41    8.61
  -1 -12 -14   20.85    8.54
  -1 -12  14   19.17   14.21
   1 -12  14   15.48   10.20
  -1  12 -14   22.60    9.95
   1  12 -14   21.60   15.88
  -1  12  14    6.97    5.01
   1  12  14   13.40    6.89
   1 -12 -15   41.53   22.03
  -1 -12 -15   36.66   16.29
  -1 -12  15   52.30   21.67
   1 -12  15   41.34    9.57
  -1  12 -15   52.48   14.91
   1  12 -15   57.70   23.45
  -1  12  15   35.67    9.06
   1  12  15   66.23   29.61
  -1 -12 -16   10.48    6.92
  -1 -12  16   19.40    7.40
   1 -12  16   21.91   10.96
  -1  12 -16   15.09   11.68
   1  12 -16   19.15   13.18
  -1 -12 -16   10.84    5.87
   1 -12 -16   30.87   10.79
  -1  12  16   17.96   10.94
   1  12  16   25.47   11.65
  -1 -13   0  105.06   16.53
   1 -13   0  109.63   27.36
  -1  13   0  104.20   13.30
   1  13   0   84.68   21.45
  -1  13   0  100.00   13.25
  -1 -13  -1  316.58   15.71
   1 -13  -1  317.93   12.29
  -1 -13   1  324.18   14.94
   1 -13   1  296.75   13.88
  -1  13   1  309.52   12.91
   1  13   1  278.63   12.00
  -1  13  -1  308.75   13.91
   1  13  -1  300.29   27.06
  -1  13   1  304.11   12.45
  -1  13  -1  277.91   12.29
  -1 -13  -2   22.72    9.40
   1 -13  -2   31.37   11.73
  -1 -13   2   25.33    7.99
   1 -13   2   19.18   12.61
  -1  13   2   27.69    9.10
   1  13   2   22.99    6.14
  -1  13  -2   19.18   10.56
   1  13  -2   10.54   11.75
  -1  13   2   22.75    9.45
  -1  13  -2   35.07   10.74
  -1 -13  -3   20.53    7.27
   1 -13  -3   24.11    8.74
  -1 -13   3   19.51    8.50
   1 -13   3   21.88   10.62
  -1  13   3   30.92    9.22
   1  13   3   33.70   11.90
  -1  13  -3   22.23   12.76
   1  13  -3   18.82    5.41
  -1  13   3   19.07    6.86
  -1  13  -3   30.94    6.97
  -1 -13  -4   23.43    9.66
   1 -13  -4   13.61    6.70
  -1 -13   4   24.46   13.01
   1 -13   4   13.92   11.40
  -1  13   4   18.01    7.32
  -1  13  -4   19.26    8.96
   1  13  -4   26.48   13.28
  -1  13   4   18.56    8.16
  -1  13  -4   29.42    5.27
   1  13   4   17.40    6.56
  -1 -13  -5  285.39   12.03
   1 -13  -5  267.52   13.40
  -1 -13   5  296.03   15.37
   1 -13   5  267.10   17.11
   1  13   5  292.57   27.16
  -1  13  -5  273.72   13.07
   1  13  -5  251.67   27.95
  -1  13   5  265.70   11.49
  -1  13  -5  275.95    8.31
   1  13   5  284.10   13.58
  -1 -13  -6    6.22    5.87
   1 -13  -6   -1.15    5.14
  -1 -13   6    8.42    5.55
   1 -13   6    7.33    3.45
  -1  13  -6    5.35    4.38
   1  13  -6    2.59    4.21
  -1  13  -6   11.62    5.70
   1  13   6   19.70   14.96
  -1 -13  -7  231.55   35.12
   1 -13  -7  251.90   30.15
  -1 -13   7  198.85   29.91
   1 -13   7  240.75   38.88
  -1  13  -7  283.97   22.86
   1  13  -7  210.24   33.61
  -1  13   7  230.99   25.88
   1  13   7  254.21   30.60
  -1 -13  -8   62.62   28.56
   1 -13  -8   52.50   26.66
  -1 -13   8   56.58   32.32
   1 -13   8   60.32   21.89
  -1  13  -8   66.54   28.21
   1  13  -8   63.45   24.51
  -1  13   8   76.97   34.51
   1  13   8   55.83   18.20
  -1 -13  -9   12.92    9.63
   1 -13  -9   16.48    6.41
  -1 -13   9    8.49    5.14
   1 -13   9   12.43   11.02
  -1  13  -9   16.63    8.57
   1  13  -9    8.62    5.15
  -1  13   9   28.03   10.48
   1  13   9    8.07    3.44
  -1 -13 -10   31.01   11.62
   1 -13 -10   36.48    8.88
  -1 -13  10   48.54   13.60
   1 -13  10   31.88    9.53
  -1  13 -10   28.89   10.74
   1  13 -10   31.82   12.16
  -1  13  10   30.86    7.15
   1  13  10   36.79   11.72
  -1 -13 -11  162.79   22.94
   1 -13 -11  133.47    7.89
  -1 -13  11  121.31    9.38
   1 -13  11  138.98   22.71
  -1  13 -11  153.25   17.28
   1  13 -11  129.23   17.64
  -1  13  11  146.00   17.23
   1  13  11  136.13   12.14
  -1 -13 -12   54.08   20.83
   1 -13 -12   40.25   24.45
  -1 -13  12   62.51   22.62
   1 -13  12   63.87   22.16
  -1  13 -12   54.55   24.29
   1  13 -12   66.13    8.36
  -1  13  12   76.20   10.32
   1  13  12   52.37   38.15
   1 -13 -13   23.74    9.53
  -1 -13 -13   28.42    7.96
  -1 -13  13   16.08   16.96
   1 -13  13   20.36   13.19
  -1  13 -13   22.02    9.41
   1  13 -13   39.79   14.84
  -1  13  13   32.28   13.96
   1  13  13   49.69   22.24
   1 -13 -14   11.42    5.72
  -1 -13 -14   21.07    8.76
  -1 -13  14   10.37    7.11
   1 -13  14    6.74    6.65
  -1  13 -14    5.71    4.82
   1  13 -14    2.32   11.18
  -1  13  14    7.97    6.54
   1  13  14    8.80    6.88
   1 -13 -15   13.52    7.77
  -1 -13 -15   21.17    9.29
  -1 -13  15    3.83    6.63
   1 -13  15   11.39    9.30
  -1  13 -15   21.40    8.90
   1  13 -15   19.04    7.24
  -1  13  15   20.88    6.51
   1  13  15    6.72    5.14
  -1 -14   0    2.21    3.89
   1 -14   0    6.37    7.53
  -1  14   0   -1.98    6.20
   1  14   0    7.96    6.14
  -1  14   0   10.66    7.50
  -1 -14  -1  105.81   44.47
   1 -14  -1   87.00    8.27
  -1 -14   1   95.74   18.37
   1 -14   1  115.27   21.74
  -1  14   1  103.10   12.24
   1  14   1   93.35   25.84
  -1  14  -1  102.74   28.55
   1  14  -1  112.18    9.02
  -1  14   1   89.97   13.32
  -1  14  -1   82.46   14.62
  -1 -14  -2  196.60   30.98
   1 -14  -2  188.57   23.10
  -1 -14   2  171.37   15.18
   1 -14   2  194.84   30.72
  -1  14   2  216.54   29.86
   1  14   2  201.13   16.58
  -1  14  -2  205.76   28.74
   1  14  -2  197.32   25.91
  -1  14   2  188.26   19.86
  -1  14  -2  182.07   16.30
  -1 -14  -3  210.48   33.22
   1 -14  -3  173.85   15.13
  -1 -14   3  191.30   23.47
   1 -14   3  184.27   37.94
  -1  14   3  205.00   43.94
   1  14   3  195.00   16.46
  -1  14  -3  183.26   16.01
   1  14  -3  194.77   21.41
  -1  14   3  200.12   17.79
  -1  14  -3  179.16   14.77
   1  14   3  183.06   32.20
  -1 -14  -4    8.82    7.05
   1 -14  -4    8.05    6.72
  -1 -14   4    9.01    6.94
   1 -14   4    7.78    3.97
  -1  14   4    4.82    7.67
   1  14   4    9.87    5.77
  -1  14  -4    9.38    8.66
   1  14  -4    8.86    4.45
  -1  14   4    7.19    6.93
  -1  14  -4   10.09    6.45
   1  14   4    4.77    6.10
  -1 -14  -5   67.00   32.97
   1 -14  -5   78.28   31.04
  -1 -14   5   82.67   20.94
   1 -14   5   78.53   31.29
   1  14   5   67.22   17.65
  -1  14  -5   69.86   23.48
   1  14  -5   65.03   23.28
  -1  14   5   73.08   31.79
  -1  14  -5   49.87   18.63
   1  14   5   81.78   23.79
  -1 -14  -6  117.78   14.62
   1 -14  -6  119.03   11.27
  -1 -14   6  119.99   26.67
   1 -14   6  134.61   10.66
  -1  14  -6  137.11   21.88
   1  14  -6  153.87   12.33
  -1  14   6  123.30   14.20
   1  14   6   95.00   32.66
  -1 -14  -7   97.88    9.82
   1 -14  -7   93.71   13.66
  -1 -14   7   77.86   28.46
   1 -14   7   79.74    9.19
  -1  14  -7   88.23   10.02
   1  14  -7   84.72   14.90
  -1  14   7   71.75   28.33
   1  14   7   75.88   34.03
  -1 -14  -8    5.58    6.31
   1 -14  -8   16.43    6.73
  -1 -14   8   16.16    7.96
   1 -14   8   -2.39    6.98
  -1  14  -8   10.03    5.52
   1  14  -8    9.39    4.60
  -1  14   8   18.89    9.83
   1  14   8   13.40    8.92
  -1 -14  -9  118.86   21.63
   1 -14  -9   94.57   19.65
  -1 -14   9  105.85    9.67
   1 -14   9  114.85   17.85
  -1  14  -9  131.75   36.86
   1  14  -9  109.90   15.23
  -1  14   9  152.36   11.38
   1  14   9   88.67   34.57
  -1 -14 -10   27.98   12.46
   1 -14 -10   22.42   11.31
  -1 -14  10   40.70    7.96
   1 -14  10   47.46   16.54
  -1  14 -10   32.23   13.46
   1  14 -10   35.30   27.18
  -1  14  10   28.36    9.23
   1  14  10   31.77   14.18
  -1 -14 -11   35.06   15.79
   1 -14 -11   32.73   16.19
  -1 -14  11   48.19   14.85
   1 -14  11   34.11   26.87
  -1  14 -11   41.62   17.65
   1  14 -11   31.98   12.80
  -1  14  11   37.20    8.03
   1  14  11   27.27    7.99
  -1 -14 -12    5.33    5.40
   1 -14 -12    3.37    5.37
  -1 -14  12    2.26    5.74
   1 -14  12    8.91    6.86
  -1  14 -12    7.76    6.01
   1  14 -12    2.14    5.87
  -1  14  12   10.89    7.28
   1  14  12   10.36    6.17
   1 -14 -13   28.23   14.92
  -1 -14 -13   33.71   18.23
  -1 -14  13   34.72   19.54
   1 -14  13   34.70   16.13
  -1  14 -13   32.32   14.98
   1  14 -13   25.52   17.84
  -1  14  13   28.20   14.65
   1  14  13   26.64   11.69
  -1 -15   0   22.35   12.09
   1 -15   0   14.01    7.44
  -1  15   0   22.49    9.87
   1  15   0   22.33   12.05
  -1  15   0   21.02   14.58
  -1 -15  -1   71.15   31.61
   1 -15  -1   68.20   25.27
  -1 -15   1   60.44   24.97
   1 -15   1   69.14   26.33
  -1  15   1   60.96   24.82
   1  15   1   68.50   25.52
  -1  15  -1   83.13   25.27
   1  15  -1   76.29   26.88
  -1  15   1   97.39    9.72
  -1  15  -1   96.73   11.79
   1  15   1   71.18    7.19
  -1 -15  -2   23.32   14.71
   1 -15  -2   18.63    7.55
  -1 -15   2    9.56   19.91
   1 -15   2   19.69   11.40
  -1  15   2   33.27    9.33
   1  15   2    7.25    4.70
  -1  15  -2   19.65    7.07
   1  15  -2   12.81    7.49
  -1  15   2   25.32   10.37
  -1  15  -2    8.67    6.50
   1  15   2   15.12    7.71
  -1 -15  -3   14.19    8.06
   1 -15  -3   14.37    8.47
  -1 -15   3   16.16   10.49
   1 -15   3   18.53    9.83
  -1  15   3   25.28   10.21
   1  15   3   17.58    7.67
  -1  15  -3   17.74    9.35
   1  15  -3   13.56    6.04
  -1  15   3   18.54    7.31
  -1  15  -3   15.92    8.34
   1  15   3   21.39   11.33
  -1 -15  -4   64.21   18.60
   1 -15  -4  112.51   13.10
  -1 -15   4   79.51   30.50
   1 -15   4   82.41   30.64
  -1  15   4   80.09   26.20
   1  15   4   94.92   22.85
  -1  15  -4  104.72   33.32
   1  15  -4   84.60   16.95
  -1  15   4   76.75   30.45
  -1  15  -4   83.82   19.39
   1  15   4  112.08   17.74
  -1 -15  -5   86.73   13.15
   1 -15  -5   57.12   25.19
  -1 -15   5   66.70   18.66
   1 -15   5   76.56   22.52
   1  15   5   78.95   26.39
  -1  15  -5   72.11   29.06
   1  15  -5   78.64   15.40
  -1  15   5   84.49   16.08
   1  15   5   44.01   26.64
  -1 -15  -6  184.54   33.06
   1 -15  -6  189.70   11.61
  -1 -15   6  186.86   28.54
   1 -15   6  203.00   27.12
  -1  15  -6  192.27   10.97
   1  15  -6  202.87   30.82
  -1  15   6  173.38   12.22
   1  15   6  206.91   13.97
  -1 -15  -7   31.87   25.38
   1 -15  -7   33.45   14.55
  -1 -15   7   23.70   11.23
   1 -15   7   34.90   16.99
  -1  15  -7   42.60   18.39
   1  15  -7   33.60    8.27
  -1  15   7   34.41   18.36
   1  15   7   44.84   15.57
  -1 -15  -8   36.77   15.42
   1 -15  -8   31.22    6.65
  -1 -15   8   35.66   12.05
   1 -15   8   36.74   12.07
  -1  15  -8   37.86   12.46
   1  15  -8   38.90   13.77
  -1  15   8   61.69   18.88
   1  15   8   31.46   20.33
  -1 -15  -9   -0.50    6.12
   1 -15  -9    5.61    3.84
  -1 -15   9    4.88    5.25
   1 -15   9    7.62    6.75
  -1  15  -9    4.45    5.78
   1  15  -9    9.71    7.71
  -1  15   9    6.79    4.27
   1  15   9    9.17    6.10
  -1 -15 -10   46.83   10.11
   1 -15 -10   29.73   14.69
  -1 -15  10   43.60   19.68
   1 -15  10   24.11   13.39
  -1  15 -10   51.81   22.13
   1  15 -10   38.48    9.97
  -1  15  10   31.97   14.96
   1  15  10   22.57   14.83
  -1 -15 -11   95.17   15.87
   1 -15 -11   60.97   29.29
  -1 -15  11   85.46   42.11
   1 -15  11  108.45   11.32
  -1  15 -11   94.07   30.69
   1  15 -11   99.50    9.19
  -1  15  11  127.26   11.01
   1  15  11   59.38   31.40
  -1 -15 -12    9.43    5.54
   1 -15 -12   15.22    9.62
  -1 -15  12   14.31   17.05
   1 -15  12    9.71    5.61
  -1  15 -12   24.46    9.12
   1  15 -12   12.33   11.35
  -1  15  12   17.25    8.24
   1  15  12   21.63   18.40
  -1 -16   0   51.02   11.58
   1 -16   0   42.09   21.68
  -1  16   0   45.85   12.52
   1  16   0   46.84   11.97
  -1  16   0   38.96    5.30
   1  16   0   42.46   18.30
  -1 -16  -1    9.42    8.84
   1 -16  -1   29.13    8.84
  -1 -16   1   14.98    8.17
   1 -16   1   51.18   12.51
  -1  16   1   31.56   12.15
   1  16   1   27.21   12.98
  -1  16  -1   42.43   14.01
   1  16  -1   48.41   14.58
  -1  16   1   28.70   12.27
  -1  16  -1   24.70    9.28
   1  16   1   21.29    6.02
   1  16  -1   18.64   10.49
  -1 -16  -2    4.89    7.46
   1 -16  -2   -0.62    6.16
  -1 -16   2    5.41    5.88
   1 -16   2    5.50    5.43
  -1  16   2   -2.03    5.41
   1  16   2    3.02    2.80
  -1  16  -2    0.81    7.35
   1  16  -2    2.61    4.43
  -1  16   2   -1.21    5.82
  -1  16  -2    1.40    2.58
   1  16   2    2.29    6.30
  -1 -16  -3   71.67   18.42
   1 -16  -3   90.77   14.58
  -1 -16   3   86.89    9.93
   1 -16   3   86.28   22.39
  -1  16   3   84.46   22.95
   1  16   3   94.85   25.05
  -1  16  -3   78.45   29.60
   1  16  -3   76.23   29.40
  -1  16   3   59.43   26.82
  -1  16  -3   73.40    5.78
   1  16   3  101.33   14.37
  -1 -16  -4   20.15    8.34
   1 -16  -4   22.12   12.71
  -1 -16   4   16.48   10.20
   1 -16   4   24.53   10.90
  -1  16   4   27.39    9.74
   1  16   4   26.97    4.71
  -1  16  -4   33.73    9.03
   1  16  -4   24.58   12.47
  -1  16   4   12.84   12.70
  -1  16  -4   15.45    8.64
   1  16   4   31.49   22.52
  -1 -16  -5   21.35    7.74
   1 -16  -5   34.73   14.35
  -1 -16   5   32.21   12.89
   1 -16   5   35.84   17.27
  -1  16  -5   41.61   11.74
   1  16  -5   45.98   14.94
  -1  16   5   37.13   13.26
   1  16   5   38.30   18.36
  -1 -16  -6   21.58    6.66
   1 -16  -6   12.71    6.53
  -1 -16   6   11.14    9.06
   1 -16   6    9.91    5.61
  -1  16  -6   10.51    4.49
   1  16  -6   11.92    8.11
  -1  16   6    6.12    4.64
   1  16   6    7.89    7.96
  -1 -16  -7   57.01   27.52
   1 -16  -7  102.24   24.09
  -1 -16   7   74.54   30.16
   1 -16   7   54.36   27.73
  -1  16  -7   83.87   35.21
   1  16  -7   81.74   33.28
  -1  16   7  449.56  165.00
   1  16   7   75.61   38.26
  -1 -16  -8   18.81   11.94
   1 -16  -8   34.07    6.89
  -1 -16   8   32.38   14.74
   1 -16   8   18.81    9.66
  -1  16  -8   28.86    7.97
   1  16  -8   25.03    9.46
  -1  16   8    9.66    5.52
   1  16   8   19.04    7.98
  -1 -16  -9   33.69   17.85
   1 -16  -9   27.29   13.67
  -1 -16   9   34.79   11.63
   1 -16   9   27.50   18.00
  -1  16  -9   29.25   18.39
   1  16  -9   28.66   10.56
  -1  16   9   30.21   17.71
   1  16   9   32.78   16.45
  -1 -16 -10    6.38    6.39
   1 -16 -10    1.26    2.93
  -1 -16  10   -1.16    7.96
   1 -16  10  -10.44    9.32
  -1  16 -10    1.65    3.30
   1  16 -10    8.07    6.56
  -1  16  10   -0.54    6.88
   1  16  10    4.97    7.94
  -1 -17   0  147.23   35.41
   1 -17   0  107.00   40.47
  -1  17   0  138.83   23.06
   1  17   0  123.34   18.69
  -1  17   0  121.05   34.18
   1  17   0  127.28   10.08
  -1 -17  -1   36.68    8.94
  -1 -17   1   10.92   12.42
   1 -17   1   26.51   11.21
  -1  17   1   23.61    7.88
   1  17   1   18.21    6.13
  -1  17  -1   36.25   13.64
   1  17  -1   48.44   18.11
  -1  17   1   24.40   10.06
  -1  17  -1   28.76   10.98
   1  17   1   30.29   14.79
   1  17  -1   28.09   11.53
  -1 -17  -2   16.50   11.31
   1 -17  -2   20.25    9.22
  -1 -17   2   16.43   11.76
   1 -17   2   19.82   15.75
  -1  17   2   27.21    8.16
   1  17   2    9.04    5.22
  -1  17  -2   16.29    6.53
   1  17  -2   29.35    9.42
  -1  17   2   23.38    9.62
  -1  17  -2   14.46    6.33
   1  17   2   11.71    8.88
   1  17  -2   21.01    5.40
  -1 -17  -3    7.48    8.81
   1 -17  -3    6.63    7.37
  -1 -17   3    1.79    7.08
   1 -17   3   11.22    5.56
  -1  17   3   10.01    4.93
   1  17   3   -3.49    5.61
  -1  17  -3    8.76    7.35
   1  17  -3    0.89    6.09
  -1  17   3    6.98    7.17
  -1  17  -3    8.95    8.46
   1  17   3    6.79    5.28
   1  17  -3   11.55    6.26
  -1 -17  -4   32.65   13.21
   1 -17  -4   42.75    9.90
  -1 -17   4   40.65   12.88
   1 -17   4   23.05    8.54
  -1  17   4   22.80   15.34
   1  17   4   26.78   11.35
  -1  17  -4   33.56   18.43
   1  17  -4   29.75    9.72
  -1  17   4   37.16    8.04
   1  17   4   27.57    9.32
   1  17  -4   40.99   18.06
  -1 -17  -5   24.50    8.02
   1 -17  -5   16.70   12.36
  -1 -17   5   31.41   13.37
   1 -17   5   17.26   12.29
  -1  17  -5   14.36    8.82
   1  17  -5   15.95    5.47
  -1  17   5   30.68   10.36
   1  17   5   35.23   12.24
  -1 -17  -6   39.28   20.67
   1 -17  -6   30.72   13.36
  -1 -17   6   16.77   12.34
   1 -17   6   40.50   17.68
  -1  17  -6   35.59   15.06
   1  17  -6   25.20   10.45
   1  17   6   31.57   15.76
  -1 -17  -7    7.73    7.21
   1 -17  -7   23.22   15.46
  -1 -17   7   29.61    9.38
   1 -17   7   29.68   13.86
  -1  17  -7   17.74    8.43
   1  17  -7   37.57    8.93
  -1  17   7   17.50   19.94
   1  17   7   19.43    9.06
  -1 -17  -8   11.51    8.26
   1 -17  -8   -0.53    6.71
  -1 -17   8    8.59    6.74
   1 -17   8   10.76   11.47
  -1  17  -8    8.83    8.84
   1  17  -8   12.35    6.36
  -1  17   8    8.15    9.18
   1  17   8   13.06    7.16
  -1 -18   0    9.97    6.56
   1 -18   0   23.58    9.41
  -1  18   0   34.59    8.92
   1  18   0   16.69   10.95
  -1  18   0   15.18    6.70
   1  18   0   20.19    7.08
  -1 -18  -1   39.77   14.11
   1 -18  -1   41.90   12.97
  -1 -18   1   10.51    7.53
   1 -18   1   25.25   26.46
  -1  18   1   41.77   24.33
   1  18   1   47.57   22.42
  -1  18  -1   26.55   25.20
   1  18  -1   48.44   14.20
  -1  18   1   33.56   15.22
  -1  18  -1   36.71   11.27
   1  18   1   32.00   20.31
   1  18  -1   42.65   12.75
  -1 -18  -2   20.02   10.72
   1 -18  -2    9.49    7.20
  -1 -18   2    7.34   11.89
   1 -18   2   26.76   11.69
  -1  18   2   12.18    8.06
   1  18   2   18.12   11.03
  -1  18  -2   23.01    9.02
   1  18  -2   22.29   12.06
  -1  18   2   20.56    5.62
  -1  18  -2   10.50    4.04
   1  18   2    6.33    7.50
   1  18  -2    9.73    7.83
  -1 -18  -3   21.41   10.10
   1 -18  -3   11.91   10.67
  -1 -18   3   22.43   12.12
   1 -18   3   42.25   10.94
  -1  18   3   15.32   10.68
   1  18   3   14.51    6.68
  -1  18  -3   38.93    8.12
   1  18  -3   12.17    6.59
  -1  18   3   23.30   11.61
   1  18   3   32.95    9.03
   1  18  -3   25.89    6.59
  -1 -18  -4    3.35    3.36
   1 -18  -4   14.38   10.12
  -1 -18   4   12.89    9.20
   1 -18   4   10.66    7.10
   1  18   4   10.75    4.22
  -1  18  -4    4.58    5.72
   1  18  -4    9.01    6.16
  -1  18   4   15.62   15.49
   1  18   4    6.09    5.95
  -1 -18  -5    3.97    6.06
   1 -18  -5    5.23    7.44
  -1 -18   5   -2.37    8.11
   1 -18   5   12.23   10.25
  -1  18  -5    5.04    4.74
   1  18  -5    8.88    6.42
  -1  18   5    6.82   10.50
   1  18   5    5.82    3.99
   2   0   0   33.66    1.26
  -2   0  -1    5.11    2.87
   2   0   1   13.00    1.26
   2   0  -1    7.39    2.02
   2   0   1   12.03    0.88
   2   0  -1    8.07    2.16
  -2   0   1    2.99    3.30
  -2   0   2  851.08   13.51
  -2   0  -2  887.94   15.23
   2   0   2  936.01   15.04
   2   0  -2  841.25   14.57
  -2   0   2  865.26   17.60
   2   0  -3   70.11    1.85
  -2   0   3   65.54    3.31
  -2   0  -3   78.48    5.34
  -2   0  -3   81.84    5.01
   2   0   3   73.17    4.82
   2   0  -3   77.68    6.97
  -2   0   3   74.77    9.12
   2   0  -4    4.72    2.09
  -2   0   4    2.58    1.22
  -2   0  -4   -3.06    3.62
  -2   0  -4   -0.43    2.89
   2   0  -4    1.95    4.21
  -2   0   4    3.24    2.27
   2   0  -5 3190.96   50.68
  -2   0  -5 3291.74   53.43
  -2   0  -5 3100.11   49.79
   2   0  -5 3212.71   52.40
  -2   0   5 3193.64   51.56
   2   0  -6  732.89   13.29
  -2   0  -6  737.14   14.46
  -2   0  -6  725.91   13.83
   2   0  -6  761.39   17.21
  -2   0   6  728.59   13.69
   2   0  -7  382.97    6.29
  -2   0  -7  381.34    7.57
  -2   0  -7  366.00    7.27
   2   0  -7  383.52    9.51
  -2   0   7  372.15    6.43
   2   0   7  391.77    6.28
   2   0  -8    2.02    2.65
  -2   0  -8   -0.61    3.20
  -2   0  -8    2.53    3.58
   2   0  -8   -7.78    5.49
  -2   0   8    2.35    1.70
   2   0   8    0.62    1.91
   2   0  -9  126.14    4.54
  -2   0  -9  120.19   13.05
  -2   0  -9  117.24   16.53
   2   0  -9  137.20   17.72
  -2   0   9  113.91    6.10
   2   0   9  122.24    3.59
   2   0 -10  672.55   20.59
  -2   0 -10  730.25   24.80
  -2   0 -10  718.59   25.63
   2   0 -10  721.39   24.38
  -2   0  10  667.10   21.33
   2   0  10  697.36   20.39
   2   0 -11  205.17   11.67
  -2   0 -11  181.92   12.13
  -2   0 -11  177.43   12.56
   2   0 -11  186.75   16.07
  -2   0  11  211.56   12.49
   2   0  11  176.35   10.54
   2   0 -12   -1.31    3.84
  -2   0 -12    1.64    2.99
  -2   0 -12   -0.42    7.35
   2   0 -12   -5.25    9.47
  -2   0  12    9.50    4.68
   2   0  12   -0.13    2.91
   2   0 -13   31.14    8.09
  -2   0 -13   26.02   12.68
  -2   0 -13   31.64    7.81
   2   0 -13   28.19   11.90
  -2   0  13   28.69    6.88
   2   0  13   25.40    8.55
   2   0 -14  110.17    8.62
  -2   0 -14   99.20    6.33
  -2   0 -14  103.15   19.32
   2   0 -14   96.21   33.42
  -2   0  14   96.54    7.36
   2   0  14  109.06    8.14
   2   0 -15    4.05    2.65
  -2   0 -15    8.54    4.14
  -2   0 -15    3.08    4.54
   2   0 -15    6.81    6.96
  -2   0  15    5.42    3.71
   2   0  15    3.37    4.04
   2   0 -16   -1.13    3.64
  -2   0 -16    2.13    5.97
  -2   0 -16    3.47    6.63
   2   0 -16   -0.59    9.36
  -2   0  16    3.77    2.03
   2   0 -17   71.85    7.51
  -2   0 -17   71.99   24.37
  -2   0 -17   63.81    7.58
   2   0 -17   55.56   22.69
  -2   0  17   59.78   15.27
   2   0 -18  335.48   14.91
  -2   0 -18  319.74   12.67
  -2   0 -18  362.29   14.36
   2   0 -18  319.56   16.34
   2   0 -19   42.23   18.26
  -2   0 -19   52.95   22.42
  -2   0 -19   42.54   21.66
   2   0 -19   69.51   14.14
   2   0 -20   23.49    9.01
  -2   0 -20   28.96   12.55
  -2   0 -20   20.91    5.75
   2   0 -20   27.63    8.71
  -2   0 -21   24.74   13.50
  -2   0 -21   25.75   11.20
   2   0 -21   19.86   14.80
   2   1   0  871.25   14.42
   2  -1   0  843.64   13.87
   2  -1  -1  973.15   15.35
  -2   1  -1  979.60   16.11
  -2  -1  -1  940.49   15.90
  -2  -1   1  947.63   15.57
   2   1  -1  945.72   15.53
   2   1   1  983.96   15.48
   2  -1   1  945.62   15.35
  -2  -1  -1  914.91   14.40
   2   1  -1  931.19   15.34
  -2  -1   1  964.06   15.84
  -2   1  -1  966.85   15.81
   2  -1   1  965.62   15.91
  -2   1   1  928.16   15.67
  -2   1  -2 2763.49   44.24
  -2  -1  -2 2854.21   45.68
  -2  -1   2 2836.03   44.83
  -2   1  -2 2840.76   44.92
   2  -1   2 3055.65   48.17
   2   1  -2 2917.38   46.57
   2  -1   2 2992.14   46.95
  -2   1   2 2983.67   47.77
  -2   1  -3  317.53   11.50
   2  -1  -3  315.01   10.69
  -2  -1  -3  412.32   15.05
  -2  -1   3  313.21   10.94
  -2   1  -3  321.93   13.85
   2   1  -3  401.84   15.42
  -2  -1   3  311.97   11.38
  -2   1   3  387.61   13.60
   2   1  -4  366.89   12.97
  -2   1  -4  362.79   12.96
   2  -1  -4  360.95   12.12
  -2  -1  -4  374.71   13.78
  -2   1   4  402.56   13.39
  -2   1  -4  363.47   12.87
   2   1  -4  377.39   14.71
  -2  -1  -4  368.73   12.81
   2  -1  -4  368.87   14.05
  -2  -1   4  377.23   13.31
  -2   1   4  378.16   13.72
   2   1  -5  121.43    3.49
  -2   1  -5  145.57    5.11
   2  -1  -5  145.59    2.97
  -2  -1  -5  126.62    4.56
  -2   1  -5  142.38    5.44
   2   1  -5  127.94    8.03
  -2  -1  -5  123.21    4.48
   2  -1  -5  149.26    5.78
  -2  -1   5  150.91    3.94
  -2   1   5  121.18    4.87
   2   1  -6  484.74   17.89
  -2   1  -6  474.54   17.01
   2  -1  -6  467.39   15.86
  -2  -1  -6  502.98   17.99
  -2   1  -6  470.41   19.50
   2   1  -6  484.77   18.10
  -2  -1  -6  458.46   16.10
   2  -1  -6  476.43   19.38
  -2  -1   6  473.60   16.57
  -2   1   6  476.15   16.85
   2  -1   6  477.46   16.23
   2   1  -7  587.52    8.87
  -2   1  -7  538.72   11.08
  -2  -1  -7  575.05    9.35
  -2   1  -7  535.08    8.98
   2   1  -7  577.15   11.41
  -2  -1  -7  567.73    9.07
   2  -1  -7  521.32   21.19
  -2  -1   7  550.23    8.10
  -2   1   7  565.54    8.89
   2   1  -8   54.03    8.01
  -2   1  -8   48.47    4.64
   2  -1  -8   43.29    4.51
  -2  -1  -8   67.69   11.05
  -2   1  -8   50.06    6.54
   2   1  -8   56.92   18.71
  -2  -1  -8   54.94   10.88
   2  -1  -8   58.28   16.08
  -2  -1   8   45.51    4.59
  -2   1   8   53.87    4.93
   2  -1   8   54.25    4.07
   2   1   8   50.63    6.07
   2   1  -9  877.06   26.42
   2  -1  -9  811.62   23.68
  -2   1  -9  782.30   23.83
  -2  -1  -9  870.41   26.31
  -2   1  -9  817.38   26.54
   2   1  -9  835.46   26.27
  -2  -1  -9  850.43   25.95
   2  -1  -9  816.29   25.64
  -2  -1   9  825.78   24.85
  -2   1   9  877.98   26.26
   2  -1   9  847.62   24.22
   2   1   9  789.85   23.54
   2   1 -10  306.80    7.20
   2  -1 -10  355.56    6.89
  -2   1 -10  352.43    8.46
  -2  -1 -10  315.75    8.60
  -2   1 -10  353.13    7.95
   2   1 -10  277.88   26.83
  -2  -1 -10  307.27    8.47
   2  -1 -10  352.83   28.52
  -2  -1  10  350.72    7.40
   2  -1  10  314.65    6.29
   2   1 -11  174.56   12.93
   2  -1 -11  182.01   13.71
  -2   1 -11  179.54   12.73
  -2  -1 -11  187.69   12.70
  -2   1 -11  194.86   13.86
   2   1 -11  188.91   17.36
  -2  -1 -11  163.74   13.72
   2  -1 -11  165.28   15.96
  -2  -1  11  194.90   11.19
  -2   1  11  167.77   13.86
   2  -1  11  181.23   10.43
   2   1  11  182.38   12.01
   2   1 -12   23.01    6.47
   2  -1 -12   23.99    5.13
  -2   1 -12   26.36    7.74
  -2  -1 -12   21.17    9.88
  -2   1 -12   22.88   11.74
   2   1 -12   23.70   16.72
  -2  -1 -12   16.37    7.13
   2  -1 -12   21.74    8.87
  -2  -1  12   24.86    6.43
  -2   1  12   18.96    5.42
   2  -1  12   28.66    4.39
   2   1  12   25.25    9.02
   2   1 -13  405.00   16.33
   2  -1 -13  426.87   25.55
  -2   1 -13  401.07   16.43
  -2  -1 -13  400.91   17.24
  -2   1 -13  432.44   19.84
   2   1 -13  379.65   18.50
  -2  -1 -13  382.04   17.45
   2  -1 -13  396.22   23.30
  -2  -1  13  412.54   15.79
  -2   1  13  398.55   16.00
   2  -1  13  386.76   14.38
   2   1  13  413.82   15.57
   2   1 -14  301.46   24.48
   2  -1 -14  280.88   22.67
  -2   1 -14  264.31   21.19
  -2  -1 -14  304.58   28.26
  -2   1 -14  271.50   26.97
   2   1 -14  306.31   21.98
  -2  -1 -14  312.77   21.20
   2  -1 -14  273.38   36.38
  -2  -1  14  254.18   16.07
  -2   1  14  307.24   24.42
   2  -1  14  325.13   20.39
   2   1  14  275.00   17.20
   2   1 -15   13.25    4.98
   2  -1 -15   12.09    3.44
  -2   1 -15    7.99    3.93
  -2  -1 -15   13.44    5.00
  -2   1 -15   15.73    7.05
   2   1 -15   18.99    5.89
   2  -1 -15    5.72    8.28
  -2  -1  15   14.91    4.88
  -2   1  15   18.64    5.82
   2   1  15    9.86    4.11
   2   1 -16   81.02    6.76
   2  -1 -16   87.18    8.46
  -2   1 -16  110.35   10.71
  -2  -1 -16   96.02   19.04
  -2   1 -16   94.59   32.26
   2   1 -16  106.84   26.52
  -2  -1 -16   84.59    7.47
   2  -1 -16   95.71   14.43
  -2  -1  16   95.29   12.36
  -2   1  16   87.13   16.98
   2   1  16  107.15   15.43
   2   1 -17    7.85    2.66
   2  -1 -17    9.54    4.11
  -2   1 -17    1.00    3.28
  -2  -1 -17   18.77    9.36
  -2   1 -17    6.19    6.40
   2   1 -17   10.21    8.89
  -2  -1 -17   -3.07    6.31
   2  -1 -17   13.70    8.59
  -2  -1  17    6.98    4.33
  -2   1  17    4.96    3.58
   2   1 -18   60.08   17.90
   2  -1 -18   52.85    7.61
  -2   1 -18   61.91   20.94
  -2  -1 -18   49.83   18.36
  -2   1 -18   49.96   16.45
   2   1 -18   55.47   15.89
  -2  -1 -18   59.66   24.09
   2  -1 -18   56.21   16.95
  -2   1  18   46.55   18.17
   2   1 -19  183.04   20.45
   2  -1 -19  164.22   17.51
  -2   1 -19  179.55   16.96
  -2  -1 -19  163.01   13.64
  -2   1 -19  179.14   22.43
   2   1 -19  180.22   29.54
  -2  -1 -19  177.44   25.63
   2  -1 -19  155.75   17.92
   2   1 -20   18.25    7.48
  -2   1 -20    7.44    8.27
  -2  -1 -20   17.45    8.63
  -2   1 -20   10.31    7.01
   2   1 -20   14.58    9.18
  -2  -1 -20   11.43    7.07
   2  -1 -20    9.70    5.79
  -2   2   0  407.69   13.67
   2  -2   0  432.20   14.41
  -2  -2   0  428.53   14.81
  -2   2   0  437.12   14.87
   2   2   0  459.29   15.27
  -2  -2   0  412.25   13.70
  -2   2   0  432.38   14.71
  -2   2  -2  723.54   13.19
  -2  -2  -2  720.70   13.98
   2  -2  -2  689.55   12.48
  -2  -2   2  709.50   13.13
  -2   2   2  729.15   12.19
  -2  -2  -2  730.24   12.21
  -2   2  -2  689.97   12.46
   2   2  -2  752.94   14.56
   2  -2   2  721.00   11.95
  -2   2   2  713.54   13.53
  -2   2  -3  407.18   14.45
  -2  -2  -3  379.29   14.14
   2  -2  -3  381.05   12.77
  -2   2   3  359.71   12.03
  -2  -2   3  382.28   13.44
  -2   2  -3  391.37   13.73
   2   2  -3  365.24   14.15
   2  -2   3  370.71   12.18
  -2   2   3  363.05   13.24
  -2   2  -4  277.59   10.67
   2  -2  -4  266.24    9.17
  -2  -2  -4  220.04    9.65
  -2   2   4  233.77    8.31
  -2  -2   4  279.29   10.34
  -2   2  -4  260.19   10.20
   2   2  -4  229.39   10.54
   2  -2   4  235.17    7.70
  -2   2   4  235.81    9.54
  -2   2  -5  268.56   10.63
   2  -2  -5  272.12    9.82
  -2  -2  -5  254.71    9.77
  -2  -2   5  264.70    9.83
  -2   2  -5  273.02   10.56
   2   2  -5  278.89   11.95
  -2  -2  -5  265.66    9.86
  -2   2   5  261.91   10.39
   2  -2   5  250.35    8.24
   2   2  -6   18.98    6.47
  -2   2  -6   25.16    9.51
   2  -2  -6   26.55    2.73
  -2  -2  -6   29.66    9.19
  -2   2  -6   28.19    6.95
   2   2  -6   19.27    4.41
  -2  -2  -6   23.85    3.92
  -2  -2   6   25.00    2.87
  -2   2   6   23.02    9.31
   2  -2   6   23.09    1.26
   2   2  -7  536.16    8.12
  -2   2  -7  499.53    8.85
   2  -2  -7  526.97    9.52
  -2  -2  -7  511.94    9.44
  -2   2  -7  515.47    9.12
   2   2  -7  559.93   11.61
  -2  -2  -7  554.15    9.11
   2  -2  -7  506.30   10.28
  -2  -2   7  516.78    7.69
   2  -2   7  523.51    5.73
  -2   2   7  539.07    9.21
   2   2  -8   26.41    5.87
  -2   2  -8   11.34    7.20
   2  -2  -8   17.10    8.78
  -2  -2  -8   24.58   12.09
  -2   2  -8   18.60    4.67
   2   2  -8   17.56   10.27
  -2  -2  -8   17.60    9.29
   2  -2  -8   11.28    5.10
  -2  -2   8   16.51    4.72
   2  -2   8   19.96    2.50
  -2   2   8    6.50    4.33
   2   2   8   14.23    4.99
   2   2  -9   61.14    5.07
  -2   2  -9   52.77    5.79
   2  -2  -9   49.34    7.98
  -2  -2  -9   65.51    8.86
  -2   2  -9   59.76   17.30
   2   2  -9   63.54   21.47
  -2  -2  -9   63.46   10.23
   2  -2  -9   58.86   19.31
  -2  -2   9   59.38    6.48
   2  -2   9   60.92    4.89
  -2   2   9   64.13    5.38
   2   2   9   66.52    5.27
   2   2 -10    2.63    5.83
  -2   2 -10    8.28    5.10
   2  -2 -10   12.76    3.32
  -2  -2 -10    7.35    4.22
  -2   2 -10   13.46    6.07
   2   2 -10    4.65    7.11
  -2  -2 -10   10.38    6.19
   2  -2 -10   10.40    5.67
  -2  -2  10   11.94    3.60
   2  -2  10    7.27    2.38
  -2   2  10   10.10    2.58
   2   2  10   16.74    5.61
   2   2 -11  190.30   15.28
  -2   2 -11  185.71   12.41
   2  -2 -11  209.30   11.83
  -2  -2 -11  166.36   11.00
  -2   2 -11  185.26   23.87
   2   2 -11  194.25   21.28
  -2  -2 -11  167.98   13.04
   2  -2 -11  216.47   17.45
  -2  -2  11  198.48   11.24
   2  -2  11  172.94    9.24
  -2   2  11  168.32   10.45
   2   2 -12  885.67   29.34
  -2   2 -12  884.28   25.49
   2  -2 -12  861.58   23.34
  -2  -2 -12  898.87   26.00
  -2   2 -12  865.22   26.29
   2   2 -12  888.86   28.30
  -2  -2 -12  899.01   26.49
   2  -2 -12  863.46   27.71
  -2  -2  12  862.58   22.96
   2  -2  12  904.45   22.63
  -2   2  12  885.07   25.68
   2   2  12  904.06   27.49
   2   2 -13  990.31   28.76
  -2   2 -13 1070.21   31.29
   2  -2 -13 1055.55   31.83
  -2  -2 -13 1038.40   30.78
  -2   2 -13 1015.08   32.91
   2   2 -13  984.99   37.42
  -2  -2 -13 1038.08   44.32
   2  -2 -13 1044.33   35.73
  -2  -2  13 1044.98   28.67
   2  -2  13 1009.96   27.77
  -2   2  13  988.37   34.01
   2   2  13 1026.27   30.26
   2   2 -14    8.11    3.27
  -2   2 -14   -1.41    4.22
   2  -2 -14    4.81    2.91
  -2  -2 -14    6.52    3.37
  -2   2 -14    3.47    6.66
   2   2 -14   -4.76    7.92
  -2  -2 -14    3.68    6.68
   2  -2 -14    2.90    8.79
  -2  -2  14    5.29    2.38
  -2   2  14    6.81    4.32
   2   2  14    1.57    1.56
   2   2 -15  138.30    9.82
  -2   2 -15  136.49   24.18
   2  -2 -15  149.34    9.00
  -2  -2 -15  140.30   17.88
  -2   2 -15  130.45    8.04
   2   2 -15  137.32   39.85
  -2  -2 -15  148.27   11.76
   2  -2 -15  162.98   19.12
  -2  -2  15  135.86   11.49
  -2   2  15  144.28   13.21
   2   2  15  147.50   13.66
   2   2 -16  109.52   13.45
  -2   2 -16  102.22   24.78
   2  -2 -16  128.83   13.66
  -2  -2 -16  119.71   11.13
  -2   2 -16  118.87   19.61
   2   2 -16  113.00   43.09
  -2  -2 -16   97.72   32.55
   2  -2 -16  115.82   19.07
  -2  -2  16  106.53   17.20
  -2   2  16  120.55   24.13
   2   2  16  118.35   11.99
   2   2 -17   22.08    7.09
  -2   2 -17    2.09    5.19
   2  -2 -17   19.04    5.47
  -2  -2 -17   15.27    6.41
  -2   2 -17    3.35    5.86
   2   2 -17   18.82    7.94
  -2  -2 -17   16.90    7.48
   2  -2 -17   12.07    8.56
  -2   2  17   25.80    7.02
   2   2  17   13.25    9.47
   2   2 -18   19.53    8.43
  -2   2 -18   17.18    7.19
   2  -2 -18   20.30    5.92
  -2  -2 -18   20.84   11.49
  -2   2 -18   25.24   12.41
   2   2 -18   26.49    9.90
  -2  -2 -18   13.43    6.88
   2  -2 -18   19.30    8.14
  -2   2  18   29.00    8.42
   2   2 -19    4.72    2.89
  -2   2 -19    0.08    3.09
   2  -2 -19    3.69    1.90
  -2  -2 -19    3.41    2.34
  -2   2 -19    0.23    3.62
   2   2 -19   -0.09    5.58
  -2  -2 -19   -0.99    7.79
   2  -2 -19    3.66    7.59
  -2   2  19    3.05    1.04
   2   2 -20    8.81    6.16
  -2   2 -20    7.39   10.76
  -2  -2 -20    5.84    5.48
  -2   2 -20    3.92    8.33
   2   2 -20    8.55    9.43
  -2  -2 -20    8.30    5.52
   2  -2 -20   -2.29    9.34
  -2  -3   0   93.56    5.92
   2  -3   0   85.26   11.45
  -2   3   0   90.55    4.52
   2   3   0   83.97    3.54
  -2   3   0   86.61    3.70
  -2   3  -1 3439.04   54.87
  -2  -3   1 3519.19   56.64
   2  -3  -1 3544.66   56.19
  -2   3   1 3253.15   52.37
   2   3   1 3400.57   53.96
  -2   3  -1 3573.89   57.24
  -2   3  -1 3374.70   53.52
  -2   3   1 3183.06   51.14
  -2   3  -2 1011.25   17.77
  -2  -3  -2  981.55   17.83
   2  -3  -2 1018.17   17.18
  -2  -3   2  997.96   17.82
   2   3   2 1011.46   17.06
  -2   3  -2  981.52   17.20
   2   3  -2 1020.46   18.25
  -2   3   2  990.75   19.41
   2  -3   2  998.00   16.40
  -2   3  -3  811.66   15.14
  -2  -3  -3  799.11   15.46
   2  -3  -3  799.54   13.83
  -2  -3   3  819.49   15.13
  -2   3  -3  799.94   14.71
   2   3  -3  779.19   15.17
  -2   3   3  789.81   14.87
  -2   3  -4  955.52   17.37
  -2  -3  -4 1054.58   22.43
   2  -3  -4  929.16   15.79
  -2  -3   4  948.01   16.99
  -2   3  -4  935.02   17.03
   2   3  -4 1042.94   19.38
  -2   3   4 1057.87   19.47
  -2   3  -5  778.63   15.10
  -2  -3  -5  776.37   15.16
   2  -3  -5  754.64   13.35
  -2  -3   5  740.55   14.12
  -2   3  -5  767.13   14.67
   2   3  -5  767.54   19.49
  -2   3   5  804.22   15.66
  -2   3  -6  472.86    8.13
   2  -3  -6  464.75    6.80
  -2  -3  -6  468.15    8.55
  -2  -3   6  478.16    7.99
  -2   3  -6  456.68    8.23
   2   3  -6  480.01    9.45
  -2   3   6  505.97    9.11
   2   3  -7  192.15    9.06
  -2   3  -7  197.50    7.71
   2  -3  -7  197.36    4.99
  -2  -3  -7  192.26    6.06
  -2   3  -7  203.66   15.48
   2   3  -7  214.45    8.73
  -2  -3  -7  195.11    5.97
  -2   3   7  205.15    6.69
   2   3  -8 1233.58   34.77
  -2   3  -8 1269.68   37.22
   2  -3  -8 1264.21   35.29
  -2  -3  -8 1158.73   33.16
  -2   3  -8 1240.31   35.39
   2   3  -8 1212.72   35.58
  -2  -3  -8 1240.96   35.12
   2  -3  -8 1275.32   36.78
  -2   3   8 1294.53   37.47
   2   3   8 1291.32   36.53
   2   3  -9  181.84   10.88
   2  -3  -9  159.27    6.62
  -2  -3  -9  187.55    6.23
  -2   3  -9  173.66   19.57
   2   3  -9  179.23    9.63
  -2  -3  -9  187.56    6.59
   2  -3  -9  163.13    8.63
   2   3   9  141.64    7.16
   2   3 -10    3.36    3.18
  -2   3 -10    2.21    1.24
   2  -3 -10    1.80    1.91
  -2  -3 -10   -1.01    4.95
  -2   3 -10    5.52    3.60
   2   3 -10    4.44    7.51
  -2  -3 -10    3.48    4.89
   2  -3 -10    0.54    8.14
   2  -3  10    0.84    0.70
  -2   3  10    7.97    4.37
   2   3  10   -4.62    3.64
   2   3 -11   76.14    7.56
  -2   3 -11   70.87   25.72
   2  -3 -11   65.58    6.57
  -2  -3 -11   69.41    9.78
  -2   3 -11   79.38   15.75
   2   3 -11   89.07   13.48
  -2  -3 -11   72.88   10.67
   2  -3 -11   94.92   12.80
   2  -3  11   73.50    2.56
  -2   3  11   66.26    5.10
   2   3  11   66.72    6.52
   2   3 -12  160.88   19.00
  -2   3 -12  149.65   10.66
   2  -3 -12  137.88    8.34
  -2  -3 -12  159.77   15.65
  -2   3 -12  146.18   24.82
   2   3 -12  149.45   12.38
  -2  -3 -12  161.57   25.18
   2  -3 -12  135.22   13.63
  -2  -3  12  123.62   10.69
   2  -3  12  165.40    7.64
  -2   3  12  157.50   15.33
   2   3  12  213.15   16.21
   2   3 -13  169.70   13.50
  -2   3 -13  185.08    8.67
   2  -3 -13  195.85   12.59
  -2  -3 -13  131.06    9.03
  -2   3 -13  173.18   14.48
   2   3 -13  152.28   12.25
  -2  -3 -13  144.84    9.91
   2  -3 -13  174.23   16.05
  -2  -3  13  194.50   15.48
  -2   3  13  161.51   10.22
   2   3  13  188.66   13.79
   2   3 -14   76.29    7.53
  -2   3 -14   66.78    8.42
   2  -3 -14   63.98    6.76
  -2  -3 -14   78.17    8.75
  -2   3 -14   76.02    9.04
   2   3 -14   76.11   26.23
  -2  -3 -14   69.13   22.35
   2  -3 -14   84.92   26.95
  -2   3  14   72.57   18.01
   2   3  14   68.92    6.96
   2   3 -15  121.54   15.00
  -2   3 -15  142.63   14.09
   2  -3 -15  140.71   12.81
  -2  -3 -15  125.29   15.93
  -2   3 -15  167.39   11.31
   2   3 -15  126.60   35.50
  -2  -3 -15  134.00   13.20
   2  -3 -15  122.10   40.05
  -2   3  15  136.57   10.73
   2   3  15  153.51    7.42
   2   3 -16  115.57   15.02
  -2   3 -16   74.75   21.86
   2  -3 -16   92.47    7.40
  -2  -3 -16   82.42   26.60
  -2   3 -16   72.72   26.13
   2   3 -16   81.48   24.08
  -2  -3 -16   93.71    9.52
   2  -3 -16   72.47   13.79
  -2   3  16   75.82   22.95
   2   3  16   68.33    9.77
   2   3 -17   94.58    9.21
  -2   3 -17  102.12   10.77
   2  -3 -17  108.33   22.66
  -2  -3 -17   97.63   11.39
  -2   3 -17  116.28   36.02
   2   3 -17   81.92   14.03
  -2  -3 -17  114.45   24.56
   2  -3 -17  114.31   39.14
  -2   3  17  101.99   14.02
   2   3  17  104.99   15.32
   2   3 -18    3.13    3.50
  -2   3 -18    0.04    6.04
   2  -3 -18    2.23    2.32
  -2  -3 -18    1.23    2.69
  -2   3 -18    3.88    4.46
   2   3 -18   10.85    8.53
  -2  -3 -18    4.10    9.22
   2  -3 -18    3.43    8.88
  -2   3  18    2.32    2.25
   2   3 -19    7.80    4.24
  -2   3 -19   15.97    7.08
  -2  -3 -19    5.24    3.84
  -2   3 -19    9.92    7.23
   2   3 -19   -0.35    9.05
  -2  -3 -19    3.11    4.33
   2  -3 -19   13.35    9.07
  -2   3  19    6.00    4.20
   2   3 -20   65.45   10.89
  -2   3 -20   57.58   17.00
  -2  -3 -20   57.34   22.51
  -2   3 -20   54.28   23.91
   2   3 -20   61.61   17.61
  -2  -3 -20   72.88   21.11
   2  -3 -20   62.26   17.20
  -2  -4   0  218.97    9.94
   2  -4   0  213.26    8.13
  -2   4   0  220.80    8.96
   2   4   0  225.93   11.78
  -2   4   0  241.07    9.25
  -2  -4  -1  242.93   15.92
  -2  -4   1  237.29    9.45
   2  -4  -1  229.60    8.96
   2  -4   1  235.61    9.42
   2   4   1  238.72    8.98
  -2   4  -1  225.01    9.23
   2   4  -1  231.21    9.68
  -2   4  -1  234.17    8.60
  -2   4   1  229.89    9.67
  -2  -4  -2   97.21   16.02
   2  -4  -2   79.40    5.20
  -2  -4   2   94.77   13.27
   2  -4   2  101.72    5.57
  -2   4   2  106.40    5.03
   2   4   2   86.03    4.05
  -2   4  -2   84.30   11.96
   2   4  -2   94.98    4.24
  -2   4  -2   80.14    2.88
  -2   4   2   94.64    5.25
  -2   4  -3  148.17   14.25
  -2  -4  -3  123.43    6.45
   2  -4  -3  142.50    4.15
  -2  -4   3  138.01    5.83
   2   4   3  144.08    4.00
  -2   4  -3  139.96    8.25
   2   4  -3  121.14   15.55
  -2   4   3  114.25    4.54
  -2   4  -4  709.72   14.43
  -2  -4  -4  727.51   14.99
   2  -4  -4  708.68   13.08
  -2  -4   4  735.61   14.36
  -2   4  -4  806.71   15.88
   2   4  -4  760.09   15.31
  -2   4   4  767.35   15.00
  -2   4  -5  384.80   14.56
  -2  -4  -5  441.75   16.38
   2  -4  -5  375.80   13.41
  -2  -4   5  450.92   16.56
  -2   4  -5  389.40   14.35
   2   4  -5  428.50   15.92
  -2   4   5  418.89   15.55
  -2   4  -6 2169.25   60.08
  -2  -4  -6 2056.27   56.73
   2  -4  -6 2140.90   58.15
  -2  -4   6 2136.82   59.13
  -2   4  -6 2211.49   61.15
   2   4  -6 1949.09   54.69
  -2   4   6 2045.82   56.74
  -2   4  -7  518.02   10.10
   2  -4  -7  505.45    7.72
  -2  -4  -7  468.21    9.53
  -2  -4   7  490.43    8.68
  -2   4  -7  528.07    9.86
   2   4  -7  479.98   10.86
  -2   4   7  478.10    9.50
  -2   4  -8 1171.84   34.69
   2  -4  -8 1104.06   32.07
  -2  -4  -8 1092.17   32.37
  -2  -4   8 1117.15   32.54
  -2   4  -8 1131.52   33.45
   2   4  -8 1096.64   33.23
  -2   4   8 1078.35   31.93
  -2   4  -9  180.24    6.72
   2  -4  -9  191.15    9.49
  -2  -4  -9  174.82    7.36
  -2  -4   9  173.58    5.33
  -2   4  -9  192.05    7.77
   2   4  -9  191.40   26.49
  -2  -4  -9  169.47   10.88
  -2   4   9  194.42    8.64
   2   4   9  189.11    7.05
   2   4 -10   63.78    5.16
  -2   4 -10   56.64   30.07
   2  -4 -10   51.96    4.26
  -2  -4 -10   83.83   13.40
  -2   4 -10   56.41   20.08
   2   4 -10   62.52   26.04
  -2  -4 -10   79.07    7.16
   2  -4 -10   61.85   18.26
  -2   4  10   69.40    9.24
   2   4  10   55.93   17.23
   2   4 -11  341.02   12.14
  -2   4 -11  326.56   13.24
   2  -4 -11  341.99   11.21
  -2  -4 -11  344.18   13.92
  -2   4 -11  348.38   14.82
   2   4 -11  345.53   16.36
  -2  -4 -11  361.44   20.67
   2  -4 -11  324.21   16.04
  -2   4  11  317.20   23.55
   2   4  11  322.03   12.09
   2   4 -12   26.61   14.68
  -2   4 -12   31.74   10.04
   2  -4 -12   36.37   13.13
  -2  -4 -12   19.04   11.03
  -2   4 -12   28.92   11.03
   2   4 -12   23.54    9.36
  -2  -4 -12    8.70    6.85
   2  -4 -12   26.61    7.55
  -2   4  12   20.86   12.25
   2   4  12   23.64    5.25
   2   4 -13   35.76    9.29
  -2   4 -13   39.51   13.04
   2  -4 -13   33.68    8.56
  -2  -4 -13   26.45    8.45
  -2   4 -13   31.53    8.90
   2   4 -13   37.14   11.91
  -2  -4 -13   41.36    8.44
   2  -4 -13   28.68   14.65
  -2   4  13   42.21   10.60
   2   4  13   38.79   17.81
   2   4 -14   43.83   12.11
  -2   4 -14   42.48    9.66
   2  -4 -14   44.87   13.54
  -2  -4 -14   37.08   15.67
  -2   4 -14   39.27    7.54
   2   4 -14   42.20   14.37
  -2  -4 -14   46.86    9.24
   2  -4 -14   52.05   15.31
  -2   4  14   37.86    6.82
   2   4  14   39.11   10.93
   2   4 -15   11.77    6.90
  -2   4 -15    8.44    6.68
   2  -4 -15   19.36    6.59
  -2  -4 -15   16.97    9.86
  -2   4 -15   16.65    7.27
   2   4 -15   26.27   13.87
  -2  -4 -15    6.74    4.31
   2  -4 -15    4.21    7.98
  -2   4  15   13.73    2.39
   2   4  15   13.60    7.16
   2   4 -16  243.32   26.72
  -2   4 -16  275.46   10.42
   2  -4 -16  240.22   16.59
  -2  -4 -16  241.18   15.22
  -2   4 -16  263.89   12.94
   2   4 -16  260.97   15.88
  -2  -4 -16  247.23   11.37
   2  -4 -16  238.10   26.53
  -2   4  16  278.60   31.87
   2   4  16  229.21    8.27
   2   4 -17  115.26   13.23
  -2   4 -17  101.77   24.28
   2  -4 -17  115.36   17.10
  -2  -4 -17   76.76    8.85
  -2   4 -17   86.57   32.56
   2   4 -17   81.18   28.97
  -2  -4 -17   91.82    9.36
   2  -4 -17   97.38   28.32
  -2   4  17   91.20   18.91
   2   4  17   92.35    6.90
   2   4 -18   11.29    5.49
  -2   4 -18   11.24    5.52
   2  -4 -18   21.71    5.65
  -2  -4 -18   15.82    4.97
  -2   4 -18   21.88    9.78
   2   4 -18    1.56    7.61
  -2  -4 -18    8.70    5.22
   2  -4 -18   12.70    5.08
  -2   4  18   16.31    5.88
   2   4  18   12.90    5.91
   2   4 -19   65.63   25.93
  -2   4 -19   42.01   22.28
  -2  -4 -19   62.92   27.71
  -2   4 -19   47.02   25.10
   2   4 -19   44.03   12.35
  -2  -4 -19   53.49   21.94
   2  -4 -19   43.40   23.38
  -2   4  19   50.23   24.10
   2   4 -20   15.06    8.14
  -2   4 -20   22.70    9.94
  -2  -4 -20   34.46   13.45
  -2   4 -20   26.36   10.58
   2   4 -20   36.11   20.86
  -2  -4 -20   26.04   13.30
   2  -4 -20   33.40   11.97
  -2   4  20   28.50   13.92
  -2  -5   0  426.28   15.98
   2  -5   0  425.32   15.25
  -2   5   0  445.78   16.12
  -2  -5  -1  202.30   13.62
  -2  -5   1  154.32    5.70
   2  -5  -1  144.44    4.84
  -2   5   1  200.33    9.21
   2   5   1  145.75    4.53
  -2   5  -1  140.03    4.78
   2   5  -1  196.71    8.08
  -2   5  -1  170.65    9.62
  -2  -5  -2 2097.26   35.73
   2  -5  -2 2109.30   36.60
  -2  -5   2 2136.09   36.30
  -2   5   2 2060.00   35.00
   2   5   2 2066.45   34.27
  -2   5   2 2335.36   39.80
  -2  -5  -3  407.32   15.56
   2  -5  -3  391.98   14.02
  -2  -5   3  402.34   21.54
   2  -5   3  384.80   14.06
   2   5   3  400.19   14.24
  -2   5  -3  389.08   14.72
   2   5  -3  400.01   14.99
  -2   5   3  400.12   15.04
  -2   5  -4  235.15    7.11
  -2  -5  -4  215.28   13.70
   2  -5  -4  216.21    7.27
  -2  -5   4  220.88    6.50
  -2   5  -4  223.76    6.26
   2   5  -4  212.37    6.27
  -2   5   4  233.88    7.51
  -2   5  -5  831.28   24.44
  -2  -5  -5  842.45   24.84
   2  -5  -5  823.96   23.68
  -2  -5   5  858.35   25.07
  -2   5  -5  982.04   28.62
   2   5  -5  829.45   24.39
  -2   5   5  848.45   25.17
  -2   5  -6  399.10    8.38
  -2  -5  -6  369.45   12.64
   2  -5  -6  427.29    7.23
  -2  -5   6  449.13   14.53
  -2   5  -6  375.65    8.61
   2   5  -6  399.37    9.51
  -2   5   6  386.37    8.99
  -2   5  -7  873.13   26.74
  -2  -5  -7  836.42   25.71
   2  -5  -7  771.53   22.74
  -2  -5   7  845.87   27.05
  -2   5  -7  820.83   25.12
   2   5  -7  822.03   26.34
  -2   5   7  816.75   25.10
  -2   5  -8  240.13    8.49
   2  -5  -8  241.78    9.96
  -2  -5  -8  215.03    7.14
  -2  -5   8  225.90    7.22
  -2   5  -8  253.91    8.71
   2   5  -8  189.15    8.17
  -2   5   8  210.16    7.33
  -2   5  -9  108.62   18.65
   2  -5  -9  122.89   13.44
  -2  -5  -9   90.14    9.87
  -2  -5   9  108.35    8.79
  -2   5  -9  111.99   19.75
   2   5  -9  108.19   11.08
  -2   5   9  105.34    9.37
   2   5   9  116.23    9.75
  -2   5 -10  360.33   20.45
   2  -5 -10  380.34   12.00
  -2  -5 -10  348.62   12.55
  -2  -5  10  394.98   13.84
  -2   5 -10  354.28   17.47
   2   5 -10  427.22   23.90
  -2  -5 -10  376.88   14.09
  -2   5  10  406.21   14.63
   2   5  10  374.27   13.73
  -2   5 -11  371.97   16.87
   2  -5 -11  331.10   13.03
  -2  -5 -11  328.74   15.44
  -2  -5  11  330.82   27.54
  -2   5 -11  379.27   18.42
   2   5 -11  313.51   32.19
  -2  -5 -11  338.08   15.64
   2  -5 -11  319.20   16.81
  -2   5  11  326.54   19.87
   2   5  11  388.61   16.73
  -2   5 -12  267.62   23.66
   2  -5 -12  286.41   10.58
  -2  -5 -12  250.71   27.87
  -2  -5  12  253.42   11.49
  -2   5 -12  258.82   29.38
   2   5 -12  238.13   12.93
  -2  -5 -12  249.64   12.38
   2  -5 -12  265.13   14.36
  -2   5  12  238.00   23.07
   2   5  12  236.19   24.07
  -2   5 -13   45.30   15.32
   2  -5 -13   34.36    5.20
  -2  -5 -13   47.27   21.10
  -2  -5  13   33.51   12.67
  -2   5 -13   33.77   12.85
   2   5 -13   54.37   15.74
  -2  -5 -13   50.53    9.38
   2  -5 -13   31.32    8.36
  -2   5  13   52.63   16.80
   2   5  13   77.98   11.48
  -2   5 -14  174.52   13.75
   2  -5 -14  194.80    7.84
  -2  -5 -14  206.23    9.79
  -2   5 -14  183.62    9.04
   2   5 -14  226.18   13.99
  -2  -5 -14  198.19   27.78
   2  -5 -14  178.12   25.03
  -2   5  14  213.07   24.20
   2   5  14  193.49   19.53
  -2   5 -15   58.71   18.07
   2  -5 -15   66.29    7.06
  -2  -5 -15   64.33   24.74
  -2   5 -15   57.15   17.95
   2   5 -15   74.03   26.64
  -2  -5 -15   64.32   20.18
   2  -5 -15   52.49   11.98
  -2   5  15   70.97   10.05
   2   5  15   64.23    6.87
  -2   5 -16   85.32   19.49
   2  -5 -16  114.20    8.56
  -2  -5 -16   86.94    9.45
  -2   5 -16  101.34   36.24
   2   5 -16  109.77   30.18
  -2  -5 -16  100.62    9.06
   2  -5 -16   79.73   26.82
  -2   5  16   99.17   11.26
   2   5  16   81.64   14.18
  -2   5 -17   65.40   15.17
   2  -5 -17   55.47   13.08
  -2  -5 -17   43.51   15.17
  -2  -5  17   47.21   18.80
  -2   5 -17   59.82   18.37
   2   5 -17   69.39   19.83
  -2  -5 -17   48.80   15.54
   2  -5 -17   47.32   22.70
  -2   5  17   56.42   17.01
   2   5  17   41.16   17.78
  -2   5 -18   68.36   18.83
  -2  -5 -18   62.11   15.66
  -2  -5  18   59.57   25.42
  -2   5 -18   68.24   13.72
   2   5 -18   70.30   28.41
  -2  -5 -18   75.99   13.51
   2  -5 -18   76.00   12.36
  -2   5  18   57.15   14.44
   2   5  18   53.02   21.60
  -2   5 -19    5.21    4.95
  -2  -5 -19    2.95    3.53
  -2  -5  19    6.75    5.32
  -2   5 -19    4.04    4.03
   2   5 -19   13.76    9.28
  -2  -5 -19    9.82    9.94
   2  -5 -19    3.79    7.60
  -2   5  19    2.13    3.53
   2   5  19    6.48    3.97
  -2   5 -20   15.32    6.28
  -2  -5 -20   11.42    4.87
  -2  -5  20   16.43    9.09
  -2   5 -20   21.84    8.85
   2   5 -20   14.89   11.92
  -2  -5 -20   12.63    9.45
   2  -5 -20   12.37   12.22
  -2   5  20    9.27    4.89
  -2  -6   0  212.76    9.36
   2  -6   0  229.80    9.71
  -2   6   0  223.94    9.40
   2   6   0  220.48    9.03
  -2   6   0  206.52    9.34
  -2  -6  -1  683.04   20.84
  -2  -6   1  702.26   21.43
   2  -6  -1  692.39   20.17
   2  -6   1  680.64   20.51
  -2   6   1  683.00   24.03
   2   6   1  706.23   20.61
  -2   6  -1  684.38   20.42
   2   6  -1  682.65   20.33
  -2   6   1  684.12   20.20
  -2   6  -1  730.62   21.02
  -2  -6  -2 1079.89   31.29
   2  -6  -2 1192.84   33.52
  -2  -6   2 1177.85   33.57
   2  -6   2 1104.73   31.66
  -2   6   2 1055.55   30.33
   2   6   2 1181.17   33.02
  -2   6  -2 1180.37   33.47
   2   6  -2 1037.76   29.67
  -2   6   2 1136.68   34.61
  -2   6  -2 1179.80   33.06
  -2  -6  -3  235.36    8.32
   2  -6  -3  216.60    6.17
  -2  -6   3  215.99    6.31
   2  -6   3  243.29    7.06
   2   6   3  212.87    9.44
  -2   6  -3  201.14    6.07
  -2  -6  -4   59.16   10.68
   2  -6  -4   52.90   12.06
  -2  -6   4   53.38    5.43
   2  -6   4   56.10    5.36
   2   6   4   60.49    5.59
  -2   6  -4   54.78    7.46
   2   6  -4   59.86   16.92
  -2   6   4   74.96   12.06
  -2   6  -4   58.67    4.22
  -2  -6  -5  269.56    7.92
   2  -6  -5  249.43   11.91
  -2  -6   5  235.97    6.60
   2  -6   5  270.31   14.80
  -2   6  -5  236.21    7.27
   2   6  -5  289.64   14.62
  -2   6   5  287.58    8.40
  -2   6  -6  438.81   15.89
  -2  -6  -6  431.44    9.13
   2  -6  -6  463.08   14.88
  -2  -6   6  436.78   14.50
   2   6  -6  447.15   15.58
  -2   6   6  434.99    9.83
  -2   6  -7  491.03   16.77
  -2  -6  -7  496.82   17.28
   2  -6  -7  466.43   19.87
  -2  -6   7  496.16   16.77
  -2   6  -7  505.25   16.91
   2   6  -7  451.91   17.12
  -2   6   7  455.66   16.05
  -2   6  -8   15.23    7.52
  -2  -6  -8   14.66    5.29
   2  -6  -8   21.73    6.05
  -2  -6   8   30.95    5.23
  -2   6  -8   22.12   16.48
   2   6  -8   29.78   11.94
  -2   6   8   19.67    6.57
  -2   6  -9  126.44   10.52
   2  -6  -9  125.67   10.32
  -2  -6  -9  163.72   16.68
  -2  -6   9  135.43   22.70
  -2   6  -9  130.81   10.93
   2   6  -9  135.21   14.36
  -2   6   9  136.79   10.79
   2   6   9  152.03   24.71
  -2   6 -10  348.94   22.91
   2  -6 -10  337.59   11.40
  -2  -6 -10  345.97   14.75
  -2  -6  10  320.00   11.87
  -2   6 -10  369.37   15.97
   2   6 -10  373.84   15.90
  -2   6  10  325.47   13.61
   2   6  10  359.17   24.41
  -2   6 -11  531.52   23.92
   2  -6 -11  579.70   20.95
  -2  -6 -11  572.48   22.79
  -2  -6  11  607.48   23.59
  -2   6 -11  591.13   24.60
   2   6 -11  577.86   24.58
  -2  -6 -11  555.31   22.18
  -2   6  11  560.17   21.82
   2   6  11  601.49   23.89
  -2   6 -12   18.87    8.79
   2  -6 -12   21.32    6.53
  -2  -6 -12   36.86    8.70
  -2  -6  12   21.57    6.56
  -2   6 -12   26.59    8.13
   2   6 -12   14.24    7.89
  -2  -6 -12   18.69    4.97
   2  -6 -12   22.72    8.69
  -2   6  12   17.09    9.75
   2   6  12   11.05    6.19
  -2   6 -13   80.41   30.78
   2  -6 -13   75.48    6.25
  -2  -6 -13   76.25   18.76
  -2  -6  13   69.42   27.29
  -2   6 -13   86.28   25.62
   2   6 -13   53.48   16.87
  -2  -6 -13   65.21   26.41
   2  -6 -13   74.26   22.61
  -2   6  13   54.09   20.80
   2   6  13   78.15    6.97
  -2   6 -14  219.72   14.28
   2  -6 -14  220.41   17.62
  -2  -6 -14  217.83   20.79
  -2  -6  14  273.79   10.34
  -2   6 -14  242.54   10.72
   2   6 -14  228.29   20.25
  -2  -6 -14  244.78   11.78
   2  -6 -14  222.54   12.75
  -2   6  14  234.93   15.42
   2   6  14  254.41   21.85
  -2   6 -15  176.77   24.65
   2  -6 -15  157.30    6.64
  -2  -6 -15  174.14   29.55
  -2  -6  15  163.06   13.59
  -2   6 -15  184.91   12.40
   2   6 -15  168.43   19.76
  -2  -6 -15  148.07   25.32
   2  -6 -15  174.83   13.87
  -2   6  15  204.65   39.21
   2   6  15  185.39   19.45
  -2   6 -16   50.44   18.76
   2  -6 -16   45.62    7.83
  -2  -6 -16   67.09   15.48
  -2  -6  16   41.99   16.72
  -2   6 -16   46.77   16.54
   2   6 -16   47.67   18.99
  -2  -6 -16   54.79   16.55
   2  -6 -16   49.86   19.49
  -2   6  16   71.84   15.24
   2   6  16   61.25   11.87
  -2   6 -17   49.61   15.08
   2  -6 -17   28.78    9.03
  -2  -6 -17   34.99   13.04
  -2  -6  17   32.70   12.79
  -2   6 -17   40.38   17.08
   2   6 -17   34.93   12.79
  -2  -6 -17   45.11   12.91
   2  -6 -17   29.69   11.38
  -2   6  17   43.56    7.33
   2   6  17   43.14   16.20
  -2   6 -18    8.40    4.05
  -2  -6 -18   12.46    5.53
  -2  -6  18   14.65    5.61
  -2   6 -18   10.25    5.05
   2   6 -18   23.86   12.44
  -2  -6 -18    8.38    7.38
   2  -6 -18   18.11    8.28
  -2   6  18   16.65    4.00
   2   6  18   12.72    7.31
  -2   6 -19   17.97    9.03
  -2  -6 -19   18.77   10.37
  -2  -6  19   10.62    7.49
  -2   6 -19   18.64   11.66
   2   6 -19   16.18   11.73
  -2  -6 -19   11.73    6.12
   2  -6 -19   14.62    8.65
  -2   6  19   16.42    5.18
   2   6  19    7.58    2.78
  -2  -7   0   -0.39    5.06
   2  -7   0    5.64    4.57
  -2   7   0   -1.24    3.74
   2   7   0    4.27    4.19
  -2   7   0    1.89    3.87
  -2  -7  -1  337.54    9.88
  -2  -7   1  310.00    9.37
   2  -7  -1  315.83    7.49
   2  -7   1  336.17   10.57
  -2   7   1  326.22    8.26
   2   7   1  320.64   14.26
  -2   7  -1  324.17   15.04
   2   7  -1  350.39    7.86
  -2   7   1  334.10    8.00
  -2   7  -1  333.13    7.27
  -2  -7  -2  677.51   21.15
   2  -7  -2  682.97   20.45
  -2  -7   2  700.23   21.64
   2  -7   2  693.76   22.13
  -2   7   2  700.05   21.34
   2   7   2  680.02   24.01
  -2   7  -2  686.69   21.43
   2   7  -2  675.60   20.49
  -2   7   2  691.18   21.13
  -2   7  -2  689.93   20.22
  -2  -7  -3  390.76    9.84
   2  -7  -3  386.39    8.89
  -2  -7   3  369.20    9.69
   2  -7   3  414.32    9.26
   2   7   3  358.20    8.89
  -2   7  -3  367.18    8.51
   2   7  -3  398.84    8.79
  -2   7   3  417.05    9.34
  -2   7  -3  366.37    6.84
  -2  -7  -4  721.93   22.46
   2  -7  -4  703.84   21.03
  -2  -7   4  727.63   22.46
   2  -7   4  733.85   22.54
   2   7   4  752.27   22.36
  -2   7  -4  714.49   21.88
  -2   7  -4  735.22   21.17
  -2  -7  -5  993.53   30.10
   2  -7  -5  977.71   28.92
  -2  -7   5  993.76   30.33
   2  -7   5  991.23   30.23
  -2   7  -5  986.09   29.78
   2   7  -5  971.57   29.22
  -2   7   5 1129.14   36.28
  -2   7  -5 1031.35   29.13
  -2  -7  -6  425.97   10.01
   2  -7  -6  482.56   17.67
  -2  -7   6  472.57   17.12
   2  -7   6  441.75   16.24
  -2   7  -6  473.77   16.65
   2   7  -6  453.76   16.27
  -2   7   6  446.53   20.36
  -2  -7  -7  560.39   14.22
   2  -7  -7  634.55   13.30
  -2  -7   7  592.40   20.67
   2  -7   7  548.93   13.91
   2   7  -7  546.18   15.32
  -2   7  -7  594.33    8.80
  -2   7   7  555.12   13.79
  -2  -7  -8  274.89   16.40
   2  -7  -8  249.79   19.00
  -2  -7   8  253.15   20.31
  -2   7  -8  272.39   16.62
   2   7  -8  241.08   15.05
  -2   7   8  254.33   16.16
  -2   7  -9   52.15   19.63
  -2  -7  -9   35.78   13.32
   2  -7  -9   44.52   16.98
  -2  -7   9   58.03   24.93
  -2   7  -9   43.30   12.31
   2   7  -9   21.81   12.98
  -2   7   9   36.79   19.69
   2   7   9   50.10   22.32
  -2   7 -10  222.92   12.49
   2  -7 -10  222.91   20.56
  -2  -7 -10  260.54   27.22
  -2  -7  10  215.61   16.55
  -2   7 -10  235.55   13.81
   2   7 -10  252.22   14.09
  -2   7  10  266.65   14.18
   2   7  10  204.42   10.66
  -2   7 -11  105.03    6.82
   2  -7 -11  102.90   17.87
  -2  -7 -11  100.55   13.52
  -2   7 -11  119.70   19.56
   2   7 -11  117.24   12.62
  -2   7  11  101.77    8.81
   2   7  11  108.27   26.27
  -2   7 -12    6.40    3.00
   2  -7 -12    4.34    1.79
  -2  -7 -12   23.39    5.51
  -2  -7  12    7.11    5.12
  -2   7 -12    4.54    4.87
   2   7 -12   -0.54    7.47
  -2  -7 -12    9.74    7.61
  -2   7  12   12.39    5.66
   2   7  12    9.65    8.88
  -2   7 -13   57.37   17.59
   2  -7 -13   56.14    6.82
  -2  -7 -13   49.77    5.48
  -2  -7  13   54.62    5.96
  -2   7 -13   43.34   15.15
   2   7 -13   56.39   21.75
  -2  -7 -13   51.21   18.51
   2  -7 -13   48.84   17.75
  -2   7  13   53.56   17.77
   2   7  13   63.36   11.76
  -2   7 -14   77.18    7.85
   2  -7 -14   80.92   14.07
  -2  -7 -14   68.75   26.10
  -2  -7  14   84.87    9.51
  -2   7 -14   84.86   24.16
   2   7 -14  108.34   17.50
  -2  -7 -14   88.49   19.98
   2  -7 -14   80.32   29.08
  -2   7  14   87.83   12.37
  -2   7 -15   14.12    6.83
   2  -7 -15   20.66    4.29
  -2  -7 -15    8.63    3.40
  -2  -7  15   18.55    8.57
  -2   7 -15    8.03    6.50
   2   7 -15   14.57    8.21
  -2  -7 -15   21.75   10.78
   2  -7 -15   39.84   13.25
  -2   7  15   15.19    7.82
   2   7  15   17.92    6.57
  -2   7 -16   37.78   10.15
   2  -7 -16   36.17   17.38
  -2  -7 -16   28.97   11.40
  -2  -7  16   38.00   14.01
  -2   7 -16   32.78   11.34
   2   7 -16   33.89    8.62
  -2  -7 -16   28.37    9.89
   2  -7 -16   26.36    9.13
  -2   7  16   42.44   13.77
   2   7  16   43.16    7.31
  -2   7 -17   44.25   16.48
  -2  -7 -17   37.73   18.54
  -2  -7  17   35.21   13.94
  -2   7 -17   28.70   10.03
   2   7 -17   35.83   12.22
  -2  -7 -17   34.42   12.00
   2  -7 -17   32.69   16.09
  -2   7  17   56.26   14.78
   2   7  17   34.76   19.30
  -2   7 -18   95.91   12.20
  -2  -7 -18   96.93    9.70
  -2  -7  18   76.73   28.56
  -2   7 -18   76.21   32.18
   2   7 -18   78.46   23.59
  -2  -7 -18   82.01   14.15
   2  -7 -18   63.69   30.43
  -2   7  18   83.45   35.11
   2   7  18   86.07   22.30
  -2   7 -19   39.85   18.70
  -2  -7  19   27.93   10.80
  -2   7 -19   33.99   15.26
   2   7 -19   35.76   15.04
  -2  -7 -19   32.62   10.79
   2  -7 -19   13.69    8.76
  -2   7  19   32.26   17.13
   2   7  19   21.60   13.13
  -2  -8   0    5.03    5.96
   2  -8   0    0.86    2.29
  -2   8   0    3.78    3.97
   2   8   0    3.19    3.26
  -2   8   0    1.47    1.37
  -2  -8  -1   53.61    8.32
  -2  -8   1   43.74    5.76
   2  -8  -1   32.01   10.74
   2  -8   1   34.57   13.95
  -2   8   1   33.91   12.69
   2   8   1   35.61    9.88
  -2   8  -1   31.69    9.43
   2   8  -1   37.25   13.05
  -2   8   1   40.82   12.77
  -2   8  -1   37.74    5.52
  -2  -8  -2  175.69    8.71
   2  -8  -2  141.34    6.39
  -2  -8   2  145.25    7.87
   2  -8   2  153.70    5.86
  -2   8   2  150.80    5.86
   2   8   2  174.64    5.93
  -2   8  -2  139.91    5.76
   2   8  -2  157.38   13.64
  -2   8   2  154.48    6.73
  -2   8  -2  159.16    5.38
  -2  -8  -3  726.74   23.47
   2  -8  -3  726.72   22.41
  -2  -8   3  717.46   23.13
   2  -8   3  754.42   23.56
  -2   8   3  735.08   23.35
   2   8   3  784.23   23.94
  -2   8  -3  722.28   22.36
   2   8  -3  723.25   22.50
  -2   8   3  743.75   23.48
  -2   8  -3  760.35   22.53
  -2  -8  -4  699.82   22.73
   2  -8  -4  728.15   23.24
  -2  -8   4  763.24   24.89
   2  -8   4  704.76   22.78
   2   8   4  757.09   23.29
  -2   8  -4  751.20   23.75
   2   8  -4  675.38   21.63
  -2   8   4  682.70   22.01
  -2   8  -4  746.69   21.98
  -2  -8  -5  810.71   25.75
   2  -8  -5  810.79   15.61
  -2  -8   5  790.40   30.97
   2  -8   5  774.68   17.00
  -2   8  -5  807.67   17.51
   2   8  -5  822.71   21.80
  -2   8  -5  803.74   16.42
  -2  -8  -6  514.67   18.00
   2  -8  -6  575.51   13.02
  -2  -8   6  549.26   14.45
   2  -8   6  515.03   14.52
  -2   8  -6  535.16   13.07
   2   8  -6  520.84   14.67
  -2   8   6  544.80   14.90
  -2   8  -6  546.96    9.51
  -2  -8  -7  190.51   14.53
   2  -8  -7  176.45   11.80
  -2  -8   7  173.38   21.95
   2  -8   7  186.79   20.10
  -2   8  -7  171.68   13.32
   2   8  -7  203.34   15.65
  -2   8   7  176.08   13.47
  -2  -8  -8  449.77   15.79
   2  -8  -8  451.69   14.55
  -2  -8   8  452.44   17.31
   2  -8   8  479.95   17.51
  -2   8  -8  439.95   16.21
   2   8  -8  479.35   17.54
  -2   8  -8  420.84   10.46
  -2   8   8  438.19   24.24
  -2  -8  -9  180.58   21.51
   2  -8  -9  206.18   10.80
  -2  -8   9  211.46   13.66
   2  -8   9  194.86   13.96
  -2   8  -9  204.62   11.19
   2   8  -9  197.77   11.17
  -2   8   9  189.66   26.12
   2   8   9  234.94   27.09
   2  -8 -10   37.31   11.76
  -2  -8 -10   42.82   13.86
  -2  -8  10   64.68   23.06
   2  -8  10   36.83   12.88
  -2   8 -10   63.12   22.80
   2   8 -10   37.43    9.44
  -2   8  10   34.14   12.74
   2   8  10   55.32   21.84
   2  -8 -11   18.17    4.70
  -2  -8 -11   15.99    6.12
  -2  -8  11   22.26    6.48
   2  -8  11   11.57    6.86
  -2   8 -11   22.16    9.66
   2   8 -11   23.67    7.54
  -2   8  11    9.56   10.30
   2   8  11    9.31    5.40
   2  -8 -12   54.74    5.46
  -2  -8 -12   59.26   22.20
  -2  -8  12   51.36   17.42
   2  -8  12   53.84   20.46
  -2   8 -12   48.89   17.99
   2   8 -12   61.41   24.42
  -2   8  12   67.29   12.94
   2   8  12   54.05   15.71
   2  -8 -13   16.95    7.14
  -2  -8 -13   21.04    8.51
  -2  -8  13   19.40    7.17
  -2   8 -13   11.27    9.37
   2   8 -13    1.90    4.39
  -2  -8 -13   13.08    7.71
  -2   8  13   11.26   10.24
   2   8  13   10.11    7.41
  -2   8 -14   32.73   11.49
   2  -8 -14   37.82    5.65
  -2  -8 -14   38.25   18.66
  -2  -8  14   41.64   15.73
  -2   8 -14   25.47   14.35
  -2  -8 -14   39.02    7.30
   2  -8 -14   37.50   11.21
  -2   8  14   43.52    9.52
   2   8  14   60.62   25.80
  -2   8 -15   25.41   11.29
   2  -8 -15   20.81    7.88
  -2  -8 -15   21.16    6.21
  -2  -8  15   24.63    9.94
  -2   8 -15   27.34   12.83
   2   8 -15   18.93   10.26
  -2  -8 -15   37.11   12.44
   2  -8 -15   34.33   12.31
  -2   8  15   30.81    9.75
   2   8  15   12.14    7.81
  -2   8 -16   70.23   21.48
   2  -8 -16   74.53   10.01
  -2  -8 -16  102.18    8.99
  -2  -8  16   69.45   22.17
  -2   8 -16   49.97   21.94
   2   8 -16   54.80   23.75
  -2  -8 -16   72.72   18.99
   2  -8 -16   79.64   17.41
  -2   8  16   58.21   21.03
   2   8  16   69.97    8.24
  -2  -8 -17   41.20   15.33
  -2  -8  17   48.13   11.79
  -2   8 -17   31.25   17.05
   2   8 -17   48.96   18.30
  -2  -8 -17   38.66   18.74
   2  -8 -17   57.28   18.19
  -2   8  17   52.72   20.34
   2   8  17   32.30   14.58
  -2  -8 -18   -7.27    5.85
  -2  -8  18    9.27    6.03
  -2   8 -18   -3.91    6.39
   2   8 -18    5.44    5.78
  -2  -8 -18   -3.13    6.76
   2  -8 -18    1.10    7.56
  -2   8  18    6.47    4.49
   2   8  18    4.15    5.79
  -2  -9   0  549.52   19.94
   2  -9   0  529.25   18.45
  -2   9   0  520.97   17.84
   2   9   0  528.96   17.79
  -2   9   0  521.96   17.07
  -2  -9  -1  328.59   11.89
  -2  -9   1  367.20   11.52
   2  -9  -1  348.93   20.68
   2  -9   1  319.86   21.38
  -2   9   1  343.70    8.45
   2   9   1  331.14    8.62
  -2   9  -1  316.89    9.04
   2   9  -1  345.81    8.94
  -2   9   1  347.69    9.96
  -2   9  -1  317.23   12.24
  -2  -9  -2   90.63   18.32
   2  -9  -2   73.79    5.19
  -2  -9   2   64.20   21.58
   2  -9   2   73.68    6.18
  -2   9   2   76.69   13.55
   2   9   2   62.81   11.38
  -2   9  -2   62.25    5.15
   2   9  -2   77.53    5.74
  -2   9   2   77.85    6.37
  -2   9  -2   75.09    5.74
  -2  -9  -3  228.06   22.36
   2  -9  -3  186.31   13.50
  -2  -9   3  205.07   14.80
   2  -9   3  220.62   13.32
  -2   9   3  228.25   14.41
   2   9   3  210.95   13.36
  -2   9  -3  190.48   11.85
   2   9  -3  207.21   13.22
  -2   9   3  210.73   13.20
  -2   9  -3  192.15   11.52
  -2  -9  -4  574.72   13.86
   2  -9  -4  557.71   12.80
  -2  -9   4  558.37   32.41
   2  -9   4  550.76   27.20
  -2   9   4  564.32   21.22
   2   9   4  554.57   12.41
  -2   9  -4  578.58   15.26
   2   9  -4  555.26   13.69
  -2   9   4  604.30   15.06
  -2   9  -4  552.00   10.52
  -2  -9  -5  165.92   41.79
   2  -9  -5  140.33   10.31
  -2  -9   5  140.08   21.23
   2  -9   5  132.28   28.15
  -2   9  -5  139.71   29.54
   2   9  -5  157.45   24.47
  -2   9   5  203.58   19.40
  -2   9  -5  131.57    7.87
  -2  -9  -6   17.21    7.12
   2  -9  -6    9.33    5.40
  -2  -9   6    5.12    5.13
   2  -9   6    5.58    5.41
  -2   9  -6   10.28    5.64
   2   9  -6    9.28    7.71
  -2   9   6   15.31   13.64
  -2   9  -6    8.47    2.92
  -2  -9  -7   40.00   12.46
   2  -9  -7   34.26   16.91
  -2  -9   7   39.97   15.21
   2  -9   7   39.01   11.52
  -2   9  -7   41.20   10.76
   2   9  -7   50.26   12.10
  -2   9   7   49.21   15.35
  -2   9  -7   34.17    9.00
  -2  -9  -8  279.88   22.60
   2  -9  -8  293.92   13.96
  -2  -9   8  282.25   24.31
   2  -9   8  298.11   13.56
  -2   9  -8  288.26   14.24
   2   9  -8  293.27   14.58
  -2   9   8  291.28   14.58
   2   9   8  277.15   13.96
  -2  -9  -9  150.72   22.05
   2  -9  -9  187.85   11.88
  -2  -9   9  179.35   10.42
   2  -9   9  149.90   13.15
  -2   9  -9  168.26   10.79
   2   9  -9  135.98   29.39
  -2   9   9  160.79   10.26
   2   9   9  172.21   10.07
  -2  -9 -10   70.04   28.64
   2  -9 -10   57.86    7.20
  -2  -9  10   58.51   19.09
   2  -9  10   76.01   12.36
  -2   9 -10   78.77   10.05
   2   9 -10   62.84   24.73
  -2   9  10   69.20    7.02
   2   9  10   73.64   10.15
   2  -9 -11   21.32   10.05
  -2  -9 -11   24.93    6.88
  -2  -9  11   33.87   11.55
   2  -9  11   16.60   11.54
  -2   9 -11   41.08   12.67
   2   9 -11   23.25    9.96
  -2   9  11   28.08    8.88
   2   9  11   37.26   11.54
   2  -9 -12   30.17   15.59
  -2  -9 -12   48.55    9.03
  -2  -9  12   38.68   10.66
   2  -9  12   27.41   11.04
  -2   9 -12   38.69   15.01
   2   9 -12   32.30   15.08
  -2   9  12   30.44   14.92
   2   9  12   34.64   11.50
   2  -9 -13   57.33   16.67
  -2  -9 -13   76.28   28.25
  -2  -9  13   78.87   17.31
   2  -9  13   82.84   31.67
  -2   9 -13   73.45    8.86
   2   9 -13   77.07   29.52
  -2   9  13   92.99   14.81
   2   9  13   46.05   19.10
   2  -9 -14   49.83   17.99
  -2  -9 -14   44.93   13.74
  -2  -9  14   35.27   15.86
   2  -9  14   40.71   14.66
  -2   9 -14   40.55   23.10
   2   9 -14   39.55   14.83
  -2  -9 -14   58.86   18.78
  -2   9  14   36.74    9.63
   2   9  14   60.74   14.19
   2  -9 -15  117.74   15.33
  -2  -9 -15  126.71   11.91
  -2  -9  15  132.75    9.07
   2  -9  15  121.23   22.11
  -2   9 -15  123.13   31.09
   2   9 -15  153.69   18.87
  -2  -9 -15  129.85   26.17
   2  -9 -15  138.76   16.36
  -2   9  15  105.48   31.24
   2   9  15  145.12    8.82
  -2  -9 -16   60.35   11.25
  -2  -9  16   99.60   15.66
   2  -9  16  100.91   12.91
  -2   9 -16   57.96   26.08
   2   9 -16   60.89   17.90
  -2  -9 -16   87.02   10.70
   2  -9 -16  103.23   12.44
  -2   9  16   81.97   19.48
   2   9  16   72.04   31.01
  -2  -9 -17   36.14   17.78
  -2  -9  17   27.78   21.76
   2  -9  17   36.41   21.87
  -2   9 -17   38.75   24.20
   2   9 -17   28.71   18.45
  -2  -9 -17   47.45   10.05
   2  -9 -17   39.50   24.91
  -2   9  17   44.83   18.75
   2   9  17   48.14   19.01
  -2  -9 -18    3.17    2.59
  -2  -9  18   -0.15    6.16
   2  -9  18    1.27    4.20
  -2   9 -18    5.41    5.09
   2   9 -18    2.89    8.15
  -2  -9 -18    3.41    4.86
   2  -9 -18   10.80   11.69
  -2   9  18    4.53    3.51
   2   9  18    3.95    2.85
  -2 -10   0  824.62   20.15
   2 -10   0  809.68   18.94
  -2  10   0  792.60   17.64
   2  10   0  806.06   17.53
  -2  10   0  808.10   16.45
  -2 -10  -1  338.42   13.85
  -2 -10   1  357.74   13.66
   2 -10  -1  356.62   11.76
   2 -10   1  314.96   12.26
  -2  10   1  300.20   15.02
   2  10   1  356.46   16.36
  -2  10  -1  366.80   12.25
   2  10  -1  324.78   11.57
  -2  10   1  286.04   18.76
  -2  10  -1  350.03    9.85
  -2 -10  -2  101.25   15.07
   2 -10  -2   91.83   11.23
  -2 -10   2   93.70   34.43
   2 -10   2   99.57   12.67
  -2  10   2  112.82   16.34
   2  10   2   72.38    6.77
  -2  10  -2   80.69   28.59
   2  10  -2   93.44    8.09
  -2  10   2   88.30    7.88
  -2  10  -2   95.67    7.72
  -2 -10  -3  235.52   19.81
   2 -10  -3  279.15   20.89
  -2 -10   3  278.00   29.08
   2 -10   3  241.76    9.26
  -2  10   3  243.60   16.74
   2  10   3  270.05   11.44
  -2  10  -3  244.90   13.37
   2  10  -3  260.10   24.16
  -2  10   3  250.43   17.50
  -2  10  -3  243.29    8.97
  -2 -10  -4  204.49   21.21
   2 -10  -4  170.64   12.18
  -2 -10   4  193.97   16.18
   2 -10   4  200.36   13.77
  -2  10   4  234.73   27.48
   2  10   4  182.91   22.63
  -2  10  -4  179.74   13.64
   2  10  -4  225.19   15.08
  -2  10   4  216.63   14.71
  -2  10  -4  164.12   14.09
  -2 -10  -5   36.68   10.94
   2 -10  -5   47.72   18.77
  -2 -10   5   40.38   13.45
   2 -10   5   40.20   11.40
   2  10   5   38.29   15.42
  -2  10  -5   41.01   13.71
   2  10  -5   40.08   17.38
  -2  10   5   39.88   16.81
  -2  10  -5   39.10   11.96
  -2 -10  -6   16.55   10.94
   2 -10  -6   13.43    7.22
  -2 -10   6   12.16    8.90
   2 -10   6   12.66    6.01
  -2  10  -6   15.32    6.26
   2  10  -6   11.47    4.78
  -2  10   6   15.98    9.25
  -2  10  -6   15.44    4.31
  -2 -10  -7   13.71    6.12
   2 -10  -7    5.83    3.68
  -2 -10   7    3.17    5.56
   2 -10   7    5.32    4.72
  -2  10  -7   18.71    6.99
   2  10  -7    7.94    5.96
  -2  10   7   14.04    5.90
  -2  10  -7    4.60    3.22
  -2 -10  -8   33.99    8.08
   2 -10  -8   50.05    9.58
  -2 -10   8   52.45   18.38
   2 -10   8   32.64    9.48
  -2  10  -8   51.55   17.01
   2  10  -8   42.87   16.10
  -2  10   8   34.11   13.13
   2  10   8   39.17   13.38
  -2 -10  -9   17.68    7.39
   2 -10  -9    9.12    3.71
  -2 -10   9    7.66    4.82
   2 -10   9   15.24   14.27
  -2  10  -9    9.06    6.83
   2  10  -9    6.81    5.50
  -2  10   9    8.19    3.63
   2  10   9    9.16    4.09
  -2 -10 -10  169.08   22.31
   2 -10 -10  183.39   16.87
  -2 -10  10  185.69   11.95
   2 -10  10  172.94   10.14
  -2  10 -10  179.19   11.19
   2  10 -10  168.33   24.72
  -2  10  10  191.42   12.78
   2  10  10  185.69   10.24
  -2 -10 -11   77.87   37.87
   2 -10 -11   94.59    8.87
  -2 -10  11   85.45    7.98
   2 -10  11  102.65   35.15
  -2  10 -11   70.75   31.55
   2  10 -11  103.21   20.89
  -2  10  11  111.62    8.63
   2  10  11   77.93   21.64
   2 -10 -12  126.94   19.73
  -2 -10 -12  153.59   17.19
  -2 -10  12  159.11   32.71
   2 -10  12  154.16   10.45
  -2  10 -12  165.10   23.61
   2  10 -12  151.22    9.61
  -2  10  12  158.35   24.36
   2  10  12  180.62   13.60
   2 -10 -13  150.69    8.18
  -2 -10 -13  158.07   27.83
  -2 -10  13  142.53   35.40
   2 -10  13  152.04   26.38
  -2  10 -13  145.06   11.07
   2  10 -13  131.39    9.18
  -2  10  13  140.85   33.09
   2  10  13  146.19   30.70
   2 -10 -14   48.25   21.42
  -2 -10 -14   75.82   21.99
  -2 -10  14   71.50   19.54
   2 -10  14   70.26   26.31
  -2  10 -14  107.71   10.39
   2  10 -14   66.83   22.57
  -2  10  14   71.40   28.08
   2  10  14   85.09   12.60
   2 -10 -15  108.00   10.76
  -2 -10 -15   91.58   14.70
  -2 -10  15  112.87    7.96
   2 -10  15   98.43   17.07
  -2  10 -15   83.51   33.56
   2  10 -15  113.55   39.25
  -2 -10 -15   91.50   26.67
   2 -10 -15  114.69    8.99
  -2  10  15  119.07   11.94
   2  10  15  110.88   12.34
  -2 -10 -16   61.34    8.91
  -2 -10  16   83.50   17.66
   2 -10  16   73.31   28.91
  -2  10 -16   90.57   16.07
   2  10 -16   74.28   30.61
  -2 -10 -16   84.87   17.32
   2 -10 -16   78.48   34.75
  -2  10  16   70.32   27.54
   2  10  16   54.23   22.01
  -2 -10 -17    5.19    4.99
  -2 -10  17    8.91    5.14
   2 -10  17    4.97    8.39
  -2  10 -17   12.43    6.80
   2  10 -17    9.46    9.76
  -2 -10 -17    9.99    7.49
   2 -10 -17    5.68    9.89
  -2  10  17    9.04    4.31
   2  10  17    4.90    6.36
  -2 -11   0    1.33    4.31
   2 -11   0    7.65    7.38
  -2  11   0    5.14    4.03
   2  11   0   -5.39    5.40
  -2  11   0   -1.76    5.17
  -2 -11  -1  154.57   24.87
  -2 -11   1  145.91   11.02
   2 -11  -1  149.19   13.25
   2 -11   1  157.91   12.90
  -2  11   1  149.87   14.48
   2  11   1  162.07   12.28
  -2  11  -1  139.47   19.16
   2  11  -1  132.20   11.10
  -2  11   1  124.81   17.41
  -2  11  -1  135.67    9.33
  -2 -11  -2  215.46   30.36
   2 -11  -2  218.09   13.29
  -2 -11   2  202.18   28.82
   2 -11   2  189.97   14.69
  -2  11   2  211.97   14.59
   2  11   2  188.31   13.20
  -2  11  -2  188.64   24.41
   2  11  -2  192.69   27.50
  -2  11   2  189.78   13.00
  -2  11  -2  206.87   10.09
  -2 -11  -3  506.79   21.75
   2 -11  -3  551.73   21.86
  -2 -11   3  530.12   21.62
   2 -11   3  523.63   28.14
  -2  11   3  554.62   21.95
   2  11   3  514.61   26.68
  -2  11  -3  556.29   22.75
   2  11  -3  558.22   21.74
  -2  11   3  514.07   20.68
  -2  11  -3  521.81   19.09
  -2 -11  -4  118.10   15.22
   2 -11  -4  130.01    9.19
  -2 -11   4  125.56   36.42
   2 -11   4  118.04   33.24
  -2  11   4  118.30   18.97
   2  11   4  122.31   13.68
  -2  11  -4  115.41   24.04
   2  11  -4  107.05    8.63
  -2  11   4  128.24   11.51
  -2  11  -4  130.29    7.78
  -2 -11  -5  211.11   35.22
   2 -11  -5  146.70    9.96
  -2 -11   5  158.93   11.43
   2 -11   5  159.77   13.21
   2  11   5  172.37   10.57
  -2  11  -5  150.53    7.69
   2  11  -5  160.71   11.21
  -2  11   5  184.99   12.51
  -2  11  -5  152.64    7.09
  -2 -11  -6   88.97    7.68
   2 -11  -6   96.46    9.56
  -2 -11   6  103.56   19.13
   2 -11   6   82.42    7.65
  -2  11  -6  102.07    7.35
   2  11  -6   91.71   13.83
  -2  11   6  136.79   26.99
  -2  11  -6  102.08    4.27
  -2 -11  -7  275.18   30.48
   2 -11  -7  281.49   18.80
  -2 -11   7  266.04   17.69
   2 -11   7  267.81   26.85
  -2  11  -7  262.74   17.78
   2  11  -7  290.28   26.75
  -2  11   7  311.68   20.52
  -2 -11  -8   71.64   21.07
   2 -11  -8   62.77    9.15
  -2 -11   8   55.14   20.31
   2 -11   8   71.23    8.32
  -2  11  -8   58.48   22.80
   2  11  -8   67.29   22.03
  -2  11   8   59.78   18.50
   2  11   8   51.64   22.86
  -2 -11  -9  388.99   12.81
   2 -11  -9  354.33   10.70
  -2 -11   9  360.14   23.13
   2 -11   9  367.13   33.20
  -2  11  -9  346.24   11.85
   2  11  -9  402.95   13.91
  -2  11   9  350.59   15.09
   2  11   9  387.28   14.94
  -2 -11 -10   80.11   30.56
   2 -11 -10   42.74   13.50
  -2 -11  10   56.74   22.44
   2 -11  10   74.64   31.49
  -2  11 -10   55.06   18.91
   2  11 -10   83.92   24.06
  -2  11  10   68.79    8.24
   2  11  10   78.81   11.82
  -2 -11 -11   31.68   19.24
   2 -11 -11   65.05    6.87
  -2 -11  11   44.00   17.81
   2 -11  11   43.15   19.95
  -2  11 -11   42.89   13.19
   2  11 -11   35.92   17.95
  -2  11  11   40.34   15.63
   2  11  11   43.30   15.63
   2 -11 -12    0.51    3.91
  -2 -11 -12    3.19    5.39
  -2 -11  12   -6.16    8.22
   2 -11  12   -6.90    8.33
  -2  11 -12    5.17    4.38
   2  11 -12    7.84    4.90
  -2  11  12   -3.01    6.11
   2  11  12    9.99    8.48
   2 -11 -13   13.41    7.34
  -2 -11 -13   14.90    8.26
  -2 -11  13   12.21   11.12
   2 -11  13   22.08   11.71
  -2  11 -13   14.41   11.48
   2  11 -13   13.74    5.03
  -2  11  13   11.63    7.43
   2  11  13   13.99    7.93
   2 -11 -14   13.80   10.18
  -2 -11 -14    9.92    4.92
  -2 -11  14   21.13    8.93
   2 -11  14   20.31   13.43
  -2  11 -14   10.97   14.03
   2  11 -14   14.88    9.49
  -2  11  14   15.35    7.52
   2  11  14   20.23    7.69
  -2 -11 -15   66.84   21.95
  -2 -11  15   53.13   18.15
   2 -11  15   47.14   23.35
  -2  11 -15   63.35   22.47
   2  11 -15   54.46   23.66
  -2 -11 -15   51.31   22.44
  -2  11  15   48.98   20.88
   2  11  15   75.07   32.34
  -2 -11 -16   15.90    8.91
  -2 -11  16    7.61    4.37
   2 -11  16    9.79    9.04
  -2  11 -16   16.05    7.52
   2  11 -16   12.98    9.84
  -2 -11 -16   17.10    7.38
   2 -11 -16   17.27   12.49
  -2  11  16   11.68    6.93
   2  11  16    7.56    7.27
  -2 -12   0   -3.41    6.76
   2 -12   0   -2.50    5.45
  -2  12   0    1.74    3.01
   2  12   0    6.94    5.14
  -2  12   0    5.43    3.95
  -2 -12  -1   79.56   22.72
  -2 -12   1   78.09   11.26
   2 -12  -1   78.16   17.34
   2 -12   1   73.02   18.86
  -2  12   1   67.05   18.77
   2  12   1   80.39   18.26
  -2  12  -1   83.59   12.65
   2  12  -1   76.13   15.67
  -2  12   1   75.40    7.85
  -2  12  -1   79.19    6.68
  -2 -12  -2  144.16   13.40
   2 -12  -2  143.19   10.85
  -2 -12   2  163.95   17.30
   2 -12   2  155.46   15.16
  -2  12   2  155.23   11.10
   2  12   2  153.10    7.44
  -2  12  -2  165.25   11.84
   2  12  -2  152.30   23.85
  -2  12   2  167.82    9.84
  -2  12  -2  155.45    7.17
  -2 -12  -3   15.77    8.32
   2 -12  -3   29.84    7.72
  -2 -12   3   28.73   17.66
   2 -12   3   24.18    7.49
  -2  12   3   30.47    9.16
   2  12   3   36.38   10.09
  -2  12  -3   36.80    9.60
   2  12  -3   30.33    7.24
  -2  12   3   39.41    7.61
  -2  12  -3   36.87    6.49
  -2 -12  -4   97.52   14.49
   2 -12  -4  121.07    6.89
  -2 -12   4  109.38   28.74
   2 -12   4  108.82    8.43
  -2  12   4  105.88    7.41
   2  12   4  102.40   27.23
  -2  12  -4  111.64   12.73
   2  12  -4  112.71   13.85
  -2  12   4  104.26    8.79
  -2  12  -4  106.71    6.08
  -2 -12  -5  163.85   13.85
   2 -12  -5  156.39   12.22
  -2 -12   5  155.94   23.60
   2 -12   5  171.33   13.91
   2  12   5  163.35   16.06
  -2  12  -5  138.02    7.22
   2  12  -5  180.42   13.05
  -2  12   5  191.56   15.74
  -2  12  -5  152.47   10.55
  -2 -12  -6  332.53   14.81
   2 -12  -6  340.00   12.76
  -2 -12   6  328.67   14.80
   2 -12   6  306.31   13.85
  -2  12  -6  309.89   13.25
   2  12  -6  312.98   15.00
  -2  12  -6  322.51   10.63
  -2 -12  -7  209.35   11.90
   2 -12  -7  182.23   18.61
  -2 -12   7  190.69   12.96
   2 -12   7  194.85   41.84
  -2  12  -7  162.74   15.70
   2  12  -7  179.26    8.86
  -2  12   7  217.41   31.92
   2  12   7  163.93    9.65
  -2 -12  -8    5.25    3.78
   2 -12  -8    4.48    5.95
  -2 -12   8    5.58    5.03
   2 -12   8    9.64    7.28
  -2  12  -8    7.88   10.04
   2  12  -8    3.40    6.95
  -2  12   8   10.15    6.16
   2  12   8    5.26    6.80
  -2 -12  -9   19.72    8.22
   2 -12  -9   23.20    7.89
  -2 -12   9   19.36   10.00
   2 -12   9   12.72    8.14
  -2  12  -9   24.40   11.34
   2  12  -9   19.41   11.04
  -2  12   9   11.97    8.67
   2  12   9   25.42    8.95
  -2 -12 -10  161.57   25.77
   2 -12 -10  154.30   21.36
  -2 -12  10  151.56    9.71
   2 -12  10  156.77    9.76
  -2  12 -10  181.01   33.97
   2  12 -10  160.09   10.69
  -2  12  10  147.04   10.14
   2  12  10  186.75   31.97
  -2 -12 -11   74.59   10.65
   2 -12 -11   76.34    6.68
  -2 -12  11   79.71   32.34
   2 -12  11   82.45   25.14
  -2  12 -11   68.64   27.45
   2  12 -11   70.32   24.20
  -2  12  11   82.92    9.31
   2  12  11   80.51   22.34
   2 -12 -12    2.18    4.54
  -2 -12 -12   11.07    6.50
  -2 -12  12    3.66    6.08
   2 -12  12    5.54    5.70
  -2  12 -12    6.68    8.95
   2  12 -12   16.50    7.24
  -2  12  12    5.37    6.50
   2  12  12    4.15    2.30
   2 -12 -13    5.04    2.14
  -2 -12 -13   13.17    7.71
  -2 -12  13    7.79    5.23
   2 -12  13    8.70    4.51
  -2  12 -13    5.98    4.03
   2  12 -13    5.02    6.69
  -2  12  13   14.12    7.25
   2  12  13    8.37    4.65
  -2 -12 -14   -1.88    6.22
  -2 -12  14    6.67    4.42
   2 -12  14    5.05    6.59
  -2  12 -14    3.12    3.94
   2  12 -14    5.60    8.35
  -2  12  14   -2.61    7.39
   2  12  14    5.81    7.91
  -2 -12 -15    9.88    7.80
  -2 -12  15   25.98    8.17
   2 -12  15   29.73   18.74
  -2  12 -15   16.99    9.36
   2  12 -15    9.67   10.92
  -2  12  15    9.19    6.85
   2  12  15   18.16   14.19
  -2 -12 -16    7.94    6.39
  -2 -12  16    3.94    5.28
   2 -12  16    8.10    9.53
  -2  12 -16    8.28    5.26
   2  12 -16    6.71    9.35
  -2 -12 -16    4.00    2.97
   2 -12 -16    2.18    8.38
  -2  12  16    2.57    3.58
   2  12  16    7.65    5.87
  -2 -13   0    9.74    4.22
   2 -13   0   14.55    7.38
  -2  13   0   26.96   11.21
   2  13   0   21.63    6.87
  -2  13   0   10.56    4.37
  -2 -13  -1  126.59   18.22
  -2 -13   1  148.28   10.44
   2 -13  -1  166.84    9.73
   2 -13   1  167.27   13.70
  -2  13   1  177.12   11.22
   2  13   1  159.27   34.15
  -2  13  -1  158.51   16.69
   2  13  -1  182.96    9.27
  -2  13   1  168.93    9.74
  -2  13  -1  172.42   10.02
  -2 -13  -2  171.32   22.09
   2 -13  -2  167.03    9.16
  -2 -13   2  149.16   10.46
   2 -13   2  161.67   23.89
  -2  13   2  143.82    8.31
   2  13   2  147.44   13.32
  -2  13  -2  144.67   22.62
   2  13  -2  175.59   25.49
  -2  13   2  151.37    8.65
  -2  13  -2  166.12    8.85
  -2 -13  -3  235.79   38.50
   2 -13  -3  200.15   10.85
  -2 -13   3  190.88   11.73
   2 -13   3  188.33   21.03
  -2  13   3  216.07   11.44
   2  13   3  200.06   24.65
  -2  13  -3  185.52   15.11
   2  13  -3  220.87   28.36
  -2  13   3  204.88   10.85
  -2  13  -3  212.75    9.06
  -2 -13  -4   33.67   19.78
   2 -13  -4   43.27    7.19
  -2 -13   4   33.21   15.29
   2 -13   4   39.11   21.78
  -2  13   4   50.71   13.75
   2  13   4   33.72   11.08
  -2  13  -4   36.22   14.84
   2  13  -4   46.90    8.86
  -2  13   4   45.01   11.04
  -2  13  -4   33.43    7.89
  -2 -13  -5   25.42    8.37
   2 -13  -5   39.42   16.11
  -2 -13   5   42.86   18.60
   2 -13   5   45.10   12.63
   2  13   5   46.04   15.31
  -2  13  -5   43.88   13.81
   2  13  -5   42.04   16.15
  -2  13   5   73.80   23.59
  -2  13  -5   49.05    5.45
  -2 -13  -6  160.37   18.01
   2 -13  -6  150.80   16.94
  -2 -13   6  122.82   14.02
   2 -13   6  118.89   12.18
  -2  13  -6  173.67   29.39
   2  13  -6  150.74   27.88
  -2  13   6  170.47   37.94
  -2 -13  -7   54.39   11.32
   2 -13  -7   51.25   20.16
  -2 -13   7   41.68   17.74
   2 -13   7   49.09   15.44
  -2  13  -7   43.86   15.77
   2  13  -7   43.92   12.06
  -2  13   7   36.64   14.87
   2  13   7   50.26   16.45
  -2 -13  -8   13.13    9.72
   2 -13  -8   18.17   12.60
  -2 -13   8    5.05    7.20
   2 -13   8   11.40    7.47
  -2  13  -8   12.90    6.58
   2  13  -8    6.12    5.97
  -2  13   8    5.61    4.61
   2  13   8   15.12    6.77
  -2 -13  -9   86.68   13.55
   2 -13  -9   72.74    6.74
  -2 -13   9  107.75   16.48
   2 -13   9   63.91   24.83
  -2  13  -9   86.82   29.77
   2  13  -9   66.47   34.22
  -2  13   9   84.26   12.04
   2  13   9   73.68   26.51
  -2 -13 -10   49.85   34.75
   2 -13 -10   60.33    9.00
  -2 -13  10   69.65   16.32
   2 -13  10   52.17   17.94
  -2  13 -10   63.02   22.29
   2  13 -10   51.64    8.48
  -2  13  10   65.04    7.70
   2  13  10   58.71   23.28
  -2 -13 -11   96.18    7.98
   2 -13 -11   92.84   11.35
  -2 -13  11   88.26   33.41
  -2  13 -11   87.70   29.71
   2  13 -11  114.91    8.95
  -2  13  11   76.99   26.73
   2  13  11   93.14   14.36
  -2 -13 -12    4.48    6.28
   2 -13 -12    2.30    2.64
  -2 -13  12    9.91    7.12
   2 -13  12    3.04    3.31
  -2  13 -12    4.05    6.57
   2  13 -12    5.78    5.32
  -2  13  12    1.41    5.49
   2  13  12    4.14    6.24
   2 -13 -13   90.75   23.40
  -2 -13 -13   92.49    8.78
  -2 -13  13   84.97   35.44
   2 -13  13   84.02   38.18
  -2  13 -13   79.52   34.95
   2  13 -13   83.26   25.12
  -2  13  13   96.92    8.90
   2  13  13   98.88   14.61
  -2 -13 -14   53.26    8.01
  -2 -13  14   50.47   17.26
   2 -13  14   64.71   13.65
  -2  13 -14   52.48   21.92
   2  13 -14   43.51   26.34
  -2  13  14   55.62   11.80
   2  13  14   90.75   47.72
  -2  13 -15   24.08   13.48
   2  13 -15   19.90   12.20
  -2 -14   0  284.53   22.85
   2 -14   0  289.34   31.04
  -2  14   0  291.36   33.37
   2  14   0  306.52   30.57
  -2  14   0  300.60   22.52
  -2 -14  -1  107.55   14.37
  -2 -14   1   77.23   26.28
   2 -14  -1   66.50   30.74
   2 -14   1   72.96   30.41
  -2  14   1   90.40   26.16
   2  14   1   92.69   19.19
  -2  14  -1   76.69   11.97
   2  14  -1   96.03   25.91
  -2  14   1   77.05   16.34
  -2  14  -1   80.36   10.08
  -2 -14  -2    6.45    8.18
   2 -14  -2    3.45    5.03
  -2 -14   2    2.04   10.11
   2 -14   2    2.09    4.34
  -2  14   2    6.12    5.36
   2  14   2    4.51    6.41
  -2  14  -2    1.93    5.46
   2  14  -2    6.04    3.81
  -2  14   2    4.07    4.44
  -2  14  -2    2.10    2.67
  -2 -14  -3   48.51   26.30
   2 -14  -3   33.94   16.53
  -2 -14   3   62.48   14.37
   2 -14   3   27.98   13.12
  -2  14   3   59.18   13.94
   2  14   3   57.27   16.91
  -2  14  -3   51.11   19.82
   2  14  -3   57.14   15.70
  -2  14   3   56.52    7.24
  -2  14  -3   49.48   18.23
  -2 -14  -4   38.05   19.47
   2 -14  -4   62.65   19.95
  -2 -14   4   61.88   27.09
   2 -14   4   56.40   19.29
  -2  14   4   59.68   20.26
   2  14   4   72.12   17.80
  -2  14  -4   60.09   21.49
   2  14  -4   69.18   21.70
  -2  14   4   94.86   41.20
  -2  14  -4   63.93    8.28
  -2 -14  -5   16.51   11.38
   2 -14  -5   11.93    5.93
  -2 -14   5    4.95    7.20
   2 -14   5    7.02    5.36
   2  14   5    0.90    4.33
  -2  14  -5    3.83    4.31
   2  14  -5   11.26    8.41
  -2  14   5    9.96    8.05
  -2  14  -5    3.23    3.36
  -2 -14  -6    8.42    6.35
   2 -14  -6    7.02    5.37
  -2 -14   6   11.20    8.15
   2 -14   6   11.69    9.18
  -2  14  -6   25.30   12.92
   2  14  -6   22.63   10.00
  -2  14   6    7.79    8.99
   2  14   6   11.93    9.15
  -2 -14  -7    9.38    6.59
   2 -14  -7    7.32    4.51
  -2 -14   7    8.10    8.14
   2 -14   7    1.41    5.15
  -2  14  -7   -1.14    6.30
   2  14  -7    6.51    3.71
  -2  14   7    1.21    3.56
   2  14   7   -8.01    7.85
  -2 -14  -8   41.95    8.42
   2 -14  -8   42.57   18.38
  -2 -14   8   37.89   16.30
  -2  14  -8   21.89   12.35
   2  14  -8   33.97   14.74
  -2  14   8   34.05   17.40
   2  14   8   36.77   17.91
  -2 -14  -9   53.21    7.73
   2 -14  -9   32.37   15.92
   2 -14   9   32.31   14.26
  -2  14  -9   44.38   16.94
   2  14  -9   37.88   11.57
  -2  14   9   45.49   15.61
   2  14   9   42.78   15.48
  -2 -14 -10    5.57    6.52
   2 -14 -10    4.98    4.10
  -2 -14  10    8.88    9.72
   2 -14  10    9.65    4.15
  -2  14 -10    0.60    3.62
   2  14 -10    8.73    9.66
  -2  14  10    8.03    7.05
   2  14  10    6.09    3.58
  -2 -14 -11   31.87   16.18
   2 -14 -11   32.78   13.83
  -2 -14  11   37.17   18.09
  -2  14 -11   47.46   19.36
   2  14 -11   31.52   15.22
  -2  14  11   27.79   22.17
   2  14  11   35.27   11.68
  -2 -14 -12  105.63   38.14
   2 -14 -12  138.99   10.28
  -2 -14  12  123.01   31.40
   2 -14  12  137.60   22.42
  -2  14 -12  101.88   34.95
   2  14 -12  110.80   31.84
  -2  14  12  133.49   19.33
   2  14  12  136.97   17.89
  -2 -14 -13   12.23   12.26
  -2 -14  13   12.15    8.08
   2 -14  13   32.15   12.29
  -2  14 -13   25.36   11.26
   2  14 -13   19.17    8.98
  -2  14  13   16.45    9.02
   2  14  13   19.09   17.37
  -2 -15   0   12.62    8.40
   2 -15   0    5.20    4.62
  -2  15   0    2.07    5.27
   2  15   0   14.11    7.61
  -2  15   0    6.87    5.71
  -2 -15  -1   17.24    9.75
  -2 -15   1   24.57   12.77
   2 -15  -1   25.34   13.23
   2 -15   1   23.67    9.89
  -2  15   1   28.34    7.16
   2  15   1   32.73    6.47
  -2  15  -1   33.13    9.68
   2  15  -1   30.76   11.11
  -2  15   1   30.85    6.91
  -2  15  -1   25.81    9.49
  -2 -15  -2    3.93    4.22
   2 -15  -2    2.44    7.68
  -2 -15   2    8.50    8.77
   2 -15   2   11.53    8.36
  -2  15   2    8.27    5.18
   2  15   2    2.66    3.34
  -2  15  -2   10.72    6.78
   2  15  -2    0.50    4.90
  -2  15   2    9.42    8.50
  -2  15  -2   11.88    4.82
  -2 -15  -3   21.22   16.04
   2 -15  -3   12.43   12.78
  -2 -15   3   16.22    9.33
   2 -15   3   22.17   12.53
  -2  15   3   22.04   12.67
   2  15   3   21.74    6.58
  -2  15  -3   16.94    7.97
   2  15  -3   35.88   10.97
  -2  15   3   38.55   16.83
  -2  15  -3   15.32    7.57
  -2 -15  -4   92.64   28.95
   2 -15  -4   64.05   27.43
  -2 -15   4   64.18   24.70
   2 -15   4   97.57   11.00
  -2  15   4   77.20   26.41
   2  15   4   73.35   27.62
  -2  15  -4   63.58   27.53
   2  15  -4   92.54   23.02
  -2  15  -4   99.30    7.82
  -2 -15  -5  124.98   10.26
   2 -15  -5  149.57   18.13
  -2 -15   5  147.39   22.37
   2 -15   5  114.46   42.47
   2  15   5  140.78   13.72
  -2  15  -5  154.58    8.94
   2  15  -5  131.16   14.84
  -2  15   5  146.25   20.34
   2  15   5  137.47   26.85
  -2 -15  -6    6.03    5.00
   2 -15  -6    1.92    3.99
  -2 -15   6    5.07    9.30
   2 -15   6   -2.68    7.14
  -2  15  -6   -5.90    7.13
   2  15  -6   -3.17    6.20
  -2  15   6    2.85    6.06
   2  15   6    6.40    5.01
  -2 -15  -7   27.91   12.59
   2 -15  -7   48.32   12.76
  -2 -15   7   41.60   13.35
   2 -15   7   22.02   16.46
  -2  15  -7   39.35   13.62
   2  15  -7   35.05    9.46
  -2  15   7   18.50   12.48
   2  15   7   28.70   16.62
  -2 -15  -8  116.62   16.32
   2 -15  -8  114.90   11.51
  -2 -15   8  129.40   17.56
   2 -15   8  116.01   10.43
  -2  15  -8  150.48   26.23
   2  15  -8  145.76   21.92
  -2  15   8  144.94   11.31
   2  15   8  115.65   14.24
  -2 -15  -9   14.31    7.61
   2 -15  -9    9.17    6.60
  -2 -15   9   13.73    8.28
   2 -15   9   17.43   11.59
  -2  15  -9   15.16    9.67
   2  15  -9   14.71    5.97
  -2  15   9   15.69    9.16
   2  15   9   11.94    8.78
  -2 -15 -10    1.94    3.89
   2 -15 -10   -1.42    5.54
  -2 -15  10   -2.74    8.27
   2 -15  10    5.36    9.74
  -2  15 -10    5.51    5.92
   2  15 -10   -1.74    8.05
  -2  15  10   -2.47    6.78
   2  15  10    4.36    5.07
  -2 -15 -11    7.74    8.07
   2 -15 -11   -0.36    5.80
  -2 -15  11    7.08    8.35
   2 -15  11    4.26    7.38
  -2  15 -11    2.37    4.14
   2  15 -11   -2.47    8.30
  -2  15  11    8.12    9.19
   2  15  11    8.06    7.53
  -2 -15 -12   22.66   10.15
   2 -15 -12    2.70    2.56
  -2 -15  12   12.82   10.78
   2 -15  12    8.78    9.67
  -2  15 -12   12.83    9.84
   2  15 -12   14.16    6.63
  -2  15  12   10.87    9.34
   2  15  12   10.49    5.71
  -2 -16   0    8.62    6.22
   2 -16   0   17.21   10.92
  -2  16   0   12.24    6.00
   2  16   0   17.65    4.26
  -2  16   0    6.77    5.71
  -2 -16  -1   78.02   27.81
  -2 -16   1   86.38   12.47
   2 -16  -1   60.20   29.83
   2 -16   1   62.97    7.19
  -2  16   1   63.72   13.25
   2  16   1   81.79   28.76
  -2  16  -1   77.72   31.79
   2  16  -1   66.02   17.09
  -2  16   1   89.33   33.77
  -2  16  -1  100.61    9.08
  -2 -16  -2    3.82    8.72
   2 -16  -2    7.05    6.08
  -2 -16   2   -0.33    8.73
   2 -16   2    4.33    8.42
  -2  16   2   12.07    6.63
   2  16   2    4.61    3.43
  -2  16  -2   10.67    5.84
   2  16  -2    0.41    5.98
  -2  16   2   19.10   48.74
  -2  16  -2    4.92    4.04
  -2 -16  -3   -0.60    7.02
   2 -16  -3   13.87    6.30
  -2 -16   3   14.34   17.31
   2 -16   3   12.15    7.59
  -2  16   3   13.00    8.42
   2  16   3    9.31    5.54
  -2  16  -3   12.50    7.07
   2  16  -3    9.32    8.94
  -2  16   3   30.37    9.97
  -2  16  -3   21.18    9.30
   2  16   3   27.37    7.64
  -2 -16  -4   95.25   42.80
   2 -16  -4   72.10   25.93
  -2 -16   4   97.15    9.88
   2 -16   4   96.89   12.65
  -2  16   4   85.44   28.10
   2  16   4   99.03   19.17
  -2  16  -4   86.44   25.00
   2  16  -4  107.50   17.81
  -2  16   4  116.50   20.84
   2  16   4   92.08   28.34
  -2 -16  -5   44.64   19.02
   2 -16  -5   53.75    7.52
  -2 -16   5   39.78   18.17
   2 -16   5   57.06   17.97
   2  16   5   50.57   22.66
  -2  16  -5   66.80   28.93
   2  16  -5   49.62   16.06
  -2  16   5   59.40   20.77
   2  16   5   63.63   27.95
  -2 -16  -6   59.57   25.30
   2 -16  -6   36.80   15.00
  -2 -16   6   48.95   27.08
   2 -16   6   42.56   16.88
  -2  16  -6   50.87   24.50
   2  16  -6   53.55   15.16
  -2  16   6   41.64   17.29
   2  16   6   52.27   11.17
  -2 -16  -7   71.47   31.56
   2 -16  -7   54.21   30.93
  -2 -16   7   54.82   15.16
   2 -16   7   64.38   29.97
  -2  16  -7   63.74   23.70
   2  16  -7   69.02   31.37
  -2  16   7   74.33   34.09
   2  16   7   62.77   26.24
  -2 -16  -8   53.61    9.93
   2 -16  -8   35.15   18.27
  -2 -16   8   31.23   14.09
   2 -16   8   65.89   23.60
  -2  16  -8   56.88   18.37
   2  16  -8   56.26   17.69
  -2  16   8   41.91   19.64
   2  16   8   55.71   16.43
  -2 -16  -9   29.46   12.63
   2 -16  -9   30.22   17.03
  -2 -16   9   26.48   15.21
   2 -16   9   22.59   13.85
  -2  16  -9   35.10   12.57
   2  16  -9   31.09   18.86
  -2  16   9   32.95    8.42
   2  16   9   33.82   12.44
  -2 -16 -10   13.98    8.80
   2 -16 -10    9.15    5.99
  -2 -16  10   19.55    9.44
   2 -16  10   17.65    8.11
  -2  16 -10    9.76    7.14
   2  16 -10   17.13    8.76
  -2  16  10    8.23    8.64
   2  16  10   15.88    8.58
  -2 -17   0   67.91   32.60
   2 -17   0   59.05   29.71
  -2  17   0   86.90   29.33
   2  17   0   70.67   22.75
  -2  17   0  122.19   31.66
  -2 -17  -1    9.41    8.86
  -2 -17   1   12.89    8.34
   2 -17  -1   20.04    9.26
   2 -17   1   17.69    7.70
  -2  17   1   35.91    9.85
   2  17   1   10.03    7.78
  -2  17  -1   19.75    7.46
   2  17  -1   15.67    8.35
  -2  17   1   33.39   15.26
  -2  17  -1   26.58    9.47
   2  17   1   22.09    6.67
  -2 -17  -2  112.38   29.34
   2 -17  -2   82.19   41.79
  -2 -17   2  129.57   40.68
   2 -17   2  128.04   44.11
  -2  17   2  130.71   36.37
   2  17   2  125.12   29.68
  -2  17  -2  119.66   42.97
   2  17  -2  110.95   41.92
  -2  17   2  146.07   34.08
  -2  17  -2  179.81   48.61
   2  17   2  131.24   32.53
  -2 -17  -3   13.35    8.52
   2 -17  -3   12.46    7.18
  -2 -17   3    1.70    8.73
   2 -17   3    8.17    5.89
  -2  17   3    2.94    4.79
   2  17   3   10.67    6.05
  -2  17  -3    4.66    4.54
   2  17  -3   12.87   10.52
  -2  17   3    4.19    5.42
   2  17   3    7.40    5.05
  -2 -17  -4   13.51    9.51
   2 -17  -4    9.10    5.00
  -2 -17   4   13.64    8.93
   2 -17   4    4.99    7.18
   2  17   4   13.19   10.60
  -2  17  -4   12.32    5.08
   2  17  -4    7.07    7.86
  -2  17   4    9.33    4.32
   2  17   4    6.97    4.46
  -2 -17  -5    5.22    9.62
   2 -17  -5   -0.92    6.68
  -2 -17   5   10.40    9.93
   2 -17   5   10.67    7.02
  -2  17  -5    5.68    7.35
   2  17  -5    8.02    7.97
  -2  17   5    5.10    6.96
   2  17   5   14.43   11.24
  -2 -17  -6   19.94   10.34
   2 -17  -6   18.08    6.94
  -2 -17   6   13.99    9.64
   2 -17   6   17.63    6.92
  -2  17  -6   23.99   10.41
   2  17  -6    6.47    6.80
  -2  17   6   11.70    6.57
   2  17   6   14.36   10.00
  -2 -17  -7   11.84    7.70
   2 -17  -7   10.45   10.48
  -2 -17   7    9.74    9.93
   2 -17   7   10.96    9.57
  -2  17  -7    7.33    7.89
   2  17  -7   12.92    5.69
  -2  17   7    5.99    6.75
   2  17   7   15.31    7.29
  -2 -17  -8    7.41    7.21
   2 -17  -8   16.63    7.62
  -2 -17   8    7.97    8.22
   2 -17   8   20.76    8.85
  -2  17  -8   10.41    8.74
   2  17  -8    8.42    4.90
  -2  17   8   23.72    8.12
   2  17   8   22.18   15.46
  -2 -18   0    5.02    5.88
   2 -18   0   -8.96    6.99
  -2  18   0    4.40    6.30
   2  18   0   -0.94    6.21
  -2  18   0    4.58    5.03
   2  18   0    3.56    4.80
  -2 -18  -1   56.95   18.03
  -2 -18   1   27.47   19.53
   2 -18  -1   64.54    9.61
   2 -18   1   49.13   31.54
  -2  18   1   49.55   18.66
   2  18   1   44.56   18.49
  -2  18  -1   68.53   27.68
   2  18  -1   48.52   19.12
  -2  18  -1   77.08   10.99
  -2  18   1   34.05   22.51
   2  18   1   53.36   22.20
   2  18  -1   41.04   21.83
  -2 -18  -2   29.94   16.26
   2 -18  -2   28.83   17.41
  -2 -18   2   45.23   17.49
   2 -18   2   54.02   13.62
  -2  18   2   45.10   12.67
   2  18   2   40.96   11.36
   2  18  -2   30.46   13.73
  -2  18   2   22.30   10.77
   2  18   2   36.88   10.35
   2  18  -2   45.02   15.21
  -2 -18  -3   -7.67    7.64
   2 -18  -3   17.97    9.49
  -2 -18   3    7.81    6.17
   2 -18   3   18.18    9.10
  -2  18   3   22.57   11.47
   2  18   3    4.17    4.22
  -2  18  -3   10.11    5.71
   2  18  -3   15.34    7.53
  -2  18   3   14.74    7.84
   2  18   3   19.07    7.41
  -2 -18  -4   -0.05    8.34
   2 -18  -4    4.96    7.76
  -2 -18   4    5.06    5.42
   2 -18   4    1.72    4.45
   2  18   4    2.35    4.53
  -2  18  -4   10.39    6.30
   2  18  -4    2.58    3.61
  -2  18   4    4.04    2.46
   2  18   4    5.38    5.95
  -2 -18  -5   25.71   12.69
   2 -18  -5   23.72   15.61
  -2 -18   5   23.89   10.22
   2 -18   5   29.68   10.23
  -2  18  -5   23.60   12.99
   2  18  -5   33.91   11.99
  -2  18   5   36.58   13.81
   2  18   5   47.13   18.96
  -3   0   0    6.23    3.53
   3   0   0    1.68    1.84
  -3   0  -1   50.50    4.04
   3   0  -1   38.25    4.07
   3   0   1   39.79    1.31
   3   0  -1   42.11    7.62
  -3   0   1   43.72   10.97
  -3   0  -2   40.31    3.03
   3   0  -2   42.07    3.47
   3   0   2   42.39    4.88
   3   0  -2   51.83    5.26
  -3   0   2   44.03   14.83
  -3   0   3  173.86    2.31
  -3   0  -3  193.12    8.00
   3   0   3  197.62    8.32
   3   0  -3  178.20    6.59
  -3   0   3  185.47   11.02
  -3   0   4   10.32    1.18
  -3   0  -4    7.40    3.80
  -3   0  -4    7.95    4.02
   3   0  -4   10.77    5.41
  -3   0   4    6.88    3.90
   3   0  -5 2316.51   37.03
  -3   0  -5 2386.51   40.17
  -3   0  -5 2310.38   37.46
   3   0  -5 2343.68   39.37
  -3   0   5 2448.44   40.59
   3   0  -6  266.42    9.72
  -3   0  -6  270.74   10.97
  -3   0  -6  250.70    9.38
   3   0  -6  265.18   11.59
  -3   0   6  267.70   10.63
   3   0  -7  622.24   17.94
  -3   0  -7  651.61   20.78
  -3   0  -7  649.30   19.07
   3   0  -7  595.01    9.94
  -3   0   7  626.14   18.79
   3   0  -8   11.30    3.50
  -3   0  -8   13.34    6.86
  -3   0  -8    8.27    4.53
   3   0  -8   16.83    6.39
  -3   0   8   11.27    3.24
   3   0  -9    3.67    1.82
  -3   0  -9    3.50    2.61
  -3   0  -9    1.98    2.68
   3   0  -9    6.48    9.01
  -3   0   9    2.46    2.45
   3   0   9    2.54    1.02
   3   0 -10  457.44    9.73
  -3   0 -10  434.16   11.29
  -3   0 -10  455.26   11.59
   3   0 -10  401.97   13.71
  -3   0  10  418.18    9.46
   3   0  10  438.32    8.90
   3   0 -11   52.76    3.77
  -3   0 -11   64.27   10.01
  -3   0 -11   62.65    8.10
   3   0 -11   48.79   16.39
  -3   0  11   56.65   14.10
   3   0  11   65.40    6.93
   3   0 -12   26.52    6.32
  -3   0 -12   29.60    8.16
  -3   0 -12   27.99   10.17
   3   0 -12   26.83    9.20
  -3   0  12   27.28   11.66
   3   0  12   26.42    8.42
   3   0 -13   42.87   14.33
  -3   0 -13   53.94   21.71
  -3   0 -13   56.44   15.53
   3   0 -13   49.38   12.87
  -3   0  13   47.45   17.28
   3   0  13   41.62    6.50
   3   0 -14  508.02   32.32
  -3   0 -14  528.94   31.42
  -3   0 -14  531.11   32.12
   3   0 -14  500.55   30.90
  -3   0  14  507.55   29.50
   3   0  14  484.14   28.06
   3   0 -15    3.07    4.35
  -3   0 -15    3.37    2.63
  -3   0 -15    6.23    5.44
   3   0 -15    2.84    5.16
  -3   0  15    9.66    3.93
   3   0 -16    2.94    2.27
  -3   0 -16    2.52    2.41
  -3   0 -16   12.57    7.56
   3   0 -16   -0.12    8.07
  -3   0  16    2.45    2.30
   3   0 -17   92.08   12.82
  -3   0 -17  105.93    9.60
  -3   0 -17  116.70   11.03
   3   0 -17  110.28   10.83
  -3   0  17  118.81   11.62
   3   0 -18   94.66   11.09
  -3   0 -18  121.92   14.58
  -3   0 -18  113.96   27.16
   3   0 -18  109.76   10.52
  -3   0  18  124.83    7.61
  -3   0 -19   42.35   15.39
  -3   0 -19   32.60   17.00
   3   0 -19   23.49   10.05
  -3   0 -20    3.89    4.23
  -3   0 -20   10.26    7.16
   3   0 -20    4.29   11.59
  -3   1  -1  678.00   41.16
   3  -1  -1  661.22   39.84
  -3  -1  -1  556.49   19.16
  -3  -1   1  662.03   40.13
  -3   1  -1  656.90   39.72
   3  -1   1  550.19   18.16
   3   1  -1  571.00   19.37
  -3   1   1  568.13   19.49
  -3   1  -2 1014.96   17.51
  -3  -1  -2 1097.93   19.29
  -3  -1   2 1013.30   17.07
   3   1  -2 1087.20   17.94
   3  -1   2 1115.45   18.25
   3   1  -2 1093.76   19.09
  -3   1  -3  583.65   19.98
  -3  -1  -3  565.26   19.64
  -3  -1   3  651.80   39.48
   3   1  -3  576.37   19.06
  -3   1  -3  600.62   20.05
   3   1  -3  576.12   20.59
  -3  -1   3  609.06   20.91
  -3   1   3  587.12   20.20
   3  -1  -4  678.74   40.86
  -3   1  -4  685.13   41.91
  -3  -1  -4  714.29   13.84
  -3   1   4  721.49   11.72
  -3  -1   4  679.95   41.16
  -3   1  -4  691.59   13.15
   3   1  -4  706.38   14.45
  -3  -1  -4  697.49   12.14
   3  -1  -4  677.79   41.71
  -3  -1   4  663.96   40.61
  -3   1   4  687.76   42.08
   3  -1  -5  523.13   17.25
  -3   1  -5  527.95   18.67
  -3  -1  -5  540.53   19.14
  -3   1   5  554.43   18.38
  -3  -1   5  507.78   17.25
  -3   1  -5  511.66   17.50
   3   1  -5  551.57   20.09
  -3  -1  -5  544.26   18.42
   3  -1  -5  519.39   18.83
  -3  -1   5  506.45   21.77
  -3   1   5  528.96   18.58
   3   1  -6  659.98   40.25
   3  -1  -6  726.77   12.49
  -3   1  -6  717.13   14.60
  -3  -1  -6  621.84   21.94
  -3   1  -6  707.84   14.75
   3   1  -6  664.17   41.10
  -3  -1  -6  651.01   39.65
   3  -1  -6  700.02   14.69
  -3  -1   6  723.46   18.25
  -3   1   6  629.69   21.97
   3   1  -7   67.35    9.38
   3  -1  -7   81.69    5.56
  -3   1  -7   71.70    8.79
  -3  -1  -7   56.75    6.28
  -3   1  -7   84.39    9.80
  -3  -1  -7   59.20    6.23
   3   1  -7   61.67    6.61
   3  -1  -7   89.39    9.24
  -3  -1   7   75.79   11.34
  -3   1   7   62.15    6.34
   3   1  -8  133.39    9.00
   3  -1  -8  168.68    5.40
  -3   1  -8  195.18    6.89
  -3  -1  -8  126.31   12.11
  -3   1  -8  183.92    6.67
   3   1  -8  142.50   13.15
  -3  -1  -8  141.04   10.20
   3  -1  -8  192.23    9.52
  -3  -1   8  180.25   10.82
  -3   1   8  128.99    9.24
   3  -1   8  143.48   10.36
   3   1  -9   67.84    8.75
   3  -1  -9   71.01    4.52
  -3   1  -9   62.77    7.57
  -3  -1  -9   68.47    5.75
  -3   1  -9   66.23   12.38
  -3  -1  -9   66.97    5.62
   3   1  -9   64.35   14.73
   3  -1  -9   75.01   23.33
  -3  -1   9   69.55    4.52
  -3   1   9   73.75    4.48
   3  -1   9   54.53    3.81
   3   1   9   61.29    9.44
   3   1 -10  461.66    9.83
   3  -1 -10  423.50   10.79
  -3   1 -10  386.68   11.14
  -3  -1 -10  415.07   11.78
  -3   1 -10  433.97   11.71
  -3  -1 -10  436.84   11.16
   3   1 -10  445.31   14.31
   3  -1 -10  416.78   27.54
  -3  -1  10  427.32    9.84
  -3   1  10  419.30    9.91
   3  -1  10  424.91    8.01
   3   1  10  422.96    9.33
   3   1 -11  246.31    8.63
   3  -1 -11  214.30   12.07
  -3   1 -11  250.45   11.61
  -3  -1 -11  278.73   11.49
  -3   1 -11  219.68   14.57
  -3  -1 -11  267.16   11.24
   3   1 -11  276.58   15.43
   3  -1 -11  210.37   16.59
  -3  -1  11  212.54   12.79
  -3   1  11  242.82    9.04
   3  -1  11  256.78    8.24
   3   1  11  236.40    5.92
   3   1 -12  367.63   20.04
   3  -1 -12  376.13   15.69
  -3   1 -12  390.80   22.34
  -3  -1 -12  382.37   16.66
  -3   1 -12  398.14   16.83
  -3  -1 -12  363.36   20.15
   3   1 -12  375.24   19.72
   3  -1 -12  381.14   30.73
  -3  -1  12  378.91   14.76
  -3   1  12  396.43   15.91
   3  -1  12  376.37   13.58
   3   1  12  395.21   19.49
   3   1 -13  166.32   17.80
   3  -1 -13  128.63   10.70
  -3   1 -13  114.41    7.00
  -3  -1 -13  135.23    6.72
  -3   1 -13  118.53   18.87
  -3  -1 -13  150.30    9.82
   3   1 -13  157.64   18.21
   3  -1 -13  111.48   33.92
  -3  -1  13  123.65   10.68
  -3   1  13  163.25   15.20
   3  -1  13  144.10    4.32
   3   1  13  106.69    5.72
   3   1 -14   -0.05    3.18
   3  -1 -14    4.74    3.67
  -3   1 -14    7.02    1.76
  -3  -1 -14    2.74    2.78
  -3   1 -14    8.07    3.59
  -3  -1 -14    6.97    8.98
   3   1 -14   -0.26    7.82
   3  -1 -14    7.29    6.61
  -3  -1  14    9.84    2.80
  -3   1  14    1.44    2.61
   3  -1  14    2.16    1.89
   3   1  14    6.28    3.03
   3   1 -15   86.95    6.98
   3  -1 -15  103.24    7.61
  -3   1 -15  104.42   20.91
  -3  -1 -15   95.13    8.08
  -3   1 -15  102.86   20.86
  -3  -1 -15   94.29   14.10
   3   1 -15   83.90   29.18
   3  -1 -15  103.11   31.30
  -3  -1  15  107.40    8.76
  -3   1  15  100.13   13.58
   3   1  15   96.17   13.65
   3   1 -16   74.52    5.78
   3  -1 -16   77.39    7.58
  -3   1 -16   80.57   21.36
  -3  -1 -16   73.15   22.69
  -3   1 -16   67.70   30.09
  -3  -1 -16   89.24    9.81
   3   1 -16   92.25   36.20
   3  -1 -16   76.82   29.04
  -3  -1  16   75.93    8.85
  -3   1  16   93.27    9.90
   3   1 -17   54.14   15.84
   3  -1 -17   59.34   17.91
  -3   1 -17   52.55   14.65
  -3  -1 -17   46.64   15.00
  -3   1 -17   59.42   23.14
  -3  -1 -17   65.69   24.17
   3   1 -17   54.73   18.06
   3  -1 -17   64.35   17.45
  -3  -1  17   61.08    6.39
  -3   1  17   51.46   14.10
   3   1 -18  168.93   15.28
  -3   1 -18  158.01   38.73
  -3  -1 -18  162.27   19.42
  -3   1 -18  156.87   21.20
  -3  -1 -18  180.30   15.15
   3   1 -18  159.95   10.65
   3  -1 -18  181.72   20.05
  -3   1  18  192.91   20.66
  -3   1 -19    2.30    3.19
  -3  -1 -19    8.53    2.51
  -3   1 -19   -0.71    6.70
  -3  -1 -19    6.19    6.80
   3   1 -19   15.59    9.46
   3  -1 -19    1.48    7.98
  -3   1  19    7.19    3.14
  -3   1 -20   19.14    7.63
  -3  -1 -20   14.51   10.04
  -3   1 -20   10.50    4.40
  -3  -1 -20   15.87    9.12
   3   1 -20   16.63   16.34
   3  -1 -20   27.28   12.26
  -3   2   0  555.84   18.57
  -3  -2   0  529.66   18.34
  -3   2   0  552.38   18.71
   3   2   0  559.11   18.55
  -3  -2   0  518.33   17.25
  -3   2   0  547.07   18.58
  -3   2  -1 3766.15   59.76
   3  -2  -1 3618.19   56.77
  -3  -2  -1 3833.73   61.33
  -3  -2   1 3554.11   56.63
   3  -2  -1 3507.13   55.07
  -3   2  -1 3750.22   59.72
   3   2  -1 3929.37  236.16
  -3   2  -1 3742.74   59.31
  -3   2   1 3747.72   59.95
   3  -2  -2 1224.45   19.55
  -3   2  -2 1246.81   21.27
  -3  -2  -2 1206.97   21.13
  -3  -2   2 1242.53   20.93
   3  -2  -2 1264.38   20.14
  -3  -2  -2 1235.76   19.73
  -3   2  -2 1187.98   19.83
   3   2  -2 1229.52   20.73
  -3   2  -2 1251.50   20.67
  -3   2   2 1228.12   21.21
  -3   2  -3  283.80   10.84
  -3  -2  -3  291.27   10.89
   3  -2  -3  288.36    9.69
  -3  -2   3  296.69   10.74
  -3   2   3  280.57    9.47
  -3  -2  -3  283.65    9.58
  -3   2  -3  290.63   10.42
   3   2  -3  278.19   11.11
   3  -2   3  290.99    9.88
  -3   2   3  263.39   10.24
  -3   2  -4  945.74   17.61
   3  -2  -4  942.40   15.21
  -3  -2  -4  923.23   17.27
  -3   2   4  945.43   15.29
  -3  -2   4  936.81   16.32
  -3   2  -4  960.27   16.76
   3   2  -4  919.09   17.72
   3  -2   4  940.86   15.37
  -3   2   4  912.09   16.91
  -3   2  -5  431.44   16.13
   3  -2  -5  442.50   14.89
  -3  -2  -5  430.39   15.63
  -3   2   5  449.27   15.03
  -3  -2   5  455.58   15.77
  -3   2  -5  443.36   15.49
   3   2  -5  434.45   16.69
  -3  -2  -5  441.87   15.30
  -3   2   5  424.01   15.54
  -3   2  -6  584.31    9.84
   3  -2  -6  600.14    7.69
  -3  -2  -6  586.40    9.49
  -3  -2   6  571.72    7.85
  -3   2  -6  604.58    7.62
   3   2  -6  601.77   10.10
  -3  -2  -6  575.97    7.72
  -3  -2   6  591.50    7.62
  -3   2   6  578.35    9.31
  -3   2  -7   91.73    7.49
   3  -2  -7  106.94    8.46
  -3  -2  -7  112.77    9.10
  -3  -2   7  107.11    7.65
  -3   2  -7   98.62    8.92
   3   2  -7  118.13   11.75
  -3  -2  -7  111.20    9.15
   3  -2  -7  116.57   10.40
  -3  -2   7  112.93    8.03
  -3   2   7  128.03    9.57
   3  -2   7  114.63    8.08
   3   2  -8 1248.85   35.37
  -3   2  -8 1160.69   33.42
   3  -2  -8 1259.62   34.79
  -3  -2  -8 1187.79   33.99
  -3   2  -8 1168.04   34.05
   3   2  -8 1192.03   35.16
  -3  -2  -8 1180.73   36.00
   3  -2  -8 1250.27   36.70
  -3  -2   8 1292.15   37.00
  -3   2   8 1271.61   37.63
   3  -2   8 1177.91   31.93
   3   2  -9  183.36    5.25
  -3   2  -9  201.77    8.08
   3  -2  -9  213.49    5.15
  -3  -2  -9  188.85    6.07
  -3   2  -9  222.16    6.84
   3   2  -9  192.23   11.18
  -3  -2  -9  203.72   14.14
   3  -2  -9  204.10   25.08
  -3  -2   9  207.48    5.85
  -3   2   9  186.99    6.36
   3  -2   9  203.78    4.26
   3   2 -10   87.52    6.47
  -3   2 -10  104.50   24.32
   3  -2 -10  111.12    6.62
  -3  -2 -10   85.29   24.83
  -3   2 -10  103.02    8.47
   3   2 -10  103.76   12.29
  -3  -2 -10   88.92    8.69
   3  -2 -10  117.34   11.77
  -3  -2  10  103.01    8.28
  -3   2  10   86.18    7.83
   3  -2  10   94.76    5.34
   3   2  10  107.43    7.34
   3   2 -11  232.20   21.86
  -3   2 -11  241.63   10.42
   3  -2 -11  240.18    8.59
  -3  -2 -11  242.67    9.81
  -3   2 -11  221.41   14.47
   3   2 -11  250.46   15.66
  -3  -2 -11  230.51   18.02
   3  -2 -11  250.72   15.52
  -3  -2  11  237.86    6.86
  -3   2  11  234.76   22.69
   3  -2  11  227.29   12.28
   3   2  11  222.07   15.91
   3   2 -12  222.83   17.52
  -3   2 -12  236.30   25.96
   3  -2 -12  232.80   15.91
  -3  -2 -12  224.70   11.93
  -3   2 -12  240.35   17.10
   3   2 -12  250.45   16.24
  -3  -2 -12  232.70   17.65
   3  -2 -12  249.55   32.75
  -3  -2  12  230.49   10.31
  -3   2  12  223.32   10.95
   3  -2  12  243.36    9.11
   3   2  12  250.43   14.64
   3   2 -13  176.48    8.28
  -3   2 -13  150.94   14.40
   3  -2 -13  141.97    8.84
  -3  -2 -13  164.21   13.50
  -3   2 -13  144.00   21.60
   3   2 -13  176.24   11.63
  -3  -2 -13  180.89   17.64
   3  -2 -13  152.80   12.50
  -3  -2  13  144.30   12.17
  -3   2  13  177.48   13.26
   3   2  13  159.30   14.86
   3   2 -14    4.56    4.40
  -3   2 -14    2.29    2.85
   3  -2 -14    7.00    2.55
  -3  -2 -14    4.40    3.56
  -3   2 -14    2.40    6.19
   3   2 -14   -2.56    8.01
  -3  -2 -14   -1.39    5.40
   3  -2 -14    5.04    6.52
  -3  -2  14    3.33    1.58
  -3   2  14   -6.31    3.65
   3   2  14   10.55    3.90
   3   2 -15  173.99    9.97
  -3   2 -15  144.49    7.58
   3  -2 -15  141.73   12.72
  -3  -2 -15  151.94    9.47
  -3   2 -15  148.05   14.91
   3   2 -15  183.89   32.27
  -3  -2 -15  142.52   15.98
   3  -2 -15  129.67   10.56
  -3  -2  15  139.46    6.72
  -3   2  15  167.75   11.37
   3   2  15  168.19   15.38
   3   2 -16   88.44    8.21
  -3   2 -16  112.14   18.84
   3  -2 -16   98.11   10.04
  -3  -2 -16  103.30   14.68
  -3   2 -16  118.40   10.21
   3   2 -16  115.06   33.97
  -3  -2 -16   82.01   22.34
   3  -2 -16   90.95   39.87
  -3  -2  16  108.39    6.85
  -3   2  16   99.05   24.65
   3   2  16  116.98   11.32
   3   2 -17   81.90   13.60
   3  -2 -17   76.45   19.16
  -3   2 -17   85.06   21.69
  -3  -2 -17   96.09   15.00
  -3   2 -17   76.35   10.46
   3   2 -17   80.62    9.75
  -3  -2 -17   78.75   12.18
   3  -2 -17   79.47   25.54
  -3  -2  17   87.85   10.87
  -3   2  17   83.51    9.40
   3   2 -18    3.54    3.25
  -3   2 -18   -1.67    4.95
  -3  -2 -18    8.42    6.27
  -3   2 -18    6.47    7.11
   3   2 -18   -0.47    5.69
  -3  -2 -18    4.28    6.18
   3  -2 -18   -6.84    8.01
  -3   2  18    4.18    2.82
   3   2 -19   17.89    9.24
  -3   2 -19   30.11    8.93
  -3  -2 -19   16.66   10.96
  -3   2 -19   44.55   10.03
   3   2 -19   18.28   10.68
  -3  -2 -19   11.36    9.35
   3  -2 -19    7.85    6.10
  -3   2  19   18.18    6.04
  -3   2 -20   69.19   25.95
  -3  -2 -20   93.18   13.94
  -3   2 -20   72.63   32.41
   3   2 -20   84.60   30.13
  -3  -2 -20   64.41   24.09
   3  -2 -20   74.13   37.60
  -3   3   0 8158.26  490.11
  -3   3  -1 1254.11   21.36
  -3  -3  -1 1216.70   21.53
  -3  -3   1 1213.74   21.24
   3  -3  -1 1225.59   20.33
  -3   3   1 1220.63   21.27
  -3   3  -1 1237.98   21.21
   3   3   1 1231.13   20.22
   3   3  -1 1266.17   21.29
  -3   3  -1 1214.93   20.36
  -3   3   1 1230.78   21.45
  -3   3  -2  533.51   18.50
  -3  -3  -2  492.70   17.31
  -3  -3   2  501.19   17.53
   3  -3  -2  515.82   17.24
   3   3   2  522.22   18.43
  -3   3  -2  523.15   18.20
   3   3  -2  477.91   16.72
  -3   3  -2  540.28   18.79
  -3   3   2  482.79   17.04
  -3   3  -3  615.73   21.25
  -3  -3  -3  666.32   40.94
   3  -3  -3  646.50   21.26
  -3  -3   3  637.88   21.84
  -3   3   3  664.32   40.13
  -3   3  -3  628.10   21.36
   3   3  -3  656.88   40.26
  -3   3   3  659.04   40.41
   3  -3   3  666.42   40.25
  -3   3  -4  220.02    8.72
  -3  -3  -4  201.12    8.45
   3  -3  -4  228.18    8.20
  -3   3   4  215.94    8.26
  -3  -3   4  219.55    8.36
  -3   3  -4  225.93   12.94
   3   3  -4  220.24   10.44
  -3   3   4  210.70   11.22
   3  -3   4  201.99    7.08
  -3   3  -5 1574.75   27.55
   3  -3  -5 1488.43   24.20
  -3  -3  -5 1515.17   26.72
  -3  -3   5 1487.72   25.35
  -3   3  -5 1532.81   26.44
   3   3  -5 1433.50   28.64
  -3   3   5 1503.97   26.73
   3  -3   5 1495.10   23.48
  -3   3  -6   64.65    9.07
   3  -3  -6   70.68    6.80
  -3  -3  -6   78.45    9.42
  -3  -3   6   73.39    6.19
  -3   3  -6   74.26   12.01
   3   3  -6   84.39    8.36
  -3   3   6   84.13    9.06
  -3   3  -7 1236.25   36.61
   3  -3  -7 1245.32   34.22
  -3  -3  -7 1211.83   34.65
  -3  -3   7 1275.94   35.57
  -3   3  -7 1289.22   36.29
   3   3  -7 1244.69   35.76
  -3  -3  -7 1231.78   34.67
  -3   3   7 1256.82   35.75
  -3   3  -8  319.96    8.22
   3  -3  -8  357.37    6.51
  -3  -3  -8  332.99    7.95
  -3  -3   8  328.01    6.84
  -3   3  -8  315.36    7.61
   3   3  -8  317.58   10.07
  -3  -3  -8  319.68    6.85
   3  -3  -8  342.87   10.49
  -3   3   8  323.68   10.66
  -3   3  -9  396.65   10.14
   3  -3  -9  373.01    6.18
  -3  -3  -9  358.27    8.73
  -3  -3   9  374.19    7.05
  -3   3  -9  402.71    8.77
   3   3  -9  376.61   12.33
  -3  -3  -9  379.19   10.60
   3  -3  -9  364.53   10.58
  -3   3   9  350.38   11.56
   3   3 -10  274.11   15.05
  -3   3 -10  296.60   26.90
   3  -3 -10  282.91   14.86
  -3  -3 -10  293.83   16.46
  -3   3 -10  294.72   17.21
   3   3 -10  314.39   14.88
  -3  -3 -10  314.05    9.68
   3  -3 -10  269.07   18.29
  -3   3  10  302.94   23.40
   3   3  10  301.31    8.33
   3   3 -11    7.57    4.83
  -3   3 -11    3.72    4.77
   3  -3 -11    5.68    1.99
  -3  -3 -11    6.53    5.31
  -3   3 -11    3.06    7.05
   3   3 -11    6.25    6.71
  -3  -3 -11    7.38    5.49
   3  -3 -11   14.20    7.68
   3  -3  11    5.73    1.42
  -3   3  11    6.16    6.83
   3   3  11    8.66    2.77
   3   3 -12 1086.43   37.50
  -3   3 -12 1121.63   39.73
   3  -3 -12 1069.99   36.16
  -3  -3 -12 1055.54   38.13
  -3   3 -12 1163.46   40.94
   3   3 -12 1067.71   39.45
  -3  -3 -12 1099.85   38.16
   3  -3 -12 1104.34   39.91
  -3   3  12 1095.72   40.42
   3   3  12 1059.56   36.54
   3   3 -13   25.84    7.79
  -3   3 -13   36.03   13.11
   3  -3 -13   25.89    7.72
  -3  -3 -13   25.84   12.06
  -3   3 -13   43.82   18.44
   3   3 -13   27.31   10.32
  -3  -3 -13   18.50    8.29
   3  -3 -13   34.76   10.86
  -3   3  13   25.52   10.69
   3   3  13   33.99    6.28
   3   3 -14  155.84   14.04
  -3   3 -14  176.55   10.43
   3  -3 -14  147.19    6.99
  -3  -3 -14  170.55   18.65
  -3   3 -14  182.05   29.06
   3   3 -14  191.12   13.34
  -3  -3 -14  182.09   12.81
   3  -3 -14  147.58   11.70
  -3   3  14  151.06   11.81
   3   3  14  179.80   12.03
   3   3 -15  114.36    9.67
  -3   3 -15  123.45   11.91
   3  -3 -15  118.07    5.51
  -3  -3 -15  126.24   15.91
  -3   3 -15  107.44   22.46
   3   3 -15  132.63   11.18
  -3  -3 -15  113.05   13.40
   3  -3 -15  150.71   25.45
  -3   3  15  146.86   13.88
   3   3  15  120.51   11.78
   3   3 -16   81.61    9.82
  -3   3 -16   94.61   10.93
   3  -3 -16   90.68    7.03
  -3  -3 -16   73.19   12.14
  -3   3 -16   67.03   25.18
   3   3 -16   82.02   25.28
  -3  -3 -16   64.41   26.83
   3  -3 -16   94.17   38.15
  -3   3  16   89.61   19.91
   3   3  16   75.39   16.27
   3   3 -17   80.54   10.62
  -3   3 -17   89.16   25.48
   3  -3 -17   84.80    8.45
  -3  -3 -17   83.50    7.44
  -3   3 -17   79.15    7.16
   3   3 -17   82.86   17.63
  -3  -3 -17   80.90   20.81
   3  -3 -17   87.14   17.51
  -3   3  17   79.14   10.68
   3   3  17   73.50    8.79
   3   3 -18    6.27    4.32
  -3   3 -18    5.07    4.71
  -3  -3 -18    7.88    4.14
  -3   3 -18    9.59    6.74
   3   3 -18    1.53    7.34
  -3  -3 -18   -4.18    6.10
   3  -3 -18   -0.73    7.67
  -3   3  18    8.55    2.18
   3   3 -19   11.00    8.38
  -3   3 -19   26.81   12.52
  -3  -3 -19   13.54    7.65
  -3   3 -19   12.95    9.43
   3   3 -19    9.15    5.92
  -3  -3 -19    8.33    5.50
   3  -3 -19   15.34    9.97
  -3   3  19   10.97    3.74
  -3   3 -20   13.54    5.81
  -3  -3 -20    7.70    3.88
  -3   3 -20   11.67    6.85
   3   3 -20   11.87    8.43
  -3  -3 -20    9.95    9.70
   3  -3 -20    4.69   10.49
  -3   3  20    6.16    5.79
  -3  -4   0  911.84   17.50
   3  -4   0  909.86   16.09
  -3   4   0  950.08   17.56
   3   4   0  913.08   15.99
  -3   4   0  944.20   16.93
  -3  -4  -1 1042.17   19.50
  -3  -4   1 1102.71   20.18
   3  -4  -1 1056.59   18.76
   3  -4   1 1011.49   18.10
  -3   4   1 1012.43   21.79
  -3   4  -1 1052.75   18.95
   3   4  -1 1014.94   17.86
  -3   4  -1 1067.86   18.40
  -3   4   1 1060.45   19.03
  -3   4  -2 1072.74   19.16
  -3  -4  -2  997.45   19.41
  -3  -4   2 1058.13   19.28
   3  -4  -2 1074.50   18.26
   3   4   2 1060.33   18.04
  -3   4  -2 1089.26   19.47
  -3   4  -2 1124.43   18.99
  -3   4  -3  697.61   13.84
  -3  -4  -3  738.12   15.10
   3  -4  -3  694.92   12.45
  -3  -4   3  683.32   41.91
   3   4   3  703.63   12.77
  -3   4  -3  695.40   13.49
   3   4  -3  718.55   14.22
  -3   4  -3  717.14   12.75
  -3   4   3  700.95   14.19
  -3   4  -4  144.25    6.30
  -3  -4  -4  172.29    6.92
   3  -4  -4  145.20    7.60
  -3  -4   4  145.42    5.44
  -3   4  -4  137.45    4.72
   3   4  -4  165.30    6.60
  -3   4   4  152.46    5.27
   3  -4   4  164.54    2.45
  -3   4  -5  787.08   23.19
  -3  -4  -5  766.32   22.91
   3  -4  -5  772.94   21.48
  -3  -4   5  757.66   22.14
   3   4  -5  770.23   23.10
  -3   4   5  806.63   23.97
  -3   4  -6 1372.38   38.87
  -3  -4  -6 1359.85   39.26
   3  -4  -6 1292.68   35.75
  -3  -4   6 1305.67   36.94
  -3   4  -6 1295.12   36.38
   3   4  -6 1300.42   36.94
  -3   4   6 1329.04   37.81
  -3   4  -7  557.97    9.88
   3  -4  -7  552.65    7.35
  -3  -4  -7  553.14   13.56
  -3   4  -7  586.50   10.30
   3   4  -7  566.66   11.00
  -3   4   7  556.65   15.71
  -3   4  -8   24.51    7.59
   3  -4  -8   20.43    2.39
  -3  -4  -8   31.83   10.19
  -3  -4   8   25.42    7.05
  -3   4  -8   26.42    8.73
   3   4  -8   26.82   14.09
  -3  -4  -8   27.23    8.45
  -3   4   8   29.11    8.03
  -3   4  -9   92.93   31.42
   3  -4  -9  107.52    7.61
  -3  -4  -9  101.86    8.73
  -3  -4   9   95.84   13.02
  -3   4  -9   98.58   12.85
   3   4  -9  106.60   10.41
  -3  -4  -9  106.25   12.24
  -3   4   9  101.34   13.39
  -3   4 -10  360.32   12.12
   3  -4 -10  342.30    9.52
  -3  -4 -10  371.44   20.14
  -3  -4  10  339.03    9.97
  -3   4 -10  361.42   11.54
   3   4 -10  363.34   12.33
  -3  -4 -10  370.73   12.11
   3  -4 -10  300.35   16.96
  -3   4  10  359.28   11.19
   3   4  10  358.62   10.48
  -3   4 -11  217.88   14.62
   3  -4 -11  203.51   12.17
  -3  -4 -11  203.76   24.41
  -3  -4  11  191.40   12.33
  -3   4 -11  200.98   14.83
   3   4 -11  232.35   36.56
  -3  -4 -11  206.97   14.73
   3  -4 -11  211.41   17.77
  -3   4  11  210.23   14.04
   3   4  11  203.48   13.85
  -3   4 -12   26.44   13.23
   3  -4 -12   32.75    4.83
  -3  -4 -12   39.18    5.62
  -3  -4  12   38.90   14.50
  -3   4 -12   41.23    9.81
   3   4 -12   22.12   11.18
  -3  -4 -12   55.26    8.29
   3  -4 -12   41.41   12.60
  -3   4  12   43.90   14.04
   3   4  12   15.81   12.47
  -3   4 -13  269.52   20.71
   3  -4 -13  237.49   16.94
  -3  -4 -13  239.41   15.76
  -3  -4  13  242.02   19.79
  -3   4 -13  242.14   16.47
   3   4 -13  212.21   15.67
  -3  -4 -13  221.65   26.94
   3  -4 -13  253.81   18.77
  -3   4  13  245.18   26.90
   3   4  13  246.39   22.02
  -3   4 -14  151.49   14.89
   3  -4 -14  153.99   13.79
  -3  -4 -14  129.29   23.57
  -3  -4  14  147.68   11.31
  -3   4 -14  153.62    9.65
   3   4 -14  132.62   13.15
  -3  -4 -14  132.64   25.53
   3  -4 -14  173.30   37.60
  -3   4  14  131.16   14.53
  -3   4 -15   98.54   29.74
   3  -4 -15   95.59   10.02
  -3  -4 -15   88.03   24.22
  -3  -4  15   83.34   13.35
  -3   4 -15   86.53   11.62
   3   4 -15  104.94   19.62
  -3  -4 -15   80.37   14.06
   3  -4 -15  118.85   43.03
  -3   4  15   91.01   22.25
   3   4  15   89.63    8.82
  -3   4 -16   32.79   10.33
   3  -4 -16   32.45   12.72
  -3  -4 -16   30.66   10.58
  -3  -4  16   19.30    9.79
  -3   4 -16   27.61    7.92
   3   4 -16   19.13   12.32
  -3  -4 -16   25.81    7.58
   3  -4 -16   22.40    9.45
  -3   4  16   47.07   15.37
   3   4  16   23.77    9.38
  -3   4 -17  112.34    8.28
  -3  -4 -17  110.41   37.50
  -3  -4  17  130.67    7.56
  -3   4 -17  105.04   24.04
   3   4 -17  113.45   10.77
  -3  -4 -17  125.45   11.08
   3  -4 -17   99.64   34.55
  -3   4  17  114.43   27.76
   3   4  17  121.40   12.24
  -3   4 -18   64.77   25.95
  -3  -4 -18   67.65   20.98
  -3  -4  18   75.42    9.39
  -3   4 -18   64.39   27.15
   3   4 -18   65.41   26.69
  -3  -4 -18   59.94   25.35
   3  -4 -18   61.21   28.91
  -3   4  18   67.34   16.17
  -3   4 -19   13.22    6.44
  -3  -4 -19   19.38    8.57
  -3  -4  19   12.79    9.23
  -3   4 -19   17.60    7.67
   3   4 -19    6.47    8.70
  -3  -4 -19   11.98    6.26
   3  -4 -19   11.01   15.00
  -3   4  19   12.62    5.05
  -3   4 -20    6.17    3.37
  -3  -4 -20    4.58    3.21
  -3   4 -20    4.54    2.46
   3   4 -20    6.70    4.14
  -3  -4 -20    3.98    6.64
   3  -4 -20    1.66    6.75
  -3   4  20    8.47    4.56
  -3  -5   0  335.78   12.92
   3  -5   0  345.90   14.73
  -3   5   0  330.83   12.26
   3   5   0  341.29   13.16
  -3   5   0  358.83   13.07
  -3  -5  -1  206.51   10.27
  -3  -5   1  257.30   10.31
   3  -5  -1  247.02    9.46
   3  -5   1  208.50    8.45
  -3   5   1  198.23    8.21
  -3   5  -1  252.28   10.04
   3   5   1  266.20   12.72
   3   5  -1  213.96    8.70
  -3   5  -1  254.22   10.40
  -3   5   1  211.81    8.69
  -3  -5  -2  666.38   41.21
  -3  -5   2  641.12   22.57
   3  -5  -2  640.42   21.76
   3  -5   2  679.00   41.72
  -3   5   2  662.62   40.88
   3   5   2  638.39   21.69
  -3   5  -2  689.79   13.86
   3   5  -2  678.16   41.55
  -3   5  -2  693.77   12.63
  -3   5   2  673.96   41.36
  -3   5  -3 1042.53   29.67
  -3  -5  -3  989.82   28.92
   3  -5  -3 1030.36   29.60
  -3  -5   3 1066.30   30.38
   3   5   3 1061.43   29.57
  -3   5  -3 1053.63   29.75
   3   5  -3  943.63   27.11
  -3   5  -3 1040.62   28.47
  -3   5   3  984.11   29.00
  -3   5  -4   43.35    5.40
  -3  -5  -4   73.82   13.80
   3  -5  -4   46.36    5.23
  -3  -5   4   52.72    7.40
  -3   5  -4   43.73    4.42
   3   5  -4   64.26   11.71
  -3   5   4   75.16    6.87
  -3   5  -5  108.82    8.53
  -3  -5  -5  131.87   18.99
   3  -5  -5  108.50    7.66
  -3  -5   5  100.14   12.49
  -3   5  -5  104.60    8.23
   3   5  -5  122.65   17.46
  -3   5   5  122.52   16.36
  -3   5  -6 1360.06   39.36
  -3  -5  -6 1331.17   38.40
   3  -5  -6 1342.02   37.08
  -3  -5   6 1348.61   38.13
   3   5  -6 1307.03   37.54
  -3   5   6 1299.75   40.39
  -3   5  -7  403.76    9.20
  -3  -5  -7  389.20    9.71
   3  -5  -7  387.83    5.96
  -3  -5   7  383.14   11.68
  -3   5  -7  389.75    8.59
   3   5  -7  384.61   10.20
  -3   5   7  363.71   16.53
  -3   5  -8   10.75    7.58
   3  -5  -8   12.45    2.67
  -3  -5  -8    3.93    5.03
  -3  -5   8   11.95    5.28
  -3   5  -8    7.85    3.98
   3   5  -8   -2.64    5.01
  -3   5   8    0.81    3.75
  -3   5  -9  310.98    9.43
   3  -5  -9  321.36   10.20
  -3  -5  -9  280.58   26.75
  -3  -5   9  329.00   10.04
  -3   5  -9  321.63   10.59
   3   5  -9  299.29   32.34
  -3   5   9  304.29   14.50
  -3   5 -10  131.18    9.87
   3  -5 -10  144.53    8.81
  -3  -5 -10  147.00   17.96
  -3  -5  10  144.01   11.18
  -3   5 -10  138.56   12.03
   3   5 -10  147.82   11.53
  -3  -5 -10  137.42   16.44
  -3   5  10  161.59   11.70
   3   5  10  151.28   14.46
  -3   5 -11   10.02    5.73
   3  -5 -11   15.19    8.58
  -3  -5 -11   26.42    7.49
  -3  -5  11   21.09    4.65
  -3   5 -11   12.54    8.40
   3   5 -11   11.31    7.49
  -3  -5 -11   22.10    4.84
   3  -5 -11   20.69    7.86
  -3   5  11   13.86    6.95
   3   5  11   20.37    8.48
  -3   5 -12   21.86   10.94
   3  -5 -12   18.75    7.22
  -3  -5 -12   30.61    7.18
  -3  -5  12   15.87   11.10
  -3   5 -12   11.30   10.09
   3   5 -12   17.78    9.12
  -3  -5 -12   35.37   12.22
  -3   5  12   19.51   12.51
   3   5  12   35.55    8.49
  -3   5 -13  184.68   12.89
   3  -5 -13  190.15   11.98
  -3  -5 -13  159.92   16.53
  -3  -5  13  173.02   14.92
  -3   5 -13  181.71   20.00
   3   5 -13  159.01   13.09
  -3  -5 -13  168.60   22.69
   3  -5 -13  191.50   19.50
  -3   5  13  180.38   13.19
   3   5  13  179.19   12.70
  -3   5 -14    6.89    6.29
   3  -5 -14    1.75    2.35
  -3  -5 -14    1.19    5.92
  -3  -5  14    2.82    5.01
  -3   5 -14   -1.96    6.21
   3   5 -14    5.26    5.15
  -3  -5 -14    1.78    3.38
   3  -5 -14  -11.81    9.38
  -3   5  14   -1.83    4.64
   3   5  14   -0.50    4.47
  -3   5 -15  285.20   23.45
   3  -5 -15  265.57   19.47
  -3  -5 -15  217.01   20.21
  -3  -5  15  250.52   19.22
  -3   5 -15  254.40   20.83
   3   5 -15  217.00   40.05
  -3  -5 -15  256.16   20.17
   3  -5 -15  264.03   24.31
  -3   5  15  235.71   23.74
   3   5  15  304.04   22.88
  -3   5 -16   25.10   12.86
   3  -5 -16   17.96    6.03
  -3  -5 -16   15.38    8.67
  -3  -5  16   16.29    6.86
  -3   5 -16   16.99   10.92
   3   5 -16   12.45    9.04
  -3  -5 -16   22.11    8.43
   3  -5 -16   22.36    6.29
  -3   5  16   26.69    7.64
   3   5  16   27.38    6.57
  -3   5 -17    4.96    6.92
  -3  -5 -17   -3.20    6.09
  -3  -5  17    9.20    5.57
  -3   5 -17    3.13    4.48
   3   5 -17    8.07    9.17
  -3  -5 -17    6.18    4.03
   3  -5 -17    9.08    5.53
  -3   5  17   -2.85    4.68
   3   5  17   -2.29    4.27
  -3   5 -18   32.19   14.75
  -3  -5 -18   28.50   12.75
  -3  -5  18   27.24   11.33
  -3   5 -18   44.22   16.57
   3   5 -18   13.56   13.33
  -3  -5 -18   29.02   10.24
   3  -5 -18   42.68   10.60
  -3   5  18   25.63    9.44
   3   5  18   36.31   13.96
  -3   5 -19   41.77   12.59
  -3  -5 -19   56.97   19.68
  -3  -5  19   32.76   14.72
  -3   5 -19   43.31   14.88
   3   5 -19   44.02   19.01
  -3  -5 -19   38.75    8.71
   3  -5 -19   27.61   10.89
  -3   5  19   31.76   12.13
  -3   5 -20    6.13    4.88
  -3  -5 -20    4.82    4.31
  -3  -5  20    3.36    5.92
  -3   5 -20    7.82    4.39
   3   5 -20    5.97    4.24
  -3  -5 -20    6.51    5.13
   3  -5 -20    6.99   10.27
  -3   5  20    6.47    1.72
  -3  -6   0 1848.91   51.55
   3  -6   0 1879.46   51.69
  -3   6   0 1951.73   54.00
   3   6   0 1876.30   51.40
  -3   6   0 1826.41   51.52
  -3  -6   1  216.13    6.62
   3  -6  -1  237.19    6.12
   3  -6   1  242.88    6.15
  -3   6   1  231.38    6.80
  -3   6  -1  223.81    6.37
   3   6   1  229.93    5.69
   3   6  -1  237.04    5.79
  -3   6  -1  214.52    5.22
  -3   6   1  220.52    6.11
  -3  -6  -2  108.17   22.37
  -3  -6   2   94.29    7.56
   3  -6  -2   90.04   11.36
   3  -6   2  110.24   13.53
  -3   6   2  107.09    8.44
   3   6   2   82.66    6.22
  -3   6  -2   89.65    6.76
   3   6  -2  101.30    7.36
  -3   6  -2   76.87    5.71
  -3   6   2   97.78   11.82
  -3  -6  -3 1263.56   36.56
   3  -6  -3 1205.61   33.67
  -3  -6   3 1184.83   33.95
   3  -6   3 1267.01   35.92
   3   6   3 1160.55   33.48
  -3   6  -3 1186.44   33.70
   3   6  -3 1242.46   35.22
  -3   6  -3 1241.86   34.28
  -3   6   3 1254.91   35.59
  -3  -6  -4  513.94   10.70
   3  -6  -4  529.84    8.37
  -3  -6   4  538.64   10.61
   3  -6   4  508.96    9.15
   3   6   4  529.13    8.38
  -3   6  -4  511.15    9.63
   3   6  -4  531.63   10.12
  -3   6  -4  536.04    6.40
  -3   6   4  522.14   10.00
  -3   6  -5 1083.94   31.35
  -3  -6  -5 1031.09   30.35
   3  -6  -5 1126.98   31.61
  -3  -6   5 1137.65   32.86
  -3   6  -5 1088.32   31.43
   3   6  -5 1108.06   32.15
  -3   6   5 1030.97   30.09
  -3   6  -6   32.87   11.91
  -3  -6  -6   38.48   13.15
   3  -6  -6   28.26    3.12
  -3  -6   6   37.42   11.07
  -3   6  -6   26.59   11.70
   3   6  -6   35.06   10.88
  -3   6  -6   26.90    2.04
  -3   6   6   35.27   13.48
  -3   6  -7  610.58   20.05
  -3  -6  -7  614.82   20.50
   3  -6  -7  624.79   19.91
  -3  -6   7  614.66   19.67
  -3   6  -7  725.50   23.32
   3   6  -7  596.80   21.88
  -3   6   7  586.98   19.84
  -3   6  -8  138.53   11.18
  -3  -6  -8  153.13   11.21
   3  -6  -8  127.03    7.77
  -3  -6   8  143.07   17.77
  -3   6  -8  136.98   10.23
   3   6  -8  140.12   11.21
  -3   6   8  151.13   19.08
  -3   6  -9  158.39   27.71
   3  -6  -9  144.20    8.89
  -3  -6  -9  141.61   24.59
  -3  -6   9  147.99   11.44
  -3   6  -9  153.83   20.10
   3   6  -9  154.48   37.23
  -3   6   9  156.77   14.89
  -3   6 -10   29.74    9.56
   3  -6 -10   29.28    7.88
  -3  -6 -10   18.63    6.10
  -3  -6  10   28.24    8.94
  -3   6 -10   22.75   10.99
   3   6 -10   24.82   12.33
  -3   6  10   27.61    7.20
   3   6  10   21.71    9.32
  -3   6 -11  129.86   11.20
   3  -6 -11  139.85   10.82
  -3  -6 -11  128.25   14.66
  -3  -6  11  152.19    9.78
  -3   6 -11  137.73   24.69
   3   6 -11  121.88   33.18
  -3  -6 -11  119.98   16.60
  -3   6  11  143.44    8.38
   3   6  11  159.10   19.47
  -3   6 -12  470.00   28.49
   3  -6 -12  439.53   25.37
  -3  -6 -12  466.04   27.86
  -3  -6  12  437.86   26.46
  -3   6 -12  457.03   27.59
   3   6 -12  468.67   29.68
  -3  -6 -12  453.26   37.62
   3  -6 -12  428.69   26.56
  -3   6  12  462.50   27.85
   3   6  12  440.05   31.73
  -3   6 -13   15.12    7.27
   3  -6 -13    9.33    4.07
  -3  -6 -13   20.82    7.00
  -3  -6  13    9.74    6.91
  -3   6 -13   23.01    7.35
   3   6 -13   15.84    8.68
  -3  -6 -13   12.25    5.65
   3  -6 -13    7.69    7.16
  -3   6  13   13.42    6.98
  -3   6 -14   32.24   12.24
   3  -6 -14   35.33   11.89
  -3  -6 -14   41.52   13.05
  -3  -6  14   31.26    9.40
  -3   6 -14   38.75   14.16
   3   6 -14   48.11   19.18
  -3  -6 -14   45.31    8.66
   3  -6 -14   54.89   14.23
  -3   6  14   40.54   13.55
   3   6  14   34.76    7.73
  -3   6 -15  108.21   17.18
   3  -6 -15   82.43    9.40
  -3  -6 -15  105.96   21.97
  -3  -6  15   92.87   12.47
  -3   6 -15   96.38    7.95
   3   6 -15   99.03   26.25
  -3  -6 -15   97.27   12.47
   3  -6 -15  100.29   24.39
  -3   6  15   85.50   22.12
  -3   6 -16   71.87   21.13
  -3  -6 -16   67.51    8.72
  -3  -6  16   53.25   16.21
  -3   6 -16   83.07   12.17
   3   6 -16   65.21   12.09
  -3  -6 -16   92.55    8.84
   3  -6 -16   51.03   23.89
  -3   6  16   95.44   11.61
   3   6  16   54.07   18.05
  -3   6 -17   88.27   24.04
  -3  -6 -17   55.23    8.38
  -3  -6  17   59.69   23.19
  -3   6 -17   56.51   10.02
   3   6 -17   75.07   11.33
  -3  -6 -17   69.05    8.92
   3  -6 -17   56.64   22.06
  -3   6  17   63.60   12.53
   3   6  17   80.28    8.05
  -3   6 -18    5.89    4.11
  -3  -6 -18    8.96    8.76
  -3  -6  18    5.81    5.40
  -3   6 -18    8.86    5.82
   3   6 -18    9.30    8.84
  -3  -6 -18    7.81    6.11
   3  -6 -18    5.38    7.54
  -3   6  18    8.65    5.10
   3   6  18    6.04    3.32
  -3   6 -19   56.77   15.12
  -3  -6 -19   76.14   12.04
  -3  -6  19   73.89   12.92
  -3   6 -19   41.05   18.63
   3   6 -19   35.53   17.75
  -3  -6 -19   64.70   13.52
   3  -6 -19   50.36   14.24
  -3   6  19   73.50   13.07
   3   6  19   65.53   16.39
  -3  -7   0    7.01    4.74
   3  -7   0    8.02    3.01
  -3   7   0    5.02    3.33
   3   7   0    5.12    2.80
  -3   7   0    6.34    3.79
  -3  -7  -1  182.86    8.19
  -3  -7   1  172.24    7.94
   3  -7  -1  190.65    6.49
   3  -7   1  154.66   11.06
  -3   7   1  167.85    6.40
  -3   7  -1  151.84   10.61
   3   7   1  166.97    5.30
   3   7  -1  161.27    4.88
  -3   7  -1  176.81    6.21
  -3   7   1  169.11    5.97
  -3  -7  -2   50.18   16.17
  -3  -7   2   22.54   12.97
   3  -7  -2   38.61    5.15
   3  -7   2   46.07    5.15
  -3   7   2   30.32   11.90
   3   7   2   46.91    4.71
  -3   7  -2   40.86   15.97
   3   7  -2   40.96    4.51
  -3   7  -2   36.72    4.05
  -3   7   2   42.87    6.36
  -3  -7  -3 1034.17   30.87
   3  -7  -3  991.57   28.48
  -3  -7   3  968.67   28.79
   3  -7   3 1009.86   29.56
  -3   7   3 1018.85   30.05
   3   7   3  957.31   27.62
  -3   7  -3  974.60   28.81
   3   7  -3 1037.11   30.08
  -3   7  -3  907.36   25.50
  -3   7   3 1007.54   29.50
  -3  -7  -4  516.75   18.24
   3  -7  -4  532.99   21.14
  -3  -7   4  509.33   17.50
   3  -7   4  519.09   17.04
   3   7   4  527.76   16.75
  -3   7  -4  514.26   16.96
   3   7  -4  522.95   21.48
  -3   7  -4  488.97   15.04
  -3   7   4  503.38   16.90
  -3  -7  -5  259.79    9.17
   3  -7  -5  287.41    7.54
  -3  -7   5  294.97    8.71
   3  -7   5  256.35    7.38
  -3   7  -5  305.48    8.40
   3   7  -5  261.47   10.31
  -3   7  -5  304.49    4.57
  -3   7   5  269.98    8.45
  -3  -7  -6   27.05   11.95
   3  -7  -6   26.89   12.07
  -3  -7   6   28.35   10.66
   3  -7   6   26.29   12.23
  -3   7  -6   26.44    6.11
   3   7  -6   34.22   13.75
  -3   7   6   25.01    8.91
  -3   7  -7  108.75   12.19
  -3  -7  -7  101.07    8.90
   3  -7  -7  100.83    9.21
  -3  -7   7   91.47    9.45
  -3   7  -7   98.68    7.81
   3   7  -7  103.24    8.86
  -3   7   7  104.32   16.09
  -3   7  -8  101.74    9.00
  -3  -7  -8  104.71   20.86
   3  -7  -8  106.20    8.69
  -3  -7   8   89.12    8.25
  -3   7  -8  117.22    9.15
   3   7  -8   88.32   26.92
  -3   7   8   89.60   10.36
  -3   7  -9  522.89   20.47
  -3  -7  -9  492.06   20.00
   3  -7  -9  524.61   27.30
  -3  -7   9  551.89   22.13
  -3   7  -9  594.30   23.69
   3   7  -9  495.60   37.32
  -3   7   9  518.16   24.16
  -3   7 -10  112.78   19.80
   3  -7 -10  128.13    8.17
  -3  -7 -10   92.93   32.48
  -3  -7  10  115.30   15.10
  -3   7 -10  138.45   22.16
   3   7 -10   92.82   29.27
  -3   7  10   76.13   12.54
   3   7  10  139.68   21.72
  -3   7 -11   91.33   11.60
   3  -7 -11   80.89   10.32
  -3  -7 -11   87.45    7.25
  -3  -7  11   84.91    6.29
  -3   7 -11   80.74    6.48
   3   7 -11   71.60   22.33
  -3   7  11   90.92   12.40
   3   7  11  108.47    9.36
  -3   7 -12    1.07    4.08
   3  -7 -12    5.17    2.56
  -3  -7 -12    3.32    5.05
  -3  -7  12    4.63    4.33
  -3   7 -12    4.44    2.97
   3   7 -12    6.35    4.61
  -3  -7 -12    7.50    3.98
  -3   7  12   -0.77    5.21
   3   7  12   15.76    7.29
  -3   7 -13  181.60    9.52
   3  -7 -13  193.21    6.40
  -3  -7 -13  178.88    9.03
  -3  -7  13  189.00    9.24
  -3   7 -13  185.55   10.48
   3   7 -13  196.24   53.92
  -3  -7 -13  178.65   29.96
   3  -7 -13  175.59   39.92
  -3   7  13  187.53   14.41
   3   7  13  167.19   19.65
  -3   7 -14   11.55    5.32
   3  -7 -14    3.70    2.91
  -3  -7 -14    1.34    3.02
  -3  -7  14   11.03    3.97
  -3   7 -14    0.07    4.53
   3   7 -14    4.17    4.40
  -3  -7 -14    6.32    4.71
   3  -7 -14   10.68    9.35
  -3   7  14    6.21    4.76
   3   7  14    4.89    5.87
  -3   7 -15   75.80   25.86
   3  -7 -15   89.78   11.67
  -3  -7 -15  138.32   21.61
  -3  -7  15   99.71   10.11
  -3   7 -15   83.52   28.33
   3   7 -15  129.66   12.50
  -3  -7 -15  110.29    7.43
   3  -7 -15  109.85   12.54
  -3   7  15  109.30   26.50
   3   7  15   99.96   13.43
  -3   7 -16  101.25   27.19
  -3  -7 -16  107.97    9.86
  -3  -7  16   85.01    6.60
  -3   7 -16   85.73   30.24
   3   7 -16   95.14   37.45
  -3  -7 -16   85.01   26.84
   3  -7 -16  109.84   38.39
  -3   7  16   99.12   11.72
   3   7  16  114.74   10.11
  -3   7 -17    6.82    4.12
  -3  -7 -17    6.78    6.07
  -3  -7  17    1.32    2.48
  -3   7 -17    6.02    6.82
   3   7 -17    6.18    6.26
  -3  -7 -17    7.24    4.20
   3  -7 -17    3.42    9.40
  -3   7  17    4.13    2.34
   3   7  17    2.87    4.38
  -3   7 -18    1.43    3.17
  -3  -7 -18   -5.17    6.44
  -3  -7  18    7.25    5.20
  -3   7 -18    0.94    3.79
   3   7 -18    3.29    5.49
  -3  -7 -18    6.47    3.49
   3  -7 -18    3.81    8.13
  -3   7  18    4.91    4.87
   3   7  18    0.81    1.86
  -3   7 -19   36.81   11.93
  -3  -7 -19   43.88   10.14
  -3  -7  19   23.54   14.42
  -3   7 -19   33.18   13.39
   3   7 -19   39.79   13.33
  -3  -7 -19   27.90   11.40
   3  -7 -19   16.58   12.12
  -3   7  19   36.88   13.05
   3   7  19   33.22   16.94
  -3  -8   0  108.18    6.24
   3  -8   0   98.81    5.17
  -3   8   0   94.49   17.26
   3   8   0   98.13   13.32
  -3   8   0   85.13    7.15
  -3  -8  -1  149.59    6.72
  -3  -8   1  185.52   22.02
   3  -8  -1  174.65    7.03
   3  -8   1  158.72    6.56
  -3   8   1  157.79    6.92
  -3   8  -1  175.66    7.32
   3   8   1  165.50    5.64
   3   8  -1  146.06    5.19
  -3   8   1  147.40    6.05
  -3   8  -1  159.80    5.13
  -3  -8  -2  446.70   26.67
  -3  -8   2  438.01   27.98
   3  -8  -2  438.04   14.71
   3  -8   2  450.27   15.12
  -3   8   2  456.63   15.65
   3   8   2  426.45    9.78
  -3   8  -2  446.54   15.85
   3   8  -2  464.93   15.76
  -3   8  -2  428.55    7.79
  -3   8   2  459.94   15.45
  -3  -8  -3  481.65   18.02
   3  -8  -3  469.86   21.31
  -3  -8   3  513.82   18.98
   3  -8   3  516.67   17.50
  -3   8   3  463.55   21.21
   3   8   3  505.22   16.34
  -3   8  -3  506.24   17.57
   3   8  -3  477.55   16.16
  -3   8  -3  487.74   15.31
  -3   8   3  459.95   15.88
  -3  -8  -4  176.74   14.11
   3  -8  -4  162.39   13.44
  -3  -8   4  168.60   21.48
   3  -8   4  170.56   13.33
   3   8   4  167.68   17.63
  -3   8  -4  147.24   11.34
   3   8  -4  160.62   11.08
  -3   8  -4  150.85    8.48
  -3   8   4  170.52   11.90
  -3  -8  -5  355.84   15.66
   3  -8  -5  331.92    8.70
  -3  -8   5  336.01   11.31
   3  -8   5  366.69   10.60
  -3   8  -5  346.34   11.15
   3   8  -5  386.76   12.66
  -3   8  -5  356.06    7.34
  -3   8   5  346.84   22.67
  -3  -8  -6  758.69   17.72
   3  -8  -6  771.59   20.19
  -3  -8   6  755.62   17.04
   3  -8   6  751.96   17.74
  -3   8  -6  784.61   17.39
   3   8  -6  755.74   17.78
  -3   8   6  721.69   17.09
  -3  -8  -7  214.32   24.04
   3  -8  -7  219.45   13.18
  -3  -8   7  229.04   28.31
   3  -8   7  201.96   15.40
  -3   8  -7  245.87   12.11
   3   8  -7  171.49   11.86
  -3   8  -7  224.46   11.77
  -3   8   7  199.26   14.14
  -3  -8  -8   84.90   12.09
   3  -8  -8   83.92   12.94
  -3  -8   8   87.13    8.25
   3  -8   8  115.30   12.26
  -3   8  -8  102.41   24.53
   3   8  -8   98.03   18.48
  -3   8   8  100.11    9.98
  -3  -8  -9  166.57   10.54
   3  -8  -9  172.27   13.45
  -3  -8   9  175.31   29.98
   3  -8   9  171.59   23.13
  -3   8  -9  187.09   13.65
   3   8  -9  197.80   23.45
  -3   8   9  183.45   12.61
  -3   8 -10  167.88   22.05
   3  -8 -10  122.58    8.38
  -3  -8 -10  118.31   12.59
  -3  -8  10  144.88    9.55
  -3   8 -10  164.06   17.20
   3   8 -10  111.47   26.38
  -3   8  10  108.10   17.38
   3   8  10  141.50    7.99
  -3   8 -11   39.70   14.15
   3  -8 -11   26.45    7.86
  -3  -8 -11   24.41    9.87
  -3  -8  11   17.88    8.15
  -3   8 -11   32.28    7.97
   3   8 -11   15.50    9.33
  -3   8  11   38.09   12.00
   3   8  11   31.80    9.23
  -3   8 -12   12.92    6.63
   3  -8 -12    4.85    4.55
  -3  -8 -12   -1.32    5.50
  -3  -8  12    5.10    5.89
  -3   8 -12    3.98    5.24
   3   8 -12    9.37    7.17
  -3   8  12    6.47    5.09
   3   8  12    8.01    5.24
  -3   8 -13  152.66   13.63
   3  -8 -13  140.08   12.98
  -3  -8 -13  155.67   23.23
  -3  -8  13  125.86   15.88
  -3   8 -13  126.94   11.68
   3   8 -13  144.18   14.81
  -3  -8 -13  165.30   14.31
  -3   8  13  130.17   14.63
   3   8  13  149.06   18.15
  -3   8 -14   36.48    9.62
   3  -8 -14   30.19   12.98
  -3  -8 -14   35.98   13.21
  -3  -8  14   35.00    8.10
  -3   8 -14   27.53   13.81
   3   8 -14   30.94    7.79
  -3  -8 -14   40.26   12.09
   3  -8 -14   41.93   16.46
  -3   8  14   37.55   12.33
   3   8  14   27.90   11.00
  -3   8 -15   74.24   22.59
  -3  -8 -15   66.92   26.89
  -3  -8  15   71.98    6.87
  -3   8 -15   70.69   26.71
   3   8 -15   67.38   25.91
  -3  -8 -15   61.64   19.28
   3  -8 -15   79.52   17.79
  -3   8  15   84.69   17.66
   3   8  15  114.32    9.90
  -3   8 -16    3.87    5.70
  -3  -8 -16   -0.22    4.32
  -3  -8  16    3.35    4.97
  -3   8 -16    0.70    6.13
   3   8 -16    3.34    6.51
  -3  -8 -16    7.02    5.45
   3  -8 -16    6.24    8.60
  -3   8  16   -1.49    4.84
   3   8  16    3.49    3.03
  -3   8 -17   90.21   23.89
  -3  -8 -17   92.46   37.26
  -3  -8  17  130.70   29.52
  -3   8 -17  102.83   24.00
   3   8 -17  119.53   31.25
  -3  -8 -17  114.07   26.75
   3  -8 -17  111.07   26.98
  -3   8  17  117.95   40.21
   3   8  17  109.22   29.21
  -3   8 -18   44.85   16.46
  -3  -8 -18   20.79   12.93
  -3  -8  18   43.96   15.82
  -3   8 -18   32.81   15.90
   3   8 -18   22.06   22.40
  -3  -8 -18   24.50    9.19
   3  -8 -18   47.39   21.45
  -3   8  18   33.89   10.42
   3   8  18   23.71   13.19
  -3  -9   0  360.58   24.82
   3  -9   0  341.32    9.46
  -3   9   0  359.09   11.17
   3   9   0  338.20    9.67
  -3   9   0  358.07    9.85
  -3  -9  -1   12.11    6.38
  -3  -9   1   20.00   10.05
   3  -9  -1   21.39    8.61
   3  -9   1   20.29    9.69
  -3   9   1   11.68   13.11
  -3   9  -1   21.19    9.56
   3   9   1   22.27    6.34
   3   9  -1   17.69    6.08
  -3   9   1   10.18    5.46
  -3   9  -1   22.33    9.58
  -3  -9  -2  449.98   14.43
  -3  -9   2  435.52   28.00
   3  -9  -2  450.89   11.24
   3  -9   2  453.23   12.69
  -3   9   2  434.50   12.75
   3   9   2  447.14   10.47
  -3   9  -2  446.12   12.68
   3   9  -2  450.75   12.51
  -3   9  -2  461.08   10.83
  -3   9   2  454.50   11.67
  -3  -9  -3  495.48   15.69
   3  -9  -3  481.76   24.96
  -3  -9   3  486.58   14.63
   3  -9   3  458.77   13.44
  -3   9   3  489.89   15.94
   3   9   3  515.44   11.97
  -3   9  -3  476.83   13.52
   3   9  -3  454.20   16.43
  -3   9  -3  480.09    9.84
  -3   9   3  458.42   12.24
  -3  -9  -4  112.39   22.35
   3  -9  -4  122.76    9.36
  -3  -9   4  107.22    9.87
   3  -9   4   97.64    8.26
   3   9   4  123.32   12.40
  -3   9  -4  107.54    8.62
   3   9  -4  126.49   22.61
  -3   9  -4  103.38    6.58
  -3   9   4  126.38   11.00
  -3  -9  -5  426.69   17.85
   3  -9  -5  397.85   13.90
  -3  -9   5  361.22   26.71
   3  -9   5  408.52   23.31
  -3   9  -5  427.26   15.52
   3   9  -5  394.46   26.95
  -3   9  -5  357.79   10.21
  -3   9   5  378.53   14.87
  -3  -9  -6    4.14    5.23
   3  -9  -6    4.99    4.61
  -3  -9   6    5.92    5.51
   3  -9   6    2.77    5.45
  -3   9  -6    6.05    6.48
   3   9  -6    5.20    8.11
  -3   9  -6    4.99    2.44
  -3   9   6    2.47    6.20
  -3  -9  -7  145.01   13.27
   3  -9  -7  141.03   19.93
  -3  -9   7  130.76   12.24
   3  -9   7  120.63   16.52
  -3   9  -7  115.00    9.00
   3   9  -7  129.46   13.34
  -3   9   7  115.50   20.94
  -3  -9  -8    4.67    6.42
   3  -9  -8    7.50    5.05
  -3  -9   8   10.87    7.66
   3  -9   8    0.63    6.23
  -3   9  -8    3.83    6.13
   3   9  -8    5.58    6.39
  -3   9   8    9.58    8.10
  -3  -9  -9  646.51   37.90
   3  -9  -9  618.86   38.85
  -3  -9   9  613.56   36.22
   3  -9   9  595.16   34.86
  -3   9  -9  631.15   37.16
   3   9  -9  614.41   36.40
  -3   9   9  570.42   34.21
  -3  -9 -10    8.33    4.95
   3  -9 -10   12.06    4.26
  -3  -9  10   10.22    7.84
   3  -9  10    9.51    7.12
  -3   9 -10    4.64    4.08
   3   9 -10    9.01    3.39
  -3   9  10   12.91    6.05
   3   9  10    5.12    3.64
   3  -9 -11   64.51    6.09
  -3  -9 -11   55.26   21.89
  -3  -9  11   70.84   16.27
   3  -9  11   66.56   28.09
  -3   9 -11   59.46   22.60
   3   9 -11   52.75   22.46
  -3   9  11   70.41   22.14
   3   9  11   63.94   25.59
   3  -9 -12   59.33    5.30
  -3  -9 -12   53.08   14.57
  -3  -9  12   62.71   28.25
   3  -9  12   41.57   17.71
  -3   9 -12   74.67   17.74
   3   9 -12   72.73   14.64
  -3   9  12   49.70   25.07
   3   9  12   68.87   15.75
   3  -9 -13   11.29    4.22
  -3  -9 -13   10.98   10.04
  -3  -9  13   14.54    8.42
   3  -9  13    7.74    5.61
  -3   9 -13   15.57   11.58
   3   9 -13   12.09    8.33
  -3   9  13   12.17    6.82
   3   9  13   10.02    3.60
   3  -9 -14   76.16   13.11
  -3  -9 -14   78.06   21.01
  -3  -9  14  100.82   14.37
   3  -9  14   82.80   31.47
  -3   9 -14   89.00    8.18
   3   9 -14   76.91   24.78
  -3  -9 -14   79.96    8.01
  -3   9  14   74.17   25.46
   3   9  14   85.24   18.16
  -3  -9 -15   51.07   23.62
  -3  -9  15   46.50   18.38
   3  -9  15   60.95   23.75
  -3   9 -15   74.37   24.75
   3   9 -15   57.47   20.42
  -3  -9 -15   74.43    9.85
   3  -9 -15   67.07   27.26
  -3   9  15   65.45    9.78
   3   9  15   73.42    9.44
  -3  -9 -16   28.04    6.56
  -3  -9  16   26.69   11.78
   3  -9  16   22.75   10.52
  -3   9 -16   32.98    9.78
   3   9 -16   27.73    9.01
  -3  -9 -16   26.74    7.84
   3  -9 -16   32.47   15.14
  -3   9  16   40.51   13.91
   3   9  16   29.13   13.74
  -3  -9 -17   33.44    6.94
  -3  -9  17   45.63   13.91
   3  -9  17   32.47    8.52
  -3   9 -17   36.45   18.84
   3   9 -17   35.97   10.28
  -3  -9 -17   63.91   10.64
   3  -9 -17   35.61   14.24
  -3   9  17   47.71    8.24
   3   9  17   28.14   17.24
  -3  -9 -18   17.71    7.25
  -3  -9  18   19.69    9.36
   3  -9  18    9.99    9.07
  -3   9 -18   20.55   10.14
   3   9 -18   19.88    8.98
  -3  -9 -18   19.43   10.04
   3  -9 -18   31.39   16.72
   3   9  18   19.83    7.13
  -3 -10   0  102.55   10.03
   3 -10   0  100.97   13.86
  -3  10   0   89.65   16.94
   3  10   0  114.25    9.74
  -3  10   0  105.84    8.61
  -3 -10  -1  149.87   11.72
  -3 -10   1  165.90   12.97
   3 -10  -1  181.71   27.26
   3 -10   1  155.95   13.52
  -3  10   1  163.84   19.01
  -3  10  -1  158.08   13.80
   3  10   1  158.50   15.93
   3  10  -1  175.35   12.64
  -3  10  -1  178.26   11.62
  -3  10   1  165.76   11.91
  -3 -10  -2    9.08    9.63
  -3 -10   2   -0.27    7.82
   3 -10  -2   16.04    7.85
   3 -10   2    8.02    5.92
  -3  10   2    9.96    5.97
   3  10   2    3.63    3.57
  -3  10  -2   10.90    4.39
   3  10  -2    4.10    3.97
  -3  10   2    4.49    4.45
  -3  10  -2    5.34    3.31
  -3 -10  -3   60.94    7.93
   3 -10  -3   61.87   21.95
  -3 -10   3   65.87   10.04
   3 -10   3   56.36   21.43
  -3  10   3   65.39   25.69
   3  10   3   75.88   17.53
  -3  10  -3   68.71    9.49
   3  10  -3   51.80   20.56
  -3  10   3   62.19   23.34
  -3  10  -3   58.53   17.85
  -3 -10  -4  444.85   20.35
   3 -10  -4  428.99   18.08
  -3 -10   4  411.48   18.57
   3 -10   4  455.99   18.75
   3  10   4  463.87   18.53
  -3  10  -4  470.71   19.59
   3  10  -4  422.02   17.84
  -3  10   4  425.79   18.46
  -3  10  -4  413.18   15.38
  -3 -10  -5  391.72   18.16
   3 -10  -5  356.79   23.30
  -3 -10   5  366.79   17.56
   3 -10   5  380.03   16.32
   3  10   5  364.39   23.65
  -3  10  -5  360.76   15.75
   3  10  -5  381.58   16.44
  -3  10  -5  347.41   13.17
  -3  10   5  388.52   16.71
  -3 -10  -6   26.99   14.73
   3 -10  -6   17.52   13.39
  -3 -10   6   32.15   16.68
   3 -10   6   39.37   14.32
  -3  10  -6   31.64   14.23
   3  10  -6   34.99   12.25
  -3  10  -6   31.10    8.51
  -3  10   6   37.94    7.78
  -3 -10  -7   63.79   22.62
   3 -10  -7   49.29   10.49
  -3 -10   7   30.25   15.76
   3 -10   7   60.60   13.36
  -3  10  -7   49.59   20.74
   3  10  -7   55.48   16.87
  -3  10   7   51.57   15.61
  -3 -10  -8  631.50   37.22
   3 -10  -8  562.83   32.50
  -3 -10   8  543.70   41.29
   3 -10   8  638.73   39.81
  -3  10  -8  562.56   33.71
   3  10  -8  671.53   41.94
  -3  10   8  584.82   34.58
  -3 -10  -9   62.53   19.52
   3 -10  -9   41.89   13.95
  -3 -10   9   60.28   21.88
   3 -10   9   60.53   20.02
  -3  10  -9   53.52   18.85
   3  10  -9   57.44   14.66
  -3  10   9   67.27   24.15
  -3 -10 -10   -2.40    5.95
   3 -10 -10    1.27    2.17
  -3 -10  10    7.64    6.03
   3 -10  10    3.60    6.68
  -3  10 -10    7.66    5.78
   3  10 -10    7.27    6.04
  -3  10  10    5.59    7.37
   3  10  10    9.16    6.86
   3 -10 -11   72.26    5.34
  -3 -10 -11   80.33   27.24
  -3 -10  11   81.95   14.04
   3 -10  11   96.50   31.54
  -3  10 -11   67.59   25.47
   3  10 -11   77.15   25.93
  -3  10  11   78.82   31.63
   3  10  11   90.84   34.27
   3 -10 -12   26.44   11.43
  -3 -10 -12   20.47    8.25
  -3 -10  12   28.19   14.81
   3 -10  12   28.38   11.59
  -3  10 -12   18.24    8.05
   3  10 -12   15.55    8.72
  -3  10  12   21.72    6.19
   3  10  12   39.61   17.52
   3 -10 -13   14.44    5.21
  -3 -10 -13   25.60    6.75
  -3 -10  13    3.09    9.21
   3 -10  13   14.41   11.03
  -3  10 -13   16.43   12.44
   3  10 -13   12.95   12.33
  -3  10  13   24.80    8.49
   3  10  13    9.89    6.32
  -3 -10 -14    9.03    4.86
  -3 -10  14    9.94    9.42
   3 -10  14    8.35    6.70
  -3  10 -14   18.97   11.16
   3  10 -14    6.59    5.99
  -3 -10 -14    7.78    2.67
  -3  10  14    4.71    4.60
   3  10  14    8.50    5.01
  -3 -10 -15   37.72   18.15
  -3 -10  15   29.07   13.11
   3 -10  15   39.17   13.33
  -3  10 -15   38.67    7.12
   3  10 -15   39.78   17.71
  -3 -10 -15   32.05   10.19
   3 -10 -15   32.96   15.17
  -3  10  15   36.65   10.85
   3  10  15   34.60   15.30
  -3 -10 -16   45.59   15.04
  -3 -10  16   38.95   11.12
   3 -10  16   51.81   20.60
  -3  10 -16   49.25   17.64
   3  10 -16   40.77   17.45
  -3 -10 -16   36.11   16.00
   3 -10 -16   54.21   17.51
  -3  10  16   58.74   15.95
   3  10  16   56.79   20.95
  -3 -10 -17   56.61   28.17
  -3 -10  17   38.42   15.87
   3 -10  17   60.88   30.46
  -3  10 -17   66.47   25.97
   3  10 -17   35.74   24.57
  -3 -10 -17   55.54   22.42
   3 -10 -17   44.67   16.19
  -3  10  17   62.40   14.35
   3  10  17   53.39   28.82
  -3 -11   0  244.07   12.76
   3 -11   0  278.49   28.41
  -3  11   0  251.58   13.75
   3  11   0  227.99   11.23
  -3  11   0  256.78   15.15
  -3 -11  -1  153.21   35.02
  -3 -11   1  152.52   27.18
   3 -11  -1  166.92   12.03
   3 -11   1  164.75   16.86
  -3  11   1  160.18   12.42
  -3  11  -1  160.97   18.11
   3  11   1  142.41    9.57
   3  11  -1  161.08   26.52
  -3  11   1  160.63   11.09
  -3  11  -1  164.34   11.86
  -3 -11  -2   51.76   32.30
  -3 -11   2   85.47   24.71
   3 -11  -2   73.32    8.85
   3 -11   2   49.49   19.30
  -3  11   2   55.29    6.58
   3  11   2   52.79    6.19
  -3  11  -2   63.96   15.43
   3  11  -2   53.76   16.59
  -3  11   2   69.65   26.70
  -3  11  -2   48.55   12.20
  -3 -11  -3  170.51   14.49
   3 -11  -3  148.54   11.20
  -3 -11   3  147.92   15.34
   3 -11   3  148.13    9.86
  -3  11   3  190.29   26.11
   3  11   3  151.06   18.43
  -3  11  -3  134.57    9.46
   3  11  -3  182.25   12.62
  -3  11   3  194.92   12.56
  -3  11  -3  141.04   10.03
  -3 -11  -4   51.42   17.34
   3 -11  -4   74.33   27.26
  -3 -11   4   78.10    8.22
   3 -11   4   42.69   18.95
  -3  11   4   49.75   17.86
   3  11   4   51.28   17.57
  -3  11  -4   57.87    5.85
   3  11  -4   55.89   20.75
  -3  11   4   46.57   25.30
  -3  11  -4   65.69    4.42
  -3 -11  -5   84.95   39.45
   3 -11  -5   93.81   19.50
  -3 -11   5   90.80    9.91
   3 -11   5   89.28   27.71
   3  11   5   92.55    6.05
  -3  11  -5   99.01   13.32
   3  11  -5   91.31   17.21
  -3  11  -5   95.99    4.88
  -3  11   5   89.28    7.09
  -3 -11  -6  230.54   16.61
   3 -11  -6  223.58   19.62
  -3 -11   6  228.51   17.65
   3 -11   6  247.28   31.50
  -3  11  -6  248.22   17.07
   3  11  -6  251.50   17.50
  -3  11  -6  230.39   14.95
  -3  11   6  253.88   17.31
  -3 -11  -7   40.30   12.57
   3 -11  -7   39.81   16.17
  -3 -11   7   39.03    9.71
   3 -11   7   44.12   15.13
  -3  11  -7   38.59   11.78
   3  11  -7   47.01   15.24
  -3  11   7   42.70   15.16
  -3 -11  -8  162.00   10.97
   3 -11  -8  139.28   22.12
  -3 -11   8  169.22   11.32
   3 -11   8  167.99   29.96
  -3  11  -8  167.83   21.48
   3  11  -8  140.84    9.42
  -3  11   8  155.82   10.93
  -3 -11  -9   45.89   13.27
   3 -11  -9   50.48   19.04
  -3 -11   9   53.04    7.02
   3 -11   9   48.39   19.61
  -3  11  -9   47.50   15.42
   3  11  -9   41.85   23.93
  -3  11   9   45.11   17.82
   3  11   9   52.47    8.88
  -3 -11 -10    8.65    6.39
   3 -11 -10    6.43    4.12
  -3 -11  10    7.43    6.48
   3 -11  10    5.54    6.25
  -3  11 -10    6.73    6.24
   3  11 -10    7.94    5.70
  -3  11  10   14.02    7.50
   3  11  10   15.36   11.66
  -3 -11 -11   58.64   21.36
   3 -11 -11   43.02   16.46
  -3 -11  11   42.97   46.18
   3 -11  11   75.59   30.09
  -3  11 -11   64.86   12.69
   3  11 -11   87.13   27.82
  -3  11  11   79.13   25.60
   3  11  11   95.23   17.76
   3 -11 -12  167.45    8.06
  -3 -11 -12  136.73   28.16
  -3 -11  12  175.26   22.61
   3 -11  12  174.24    9.59
  -3  11 -12  175.39   18.34
   3  11 -12  134.47    9.51
  -3  11  12  142.21   23.37
   3  11  12  160.76   18.14
  -3 -11 -13   54.76   23.97
  -3 -11  13   52.41   19.28
   3 -11  13   63.68   21.33
  -3  11 -13   73.87   11.10
   3  11 -13   44.69   21.55
  -3  11  13   56.68   21.58
   3  11  13   39.73   30.09
  -3 -11 -14   25.59    8.72
  -3 -11  14   15.85    6.33
   3 -11  14    9.16    7.77
  -3  11 -14   12.04    5.78
   3  11 -14   -2.28    7.29
  -3  11  14   12.89    7.39
   3  11  14   32.71    6.65
  -3 -11 -15   40.83   15.01
  -3 -11  15   33.21   10.65
   3 -11  15   48.62   16.17
  -3  11 -15   32.23   12.48
   3  11 -15   24.21    8.06
  -3 -11 -15   26.31   13.94
  -3  11  15   40.45   14.68
   3  11  15   24.35   10.55
  -3 -11 -16   10.45    5.96
  -3 -11  16   21.56    5.95
   3 -11  16   18.34   11.29
  -3  11 -16   10.33    9.96
   3  11 -16   15.24   10.06
  -3 -11 -16    5.19    6.28
   3 -11 -16   27.67   17.31
  -3  11  16   23.90    8.55
   3  11  16   34.40   15.16
  -3 -12   0    4.95    5.76
   3 -12   0    7.96    5.84
  -3  12   0    4.49    5.47
   3  12   0   11.05    3.54
  -3  12   0    5.68    5.09
  -3 -12  -1   65.03   26.48
  -3 -12   1   96.14   12.05
   3 -12  -1   81.91   14.81
   3 -12   1   76.01   23.40
  -3  12   1   71.48   26.69
  -3  12  -1   75.80   24.07
   3  12   1   66.87    5.63
   3  12  -1   71.30   22.81
  -3  12   1   81.47    7.93
  -3  12  -1   80.77   14.75
  -3 -12  -2  843.10   49.24
  -3 -12   2  969.77   20.82
   3 -12  -2  997.13   17.47
   3 -12   2  864.12   49.61
  -3  12   2  895.25   17.08
   3  12   2  826.39   47.24
  -3  12  -2  890.04   16.51
   3  12  -2  961.58   17.27
  -3  12   2  867.38   49.57
  -3  12  -2  853.20   51.15
  -3 -12  -3   52.72   20.56
   3 -12  -3   52.16    6.15
  -3 -12   3   41.35    7.27
   3 -12   3   44.63   17.91
  -3  12   3   56.96   25.49
   3  12   3   53.22   12.22
  -3  12  -3   43.75   12.02
   3  12  -3   55.73   16.49
  -3  12   3   57.34   15.07
  -3  12  -3   45.30    6.60
  -3 -12  -4   47.88   18.12
   3 -12  -4   30.62    8.23
  -3 -12   4   32.11    7.29
   3 -12   4   39.83   17.20
  -3  12   4   41.46   12.99
   3  12   4   37.72    7.70
  -3  12  -4   32.44   10.44
   3  12  -4   34.20    9.14
  -3  12   4   47.90   16.30
  -3  12  -4   33.14   10.83
  -3 -12  -5  342.05   17.29
   3 -12  -5  311.12   17.65
  -3 -12   5  292.12   13.36
   3 -12   5  341.17   20.37
   3  12   5  284.23   10.92
  -3  12  -5  284.73   11.92
   3  12  -5  335.41   13.17
  -3  12  -5  306.87    9.88
  -3  12   5  326.47   18.05
  -3 -12  -6   18.12    8.65
   3 -12  -6   12.17    6.70
  -3 -12   6   22.16    8.97
   3 -12   6   18.08    6.58
  -3  12  -6   15.68    6.85
   3  12  -6   15.09    7.54
  -3  12   6   15.09    6.07
  -3 -12  -7   93.81   32.07
   3 -12  -7  125.44   12.18
  -3 -12   7  137.11   33.37
   3 -12   7   89.49    8.90
  -3  12  -7  129.27    9.05
   3  12  -7  119.81   32.87
  -3  12   7  122.59   10.12
  -3 -12  -8    2.85    7.43
   3 -12  -8    3.80    3.95
  -3 -12   8   -1.08    7.63
   3 -12   8    4.98    4.82
  -3  12  -8    9.72    7.10
   3  12  -8   -4.84    7.51
  -3  12   8    9.90    3.98
  -3 -12  -9   54.31   25.57
   3 -12  -9   42.31   14.77
  -3 -12   9   65.65   27.57
   3 -12   9   78.80   30.67
  -3  12  -9   57.54   22.77
   3  12  -9   59.97   15.68
  -3  12   9   61.90   16.88
   3  12   9   57.84   35.65
  -3 -12 -10  293.93   13.45
   3 -12 -10  253.22   21.77
  -3 -12  10  266.24   14.75
   3 -12  10  317.90   14.50
  -3  12 -10  277.72   12.67
   3  12 -10  312.16   12.85
  -3  12  10  281.96   16.14
   3  12  10  259.67   13.59
  -3 -12 -11   38.31   12.73
   3 -12 -11   30.78   15.61
  -3 -12  11   28.86   17.09
   3 -12  11   36.40   16.43
  -3  12 -11   42.62   15.50
   3  12 -11   42.23    9.90
  -3  12  11   32.12    9.56
   3  12  11   35.28   14.78
  -3 -12 -12   30.57    9.07
   3 -12 -12   27.58   14.58
  -3 -12  12   38.40   17.90
   3 -12  12   36.96   14.88
  -3  12 -12   32.64    7.17
   3  12 -12   35.41   11.65
  -3  12  12   35.88   11.32
   3  12  12   43.45    9.04
  -3 -12 -13    0.68    4.50
  -3 -12  13    6.07    4.41
   3 -12  13    0.94   10.11
  -3  12 -13    9.55    6.78
   3  12 -13    7.87    7.80
  -3  12  13   16.03    7.13
   3  12  13    3.49    6.51
  -3 -12 -14  152.45   14.56
  -3 -12  14  188.55   11.57
   3 -12  14  185.46   15.34
  -3  12 -14  188.00   26.43
   3  12 -14  172.27   37.22
  -3  12  14  178.87   37.50
   3  12  14  175.26   14.28
  -3 -12 -15    1.67    6.05
  -3 -12  15    7.17    6.87
   3 -12  15  -10.40    7.95
  -3  12 -15    9.55    7.56
   3  12 -15    5.27    6.73
  -3 -12 -15    5.13    3.69
  -3  12  15    1.00    6.30
   3  12  15   10.51    8.49
  -3 -13   0  102.59   10.36
   3 -13   0   98.22   15.54
  -3  13   0  146.50   20.45
   3  13   0  114.82   13.08
  -3  13   0  109.60    9.74
  -3 -13  -1   67.57   20.16
  -3 -13   1   70.74   30.81
   3 -13  -1   71.69    8.23
   3 -13   1   81.59   10.02
  -3  13   1   67.37   28.20
  -3  13  -1   70.70    9.86
   3  13   1   85.29    6.98
   3  13  -1   61.38   20.74
  -3  13   1   61.65   25.29
  -3  13  -1   89.91    9.77
  -3 -13  -2   92.92   13.69
  -3 -13   2  105.39   35.84
   3 -13  -2  125.08   21.67
   3 -13   2  100.46   11.96
  -3  13   2  112.49   32.91
   3  13   2  106.79    8.12
  -3  13  -2  150.67   10.55
   3  13  -2  104.61   14.83
  -3  13  -2  107.17   19.68
  -3  13   2   93.35   14.31
  -3 -13  -3   -1.66    4.83
   3 -13  -3    1.20    4.84
  -3 -13   3   -4.82    8.32
   3 -13   3    1.08    2.84
  -3  13   3    7.20    5.29
   3  13   3    2.78    2.30
  -3  13  -3    9.47    6.43
   3  13  -3   -2.20    5.23
  -3  13  -3    1.95    2.66
  -3  13   3    3.42    3.91
  -3 -13  -4   70.07   30.07
   3 -13  -4   67.15    7.93
  -3 -13   4   57.70   22.61
   3 -13   4   73.35   22.02
  -3  13   4   74.71   27.48
   3  13   4   73.95   18.46
  -3  13  -4   65.87   32.30
   3  13  -4   73.18   14.72
  -3  13  -4   48.14   12.25
  -3  13   4   66.31   22.56
  -3 -13  -5   16.15   11.37
   3 -13  -5   43.42    5.72
  -3 -13   5   43.16   20.38
   3 -13   5   16.06    8.25
   3  13   5   41.16   18.06
  -3  13  -5   47.06   22.15
   3  13  -5   26.50   14.90
  -3  13  -5   51.02    4.54
  -3  13   5   36.32    8.91
  -3 -13  -6   63.22   29.52
   3 -13  -6   38.59   14.54
  -3 -13   6   42.42   14.84
   3 -13   6   26.50   13.73
  -3  13  -6   37.61   17.53
   3  13  -6   44.09   21.80
  -3  13   6   48.38    6.37
  -3 -13  -7   11.99    8.70
   3 -13  -7   21.20    8.33
  -3 -13   7   32.18   19.73
   3 -13   7   17.14   10.82
  -3  13  -7   39.86   16.81
   3  13  -7   17.63   15.50
  -3  13   7   25.72    7.51
  -3 -13  -8   21.97    9.77
   3 -13  -8    7.28    5.05
  -3 -13   8    8.55    4.54
   3 -13   8   -1.71    6.61
  -3  13  -8   16.39    7.68
   3  13  -8   10.23   10.48
  -3  13   8   13.85    6.74
   3  13   8   18.87    7.35
  -3 -13  -9   18.94    8.68
   3 -13  -9   11.65    6.75
  -3 -13   9   15.30    7.71
   3 -13   9   14.22    7.80
  -3  13  -9   13.95    7.17
   3  13  -9    4.37    5.32
  -3  13   9   15.08    8.86
   3  13   9   24.39    8.14
  -3 -13 -10   66.60   29.25
   3 -13 -10   68.96   11.48
  -3 -13  10   72.82   23.47
   3 -13  10   66.47   21.86
  -3  13 -10   64.83   25.56
   3  13 -10   75.48   21.88
  -3  13  10   63.67   24.66
   3  13  10   66.42   26.02
  -3 -13 -11   16.72    9.84
   3 -13 -11   24.54    8.24
  -3 -13  11   21.55    7.59
   3 -13  11   31.97   13.62
  -3  13 -11   24.54   12.23
   3  13 -11   25.57   13.69
  -3  13  11   13.21    7.95
   3  13  11   18.42    9.07
  -3 -13 -12   46.21   22.18
  -3 -13  12   60.26   28.88
   3 -13  12   43.56   17.10
  -3  13 -12   64.53   26.59
   3  13 -12   60.15   22.89
  -3  13  12   48.95   25.68
   3  13  12   46.74   19.62
  -3 -13 -13   27.11    7.10
  -3 -13  13   36.77   16.70
   3 -13  13   20.92   11.95
  -3  13 -13   40.90   12.18
   3  13 -13   25.91   10.73
  -3  13  13   33.13   10.76
   3  13  13   42.26   12.99
  -3 -13 -14   20.35   14.19
  -3 -13  14   11.85    7.79
   3 -13  14   23.84   11.75
  -3  13 -14   14.38   12.67
   3  13 -14   12.91   10.15
  -3  13  14   16.96   13.23
   3  13  14   13.71   10.28
  -3 -14   0    9.87    8.61
   3 -14   0    2.84    5.37
  -3  14   0    4.53    5.60
   3  14   0    8.05    6.38
  -3  14   0    2.81    3.74
  -3 -14  -1   88.27   28.44
  -3 -14   1   65.38   10.16
   3 -14  -1   66.70   28.54
   3 -14   1   71.73   27.13
  -3  14   1   87.21   24.32
  -3  14  -1   60.46   17.17
   3  14   1   77.64   11.76
   3  14  -1  102.45   23.54
  -3  14   1   59.73   19.15
  -3  14  -1   72.86   13.34
  -3 -14  -2   -0.66    8.85
   3 -14  -2   10.06    6.06
  -3 -14   2    5.74    5.59
   3 -14   2    2.83    4.97
  -3  14   2    0.55    4.43
   3  14   2   -0.41    5.84
  -3  14  -2    0.12    4.20
   3  14  -2    6.83    3.06
  -3  14  -2    6.37    4.59
  -3  14   2   -0.72    3.89
  -3 -14  -3   59.65   19.33
   3 -14  -3   58.48   17.86
  -3 -14   3   54.32    9.89
   3 -14   3   58.57   18.60
  -3  14   3   56.90   14.91
   3  14   3   60.21   13.57
  -3  14  -3   54.40   16.13
   3  14  -3   52.55   15.40
  -3  14   3   34.21   11.60
  -3  14  -3   46.12    8.74
  -3 -14  -4   66.11   27.06
   3 -14  -4   97.77   10.28
  -3 -14   4   84.89    9.46
   3 -14   4   78.57   15.06
  -3  14   4   72.06   35.40
   3  14   4   83.41    6.93
  -3  14  -4   92.58    8.53
   3  14  -4   79.86   24.69
  -3  14  -4   93.13    6.18
  -3  14   4   88.19   10.36
  -3 -14  -5   71.59   24.67
   3 -14  -5   82.69   12.03
  -3 -14   5   71.39   35.68
   3 -14   5  101.71   39.61
   3  14   5   69.28   20.38
  -3  14  -5   85.14   36.42
   3  14  -5   89.78   24.02
  -3  14   5   94.21   34.51
  -3 -14  -6   37.21   14.68
   3 -14  -6   56.34   14.35
  -3 -14   6   47.28   21.47
   3 -14   6   36.92   16.57
  -3  14  -6   48.65   15.74
   3  14  -6   54.56   13.93
  -3  14   6   48.50   10.46
  -3 -14  -7    2.57    7.60
   3 -14  -7    2.84    4.46
  -3 -14   7   10.65    5.36
   3 -14   7   11.84    7.69
  -3  14  -7   -1.10    6.04
   3  14  -7   13.79    7.28
  -3  14   7   15.50    7.98
  -3 -14  -8  114.41   22.70
   3 -14  -8  144.22   16.84
  -3 -14   8  123.54   21.56
   3 -14   8  109.40   40.96
  -3  14  -8  115.66   34.52
   3  14  -8  131.38   26.09
  -3  14   8  114.83   21.43
   3  14   8  125.47   10.03
  -3 -14  -9   14.58    7.18
   3 -14  -9   23.09   12.32
  -3 -14   9   24.06   10.38
   3 -14   9   25.83   21.28
  -3  14  -9   22.22    7.01
   3  14  -9   27.21   13.16
  -3  14   9   27.27    7.37
   3  14   9   14.75    8.02
  -3 -14 -10    5.78    5.39
   3 -14 -10    7.68    4.35
  -3 -14  10   -0.69    8.02
   3 -14  10    9.00    3.38
  -3  14 -10   -2.30    6.72
   3  14 -10    8.00    4.37
  -3  14  10    9.96    5.41
   3  14  10    4.91    6.85
  -3 -14 -11    3.09    4.59
   3 -14 -11    7.93    7.69
  -3 -14  11   10.23    6.38
   3 -14  11   11.03    8.42
  -3  14 -11   13.60    5.38
   3  14 -11   12.78    9.49
  -3  14  11    6.06    9.13
   3  14  11   13.76   14.70
  -3 -14  12   40.64   15.85
   3 -14  12   26.61   16.90
  -3  14 -12   66.70   29.50
   3  14 -12   61.41   23.96
   3  14  12   43.49   19.28
  -3 -14 -13   19.36   12.86
  -3 -14  13   16.21   10.85
   3 -14  13   20.19   11.27
  -3  14 -13   40.94   15.01
   3  14 -13    8.22   13.52
  -3  14  13   34.74   10.94
   3  14  13   26.71    8.28
  -3 -15   0  278.53   12.71
   3 -15   0  292.72   14.20
  -3  15   0  315.71   24.93
   3  15   0  264.19   25.39
  -3  15   0  259.48   16.65
  -3 -15  -1    5.80    4.42
  -3 -15   1   -0.27    7.47
   3 -15  -1    7.79    6.77
   3 -15   1    3.65    7.03
  -3  15   1    1.93    5.03
  -3  15  -1   -1.19    4.77
   3  15   1    2.63    7.09
   3  15  -1    5.06    5.66
  -3  15  -1    6.08    5.08
  -3  15   1    1.17    3.63
  -3 -15  -2    3.57    6.81
   3 -15  -2    3.54    3.73
  -3 -15   2    3.77    5.06
   3 -15   2    5.99    4.76
  -3  15   2    2.87    4.93
   3  15   2    3.81    3.31
  -3  15  -2    4.48    4.25
   3  15  -2    5.60    2.65
  -3  15   2    1.12    3.48
  -3  15  -2    5.54    2.96
  -3 -15  -3    2.14    4.51
   3 -15  -3    4.86    3.36
  -3 -15   3   15.17    8.07
   3 -15   3    2.40    7.26
  -3  15   3    4.83    6.11
   3  15   3   15.08    7.63
  -3  15  -3   12.56   10.93
   3  15  -3    2.99    4.06
  -3  15   3   10.86    5.58
  -3  15  -3    7.43    4.76
  -3 -15  -4   50.98   11.70
   3 -15  -4   76.61   10.52
  -3 -15   4   70.26   31.88
   3 -15   4   56.41   19.58
   3  15   4   68.50   17.88
  -3  15  -4   60.79   14.63
   3  15  -4   66.96   20.43
  -3  15   4   66.92   14.72
  -3 -15  -5   54.92   22.70
   3 -15  -5   51.58   23.49
  -3 -15   5   44.80    8.73
   3 -15   5   53.19   17.08
   3  15   5   47.43   16.04
  -3  15  -5   57.22   20.91
   3  15  -5   58.94   16.85
  -3  15   5   73.84    9.47
  -3 -15  -6   78.76   26.11
   3 -15  -6   47.77   23.26
  -3 -15   6   47.56   17.71
   3 -15   6   47.02   18.86
  -3  15  -6   50.60   17.62
   3  15  -6   84.87   28.10
  -3  15   6   69.59   20.70
  -3 -15  -7   68.32   28.65
   3 -15  -7   78.33   12.75
  -3 -15   7   77.96   27.02
   3 -15   7   72.83   26.45
  -3  15  -7   70.87   21.81
   3  15  -7   77.77   19.20
  -3  15   7   73.91   16.76
   3  15   7   57.09   27.63
  -3 -15  -8   11.10    7.28
   3 -15  -8    1.59    4.68
  -3 -15   8    2.98    6.42
   3 -15   8    1.36    6.84
  -3  15  -8    4.39    5.51
   3  15  -8    6.29    5.14
  -3  15   8    4.35    3.28
   3  15   8   -1.41    6.95
  -3 -15  -9   23.49    9.25
   3 -15  -9   17.46    6.33
  -3 -15   9   19.21   12.26
   3 -15   9   24.19   17.01
  -3  15  -9   22.19    8.67
   3  15  -9   21.58    6.96
  -3  15   9   14.59    9.22
   3  15   9   10.88    8.85
  -3 -15 -10    7.52    6.12
   3 -15 -10    6.86    5.34
  -3 -15  10    4.77    8.53
   3 -15  10    1.76    5.60
  -3  15 -10    6.13    6.26
   3  15 -10    4.82    5.01
  -3  15  10    2.48    5.43
   3  15  10    4.70    5.99
  -3 -15 -11   12.22    6.28
  -3 -15  11    9.63    6.57
   3 -15  11   14.49    9.74
  -3  15 -11   16.21   12.14
   3  15 -11   15.20    7.06
  -3  15  11   20.17    4.71
   3  15  11   13.16    8.87
  -3 -15 -12   54.42   29.33
  -3 -15  12   70.74   28.41
   3 -15  12   80.29   36.92
  -3  15 -12   98.04   31.23
   3  15 -12   62.80   24.09
  -3  15  12   66.79   26.99
   3  15  12   77.39   33.56
  -3 -16   0   21.27    8.84
   3 -16   0   28.57   10.84
  -3  16   0    9.10    2.94
   3  16   0   11.96    6.52
  -3  16   0   23.09    5.97
  -3 -16  -1   67.62   24.90
  -3 -16   1   68.62   20.59
   3 -16  -1   82.33   10.31
   3 -16   1   55.51   25.06
  -3  16   1   52.15   18.76
  -3  16  -1   52.83   20.03
   3  16   1   67.75   16.24
   3  16  -1   78.67   22.60
  -3  16   1   81.90    9.92
  -3  16  -1   63.87    8.68
  -3 -16  -2   44.51   17.94
   3 -16  -2   35.56    6.83
  -3 -16   2   62.98    8.38
   3 -16   2   32.67   12.74
  -3  16   2   27.87   11.07
   3  16   2   55.08   14.38
  -3  16  -2   58.04   16.05
   3  16  -2   39.39    7.91
  -3  16  -2   44.13   10.88
  -3  16   2   24.67   11.49
  -3 -16  -3   42.48   16.45
   3 -16  -3   35.50   13.96
  -3 -16   3   42.32   11.91
   3 -16   3   38.45   13.15
  -3  16   3   39.40   13.73
   3  16   3   38.73   15.25
  -3  16  -3   37.41    8.93
   3  16  -3   28.01   13.65
  -3  16   3   49.11    8.76
  -3 -16  -4   31.04   12.25
   3 -16  -4   40.19   11.63
  -3 -16   4   29.34   16.59
   3 -16   4   28.88   14.23
   3  16   4   35.31   13.88
  -3  16  -4   51.87   13.11
   3  16  -4   21.76    4.26
  -3  16   4   32.93    7.54
  -3 -16  -5    2.92    6.54
   3 -16  -5    7.12    3.75
  -3 -16   5    6.21    9.13
   3 -16   5    3.11    6.13
   3  16   5    4.93    4.10
  -3  16  -5    9.51    5.94
   3  16  -5   10.08    2.79
  -3  16   5   10.40    5.65
  -3 -16  -6   63.85   27.51
   3 -16  -6   67.35   17.91
  -3 -16   6   66.64   27.97
   3 -16   6   78.54   38.57
  -3  16  -6   57.36   27.56
   3  16  -6   73.73   24.16
  -3  16   6   56.71   27.61
   3  16   6   51.80   24.77
  -3 -16  -7    5.79    8.41
   3 -16  -7    6.31   10.64
  -3 -16   7   -6.65    7.45
   3 -16   7   -3.71    7.91
  -3  16  -7    5.26    3.73
   3  16  -7    3.16    5.78
  -3  16   7   -1.71    6.43
   3  16   7    4.21    5.86
  -3 -16  -8   20.17   21.35
   3 -16  -8   24.54   10.32
  -3 -16   8   25.36   17.95
   3 -16   8   25.55   11.29
  -3  16  -8   24.44   12.24
   3  16  -8   15.14    6.35
  -3  16   8   29.50   20.87
   3  16   8   16.54   10.03
  -3 -16  -9   54.73    8.85
   3 -16  -9   41.20   16.16
   3 -16   9   41.04   20.37
  -3  16  -9   30.50   20.68
   3  16  -9   42.85   16.67
  -3  16   9   53.27   22.49
   3  16   9   55.59   10.23
  -3 -16 -10   31.24   13.41
  -3 -16  10   15.21   10.32
   3 -16  10   15.03    6.41
  -3  16 -10    9.53   13.70
   3  16 -10   17.81    7.61
  -3  16  10   15.43    7.70
   3  16  10   16.00    8.47
  -3 -17   0    3.52    8.50
   3 -17   0   -0.74    6.27
  -3  17   0    8.29    3.79
   3  17   0    6.81    7.20
  -3  17   0   19.31    6.15
  -3 -17  -1   19.75   21.57
  -3 -17   1   16.40   13.89
   3 -17  -1   38.41    8.90
   3 -17   1   29.41    6.88
  -3  17   1   36.81    9.87
   3  17   1   24.69    6.67
   3  17  -1   30.85   10.91
  -3  17  -1   39.41    5.98
  -3  17   1   28.61    7.77
  -3 -17  -2   17.48   12.86
   3 -17  -2   17.91    6.71
  -3 -17   2   10.63    5.04
   3 -17   2   14.88    8.92
  -3  17   2   20.22    7.94
   3  17   2   14.61   10.18
  -3  17  -2   15.66    8.12
   3  17  -2    6.88    4.33
  -3  17   2    6.96    5.28
  -3 -17  -3   58.66   25.04
   3 -17  -3   49.17   19.45
  -3 -17   3   51.53   29.40
   3 -17   3   44.89   17.29
  -3  17   3   46.69   22.18
   3  17   3   56.49   20.69
  -3  17  -3   52.25   22.11
   3  17  -3   42.87   23.95
  -3  17   3   55.18    8.69
  -3 -17  -4   -2.02    8.40
   3 -17  -4    2.98    4.46
  -3 -17   4    0.63    6.80
   3 -17   4    1.85    4.46
   3  17   4    3.10    4.97
   3  17  -4    5.39    5.64
  -3  17   4    3.62    2.79
   3  17   4    5.45    7.09
  -3 -17  -5   11.15    6.82
   3 -17  -5   12.45    6.23
  -3 -17   5    5.28    6.01
   3 -17   5    3.51    6.62
  -3  17  -5   14.22   11.00
  -3  17   5    6.60    3.57
   3  17   5    3.27    6.68
  -3 -17  -6   79.10   34.20
   3 -17  -6   65.92   29.92
  -3 -17   6   92.45   20.74
   3 -17   6   64.57   39.76
  -3  17  -6   84.98   30.75
   3  17  -6  104.47   16.73
  -3  17   6  103.98   22.81
   3  17   6   56.26   38.75
  -3 -17  -7   18.41    9.33
   3 -17  -7    6.60    5.80
  -3 -17   7   10.06    8.15
   3 -17   7   18.35    6.78
  -3  17  -7   10.38   10.15
   3  17  -7   15.24    8.04
  -3  17   7    6.61    3.56
   3  17   7    7.47    9.42
  -3 -18   0   44.35   19.11
   3 -18   0   46.87   23.73
  -3  18   0   44.15   16.36
   3  18   0   42.85   20.23
  -3  18   0   29.03   15.60
  -3 -18  -1   -0.34    8.83
  -3 -18   1    2.66    4.82
   3 -18  -1   -3.08    7.48
   3 -18   1    0.98    2.36
  -3  18   1    6.34    4.95
   3  18   1    5.26    3.27
  -3  18  -1    2.68    4.52
   3  18  -1    1.31    2.98
  -3  18   1    2.09    3.33
  -3 -18  -2   24.93    9.31
   3 -18  -2    4.16    5.82
  -3 -18   2   13.36    7.65
   3 -18   2    8.72    7.18
  -3  18   2    8.84    4.72
   3  18   2    6.21    8.26
  -3  18  -2    7.17    8.67
   3  18  -2   10.32    6.82
  -3  18   2    7.04    6.80
  -3 -18  -3   18.03    7.87
   3 -18  -3   29.36   15.06
  -3 -18   3   16.45   10.32
   3 -18   3   31.62   11.14
  -3  18   3   29.41   10.26
   3  18   3   26.76   12.61
  -3  18  -3   23.31   13.41
   3  18  -3   17.34    6.21
  -3  18   3   25.26   11.20
   3  18   3   20.30    9.47
  -3 -18  -4   15.01    7.43
   3 -18  -4    6.92    5.32
  -3 -18   4   25.38   12.64
   3 -18   4    9.63   10.68
   3  18   4    7.82    2.60
  -3  18  -4   24.88   14.30
   3  18  -4    6.35    7.84
  -3  18   4   16.08    5.00
   3  18   4   14.33    6.81
  -4   0   0  296.58   10.38
  -4   0  -1 2521.80   40.76
  -4   0   1 2462.52   39.50
   4   0  -1 2643.66   42.06
   4   0   1 2455.20   38.58
   4   0  -1 2442.27   39.75
  -4   0  -2  169.75    4.83
   4   0   2  165.28    1.87
   4   0  -2  165.40    4.64
  -4   0   2  174.21    4.88
  -4   0  -3  548.54   19.10
   4   0  -3  572.90   18.71
   4   0   3  543.15   17.84
   4   0  -3  550.06   21.26
  -4   0   3  569.48   20.02
  -4   0   4   77.58    2.25
  -4   0  -4   78.51    5.06
   4   0   4   77.47    3.38
   4   0  -4   71.22    5.52
  -4   0   4   74.29    8.75
  -4   0   5  130.18    2.58
  -4   0  -5  128.16    5.88
  -4   0  -5  129.61    3.66
   4   0  -5  126.07    6.59
  -4   0   5  131.38    5.42
  -4   0  -6  608.71    9.21
  -4   0  -6  608.06    6.39
   4   0  -6  617.13    9.80
  -4   0   6  599.90   14.19
   4   0  -7  155.10    9.87
  -4   0  -7  167.74    7.00
  -4   0  -7  142.89    9.66
   4   0  -7  160.80    7.43
  -4   0   7  161.67    5.90
   4   0  -8   42.56    5.16
  -4   0  -8   36.01    6.12
  -4   0  -8   38.42   13.76
   4   0  -8   41.60   13.59
  -4   0   8   49.86    4.71
   4   0  -9   14.78    5.20
  -4   0  -9   12.15    7.04
  -4   0  -9   16.65    3.97
   4   0  -9    6.40    7.57
  -4   0   9   19.94    7.70
   4   0 -10  111.91    6.84
  -4   0 -10  109.40   31.67
  -4   0 -10  111.36    8.01
   4   0 -10  139.54   31.87
  -4   0  10  124.29   10.41
   4   0  10  114.02    8.12
   4   0 -11  592.20   16.21
  -4   0 -11  595.96   19.06
  -4   0 -11  590.97   17.82
   4   0 -11  633.47   22.67
  -4   0  11  649.93   19.00
   4   0  11  608.21   16.70
   4   0 -12  100.59    7.82
  -4   0 -12  131.12   28.85
  -4   0 -12  101.73   18.99
   4   0 -12  103.45   28.87
  -4   0  12  117.74   10.73
   4   0  12  208.74   23.17
   4   0 -13  412.73   12.82
  -4   0 -13  426.57   25.30
  -4   0 -13  436.01   15.55
   4   0 -13  415.33   19.32
  -4   0  13  413.80   14.16
   4   0  13  425.32   13.10
   4   0 -14    4.49    2.87
  -4   0 -14   10.01    5.45
  -4   0 -14    6.14    4.31
   4   0 -14    0.89    8.67
  -4   0  14    9.88    4.75
   4   0  14    6.49    4.29
   4   0 -15  100.31   15.87
  -4   0 -15   89.64    7.68
  -4   0 -15   88.12   27.57
   4   0 -15  102.14   25.94
  -4   0  15  100.17    8.74
   4   0 -16   20.63    8.14
  -4   0 -16   13.04    8.65
  -4   0 -16   29.70    6.86
   4   0 -16   18.24    8.74
  -4   0  16   12.50    4.03
  -4   0 -17  137.63    7.85
  -4   0 -17  164.26    9.41
   4   0 -17  117.29   28.26
  -4   0  17  141.15   12.62
  -4   0 -18    5.89    4.42
  -4   0 -18   10.24    7.02
   4   0 -18   -1.48    8.98
  -4   0  18    8.22    2.24
  -4   0 -19   -0.87    5.41
  -4   0 -19    1.19    2.24
   4   0 -19   -2.90    9.15
  -4   0 -20    3.68    2.97
  -4   0 -20   10.33    9.74
   4   0 -20    8.00   10.44
  -4   1   0  230.29    8.39
  -4  -1   0  225.90    8.47
   4   1   0  229.38    8.20
  -4   1   0  226.79    9.32
  -4   1  -1  616.20   20.70
   4  -1  -1  623.46   20.44
  -4  -1  -1  606.28   20.61
  -4  -1   1  621.20   21.05
  -4   1  -1  653.50   39.52
   4   1   1  656.07   39.48
   4   1  -1  603.60   20.35
  -4   1   1  609.78   20.87
  -4   1  -2  519.67   17.83
  -4  -1  -2  527.77   18.59
   4  -1  -2  573.61   18.67
  -4   1  -2  496.62   16.50
   4   1  -2  490.42   21.24
  -4   1   2  491.09   18.00
  -4   1  -3  371.36   13.37
  -4  -1  -3  287.37   10.70
  -4  -1   3  357.44   12.17
  -4   1  -3  359.84   12.34
  -4  -1  -3  287.65    9.41
   4   1  -3  294.12   11.22
  -4   1   3  313.39   12.06
  -4   1  -4  348.43   13.10
  -4  -1  -4  345.49   13.15
  -4  -1   4  326.82   11.34
  -4   1  -4  356.78   12.24
   4   1  -4  364.48   14.15
   4  -1  -4  356.00   13.73
  -4  -1   4  344.88   13.04
  -4   1   4  343.62   12.84
  -4   1  -5  242.29   11.60
  -4  -1  -5  224.93    9.96
  -4   1   5  238.04    8.41
  -4  -1   5  245.62    9.23
  -4   1   5  233.20    7.74
  -4   1  -5  239.59    8.68
  -4  -1  -5  220.74    7.99
   4   1  -5  227.85   10.41
   4  -1  -5  238.28   10.60
  -4  -1   5  242.47   10.27
  -4   1   5  225.89    9.46
   4  -1  -6  713.83   19.50
  -4   1  -6  724.15   21.69
  -4  -1  -6  751.23   22.48
  -4   1   6  789.92   21.71
  -4  -1   6  775.90   21.66
  -4   1  -6  731.92   20.68
  -4  -1  -6  769.64   21.53
   4   1  -6  735.08   22.38
   4  -1  -6  732.62   22.24
  -4  -1   6  744.40   25.65
  -4   1   6  749.08   22.12
   4  -1  -7 1141.59   31.37
  -4   1  -7 1144.31   32.88
  -4  -1  -7 1094.24   31.62
  -4  -1   7 1143.88   31.94
  -4   1  -7 1140.06   32.60
  -4  -1  -7 1099.58   30.66
   4   1  -7 1120.18   32.60
   4  -1  -7 1214.59   35.15
  -4  -1   7 1154.39   32.78
  -4   1   7 1128.21   32.54
   4  -1  -8  125.31    4.67
  -4   1  -8  139.46   12.05
  -4  -1  -8  139.05    9.30
  -4  -1   8  129.88    4.03
  -4   1  -8  145.56    7.37
  -4  -1  -8  135.98    7.82
   4   1  -8  115.90    8.07
   4  -1  -8  118.69    8.10
  -4  -1   8  121.59    8.87
  -4   1   8  119.29    6.59
   4   1  -9  726.82   21.26
   4  -1  -9  759.90   22.14
  -4   1  -9  780.52   24.67
  -4  -1  -9  735.07   23.31
  -4   1  -9  724.13   21.97
  -4  -1  -9  733.29   22.30
   4   1  -9  714.18   23.30
   4  -1  -9  708.91   33.26
  -4  -1   9  724.03   22.04
  -4   1   9  719.44   27.41
   4  -1   9  748.62   21.95
   4   1 -10   95.49    6.62
   4  -1 -10   73.69    4.31
  -4   1 -10   79.97    7.03
  -4  -1 -10   88.78   29.50
  -4   1 -10   70.75    5.25
  -4  -1 -10   90.48    7.41
   4   1 -10   81.01   30.11
   4  -1 -10   94.30   35.08
  -4  -1  10   73.50    7.71
  -4   1  10   72.27   14.81
   4  -1  10   76.28    3.56
   4   1 -11   36.29   10.22
   4  -1 -11   41.30    4.41
  -4   1 -11   48.00   14.21
  -4  -1 -11   46.17   13.55
  -4   1 -11   41.82   10.01
  -4  -1 -11   51.78   15.83
   4   1 -11   37.36    9.83
   4  -1 -11   48.51   11.51
  -4  -1  11   38.14   10.36
  -4   1  11   38.06   11.82
   4   1  11   46.73   11.78
   4   1 -12  268.78   18.10
   4  -1 -12  236.24   15.96
  -4   1 -12  250.77   12.78
  -4  -1 -12  262.02   13.97
  -4   1 -12  258.73   22.72
  -4  -1 -12  281.63   12.98
   4   1 -12  261.78   16.34
   4  -1 -12  233.57   15.46
  -4  -1  12  238.21   18.03
  -4   1  12  243.10   11.66
   4  -1  12  265.48    9.98
   4   1  12  256.48   12.17
   4   1 -13   62.28    7.68
   4  -1 -13   59.75   11.34
  -4   1 -13   62.52   21.91
  -4  -1 -13   59.58   20.06
  -4   1 -13   55.63   10.03
  -4  -1 -13   61.65    7.71
   4   1 -13   50.56   18.57
   4  -1 -13   58.73   24.23
  -4  -1  13   65.43   18.30
  -4   1  13   57.35   16.45
   4  -1  13   77.14    4.54
   4   1  13  107.76    9.08
   4   1 -14   29.52    4.05
   4  -1 -14   23.42    5.13
  -4   1 -14   30.58   10.19
  -4  -1 -14   16.12    5.65
  -4   1 -14   28.02    9.12
  -4  -1 -14   12.89    6.09
   4   1 -14   16.65    7.10
   4  -1 -14    8.99    8.87
  -4  -1  14   31.18    7.24
  -4   1  14   27.16    5.96
   4   1  14   21.70    4.80
   4   1 -15   27.03   13.81
   4  -1 -15   44.11   14.09
  -4   1 -15   49.25   14.78
  -4  -1 -15   27.54    8.73
  -4   1 -15   43.41   14.40
  -4  -1 -15   35.91    9.15
   4   1 -15   49.37   13.55
   4  -1 -15   56.32    9.84
  -4  -1  15   46.34   13.20
  -4   1  15   48.65   10.10
   4   1  15   57.86    7.18
   4   1 -16  138.96    8.10
   4  -1 -16  146.23   14.29
  -4   1 -16  141.60   12.86
  -4  -1 -16  109.69   32.14
  -4   1 -16  147.45   10.04
  -4  -1 -16  127.06    8.44
   4   1 -16  135.36   19.24
   4  -1 -16  190.32   25.13
  -4  -1  16  140.99   14.99
  -4   1  16  158.00   16.22
   4   1 -17   12.44    3.79
  -4   1 -17   24.40    7.84
  -4  -1 -17   29.86    7.71
  -4   1 -17    5.29    3.98
  -4  -1 -17   18.69    6.44
   4   1 -17   20.85    9.86
   4  -1 -17    8.02    5.38
  -4  -1  17   15.27    6.27
  -4   1  17   11.67    4.31
  -4   1 -18   42.34   15.29
  -4  -1 -18   37.22    9.91
  -4   1 -18   27.92   19.25
  -4  -1 -18   23.36    8.98
   4   1 -18   51.19   10.54
   4  -1 -18   20.20    7.00
  -4  -1  18   45.14    7.85
  -4   1  18   31.39    7.96
  -4   1 -19   57.83   26.90
  -4  -1 -19   66.91   24.80
  -4   1 -19   36.01   28.78
  -4  -1 -19   56.04   26.29
   4   1 -19   37.47   15.88
   4  -1 -19   54.55   23.07
  -4   1  19   80.81   19.13
  -4   1 -20    8.04    5.79
  -4  -1 -20   16.42    5.63
  -4   1 -20   12.99    7.73
  -4  -1 -20   14.98    9.25
   4   1 -20   15.72   11.19
   4  -1 -20   16.11   10.45
  -4   2   0   54.23    5.70
  -4  -2   0   49.35    4.13
   4   2   0   56.33    2.35
  -4  -2   0   55.32    2.08
  -4   2   0   57.85   10.00
  -4   2   1  438.63   14.62
  -4   2  -1  504.02   18.92
   4  -2  -1  470.10   15.59
  -4  -2  -1  471.39   16.64
  -4  -2   1  463.80   16.15
  -4   2  -1  541.33   18.34
   4   2   1  500.27   16.82
   4   2  -1  453.29   15.52
  -4  -2  -1  475.72   15.62
  -4   2  -1  491.70   20.61
  -4   2   1  466.92   19.70
  -4   2  -2   41.51    3.23
   4  -2  -2   41.62    2.62
  -4  -2  -2   38.69    3.70
  -4  -2   2   43.76    3.54
   4  -2  -2   43.68    1.99
  -4   2  -2   43.47    2.62
  -4  -2  -2   33.56    1.72
   4   2  -2   31.88   10.20
  -4   2   2   33.00   11.26
  -4   2  -3  711.25   13.58
  -4  -2  -3  730.34   14.50
  -4  -2   3  751.98   13.59
  -4  -2  -3  750.81   12.18
  -4   2  -3  752.85   13.26
   4   2  -3  703.92   13.62
  -4   2   3  714.25   14.23
  -4   2  -4  901.40   16.83
  -4  -2  -4  855.45   16.37
  -4  -2   4  890.44   15.62
  -4   2  -4  892.76   15.61
   4   2  -4  865.76   16.71
  -4   2   4  871.24   16.66
   4  -2  -5  692.43   18.61
  -4   2  -5  686.87   20.40
  -4  -2  -5  726.04   21.58
  -4   2   5  735.72   19.82
  -4  -2   5  644.49   18.30
  -4   2  -5  677.19   19.23
   4   2  -5  707.28   21.54
  -4  -2  -5  700.80   20.01
  -4   2   5  690.20   20.35
   4  -2  -6  744.51   20.38
  -4   2  -6  746.56   22.15
  -4  -2  -6  776.20   23.08
  -4   2   6  826.33   22.44
  -4  -2   6  721.96   20.62
  -4   2  -6  726.16   20.77
   4   2  -6  779.62   23.76
  -4  -2  -6  776.74   21.99
   4  -2  -6  700.86   21.39
  -4   2   6  766.63   22.64
   4  -2  -7 1006.98   27.39
  -4   2  -7  979.88   28.45
  -4  -2  -7 1094.11   31.94
  -4  -2   7 1036.87   29.41
  -4   2  -7  974.74   27.82
   4   2  -7 1089.84   37.46
  -4  -2  -7 1091.87   32.28
   4  -2  -7  971.54   28.67
  -4   2   7 1094.58   31.58
   4  -2  -8  717.63   20.55
  -4   2  -8  753.45   23.38
  -4  -2  -8  795.55   24.96
  -4  -2   8  731.30   21.58
  -4   2  -8  780.73   24.01
   4   2  -8  775.07   24.44
  -4  -2  -8  800.12   24.01
   4  -2  -8  703.92   24.79
  -4  -2   8  731.86   22.08
  -4   2   8  746.93   23.07
   4  -2  -9  319.58    4.85
  -4   2  -9  325.46    9.16
  -4  -2  -9  324.33   10.66
  -4  -2   9  330.84    6.52
  -4   2  -9  332.32    7.60
   4   2  -9  312.84   12.44
  -4  -2  -9  325.37    7.47
   4  -2  -9  328.90   11.87
  -4  -2   9  330.04    7.40
  -4   2   9  312.26    8.42
   4  -2   9  316.96    4.87
   4  -2 -10   34.98    7.99
  -4   2 -10   37.79   18.47
  -4  -2 -10   58.31    8.95
  -4  -2  10   34.25   11.71
  -4   2 -10   49.13    7.24
   4   2 -10   48.92   17.19
  -4  -2 -10   50.60   14.37
   4  -2 -10   49.88   13.18
  -4  -2  10   35.16   11.65
  -4   2  10   38.71   11.00
   4  -2  10   42.05    2.72
   4  -2 -11  416.04   12.14
  -4   2 -11  409.34   14.91
  -4  -2 -11  356.70   13.17
  -4   2 -11  395.19   13.60
   4   2 -11  408.60   15.83
  -4  -2 -11  370.87   12.50
   4  -2 -11  405.96   16.75
  -4  -2  11  416.79   17.68
  -4   2  11  403.83   14.19
   4  -2  11  375.92   10.00
   4   2  11  386.69   12.37
   4   2 -12   93.88    6.46
   4  -2 -12   93.80    8.41
  -4   2 -12   67.38   24.81
  -4  -2 -12   81.62   25.31
  -4   2 -12   79.29   26.00
   4   2 -12   98.07   26.01
  -4  -2 -12  125.32    9.15
   4  -2 -12   89.76   30.15
  -4  -2  12   84.66   15.21
  -4   2  12  109.45   15.92
   4  -2  12   83.35    4.50
   4   2  12   70.04    8.50
   4   2 -13   91.12    7.52
   4  -2 -13   91.67    8.61
  -4   2 -13  103.59   16.87
  -4  -2 -13   92.48   23.76
  -4   2 -13   92.02   29.99
   4   2 -13  100.11   13.36
  -4  -2 -13  104.11   13.23
   4  -2 -13  109.44   38.84
  -4  -2  13   97.09    7.36
  -4   2  13   87.96    8.50
   4   2  13   93.15    5.43
   4   2 -14   20.91    7.37
  -4   2 -14   11.29    7.72
  -4  -2 -14   20.55    7.63
  -4   2 -14    7.14    5.40
   4   2 -14   14.43   15.30
  -4  -2 -14    6.56    4.75
   4  -2 -14   11.14    7.94
  -4  -2  14   18.63    5.69
  -4   2  14   14.01    5.95
   4   2  14   19.93    6.44
   4   2 -15   69.43    7.86
   4  -2 -15   59.71   10.90
  -4   2 -15   71.64   20.10
  -4  -2 -15   85.26   12.07
  -4   2 -15   64.06   18.49
   4   2 -15   75.29   10.61
  -4  -2 -15   79.66   26.29
   4  -2 -15   70.97   39.23
  -4  -2  15   69.37    6.58
  -4   2  15   81.53    7.93
   4   2  15   57.94    8.36
   4   2 -16  141.37   14.22
  -4   2 -16  154.39   39.39
  -4  -2 -16  184.76   25.29
  -4   2 -16  125.59   22.68
   4   2 -16  123.25   14.71
  -4  -2 -16  133.12    7.94
   4  -2 -16  138.88   20.15
  -4  -2  16  132.11    7.69
  -4   2  16  144.94   13.50
   4   2  16  132.95   14.84
   4   2 -17   81.14   15.50
  -4   2 -17  102.84   14.95
  -4  -2 -17  100.92   26.58
  -4   2 -17  102.29   19.81
   4   2 -17  101.59   37.45
  -4  -2 -17   96.34   17.01
   4  -2 -17   91.37   10.53
  -4  -2  17   90.00    6.14
  -4   2  17   96.59   11.05
  -4   2 -18    5.62    3.79
  -4  -2 -18    6.41    5.29
  -4   2 -18    7.61    6.65
   4   2 -18    1.04    4.92
  -4  -2 -18   -2.31    5.50
   4  -2 -18    4.27    4.20
  -4   2  18    4.45    5.04
  -4   2 -19   94.68   18.54
  -4  -2 -19   99.07   30.58
  -4   2 -19   97.70   17.28
   4   2 -19   84.39   10.82
  -4  -2 -19  103.41   15.84
   4  -2 -19   90.08   39.22
  -4   2  19   96.52   15.17
  -4   2 -20   28.22   12.42
  -4  -2 -20   18.57   12.13
  -4   2 -20   26.15    7.77
   4   2 -20   37.90   13.46
  -4  -2 -20   24.77   11.69
   4  -2 -20   23.94   12.98
  -4   2  20   17.83   10.28
  -4   3   0 1177.48   20.07
  -4  -3   0 1210.22   21.36
  -4   3   0 1179.21   20.56
   4   3   0 1171.94   19.56
  -4   3   0 1168.13   20.32
  -4   3  -1  861.93   15.42
  -4  -3   1  819.17   15.49
  -4   3  -1  826.05   14.99
   4   3   1  851.30   14.55
  -4   3  -1  868.20   15.81
  -4   3   1  944.29   17.09
  -4   3  -2  119.89    3.84
  -4  -3  -2  149.11    8.25
  -4  -3   2  109.58    4.65
   4  -3  -2  113.43    4.23
   4   3   2  115.26    2.28
  -4   3  -2  112.03    5.01
  -4   3  -2  114.40    3.57
   4  -3  -3 1194.68   19.33
  -4   3  -3 1244.49   21.85
  -4  -3  -3 1216.30   22.24
   4  -3  -3 1255.47   20.51
  -4  -3   3 1207.01   21.14
  -4   3  -3 1238.69   21.20
   4   3  -3 1216.52   24.69
  -4   3  -3 1238.32   20.93
  -4   3   3 1241.82   22.39
  -4   3  -4  106.10    4.64
  -4  -3  -4   82.90    6.86
   4  -3  -4  103.15    2.22
  -4  -3   4  105.38    4.17
  -4   3  -4   98.33    3.53
   4   3  -4   98.92   16.39
  -4   3   4   92.87   10.38
  -4   3  -5  145.12   10.32
   4  -3  -5  122.31    7.93
  -4  -3  -5  143.54   14.53
  -4   3   5  126.74    8.39
  -4  -3   5  125.57    8.73
  -4   3  -5  140.64    9.61
   4   3  -5  130.07   10.62
   4  -3   5  142.62    8.92
  -4   3   5  114.90    8.37
  -4   3  -6 1592.43   45.04
   4  -3  -6 1585.54   42.70
  -4  -3  -6 1623.34   46.24
  -4  -3   6 1581.20   43.50
  -4   3  -6 1600.65   45.01
   4   3  -6 1570.43   44.47
  -4  -3  -6 1637.78   44.60
   4  -3   6 1643.03   44.04
  -4   3   6 1581.85   45.54
  -4   3  -7   37.96   13.70
   4  -3  -7   35.26    3.81
  -4  -3  -7   54.43    8.07
  -4  -3   7   42.31   10.56
  -4   3  -7   36.98   12.65
   4   3  -7   34.03   12.58
  -4  -3  -7   41.66   12.68
   4  -3   7   40.61    3.43
  -4   3   7   31.69   10.89
  -4   3  -8   15.72    6.33
   4  -3  -8   12.02    3.92
  -4  -3  -8   15.39    9.34
  -4  -3   8   13.08    4.48
  -4   3  -8   21.18    5.97
   4   3  -8   14.46   10.04
  -4  -3  -8   23.79    6.11
   4  -3  -8   10.65    6.62
   4  -3   8   19.59    1.47
  -4   3   8   13.44    3.06
   4  -3   8   18.06    0.98
  -4   3  -9   35.64   12.51
   4  -3  -9   36.12    4.03
  -4  -3  -9   50.72   18.67
  -4  -3   9   34.58   11.70
  -4   3  -9   37.42    9.91
   4   3  -9   29.86   14.04
  -4  -3  -9   49.05    5.15
   4  -3  -9   36.85   10.53
  -4   3   9   45.94    6.68
  -4   3 -10  297.32   12.40
   4  -3 -10  295.94    8.87
  -4  -3 -10  301.87   22.37
  -4  -3  10  284.69    9.92
  -4   3 -10  272.76   15.40
   4   3 -10  332.71   16.94
  -4  -3 -10  309.37   10.92
   4  -3 -10  295.07   14.47
  -4   3  10  301.18   12.18
  -4   3 -11  275.44   11.70
   4  -3 -11  258.53    8.44
  -4  -3 -11  266.13   12.33
  -4  -3  11  261.91    9.37
  -4   3 -11  263.28   14.03
   4   3 -11  266.19   18.46
  -4  -3 -11  276.46   14.51
   4  -3 -11  240.48   12.91
  -4   3  11  252.49   11.09
   4   3  11  262.36   10.44
  -4   3 -12   28.30   10.82
   4  -3 -12   34.31    4.44
  -4  -3 -12   27.14    9.30
  -4  -3  12   25.83    9.02
  -4   3 -12   33.03    9.80
   4   3 -12   26.03    8.97
  -4  -3 -12   28.63    7.19
   4  -3 -12   28.35   10.84
  -4   3  12   31.09    8.45
   4   3  12   32.05   10.48
  -4   3 -13  279.12   18.62
   4  -3 -13  261.38   19.02
  -4  -3 -13  292.35   21.76
  -4  -3  13  241.01   16.57
  -4   3 -13  280.88   19.05
   4   3 -13  239.33   37.16
  -4  -3 -13  293.87   18.81
   4  -3 -13  232.89   18.63
  -4   3  13  276.90   23.36
   4   3  13  268.21   16.68
  -4   3 -14   44.01   20.25
   4  -3 -14   35.84   11.92
  -4  -3 -14   41.49   13.45
  -4  -3  14   34.12   10.49
  -4   3 -14   37.55   10.53
   4   3 -14   31.14   13.77
  -4  -3 -14   54.78    8.35
   4  -3 -14   35.85   16.36
  -4   3  14   38.71   11.85
   4   3  14   47.51    5.30
  -4   3 -15  237.78   19.94
   4  -3 -15  267.12   21.67
  -4  -3 -15  245.28   19.61
  -4  -3  15  256.76   19.46
  -4   3 -15  257.44   19.94
   4   3 -15  244.22   23.14
  -4  -3 -15  259.45   20.45
   4  -3 -15  256.47   28.48
  -4   3  15  248.31   21.18
   4   3  15  275.05   20.43
  -4   3 -16   15.02    6.80
  -4  -3 -16   13.82    6.23
  -4  -3  16    7.83    5.97
  -4   3 -16   15.75   10.07
   4   3 -16   11.84    6.44
  -4  -3 -16   14.32    8.36
   4  -3 -16   11.22    7.36
  -4   3  16   20.06    6.44
   4   3  16    9.63    3.51
  -4   3 -17   70.37   15.55
  -4  -3 -17   61.47   12.96
  -4  -3  17   56.15   21.40
  -4   3 -17   57.03   21.24
   4   3 -17   58.33   15.41
  -4  -3 -17   73.68    9.15
   4  -3 -17   61.93   25.86
  -4   3  17   67.38   16.49
  -4   3 -18   89.23    7.84
  -4  -3 -18  116.12   22.98
  -4  -3  18   69.83   25.64
  -4   3 -18   77.72   26.58
   4   3 -18   91.08   33.90
  -4  -3 -18   86.53    6.81
   4  -3 -18   86.33   28.65
  -4   3  18   93.52   10.49
  -4   3 -19    9.22    5.03
  -4  -3 -19   20.12    7.21
  -4   3 -19   14.26    6.15
   4   3 -19    1.60   10.73
  -4  -3 -19   21.85    8.18
   4  -3 -19   17.96   11.69
  -4   3  19   15.47    5.71
  -4   3 -20    4.95    4.57
  -4  -3 -20   14.58    6.36
  -4   3 -20    5.89    9.20
   4   3 -20    2.51    9.32
  -4  -3 -20    7.80    4.13
   4  -3 -20   38.38   14.86
  -4   3  20    7.96    4.64
  -4  -4   0  187.54   12.75
   4  -4   0  190.51   12.35
  -4   4   0  196.18    8.19
   4   4   0  192.53    7.58
  -4   4   0  190.09   14.66
  -4   4  -1 3737.96   60.81
  -4  -4  -1 3900.78  235.16
  -4  -4   1 3891.77  234.37
   4  -4  -1 3849.99  231.57
  -4   4   1 4077.43  245.63
  -4   4  -1 3765.08   61.15
   4   4   1 3831.41   60.98
   4   4  -1 3891.15  234.07
  -4   4  -1 3786.91   60.96
  -4   4   1 3991.33  240.34
  -4   4  -2 2138.01   35.66
  -4  -4  -2 2433.07   40.93
  -4  -4   2 2172.99   36.36
   4  -4  -2 2227.73   36.02
   4   4   2 2253.88   37.27
  -4   4  -2 2246.92   37.78
   4   4  -2 2307.21   38.09
  -4   4  -2 2240.02   36.71
  -4   4   2 2325.90   40.22
  -4   4  -3  101.44    7.75
  -4  -4  -3   82.81   17.56
   4  -4  -3   92.41    7.37
  -4  -4   3   96.62    7.61
   4   4   3   92.89    7.68
  -4   4  -3  100.55    7.34
   4   4  -3   77.53   10.17
  -4   4  -3   92.83    6.40
  -4   4   3   72.17    6.02
  -4   4  -4  310.83    7.13
  -4  -4  -4  318.14    8.47
   4  -4  -4  313.19    6.22
  -4  -4   4  310.05    6.89
  -4   4  -4  291.10    6.28
   4   4  -4  302.30   13.10
  -4   4  -4  297.56    4.32
  -4   4   4  316.22    7.87
  -4   4  -5  156.55   10.88
  -4  -4  -5  178.81   13.53
   4  -4  -5  157.55   10.70
  -4  -4   5  160.01   11.12
  -4   4  -5  153.68   14.48
   4   4  -5  159.35   12.08
  -4   4   5  156.76   15.09
   4  -4   5  167.98    3.36
  -4   4  -6  232.08    6.32
   4  -4  -6  255.96    6.03
  -4  -4  -6  272.61   17.89
  -4  -4   6  254.10    6.48
  -4   4  -6  286.43    7.47
   4   4  -6  256.92   17.78
  -4   4   6  274.04    8.30
   4  -4   6  262.02    2.79
  -4   4  -7  452.47   15.07
   4  -4  -7  464.83   13.61
  -4  -4  -7  476.11   16.77
  -4  -4   7  419.48   14.56
  -4   4  -7  450.33   14.51
   4   4  -7  488.21   17.09
  -4   4   7  471.57   15.82
  -4   4  -8   31.84   13.82
   4  -4  -8   30.89    2.61
  -4  -4  -8   34.53    8.53
  -4  -4   8   31.95    5.52
  -4   4  -8   29.59   10.83
   4   4  -8   20.93    6.04
  -4  -4  -8   32.29    6.43
  -4   4   8   30.16   13.80
  -4   4  -9  161.10   11.55
   4  -4  -9  142.27    8.26
  -4  -4  -9  122.73   11.30
  -4  -4   9  144.22   11.06
  -4   4  -9  140.33   14.60
   4   4  -9  130.46   35.99
  -4  -4  -9  127.22    8.78
  -4   4   9  118.03    9.78
  -4   4 -10  438.52   15.36
   4  -4 -10  441.27   14.90
  -4  -4 -10  418.07   15.91
  -4  -4  10  438.44   13.87
  -4   4 -10  448.84   15.17
   4   4 -10  420.52   33.03
  -4  -4 -10  413.72   13.69
   4  -4 -10  449.82   17.31
  -4   4  10  445.71   15.33
  -4   4 -11  309.65   18.50
   4  -4 -11  320.25   13.83
  -4  -4 -11  317.15   21.01
  -4  -4  11  306.89   12.97
  -4   4 -11  330.73   26.52
   4   4 -11  335.25   40.36
  -4  -4 -11  319.11   19.28
   4  -4 -11  340.30   18.43
  -4   4  11  353.99   15.29
  -4   4 -12   43.75   10.34
   4  -4 -12   44.66   11.09
  -4  -4 -12   39.00    7.72
  -4  -4  12   30.57   10.29
  -4   4 -12   39.56   11.24
   4   4 -12   29.29   11.77
  -4  -4 -12   40.16   12.51
   4  -4 -12   48.23   12.23
  -4   4  12   32.97    8.47
   4   4  12   40.73   12.75
  -4   4 -13  287.15   18.99
   4  -4 -13  247.38   19.30
  -4  -4 -13  252.39   27.84
  -4  -4  13  267.74   16.94
  -4   4 -13  264.72   17.67
   4   4 -13  225.86   16.05
  -4  -4 -13  226.92   15.64
   4  -4 -13  252.12   38.69
  -4   4  13  232.26   19.82
   4   4  13  248.42   19.93
  -4   4 -14  357.27   17.45
   4  -4 -14  339.61    7.55
  -4  -4 -14  392.24   12.34
  -4  -4  14  339.15   10.18
  -4   4 -14  340.64   11.26
   4   4 -14  342.09   15.35
  -4  -4 -14  363.18   12.57
   4  -4 -14  340.49   14.89
  -4   4  14  360.53   10.92
   4   4  14  340.85   10.33
  -4   4 -15    4.36    3.10
  -4  -4 -15   -0.09    6.05
  -4  -4  15   -0.15    3.11
  -4   4 -15   -0.01    5.26
   4   4 -15    3.00    4.57
  -4  -4 -15    1.89    4.14
   4  -4 -15    8.56    8.41
   4   4  15    4.17    5.42
  -4   4 -16   45.13   20.36
  -4  -4 -16   52.65    7.44
  -4  -4  16   66.44   22.99
  -4   4 -16   42.01   14.17
   4   4 -16   66.12    9.69
  -4  -4 -16   64.16    6.88
   4  -4 -16   86.56   20.89
  -4   4  16   70.65   19.55
   4   4  16   52.86    6.60
  -4   4 -17   40.38   12.07
  -4  -4 -17   41.10   19.70
  -4  -4  17   39.30   14.13
  -4   4 -17   26.75   11.89
   4   4 -17   45.25   13.59
  -4  -4 -17   35.68    8.78
   4  -4 -17   34.74    9.59
  -4   4  17   34.23    9.28
   4   4  17   50.40    6.29
  -4   4 -18   29.11   17.28
  -4  -4 -18    8.99    5.32
  -4  -4  18   19.35    5.47
  -4   4 -18   19.85   10.18
   4   4 -18   20.11   10.56
  -4  -4 -18   24.42   10.15
   4  -4 -18   28.47   12.55
  -4   4  18   23.29    9.71
  -4   4 -19    9.04   11.94
  -4  -4 -19    6.98    5.01
  -4   4 -19    7.25    5.15
   4   4 -19    8.79    7.62
  -4  -4 -19   18.53    5.63
   4  -4 -19    7.56    8.27
  -4   4  19    4.96    3.35
  -4   4 -20    9.25    5.41
  -4  -4 -20   14.04    7.64
  -4   4 -20    7.66    5.76
   4   4 -20   11.53    8.20
  -4  -4 -20    4.50    6.07
   4  -4 -20   -3.20   11.02
  -4   4  20    4.91    5.43
  -4  -5   0 2906.54   19.21
   4  -5   0 2923.80   16.56
  -4   5   0 2750.75   75.43
   4   5   0 2837.84   76.94
  -4   5   0 2821.25   76.95
  -4  -5  -1  470.28    9.18
  -4  -5   1  423.42    8.61
   4  -5  -1  413.85    6.62
   4  -5   1  473.86   12.30
  -4   5   1  468.52    8.40
  -4   5  -1  434.37    7.89
   4   5   1  445.70    6.81
   4   5  -1  460.61    7.64
  -4   5  -1  420.26    6.78
  -4   5   1  445.57   10.09
  -4   5  -2  648.76   19.14
  -4  -5  -2  628.78   19.57
  -4  -5   2  640.27   19.22
   4  -5  -2  672.24   20.38
   4   5   2  638.15   18.21
  -4   5  -2  610.98    8.29
   4   5  -2  642.60   18.90
  -4   5  -2  640.97   18.27
  -4   5   2  657.39   19.78
  -4   5  -3  407.18   10.03
  -4  -5  -3  365.36    8.06
   4  -5  -3  402.59    6.11
  -4  -5   3  408.43    8.51
   4   5   3  424.98    7.95
  -4   5  -3  403.40    7.57
   4   5  -3  377.27    7.03
  -4   5  -3  406.72    5.80
  -4   5   3  376.72    8.08
  -4   5  -4 1237.34   35.14
  -4  -5  -4 1128.89   32.76
   4  -5  -4 1209.12   33.31
  -4  -5   4 1205.90   34.32
  -4   5  -4 1294.28   36.75
   4   5  -4 1161.49   33.70
  -4   5  -4 1260.71   34.29
  -4   5   4 1100.82   34.06
  -4   5  -5  871.06   25.65
  -4  -5  -5  922.23   27.59
   4  -5  -5  914.72   25.44
  -4  -5   5  901.00   31.83
  -4   5  -5  870.70   25.48
   4   5  -5  924.00   27.40
  -4   5   5  902.61   26.91
  -4   5  -6  444.87   15.08
  -4  -5  -6  517.09   18.10
   4  -5  -6  439.24   13.17
  -4  -5   6  437.37   14.48
  -4   5  -6  449.22   14.81
   4   5  -6  448.90   15.10
  -4   5   6  476.67   16.21
  -4   5  -7  369.36    9.44
   4  -5  -7  340.08    5.12
  -4  -5  -7  311.40    8.58
  -4  -5   7  340.83    7.37
  -4   5  -7  369.45   12.44
   4   5  -7  322.67   10.41
  -4   5   7  310.91    8.48
  -4   5  -8  314.37   21.75
   4  -5  -8  313.20    6.97
  -4  -5  -8  258.86   15.37
  -4  -5   8  299.94    7.77
  -4   5  -8  294.80   16.55
   4   5  -8  294.66   18.46
  -4   5   8  281.09   17.19
  -4   5  -9   58.95   23.02
   4  -5  -9   56.06    9.21
  -4  -5  -9   69.13   29.21
  -4  -5   9   62.09   13.39
  -4   5  -9   49.77   21.63
   4   5  -9   80.00   25.85
  -4  -5  -9   76.97   11.87
  -4   5   9   78.46    8.45
  -4   5 -10   63.48   21.50
   4  -5 -10   58.59    4.68
  -4  -5 -10   46.72    9.63
  -4  -5  10   64.20   19.25
  -4   5 -10   70.35   19.79
   4   5 -10   45.04   10.69
  -4  -5 -10   46.80    5.77
  -4   5  10   40.85   17.52
  -4   5 -11  197.62   20.11
   4  -5 -11  202.96   16.00
  -4  -5 -11  208.95    9.97
  -4  -5  11  251.85   11.93
  -4   5 -11  229.19   11.81
   4   5 -11  206.91   13.70
  -4  -5 -11  242.78   11.36
   4  -5 -11  231.17   14.89
  -4   5  11  204.87   10.30
  -4   5 -12  353.13   21.62
   4  -5 -12  369.12   22.22
  -4  -5 -12  362.13   28.88
  -4  -5  12  372.64   22.90
  -4   5 -12  419.94   25.82
   4   5 -12  363.43   36.20
  -4  -5 -12  345.69   21.59
   4  -5 -12  379.95   25.51
  -4   5  12  375.22   23.11
   4   5  12  358.88   29.53
  -4   5 -13   21.81    7.02
   4  -5 -13   19.95    9.26
  -4  -5 -13   18.07    7.48
  -4  -5  13   30.84   12.53
  -4   5 -13   10.67    7.44
   4   5 -13   28.10   16.40
  -4  -5 -13   17.68   10.24
   4  -5 -13   12.66    8.13
  -4   5  13   15.51    4.99
   4   5  13   19.13    7.59
  -4   5 -14   36.86   12.36
   4  -5 -14   30.81    9.26
  -4  -5 -14   23.36   11.13
  -4  -5  14   39.96   14.79
  -4   5 -14   39.50   10.92
   4   5 -14   19.57   16.86
  -4  -5 -14   28.96   12.49
   4  -5 -14   26.00   13.50
  -4   5  14   31.41   10.11
   4   5  14   33.32    6.87
  -4   5 -15   72.32   25.56
  -4  -5 -15   69.50    9.83
  -4  -5  15   52.07   18.84
  -4   5 -15   74.57    7.94
   4   5 -15   54.93   16.19
  -4  -5 -15   55.42   14.52
   4  -5 -15   57.60   27.77
  -4   5  15   62.59   19.99
   4   5  15   61.83   10.07
  -4   5 -16   65.01   18.15
  -4  -5 -16   71.94   17.84
  -4  -5  16   63.80   22.38
  -4   5 -16   65.77   20.99
   4   5 -16   75.18   23.36
  -4  -5 -16   82.88    9.92
   4  -5 -16   74.03   21.13
  -4   5  16   94.15   29.37
   4   5  16   93.52   16.34
  -4   5 -17  159.78   19.12
  -4  -5 -17  152.45   12.88
  -4  -5  17  124.69   13.61
  -4   5 -17  128.61    7.97
   4   5 -17  155.30   25.98
  -4  -5 -17  171.46    9.53
   4  -5 -17  132.75   44.15
  -4   5  17  155.71   15.09
   4   5  17  154.63    8.06
  -4   5 -18   31.25   17.76
  -4  -5 -18   39.52   16.02
  -4  -5  18   29.47   14.28
  -4   5 -18   30.71   12.44
   4   5 -18   36.98   21.59
  -4  -5 -18   29.80   13.67
   4  -5 -18   37.25   14.26
  -4   5  18   35.74    9.28
   4   5  18   18.40   10.77
  -4   5 -19   22.08   10.12
  -4  -5 -19   20.34    8.87
  -4   5 -19   25.64    8.12
   4   5 -19    7.76    8.10
  -4  -5 -19   16.40    8.21
   4  -5 -19   28.47   14.68
  -4   5  19   15.46    4.89
  -4  -6   0  139.32    9.87
   4  -6   0  137.24    9.35
  -4   6   0  126.77    9.09
   4   6   0  154.16   11.74
  -4   6   0  151.51   10.69
  -4  -6  -1  153.54   12.72
  -4  -6   1  165.78    7.10
   4  -6  -1  158.00   16.44
   4  -6   1  154.09   10.71
  -4   6   1  140.83    9.79
  -4   6  -1  165.32    6.90
   4   6   1  165.51    5.01
   4   6  -1  138.50    9.78
  -4   6  -1  159.43   10.68
  -4   6   1  154.80   14.04
  -4  -6  -2   82.26    8.67
  -4  -6   2   91.25    8.82
   4  -6  -2   87.39    6.92
   4  -6   2  103.31   13.73
  -4   6   2   73.70    7.04
   4   6   2   83.29    6.27
  -4   6  -2   93.41    9.38
   4   6  -2   85.35    7.07
  -4   6  -2   92.52    6.78
  -4   6   2   86.54   12.04
  -4  -6  -3   88.24   14.06
   4  -6  -3  107.47    9.61
  -4  -6   3  108.30   12.43
   4  -6   3   90.15    7.75
   4   6   3  100.41    7.25
  -4   6  -3   97.71    8.21
   4   6  -3   92.06    7.73
  -4   6  -3   90.05    7.52
  -4   6   3  104.99   10.98
  -4   6  -4 1372.22   40.71
  -4  -6  -4 1231.45   36.65
   4  -6  -4 1368.98   38.80
  -4  -6   4 1335.44   38.91
   4   6   4 1390.02   40.47
  -4   6  -4 1334.72   42.68
   4   6  -4 1301.44   38.37
  -4   6  -4 1361.76   38.16
  -4   6   4 1342.23   39.46
  -4   6  -5    6.39    6.82
  -4  -6  -5    8.57    5.74
   4  -6  -5    9.57    2.97
  -4  -6   5   10.70    3.45
  -4   6  -5    7.17    5.23
   4   6  -5   12.20    6.15
  -4   6   5   13.53    6.60
  -4   6  -6  151.31    7.54
  -4  -6  -6  151.99    9.93
   4  -6  -6  139.21    7.19
  -4  -6   6  128.03    5.53
  -4   6  -6  165.58    6.28
   4   6  -6  135.43   10.90
  -4   6   6  141.42    7.60
  -4   6  -7  233.27   14.98
  -4  -6  -7  228.23   14.08
   4  -6  -7  220.68   11.85
  -4  -6   7  243.26   14.30
  -4   6  -7  237.88   14.02
   4   6  -7  205.38   13.05
  -4   6   7  214.72   21.96
  -4   6  -8  744.10   23.85
   4  -6  -8  752.97   13.18
  -4  -6  -8  715.53   27.44
  -4  -6   8  772.14   16.02
  -4   6  -8  767.35   16.61
   4   6  -8  763.00   18.11
  -4   6   8  740.31   17.03
  -4   6  -9   88.79   10.94
   4  -6  -9   89.68    6.81
  -4  -6  -9   88.11   23.09
  -4  -6   9   77.71    7.86
  -4   6  -9  102.29   10.64
   4   6  -9   76.41   22.66
  -4   6   9   71.11    8.61
  -4   6 -10   32.28   13.86
   4  -6 -10   26.62   10.28
  -4  -6 -10   25.93   15.13
  -4  -6  10   29.76    9.89
  -4   6 -10   21.62    8.52
   4   6 -10   20.69    8.89
  -4  -6 -10   23.54   10.27
  -4   6  10   24.27   14.10
  -4   6 -11   14.80    5.87
  -4  -6 -11   22.34    9.32
  -4  -6  11   15.03    8.59
  -4   6 -11   11.41    6.23
   4   6 -11   14.62    5.33
  -4  -6 -11   21.14    6.43
  -4   6  11   12.89   14.19
  -4   6 -12  160.37   12.46
   4  -6 -12  151.83   16.19
  -4  -6 -12  147.00   15.00
  -4  -6  12  159.84   12.38
  -4   6 -12  149.85   11.24
   4   6 -12  160.90   14.60
  -4  -6 -12  141.56   20.98
   4  -6 -12  162.64   14.78
  -4   6  12  156.68   16.24
   4   6  12  169.87   14.40
  -4   6 -13    3.38    4.28
   4  -6 -13    5.87    2.24
  -4  -6 -13   10.62    5.76
  -4  -6  13    4.63    4.03
  -4   6 -13    7.67    4.24
   4   6 -13   -2.20    8.57
  -4  -6 -13    2.43    5.58
   4  -6 -13    5.45    7.81
  -4   6  13    5.02    3.97
   4   6  13    8.54    4.05
  -4   6 -14   15.45    7.21
  -4  -6 -14   16.07   10.67
  -4  -6  14   22.43   10.86
  -4   6 -14   28.55    6.46
   4   6 -14   22.34   17.50
  -4  -6 -14   24.97    8.53
   4  -6 -14   36.81   13.85
  -4   6  14   33.14    7.83
   4   6  14   17.92    8.07
  -4   6 -15   87.71   11.56
  -4  -6 -15   89.98    9.95
  -4  -6  15   88.86   15.82
  -4   6 -15  100.83   14.93
   4   6 -15   79.19    9.32
  -4  -6 -15   71.50   22.68
   4  -6 -15   90.01   35.81
  -4   6  15   86.34   12.99
   4   6  15   83.65   29.71
  -4   6 -16   78.70   22.07
  -4  -6 -16   96.12   10.82
  -4  -6  16   76.31   14.91
  -4   6 -16   91.90   21.81
   4   6 -16   96.31   14.58
  -4  -6 -16   67.20   23.69
   4  -6 -16   79.31   18.60
  -4   6  16   86.75   22.61
   4   6  16  148.69   18.59
  -4   6 -17   47.46   15.43
  -4  -6 -17   39.07   15.78
  -4  -6  17   44.26    8.60
  -4   6 -17   32.50   13.85
   4   6 -17   44.46   14.99
  -4  -6 -17   29.10   14.84
   4  -6 -17   46.12   19.84
  -4   6  17   39.21   16.66
   4   6  17   25.48   12.08
  -4   6 -18    7.80    7.83
  -4  -6 -18    3.91    5.00
  -4  -6  18    4.16    4.74
  -4   6 -18    2.93    2.50
   4   6 -18   10.30   10.73
  -4  -6 -18    7.89    5.78
   4  -6 -18    0.17    7.29
  -4   6  18   13.55    9.80
   4   6  18    3.63    4.38
  -4   6 -19    3.89    3.91
  -4  -6 -19    3.54    6.85
  -4  -6  19   10.59    6.13
  -4   6 -19    7.26    5.68
   4   6 -19    5.41    9.82
  -4  -6 -19    6.71    5.73
   4  -6 -19    4.85    6.82
  -4   6  19   -0.92    5.73
  -4  -7   0  285.72    8.70
   4  -7   0  300.71    6.74
  -4   7   0  298.26    8.01
   4   7   0  297.66    9.86
  -4   7   0  299.75   11.81
  -4  -7  -1  266.05    8.75
  -4  -7   1  256.96   15.29
   4  -7  -1  259.41    6.62
   4  -7   1  251.09   13.18
  -4   7   1  256.96    7.42
  -4   7  -1  250.74   11.44
   4   7   1  259.60    5.99
   4   7  -1  247.94   13.07
  -4   7  -1  258.60    6.61
  -4   7   1  256.27    6.57
  -4  -7  -2  275.83    8.94
  -4  -7   2  300.19    9.52
   4  -7  -2  291.21   12.43
   4  -7   2  267.61    7.63
  -4   7   2  292.93    8.43
   4   7   2  283.90    9.34
  -4   7  -2  309.20    8.32
   4   7  -2  269.94   13.50
  -4   7  -2  287.77    7.27
  -4   7   2  258.79    7.18
  -4  -7  -3   25.17    8.01
   4  -7  -3   10.73    8.45
  -4  -7   3   19.27    4.34
   4  -7   3   18.91    7.00
   4   7   3   29.06    7.65
  -4   7  -3   24.07    8.19
   4   7  -3   22.37    9.61
  -4   7  -3   22.33    6.43
  -4   7   3   16.46   10.51
   4  -7  -4  398.89    6.83
  -4  -7   4  391.74    8.33
   4  -7   4  410.67   15.34
   4   7   4  437.22   14.09
  -4   7  -4  439.76   15.05
   4   7  -4  446.40   15.16
  -4   7  -4  433.75    5.68
  -4   7   4  403.47   10.84
  -4  -7  -5  403.14   23.13
   4  -7  -5  355.53    8.64
  -4  -7   5  353.79   10.25
   4  -7   5  392.52   10.60
  -4   7  -5  389.44   10.44
   4   7  -5  413.61   12.14
  -4   7  -5  379.06    6.90
  -4   7   5  400.42   21.31
  -4   7  -6   75.30   19.75
  -4  -7  -6   73.25    7.96
   4  -7  -6   67.96    5.64
  -4  -7   6   66.85   14.12
  -4   7  -6   66.89    5.12
   4   7  -6   74.77   14.68
  -4   7   6   78.25    7.92
  -4   7  -7  112.04   11.77
  -4  -7  -7  126.01   21.75
   4  -7  -7  125.76   10.35
  -4  -7   7  106.99   20.26
  -4   7  -7  120.13    9.83
   4   7  -7  129.10   10.64
  -4   7   7  109.45   24.88
  -4   7  -8  125.47   16.77
  -4  -7  -8  139.40   27.62
   4  -7  -8  106.86    8.24
  -4  -7   8  104.17   11.42
  -4   7  -8  104.31    8.63
   4   7  -8  106.88    8.99
  -4   7   8  124.91   22.21
  -4   7  -9    4.00    7.67
   4  -7  -9    7.62    5.62
  -4  -7  -9    8.31    5.62
  -4  -7   9    9.08    3.73
  -4   7  -9    6.60    4.88
   4   7  -9    7.59    4.21
  -4   7   9    4.63    3.00
  -4   7 -10   24.74   15.02
  -4  -7 -10   11.02    6.48
  -4  -7  10   14.66    5.51
  -4   7 -10   29.92    7.89
   4   7 -10   26.30   10.50
  -4   7  10   14.13   12.90
  -4   7 -11  305.45   20.15
   4  -7 -11  290.48   17.53
  -4  -7 -11  291.34   33.08
  -4  -7  11  304.74   19.43
  -4   7 -11  285.63   18.08
   4   7 -11  262.40   21.88
  -4  -7 -11  293.04   18.57
  -4   7  11  289.54   26.51
  -4   7 -12   50.49   13.48
   4  -7 -12   48.13    6.43
  -4  -7 -12   60.32    7.52
  -4  -7  12   44.92   21.88
  -4   7 -12   52.41   13.89
   4   7 -12   54.83   14.24
  -4  -7 -12   62.01   13.57
  -4   7  12   57.35   17.82
   4   7  12   41.46   12.79
  -4   7 -13   14.49   15.63
   4  -7 -13   16.42    7.19
  -4  -7 -13   19.10    6.59
  -4  -7  13   13.59   11.26
  -4   7 -13   11.13    5.90
   4   7 -13   14.59    8.69
  -4  -7 -13   11.07    5.28
   4  -7 -13    8.11    8.80
  -4   7  13   20.76   13.31
   4   7  13   14.28    7.50
  -4   7 -14  222.37   31.29
  -4  -7 -14  219.35   29.22
  -4  -7  14  217.99   10.07
  -4   7 -14  182.71    8.74
   4   7 -14  201.93   22.70
  -4  -7 -14  185.18   18.61
   4  -7 -14  230.78   19.59
  -4   7  14  215.94   24.97
   4   7  14  192.19    9.70
  -4   7 -15    8.62    8.11
  -4  -7 -15    6.61    6.82
  -4  -7  15    5.82    3.77
  -4   7 -15    2.76    4.93
   4   7 -15    2.85    5.93
  -4  -7 -15    3.32    3.64
   4  -7 -15    3.00    8.14
  -4   7  15   -1.64    4.90
   4   7  15    5.22    4.09
  -4   7 -16  124.05   16.57
  -4  -7 -16  118.70   15.47
  -4  -7  16  127.82   19.12
  -4   7 -16  119.39   24.00
   4   7 -16  134.46   10.06
  -4  -7 -16  131.06   28.92
   4  -7 -16  122.48   12.82
  -4   7  16  124.29   13.58
   4   7  16  124.33   20.47
  -4   7 -17   41.45   13.57
  -4  -7 -17   40.21   21.05
  -4  -7  17   47.47   12.78
  -4   7 -17   35.45   13.28
   4   7 -17   42.37   25.85
  -4  -7 -17   54.02   17.53
   4  -7 -17   49.73   16.55
  -4   7  17   38.72    6.88
   4   7  17   43.51   11.13
  -4   7 -18   22.64   10.61
  -4  -7 -18   10.81    7.24
  -4  -7  18   20.92   11.22
  -4   7 -18   21.59   10.44
   4   7 -18   23.36   10.78
  -4  -7 -18   15.83    5.30
   4  -7 -18   17.47   12.88
  -4   7  18   32.49   10.17
   4   7  18   20.88   14.54
  -4  -8   0   86.36   27.52
   4  -8   0   80.66    9.71
  -4   8   0   79.06   10.00
   4   8   0   75.64    4.08
  -4   8   0   79.41    4.63
  -4  -8  -1  382.57   10.04
  -4  -8   1  379.63   11.11
   4  -8  -1  399.40   16.61
   4  -8   1  388.12    9.02
  -4   8   1  389.00   10.37
  -4   8  -1  390.93    8.62
   4   8   1  405.15    8.13
   4   8  -1  391.92    7.82
  -4   8  -1  409.35    7.40
  -4   8   1  391.86    8.26
  -4  -8  -2  968.42   30.02
  -4  -8   2  997.33   31.58
   4  -8  -2 1005.98   30.96
   4  -8   2 1001.06   30.21
  -4   8   2 1020.34   31.22
   4   8   2  984.86   30.03
  -4   8  -2  983.34   29.86
   4   8  -2 1024.25   38.58
  -4   8  -2  998.80   30.06
  -4   8   2 1042.91   31.47
  -4  -8  -3   55.68   26.85
   4  -8  -3   51.80    5.25
  -4  -8   3   52.70   16.87
   4  -8   3   51.19    8.97
  -4   8   3   49.96   22.22
   4   8   3   50.05    6.72
  -4   8  -3   67.83    7.82
   4   8  -3   63.47   17.81
  -4   8  -3   58.68    8.93
  -4   8   3   40.47    5.16
  -4  -8  -4  465.40   14.13
   4  -8  -4  484.59   12.68
  -4  -8   4  467.23   13.15
   4  -8   4  440.05   12.22
   4   8   4  430.21    9.84
  -4   8  -4  432.00   14.78
   4   8  -4  520.11   13.53
  -4   8  -4  459.33    9.00
  -4   8   4  465.90   13.49
  -4  -8  -5   73.20   29.24
   4  -8  -5   64.33    4.91
  -4  -8   5   52.54   21.99
   4  -8   5   62.65   23.35
  -4   8  -5   53.94   21.88
   4   8  -5   69.25   21.39
  -4   8  -5   60.61    2.79
  -4   8   5   63.04   22.37
  -4  -8  -6   15.34   11.16
   4  -8  -6    4.58    1.87
  -4  -8   6    9.71    8.30
   4  -8   6   26.01    9.20
  -4   8  -6   19.24    6.31
   4   8  -6   26.31    9.42
  -4   8   6   14.92    6.29
  -4  -8  -7    6.85    8.13
   4  -8  -7   21.29    4.63
  -4  -8   7    5.87   13.01
   4  -8   7    8.62    5.84
  -4   8  -7   16.48    8.85
   4   8  -7    1.55    3.51
  -4   8  -7   13.00    2.88
  -4   8   7    8.48   10.74
  -4   8  -8  144.90   11.72
  -4  -8  -8  137.97   10.65
   4  -8  -8  129.09   10.07
  -4  -8   8  141.65   10.12
   4   8  -8  156.30   11.47
  -4   8   8  130.03   10.02
  -4   8  -9  247.83   27.52
  -4  -8  -9  213.99   13.04
   4  -8  -9  248.01    9.22
  -4  -8   9  228.54   23.26
  -4   8  -9  241.98   11.31
   4   8  -9  215.69   20.43
  -4   8   9  214.33   14.84
  -4   8 -10  336.18   21.25
   4  -8 -10  310.47   21.74
  -4  -8 -10  362.87   23.60
  -4  -8  10  313.20   28.71
  -4   8 -10  318.89   26.40
   4   8 -10  392.44   25.22
  -4   8  10  352.48   21.94
  -4   8 -11   48.36   22.52
   4  -8 -11   51.41    6.88
  -4  -8 -11   50.28    6.80
  -4  -8  11   48.82   18.50
  -4   8 -11   48.30   20.84
   4   8 -11   61.70   21.40
  -4   8  11   68.65   22.44
  -4   8 -12   14.71    7.72
   4  -8 -12    6.86    3.28
  -4  -8 -12   13.40    8.39
  -4  -8  12    2.07    8.77
  -4   8 -12   10.26    5.68
   4   8 -12    8.83    6.04
  -4  -8 -12   11.54    5.74
  -4   8  12    1.54    6.25
   4   8  12   12.38    7.15
  -4   8 -13   56.92   18.34
  -4  -8 -13   37.26   14.89
  -4  -8  13   50.47   19.99
  -4   8 -13   47.36   17.47
   4   8 -13   42.42   21.44
  -4  -8 -13   46.84    9.36
  -4   8  13   53.40   20.66
   4   8  13   44.44   21.22
  -4   8 -14  224.44   19.29
  -4  -8 -14  214.78   26.05
  -4  -8  14  236.17    9.90
  -4   8 -14  215.61   23.39
   4   8 -14  230.22   19.52
  -4  -8 -14  201.12   17.60
   4  -8 -14  227.78   23.11
  -4   8  14  214.90   17.47
   4   8  14  219.66   19.44
  -4   8 -15   46.34   16.84
  -4  -8 -15   20.93    9.02
  -4  -8  15   27.22   13.72
  -4   8 -15   46.58   12.65
   4   8 -15   22.67   14.68
  -4  -8 -15   41.60    8.09
   4  -8 -15   33.55   16.71
  -4   8  15   34.15   10.98
   4   8  15   31.17   19.53
  -4   8 -16   59.88   15.28
  -4  -8 -16   43.15   21.10
  -4  -8  16   26.87   15.02
  -4   8 -16   46.49   19.08
   4   8 -16   51.87   19.57
  -4  -8 -16   49.48   16.48
   4  -8 -16   49.72   11.95
  -4   8  16   75.43   20.95
   4   8  16   45.59    7.15
  -4   8 -17   26.05   14.12
  -4  -8 -17   10.41    8.92
  -4  -8  17    9.37    6.69
  -4   8 -17    8.79    7.09
   4   8 -17    9.74    9.32
  -4  -8 -17   18.05    6.39
   4  -8 -17    9.91    9.29
  -4   8  17   15.39    4.43
  -4   8 -18   15.58    6.54
  -4  -8 -18   12.67   15.04
  -4  -8  18   10.44    5.97
  -4   8 -18   15.44   10.66
   4   8 -18   23.06   15.51
   4  -8 -18   23.80   10.96
  -4   8  18   22.42    6.74
   4   8  18   23.52    7.42
  -4  -9   0   72.87   20.48
   4  -9   0   71.71    8.14
  -4   9   0   65.35   22.14
   4   9   0   68.59    5.98
  -4   9   0   63.18    5.14
  -4  -9  -1  320.48   13.77
  -4  -9   1  330.44   12.27
   4  -9  -1  320.89   10.03
   4  -9   1  293.58   20.44
  -4   9   1  297.43   17.17
  -4   9  -1  314.91   22.34
   4   9   1  331.19    9.07
   4   9  -1  328.69    9.27
  -4   9  -1  334.23    8.96
  -4   9   1  265.60   20.15
  -4  -9  -2   49.23   14.06
  -4  -9   2   34.65   13.93
   4  -9  -2   51.88    5.35
   4  -9   2   44.90   20.93
  -4   9   2   56.20   17.76
   4   9   2   38.44    9.63
  -4   9  -2   40.48   19.43
   4   9  -2   49.63   12.05
  -4   9  -2   37.97   11.56
  -4   9   2   49.97    6.72
  -4  -9  -3  165.24   14.02
  -4  -9   3  190.05   24.67
   4  -9   3  170.54   23.74
  -4   9   3  175.70   18.65
   4   9   3  189.86   11.96
  -4   9  -3  191.12   13.14
   4   9  -3  169.65   15.68
  -4   9  -3  192.01   11.35
  -4   9   3  160.50   21.97
  -4  -9  -4   79.25   10.01
   4  -9  -4   82.34    7.74
  -4  -9   4   75.39   29.16
   4  -9   4   97.32   33.43
   4   9   4   72.15    6.74
  -4   9  -4   71.74    8.52
   4   9  -4   85.83   12.38
  -4   9  -4   74.75    3.46
  -4   9   4   73.73    7.60
  -4  -9  -5   20.52    7.61
   4  -9  -5   24.31    8.85
  -4  -9   5   12.89    6.94
   4  -9   5   25.88    5.29
  -4   9  -5   14.82    9.92
   4   9  -5   17.92    6.78
  -4   9  -5   17.40    4.81
  -4   9   5   15.34    9.69
  -4  -9  -6 1111.19   39.75
   4  -9  -6 1094.26   38.22
  -4  -9   6 1077.74   38.53
   4  -9   6 1158.61   43.10
  -4   9  -6 1173.82   41.77
   4   9  -6 1106.36   39.23
  -4   9  -6 1092.97   35.80
  -4   9   6 1098.78   41.00
  -4  -9  -7   61.56   13.81
   4  -9  -7   65.10    5.49
  -4  -9   7   72.99   21.01
   4  -9   7   58.27   22.98
  -4   9  -7   64.60   24.35
   4   9  -7   58.58   22.98
  -4   9   7   84.32   11.19
  -4  -9  -8   24.34   13.17
   4  -9  -8   32.27   14.22
  -4  -9   8   34.60   12.03
   4  -9   8   23.56    8.14
  -4   9  -8   38.95   10.88
   4   9  -8   30.65   20.16
  -4   9   8   40.76   13.58
  -4  -9  -9  114.74    8.26
   4  -9  -9   89.55    5.59
  -4  -9   9   90.62   11.99
   4  -9   9   99.32   28.53
  -4   9  -9  106.69   12.11
   4   9  -9  119.92   15.08
  -4   9   9  110.98   22.41
  -4  -9 -10  187.48   10.66
   4  -9 -10  206.74    8.12
  -4  -9  10  213.70   10.89
   4  -9  10  225.30   13.09
  -4   9 -10  200.40   16.10
   4   9 -10  188.35   19.30
  -4   9  10  170.57   27.48
   4  -9 -11  144.32    6.64
  -4  -9 -11  148.48    9.84
  -4  -9  11  134.67    8.38
   4  -9  11  146.83   10.12
  -4   9 -11  119.15    7.53
   4   9 -11  155.13   44.09
  -4   9  11  164.58   17.43
   4   9  11  115.98    8.61
   4  -9 -12    3.22    3.54
  -4  -9 -12    9.16    5.60
  -4  -9  12    6.19    2.67
  -4   9 -12   14.45    7.62
   4   9 -12   -3.76    7.78
  -4   9  12    6.75    5.23
   4   9  12    6.31    6.40
  -4  -9 -13   40.28   14.96
  -4  -9  13   41.24   16.64
  -4   9 -13   42.63   15.71
   4   9 -13   40.93   12.97
  -4  -9 -13   34.93    7.79
  -4   9  13   48.69   15.38
   4   9  13   48.88   17.16
  -4   9 -14   10.82    6.07
  -4  -9 -14   15.90    4.44
  -4  -9  14   12.95    6.51
  -4   9 -14   15.63    6.45
   4   9 -14   14.85    7.97
  -4  -9 -14   20.46    5.78
  -4   9  14    8.49    8.53
   4   9  14   19.71    7.25
  -4   9 -15   15.49   11.39
  -4  -9 -15   29.67   10.55
  -4  -9  15   25.96    9.79
  -4   9 -15   30.00   10.78
   4   9 -15   23.76   13.51
  -4  -9 -15   43.98    8.59
   4  -9 -15   29.77   12.10
  -4   9  15   21.32    9.70
   4   9  15   23.78   11.13
  -4   9 -16   12.69    8.41
  -4  -9 -16    8.12    5.76
  -4  -9  16    5.55    4.94
  -4   9 -16   14.44    7.61
   4   9 -16    4.14    5.21
  -4  -9 -16    4.48    5.04
   4  -9 -16   11.51    8.40
  -4   9  16    7.95   10.84
   4   9  16    7.55    6.02
  -4   9 -17   11.36    5.05
  -4  -9 -17    5.68    6.12
  -4  -9  17   10.21    6.89
  -4   9 -17    5.91    4.24
   4   9 -17    3.29    5.22
  -4  -9 -17    1.22    4.96
   4  -9 -17    4.11    6.88
  -4   9  17    2.76    3.07
   4   9  17   11.31   12.76
  -4 -10   0   43.73   20.01
   4 -10   0   47.46   13.91
  -4  10   0   38.75   18.49
   4  10   0   55.44   14.25
  -4  10   0   47.99   15.53
  -4 -10  -1   83.72   34.91
  -4 -10   1   91.90   38.97
   4 -10  -1   81.78   19.32
   4 -10   1   75.49    6.66
  -4  10   1   92.09    9.73
  -4  10  -1   84.89   11.46
   4  10   1   84.69    9.40
   4  10  -1   85.33   11.13
  -4  10  -1   88.74    7.17
  -4  10   1   86.08    8.43
  -4 -10  -2   99.65   12.59
  -4 -10   2  103.14   16.68
   4 -10  -2   89.85    9.98
   4 -10   2  116.51   11.53
  -4  10   2   96.97   16.44
   4  10   2   81.25    7.50
  -4  10  -2   95.64   22.86
   4  10  -2   96.36    9.38
  -4  10  -2  101.34    7.35
  -4  10   2   92.04   15.60
  -4 -10  -3  127.25   31.33
   4 -10  -3  146.77   11.55
  -4 -10   3  114.30   11.38
   4 -10   3  134.27   23.39
  -4  10   3  132.92   22.08
   4  10   3  130.43    8.13
  -4  10  -3  127.69   10.14
   4  10  -3  129.43   10.49
  -4  10  -3  128.80    7.47
  -4  10   3  120.32   18.76
  -4 -10  -4  302.18   28.26
   4 -10  -4  310.21   14.00
  -4 -10   4  297.24   15.65
   4 -10   4  307.97   13.96
   4  10   4  288.54   25.91
  -4  10  -4  268.07   13.06
   4  10  -4  336.87   16.15
  -4  10  -4  288.65   11.81
  -4  10   4  316.42   24.26
  -4 -10  -5  287.13   15.71
   4 -10  -5  355.52   15.09
  -4 -10   5  378.86   18.14
   4 -10   5  281.63   22.18
   4  10   5  325.87   14.26
  -4  10  -5  309.92   13.67
   4  10  -5  321.61   15.18
  -4  10  -5  320.18   11.83
  -4  10   5  289.46   13.94
  -4 -10  -6   14.91    9.97
   4 -10  -6   33.00   10.41
  -4 -10   6   43.66   12.56
   4 -10   6   38.59    7.89
  -4  10  -6   35.86   16.07
   4  10  -6   35.96   12.41
  -4  10  -6   33.17    7.93
  -4  10   6   37.42   10.20
  -4 -10  -7  249.33   22.87
   4 -10  -7  254.65   21.54
  -4 -10   7  234.00   21.51
   4 -10   7  263.89   26.55
  -4  10  -7  272.46   18.28
   4  10  -7  395.82   42.80
  -4  10   7  260.81   17.85
  -4 -10  -8  277.01   19.45
   4 -10  -8  295.06   24.03
  -4 -10   8  270.49   25.47
   4 -10   8  241.83   25.79
  -4  10  -8  273.12   17.31
   4  10  -8  256.04   17.77
  -4  10   8  216.19   15.28
  -4 -10  -9  123.18    9.66
   4 -10  -9  106.43    6.50
  -4 -10   9  105.38    7.70
   4 -10   9  126.22    8.49
  -4  10  -9  108.36   14.79
   4  10  -9  103.58    9.09
  -4  10   9  146.59   17.59
  -4 -10 -10  196.92   10.88
   4 -10 -10  172.36   16.95
  -4 -10  10  177.46   29.16
   4 -10  10  189.81   13.12
  -4  10 -10  192.22    8.89
   4  10 -10  199.11   36.78
  -4  10  10  208.29   12.41
   4 -10 -11   37.49   12.88
  -4 -10 -11   49.28   20.29
  -4 -10  11   49.18   16.24
   4 -10  11   51.44   19.30
  -4  10 -11   50.52   15.51
   4  10 -11   40.61   20.37
  -4  10  11   43.52   16.30
   4  10  11   65.60   23.05
  -4 -10 -12   41.70   10.64
  -4 -10  12   25.28   15.24
   4 -10  12   20.72    9.12
  -4  10 -12   44.41    8.99
   4  10 -12   17.08    6.09
  -4  10  12   30.06   14.23
   4  10  12   25.77   15.56
  -4 -10 -13    2.38    3.76
  -4 -10  13    3.15    3.77
   4 -10  13    7.53    5.40
  -4  10 -13    9.67    7.36
   4  10 -13    7.11    7.25
  -4  10  13    7.61    4.99
   4  10  13    5.22    3.32
  -4 -10 -14   38.50   11.48
  -4 -10  14   26.92    8.42
   4 -10  14   43.95   13.03
  -4  10 -14   28.81    9.00
   4  10 -14   22.78   12.78
  -4 -10 -14   31.06   13.42
  -4  10  14   44.70   14.88
   4  10  14   30.05   12.95
  -4 -10 -15   15.96    8.71
  -4 -10  15   10.95    6.57
   4 -10  15    9.42    5.45
  -4  10 -15    6.95    5.98
   4  10 -15    6.43    5.00
  -4 -10 -15   11.79    4.89
   4 -10 -15    6.87    7.86
  -4  10  15   15.16    6.27
   4  10  15    6.85    9.44
  -4 -10 -16   14.64    6.55
  -4 -10  16   20.19    7.06
   4 -10  16   13.02   13.05
  -4  10 -16   19.05    6.02
   4  10 -16    9.66    9.03
  -4 -10 -16   16.96   11.14
   4 -10 -16    5.68    8.29
  -4  10  16   21.06    8.47
   4  10  16   26.02    9.21
  -4 -10 -17    9.06    4.32
  -4 -10  17    2.93    3.54
   4 -10  17    4.39    5.74
  -4  10 -17    4.29    4.81
   4  10 -17    8.10    3.89
   4 -10 -17   12.24    7.30
  -4  10  17   10.59    6.68
   4  10  17   21.46   10.51
  -4 -11   0  816.38   26.62
   4 -11   0  814.65   24.80
  -4  11   0  843.95   26.06
   4  11   0  809.50   24.39
  -4  11   0  807.02   25.65
  -4 -11  -1  114.59    9.67
  -4 -11   1  121.46   11.71
   4 -11  -1  120.50   13.22
   4 -11   1  108.08   12.65
  -4  11   1  117.56   22.03
  -4  11  -1  121.38    8.05
   4  11   1  116.33   11.17
   4  11  -1  125.39   19.24
  -4  11  -1  107.54   14.01
  -4  11   1  122.04    7.44
  -4 -11  -2   36.47    7.95
  -4 -11   2   50.98    7.57
   4 -11  -2   43.64   16.17
   4 -11   2   46.96   15.27
  -4  11   2   59.34   24.23
   4  11   2   56.44   16.01
  -4  11  -2   47.53   19.19
   4  11  -2   50.24   13.42
  -4  11  -2   46.43   16.25
  -4  11   2   27.70   11.69
  -4 -11  -3  446.24   18.28
   4 -11  -3  439.41   15.92
  -4 -11   3  527.70   20.87
   4 -11   3  437.59   16.37
  -4  11   3  470.33   17.62
   4  11   3  497.60   17.39
  -4  11  -3  457.26   17.02
   4  11  -3  448.76   16.48
  -4  11  -3  446.44   14.74
  -4  11   3  435.95   18.58
  -4 -11  -4  376.76   28.95
   4 -11  -4  344.47   13.57
  -4 -11   4  353.78   15.58
   4 -11   4  393.94   15.34
   4  11   4  366.23   13.91
  -4  11  -4  376.73   15.15
   4  11  -4  360.28   21.30
  -4  11  -4  338.85   13.24
  -4  11   4  336.09   19.93
  -4 -11  -5   27.95    8.69
   4 -11  -5   14.32    6.55
  -4 -11   5   24.07   11.05
   4 -11   5   32.80   12.23
   4  11   5   14.23    7.43
  -4  11  -5   29.88    7.35
   4  11  -5   35.68   11.16
  -4  11  -5   18.71    6.96
  -4  11   5   35.14    8.73
  -4 -11  -6  191.67   16.31
   4 -11  -6  183.46   20.28
  -4 -11   6  203.84   15.95
   4 -11   6  212.38   22.53
  -4  11  -6  198.30   19.96
   4  11  -6  206.59   24.81
  -4  11   6  204.83   15.47
  -4 -11  -7  100.53   14.03
   4 -11  -7  109.13   13.55
  -4 -11   7  102.57   30.45
   4 -11   7  113.94    9.74
  -4  11  -7   99.09   23.50
   4  11  -7  104.90   10.13
  -4  11   7  104.35   35.65
  -4 -11  -8   45.69   22.55
   4 -11  -8   59.49    8.58
  -4 -11   8   57.32   23.18
   4 -11   8   58.05   22.51
  -4  11  -8   62.07   23.17
   4  11  -8   66.36   20.95
  -4  11   8   62.51   21.94
  -4 -11  -9  368.89   29.40
   4 -11  -9  361.14   26.02
  -4 -11   9  361.85   27.65
   4 -11   9  362.15   28.58
  -4  11  -9  352.24   26.38
  -4  11   9  345.53   32.69
  -4 -11 -10   38.18   13.31
   4 -11 -10   11.28   11.55
  -4 -11  10   13.75   12.52
   4 -11  10   27.35   10.50
  -4  11 -10   22.24   10.90
   4  11 -10   34.18   11.53
  -4  11  10   16.00    7.75
  -4 -11 -11   40.17   12.60
   4 -11 -11   53.22    7.19
  -4 -11  11   50.74   24.34
   4 -11  11   55.65   25.09
  -4  11 -11   75.26   28.26
   4  11 -11   62.80   22.56
  -4  11  11   53.85   20.90
   4  11  11   51.14   21.89
  -4 -11 -12  213.11   22.09
  -4 -11  12  260.63   13.35
   4 -11  12  215.89   37.76
  -4  11 -12  208.89   27.78
   4  11 -12  252.24   25.61
  -4  11  12  239.82   31.04
   4  11  12  211.95   21.77
  -4 -11 -13    5.38    5.04
  -4 -11  13   13.66    7.53
   4 -11  13   -0.91    6.47
  -4  11 -13   11.07    8.40
   4  11 -13    5.93    8.39
  -4  11  13   19.75    7.74
   4  11  13   30.20   13.95
  -4 -11 -14    9.73    5.14
  -4 -11  14   -7.60    5.85
   4 -11  14    4.89    5.80
  -4  11 -14    0.48    2.54
   4  11 -14    8.33   10.55
  -4 -11 -14    1.59    4.39
  -4  11  14    5.16    6.20
   4  11  14    2.82    5.34
  -4 -11 -15   12.76    7.73
  -4 -11  15   19.38   11.71
   4 -11  15   21.12   13.65
  -4  11 -15   11.60    6.32
   4  11 -15   16.70    9.66
  -4 -11 -15   15.60    7.29
  -4  11  15    5.76   11.04
   4  11  15   21.26   10.19
  -4 -11 -16   39.32   17.68
  -4 -11  16   44.30   18.70
   4 -11  16   67.59   22.18
  -4  11 -16   70.87    7.62
   4  11 -16   49.47   29.17
   4 -11 -16   59.57   28.94
  -4  11  16   58.68   12.29
   4  11  16   93.77   17.35
  -4 -12   0   96.14   25.23
   4 -12   0   80.13    6.85
  -4  12   0   80.75   22.34
   4  12   0   96.99    9.56
  -4  12   0   86.37    7.45
  -4 -12  -1  221.91   32.20
  -4 -12   1  232.35   16.18
   4 -12  -1  267.29   17.71
   4 -12   1  231.77   17.31
  -4  12   1  257.68   17.39
  -4  12  -1  278.66   18.79
   4  12   1  245.00   20.02
   4  12  -1  242.75   16.47
  -4  12  -1  246.97   20.15
  -4  12   1  242.80   16.39
  -4 -12  -2    5.41    8.16
  -4 -12   2    2.87    3.56
   4 -12  -2    0.04    5.19
   4 -12   2    2.72    4.76
  -4  12   2    0.99    4.58
   4  12   2    0.79    1.99
  -4  12  -2    4.81    4.48
   4  12  -2   -1.07    5.03
  -4  12  -2    1.04    2.27
  -4  12   2    5.67    3.16
  -4 -12  -3   67.96   21.66
   4 -12  -3   58.90    7.49
  -4 -12   3   63.26   30.83
   4 -12   3   73.55   21.77
  -4  12   3   59.91   27.43
   4  12   3   61.80   16.91
  -4  12  -3   50.97   13.84
   4  12  -3   64.28   19.42
  -4  12  -3   50.97   14.02
  -4  12   3   65.77   12.07
  -4 -12  -4   45.70   18.97
   4 -12  -4   49.16   20.53
  -4 -12   4   67.91   25.87
   4 -12   4   47.85   14.07
   4  12   4   53.09   14.79
  -4  12  -4   52.11   19.70
   4  12  -4   44.36   14.56
  -4  12  -4   48.93    6.71
  -4  12   4   35.61   12.38
  -4 -12  -5   15.01    8.30
   4 -12  -5   21.91    9.51
  -4 -12   5   17.73    6.21
   4 -12   5   14.84    8.99
   4  12   5   20.49    7.42
  -4  12  -5   12.43    4.82
   4  12  -5   16.81    7.85
  -4  12  -5   16.46    4.83
  -4  12   5    8.09    4.36
  -4 -12  -6   11.33    8.30
   4 -12  -6    7.78    5.47
  -4 -12   6   14.31    6.86
   4 -12   6    9.68    5.56
  -4  12  -6    3.13    4.89
   4  12  -6   15.10    9.18
  -4  12   6    5.40    5.12
  -4 -12  -7    0.86    5.02
   4 -12  -7    8.98    4.35
  -4 -12   7    4.55    5.82
   4 -12   7   11.49    8.14
  -4  12  -7    3.31    4.90
   4  12  -7    5.80    4.28
  -4  12   7    4.11    3.17
  -4 -12  -8   29.15   12.82
   4 -12  -8   20.96    4.39
  -4 -12   8   25.17   11.69
   4 -12   8   23.90    9.87
  -4  12  -8   26.71   11.24
   4  12  -8   22.17    8.53
  -4  12   8   22.69   15.81
  -4 -12  -9   55.50   15.00
   4 -12  -9   35.47   12.28
  -4 -12   9   52.80   19.82
   4 -12   9   46.02   17.37
  -4  12  -9   36.89   12.91
   4  12  -9   39.22   22.66
  -4  12   9   62.71   26.64
  -4 -12 -10   31.05   14.20
   4 -12 -10   19.77   12.39
  -4 -12  10   37.37   12.59
   4 -12  10   18.59    7.21
  -4  12 -10   16.50    6.57
   4  12 -10   31.31   12.89
  -4  12  10   16.83   12.10
   4  12  10   27.94    7.93
  -4 -12 -11   82.38    8.65
  -4 -12  11   77.25   23.54
   4 -12  11  100.17   16.92
  -4  12 -11   93.02   31.79
   4  12 -11   81.41   20.64
  -4  12  11   78.47   29.46
   4  12  11   69.37   28.04
  -4 -12 -12   11.43    8.06
  -4 -12  12   11.19    5.09
   4 -12  12    4.85    8.73
  -4  12 -12   11.31    5.94
   4  12 -12    6.75    9.77
  -4  12  12   -3.68    5.74
   4  12  12   18.08    7.06
  -4 -12 -13  136.87   30.36
  -4 -12  13  127.91   27.87
   4 -12  13  142.25   35.33
  -4  12 -13  120.85   33.44
   4  12 -13  113.29   29.91
  -4  12  13  122.72   29.52
   4  12  13  141.78   36.55
  -4 -12 -14   10.64    5.33
  -4 -12  14   10.78    5.35
   4 -12  14   10.98    6.97
  -4  12 -14    6.51    7.42
   4  12 -14    5.32    6.70
  -4  12  14   15.74   20.20
   4  12  14   11.16    5.70
  -4 -12 -15   26.86   10.98
  -4 -12  15   20.03    9.83
   4 -12  15   14.17   10.14
  -4  12 -15   29.72   10.04
   4  12 -15   24.56   14.73
  -4 -12 -15   22.69   10.53
  -4  12  15   16.32    9.34
   4  12  15   25.84   14.66
  -4 -13   0   81.80    9.03
   4 -13   0   73.46   25.28
  -4  13   0   70.87   33.80
   4  13   0   93.55   13.10
  -4  13   0   99.85    7.11
  -4 -13  -1   25.19   17.08
  -4 -13   1   22.37    9.75
   4 -13  -1   31.44    5.46
   4 -13   1   24.48   11.55
  -4  13   1   26.24    8.81
  -4  13  -1   27.53   12.87
   4  13   1   35.31    8.41
   4  13  -1   24.85   10.14
  -4  13  -1   32.69    9.82
  -4  13   1   24.68    7.52
  -4 -13  -2  140.81   35.30
  -4 -13   2  108.61   10.00
   4 -13  -2  136.89    9.17
   4 -13   2  133.24   40.90
  -4  13   2  147.60   27.63
   4  13   2  125.37    8.49
  -4  13  -2  111.07   14.22
   4  13  -2  123.51   27.54
  -4  13  -2  102.54    6.09
  -4  13   2  115.51   20.65
  -4 -13  -3   23.89   16.98
   4 -13  -3   29.12   11.87
  -4 -13   3   22.25    8.97
   4 -13   3   17.80   16.52
  -4  13   3   49.47   15.99
   4  13   3   36.12   11.54
  -4  13  -3   25.97   14.90
   4  13  -3   32.65   10.61
  -4  13  -3   25.19    6.64
  -4  13   3   48.02   13.99
  -4 -13  -4  166.81   21.62
   4 -13  -4  141.79   12.12
  -4 -13   4  147.24   15.28
   4 -13   4  156.24   29.09
   4  13   4  172.22   14.29
  -4  13  -4  145.67   13.30
   4  13  -4  168.19   14.07
  -4  13  -4  161.58   12.27
  -4  13   4  170.16   17.34
  -4 -13  -5  112.69   39.67
   4 -13  -5   92.58    9.47
  -4 -13   5  101.04   40.03
   4 -13   5  115.57   34.08
   4  13   5  118.68   10.80
  -4  13  -5  127.59   29.00
   4  13  -5  130.96   11.89
  -4  13   5   85.16   27.62
  -4 -13  -6   44.03   10.17
   4 -13  -6   61.88    7.17
  -4 -13   6   53.05   25.86
   4 -13   6   41.86   12.91
  -4  13  -6   63.82   23.96
   4  13  -6   46.92   21.22
  -4  13   6   35.59   12.79
  -4 -13  -7  154.29    9.45
   4 -13  -7  136.26   14.29
  -4 -13   7  150.60   33.17
   4 -13   7  163.01   17.23
  -4  13  -7  147.85   14.15
   4  13  -7  179.32   27.19
  -4  13   7  168.61   15.22
  -4 -13  -8   13.46   10.20
   4 -13  -8    3.21    2.97
  -4 -13   8    7.03    8.19
   4 -13   8    9.57    6.37
  -4  13  -8    5.14    4.20
   4  13  -8    4.02    5.25
  -4  13   8    5.27    4.23
  -4 -13  -9  117.54   17.29
   4 -13  -9   83.77    9.25
  -4 -13   9   81.00    9.31
   4 -13   9  112.99   18.25
  -4  13  -9   80.39   19.73
   4  13  -9  114.19   14.58
  -4  13   9   91.35   30.54
  -4 -13 -10   40.70    7.84
   4 -13 -10   24.88   17.24
  -4 -13  10   39.97   19.41
   4 -13  10   43.25    7.73
  -4  13 -10   53.54   19.94
   4  13 -10   38.47   17.86
  -4  13  10   36.47   15.52
   4  13  10   47.72   21.11
  -4 -13 -11   -0.40    7.05
  -4 -13  11    6.22    3.95
   4 -13  11    4.30    7.17
  -4  13 -11    2.21    5.55
   4  13 -11    5.45    3.03
  -4  13  11    4.08   10.10
   4  13  11    1.83    7.70
  -4 -13 -12   23.71   11.32
  -4 -13  12   37.20   14.40
   4 -13  12   25.42   14.02
  -4  13 -12   18.62    7.53
   4  13 -12   24.67   12.15
  -4  13  12   27.68   15.63
   4  13  12   30.22   12.84
  -4 -13 -13   37.69   18.48
  -4 -13  13   25.84   13.58
   4 -13  13   47.35   21.62
  -4  13 -13   42.18   18.73
   4  13 -13   63.98   12.66
  -4  13  13   49.14   22.00
   4  13  13   41.19   20.46
  -4 -13 -14    6.71    5.02
  -4 -13  14    4.80    5.47
   4 -13  14    9.45   10.26
  -4  13 -14    7.16    7.68
   4  13 -14   -0.15    8.87
  -4  13  14    1.05    4.81
   4  13  14   -1.45    7.97
  -4 -14   0   53.40   15.22
   4 -14   0   50.92   22.77
  -4  14   0   52.87   22.15
   4  14   0   48.88   15.53
  -4  14   0   63.23   22.19
  -4 -14  -1   68.56   25.60
  -4 -14   1   52.17   23.29
   4 -14  -1   48.08   15.54
   4 -14   1   55.16   20.05
  -4  14   1   58.92   21.16
  -4  14  -1   56.20   20.64
   4  14   1   56.75   17.40
   4  14  -1   54.12   16.84
  -4  14  -1   43.12    8.90
  -4  14   1   56.92   17.79
  -4 -14  -2   28.34   19.51
  -4 -14   2   57.53   12.51
   4 -14  -2   34.93    6.40
   4 -14   2   41.27   13.74
  -4  14   2   38.29   13.42
   4  14   2   42.44    9.83
  -4  14  -2   36.68   14.41
   4  14  -2   40.41   12.01
  -4  14  -2   39.90   16.28
  -4  14   2   39.51   11.50
  -4 -14  -3   11.61    9.24
   4 -14  -3    8.79    6.35
  -4 -14   3   22.97    9.75
   4 -14   3    9.88    4.86
  -4  14   3   12.62    6.52
   4  14   3   15.02    7.92
  -4  14  -3   13.46    8.40
   4  14  -3   17.73    7.93
  -4  14  -3   10.03    7.70
  -4  14   3   15.38    5.62
  -4 -14  -4   -0.30    8.28
   4 -14  -4    6.34    6.53
  -4 -14   4    7.46   12.59
   4 -14   4    4.63    5.94
   4  14   4    6.22    4.17
  -4  14  -4    8.89    6.69
   4  14  -4    8.55    6.17
  -4  14   4   11.09    8.87
  -4 -14  -5  125.05   12.80
   4 -14  -5  135.58   10.22
  -4 -14   5  153.08   12.89
   4 -14   5  127.94    9.37
   4  14   5  130.46   17.93
  -4  14  -5  136.70   18.40
   4  14  -5  125.12   30.13
  -4  14   5  130.29   26.87
  -4 -14  -6   26.55    9.44
   4 -14  -6   13.49    8.99
  -4 -14   6   14.63    9.02
   4 -14   6   13.13    8.64
  -4  14  -6   38.09   12.46
   4  14  -6   26.94    5.57
  -4  14   6   29.29   11.94
  -4 -14  -7  126.47   13.68
   4 -14  -7  102.52   12.32
  -4 -14   7  105.89   14.60
   4 -14   7  140.28   31.40
  -4  14  -7  126.44   19.61
   4  14  -7  118.99    8.44
  -4  14   7  140.59   24.42
  -4 -14  -8   10.55    9.29
   4 -14  -8    5.87    5.16
  -4 -14   8    9.54    7.07
   4 -14   8   10.50    4.54
  -4  14  -8   11.37    8.73
   4  14  -8   13.54   11.29
  -4  14   8    7.41    7.97
  -4 -14  -9   24.90   18.78
   4 -14  -9   23.59   12.15
  -4 -14   9   23.13   14.58
   4 -14   9   22.65   11.58
  -4  14  -9   38.93   10.48
   4  14  -9   29.46   12.52
  -4  14   9   25.86   11.07
   4  14   9   40.94   15.41
  -4 -14 -10   13.00   11.48
  -4 -14  10   12.23    7.03
   4 -14  10   21.44   11.07
  -4  14 -10   17.98    8.22
   4  14 -10   15.77    8.41
  -4  14  10   21.63   11.58
   4  14  10   16.80   15.41
  -4 -14 -11   31.75   11.77
  -4 -14  11   27.67    8.69
   4 -14  11   12.47   13.34
  -4  14 -11   53.83   14.35
   4  14 -11   28.10   12.75
  -4  14  11   48.53   13.62
   4  14  11   35.84   13.19
  -4 -14 -12   16.94   10.27
  -4 -14  12    4.65    8.06
   4 -14  12   17.27   11.87
  -4  14 -12    7.21    7.14
   4  14 -12   18.93    8.00
  -4  14  12   19.28   10.85
   4  14  12   19.36   10.83
  -4 -14 -13    5.88    2.42
  -4 -14  13    6.55    6.63
   4 -14  13    6.42    4.87
  -4  14 -13    3.63    6.23
   4  14 -13    8.81    6.81
  -4  14  13    6.88    6.34
   4  14  13   11.48    6.74
  -4 -15   0   12.18    7.50
   4 -15   0    0.59    3.85
  -4  15   0   -2.40    6.61
   4  15   0    2.82    2.81
  -4  15   0    0.33    1.72
  -4 -15  -1  151.10   12.28
  -4 -15   1  158.92   20.83
   4 -15  -1  201.24   11.09
   4 -15   1  154.72   16.97
  -4  15   1  181.55   29.50
  -4  15  -1  150.04   31.23
   4  15   1  162.28   19.63
   4  15  -1  152.16   20.97
  -4  15  -1  144.16   14.28
  -4  15   1  155.72   12.20
  -4 -15  -2   30.22   21.89
  -4 -15   2   45.87   15.64
   4 -15  -2   42.12    7.41
   4 -15   2   27.07    9.56
  -4  15   2   35.98   14.40
   4  15   2   33.58   11.99
  -4  15  -2   35.13   17.57
   4  15  -2   36.27   11.08
  -4  15  -2   37.25   15.03
  -4  15   2   40.94   12.31
  -4 -15  -3   78.20   32.35
   4 -15  -3   71.18   13.16
  -4 -15   3   68.67   27.11
   4 -15   3   56.39   21.27
  -4  15   3   70.06   24.61
   4  15   3   81.78    9.59
  -4  15  -3   93.14   31.17
   4  15  -3   76.82   24.43
  -4  15  -3   71.99    6.50
  -4  15   3   66.57   15.25
  -4 -15  -4    5.87    6.79
   4 -15  -4    2.94    4.71
  -4 -15   4    6.16    5.30
   4 -15   4    3.55    5.83
   4  15   4    7.55    7.63
  -4  15  -4    1.73    3.39
   4  15  -4    6.51    4.58
  -4  15   4    3.45    5.87
  -4 -15  -5   33.32   15.11
   4 -15  -5   26.79   16.28
  -4 -15   5   36.53   11.36
   4 -15   5   21.73   11.85
   4  15   5   29.96   12.27
  -4  15  -5   39.94   13.32
   4  15  -5   28.67    6.19
  -4  15   5   27.14   12.85
  -4 -15  -6   20.30    9.53
   4 -15  -6   32.84   10.34
  -4 -15   6   33.17   19.58
   4 -15   6   38.53   15.21
  -4  15  -6   30.32   11.80
   4  15  -6   40.62   11.33
  -4  15   6   27.88   10.47
  -4 -15  -7   11.66    9.54
   4 -15  -7    8.38    4.55
  -4 -15   7    8.81    5.76
   4 -15   7    0.25    6.25
  -4  15  -7    5.80    3.81
   4  15  -7    8.76    2.78
  -4  15   7    7.36    4.39
  -4 -15  -8   10.35    8.48
   4 -15  -8    6.90    8.15
  -4 -15   8    9.57    9.82
   4 -15   8    6.18   11.90
  -4  15  -8    9.63    6.13
   4  15  -8   11.12    3.45
  -4  15   8   -2.04    6.67
  -4 -15  -9    9.85    7.43
  -4 -15   9    2.40    8.15
   4 -15   9    7.20    5.20
  -4  15  -9    4.23    7.44
   4  15  -9    5.47    4.38
  -4  15   9    5.39   10.10
   4  15   9    6.39    7.80
  -4 -15 -10   10.67   12.54
  -4 -15  10   41.17   15.95
   4 -15  10   17.99   14.81
  -4  15 -10   30.09    8.05
   4  15 -10   33.49   13.06
  -4  15  10   34.75   13.64
   4  15  10   36.78   15.94
  -4 -15 -11   32.49   16.64
  -4 -15  11   24.69    8.90
   4 -15  11   23.14   11.11
  -4  15 -11   23.87   12.09
   4  15 -11   15.56    7.25
  -4  15  11   23.16    7.61
   4  15  11   26.83   12.34
  -4 -16   0   12.63    9.12
   4 -16   0   19.35    6.50
  -4  16   0   18.30   12.11
   4  16   0   21.24    7.82
  -4  16   0   18.08    8.11
  -4 -16  -1   59.39   25.53
  -4 -16   1   99.85    9.27
   4 -16  -1   86.00    7.23
   4 -16   1   85.00   31.38
  -4  16   1   80.99   31.97
  -4  16  -1   86.81   34.57
   4  16   1   84.18   10.19
   4  16  -1  110.89   14.24
  -4  16  -1  106.51    6.91
  -4  16   1   91.37   14.22
  -4 -16  -2   40.44   12.77
  -4 -16   2   43.00   18.68
   4 -16  -2   48.22   25.07
   4 -16   2   56.54   22.77
  -4  16   2   43.04   21.39
   4  16   2   43.25   16.79
  -4  16  -2   63.49   16.30
   4  16  -2   59.92   16.05
  -4  16  -2   48.39   19.30
  -4  16   2   64.26   13.10
  -4 -16  -3    5.63    8.79
   4 -16  -3    1.17    3.74
  -4 -16   3   25.16   12.24
   4 -16   3   -6.43    5.96
  -4  16   3   -0.68    6.21
   4  16   3    3.79    2.67
  -4  16  -3    3.51    2.78
   4  16  -3    5.80    2.71
  -4  16   3    7.75    5.55
  -4 -16  -4    5.61    6.66
   4 -16  -4    7.21    4.97
  -4 -16   4    5.06    5.00
   4 -16   4    5.87    6.38
   4  16   4    4.83    3.07
  -4  16  -4   -0.69    6.24
   4  16  -4    0.87    3.07
  -4  16   4    4.54    2.41
  -4 -16  -5   51.58   22.97
   4 -16  -5   43.37   16.67
  -4 -16   5   46.26    8.66
   4 -16   5   50.46   22.40
   4  16   5   37.43   14.36
  -4  16  -5   49.32   22.47
   4  16  -5   54.10   16.52
  -4  16   5   45.24    8.82
  -4 -16  -6   13.11   10.31
   4 -16  -6    7.59    4.79
  -4 -16   6   -1.31    9.15
   4 -16   6    7.22    9.21
  -4  16  -6    8.25    5.89
   4  16  -6   10.61    3.95
  -4  16   6    8.20    4.24
  -4 -16  -7   29.24    9.23
   4 -16  -7   17.74   12.58
  -4 -16   7   12.66   12.86
   4 -16   7   21.23   13.62
   4  16  -7   27.02   11.34
  -4  16   7   23.41   12.01
  -4 -16  -8    4.84    8.56
   4 -16  -8    5.03    6.05
  -4 -16   8    6.62    8.00
   4 -16   8    9.12   11.11
  -4  16  -8    8.01   10.20
   4  16  -8   14.85   10.15
  -4  16   8    7.74    5.03
   4  16   8    8.31    8.05
  -4 -16  -9    8.89    5.84
  -4 -16   9    2.64    6.64
   4 -16   9    4.74    3.14
  -4  16  -9   -0.91    5.06
   4  16  -9    3.05    2.63
  -4  16   9    8.93    8.39
   4  16   9   18.00    9.00
  -4 -17   0   15.14    9.15
   4 -17   0   29.80   13.98
  -4  17   0   21.02    7.03
   4  17   0   19.27   11.89
  -4  17   0   23.20    8.02
  -4 -17  -1   32.16    9.21
  -4 -17   1   16.16   10.26
   4 -17  -1   21.54    8.21
   4 -17   1    6.34    5.83
  -4  17   1    2.43    6.77
  -4  17  -1    9.33   12.28
   4  17   1   17.12    9.38
   4  17  -1   17.89    7.50
  -4  17  -1    8.16    3.95
  -4  17   1    7.53    4.40
  -4 -17  -2   13.71    7.78
  -4 -17   2    9.20    8.67
   4 -17  -2    7.47    8.32
   4 -17   2    6.34    9.23
  -4  17   2    8.99   11.53
   4  17   2    2.31    4.76
  -4  17  -2    5.60    4.32
   4  17  -2   10.61    4.28
  -4  17   2    7.68    5.39
  -4 -17  -3    8.58   11.25
   4 -17  -3   23.39    9.41
  -4 -17   3   19.72   12.66
   4 -17   3   15.62    9.08
  -4  17   3   12.74   11.66
   4  17   3   17.80    9.23
  -4  17  -3   26.08   11.55
   4  17  -3   16.18    5.46
  -4  17   3   18.02    5.14
  -4 -17  -4   -2.74    9.95
   4 -17  -4    9.84    6.07
  -4 -17   4   10.36    6.91
   4 -17   4    6.07    4.39
   4  17   4    6.31    7.69
  -4  17  -4    7.00    7.53
   4  17  -4   13.06    3.25
  -4  17   4    7.40    4.57
  -4 -17  -5  139.10   34.19
   4 -17  -5  125.52   13.37
  -4 -17   5  150.20   20.28
   4 -17   5  126.89   12.19
  -4  17  -5  128.37   34.27
   4  17  -5  135.84   43.13
  -4  17   5  124.80   27.63
  -4 -17  -6   40.65   12.08
   4 -17  -6   35.42   16.65
  -4 -17   6   34.08   16.33
   4 -17   6   51.50   15.25
  -4  17  -6   40.74   13.21
   4  17  -6   42.25   15.77
  -4  17   6   20.90   11.52
   4  17   6   48.32   11.11
  -4 -17  -7   58.46    8.75
   4 -17  -7   41.93   26.94
  -4 -17   7   64.20   12.39
   4 -17   7   57.02   22.13
  -4  17  -7   67.80   13.85
   4  17  -7   77.24   18.84
  -4  17   7   66.41   20.14
   4  17   7   33.99   24.70
  -4 -18   0   -0.02    7.92
   4 -18   0    6.29    6.48
  -4  18   0    4.31    6.92
   4  18   0    8.96    5.07
  -4  18   0    5.91    2.20
  -4 -18  -1    9.42    5.24
  -4 -18   1   14.36    8.95
   4 -18  -1    8.77    5.76
   4 -18   1   16.34    9.35
  -4  18   1   24.69   10.14
  -4  18  -1    9.21    6.25
   4  18   1   19.93    5.60
   4  18  -1   17.31    8.11
  -4  18   1    3.69    7.17
  -4 -18  -2    5.03    5.96
  -4 -18   2   14.49   10.27
   4 -18  -2    8.82    6.79
   4 -18   2    0.45    6.93
  -4  18   2    5.03    6.79
   4  18   2    6.38    4.31
  -4  18  -2   -3.44    7.16
   4  18  -2    6.26    5.74
  -4  18   2    8.96    6.01
  -5   0   0    2.50    1.65
   5   0   0    1.97    1.32
  -5   0  -1  194.26    7.69
  -5   0   1  195.49    7.21
   5   0   1  185.97   11.52
   5   0  -1  193.85    7.51
  -5   0  -2   17.63    7.13
   5   0  -2   12.18    3.28
   5   0   2   15.67    2.04
   5   0  -2   16.48    3.62
  -5   0  -3  239.65    9.45
   5   0  -3  239.81    8.15
  -5   0  -3  227.39    7.55
   5   0   3  224.65    7.58
   5   0  -3  233.42    9.39
  -5   0   3  225.66    9.14
  -5   0   4  399.04    4.54
  -5   0  -4  399.20    8.26
   5   0   4  396.64    4.53
   5   0  -4  407.63    7.94
  -5   0   4  391.56    9.86
  -5   0   5  553.24    5.54
  -5   0  -5  574.62   13.33
   5   0  -5  551.07   10.17
  -5   0   5  563.76    9.92
  -5   0   6   23.18    3.66
  -5   0  -6   30.86    7.73
  -5   0  -6   25.56    3.00
   5   0  -6   39.65    8.20
  -5   0   6   23.74    8.57
  -5   0  -7  301.21    8.00
  -5   0  -7  296.81    5.13
   5   0  -7  292.43   11.65
  -5   0   7  305.30    8.14
  -5   0  -8 1475.98   43.58
  -5   0   8 1532.18   42.56
  -5   0  -8 1439.38   42.61
   5   0  -8 1530.34   45.25
  -5   0   8 1492.98   43.40
  -5   0  -9  625.17   14.99
  -5   0   9  667.36   11.15
  -5   0  -9  633.05   11.87
   5   0  -9  683.45   17.79
  -5   0   9  633.29   13.57
  -5   0 -10  246.37   11.53
  -5   0  10  235.06   12.84
  -5   0 -10  251.14    9.40
   5   0 -10  253.00   31.38
  -5   0  10  231.85   18.05
   5   0 -11   77.76    9.37
  -5   0 -11   81.61    6.86
  -5   0 -11   75.96    7.25
   5   0 -11   71.44   22.98
  -5   0  11   83.96   20.25
   5   0  11   76.79    7.93
   5   0 -12   30.53   10.86
  -5   0 -12   33.71    8.44
  -5   0 -12   30.75    9.70
   5   0 -12   58.97   16.84
  -5   0  12   37.18    9.73
   5   0  12   32.70    5.23
   5   0 -13    0.48    2.97
  -5   0 -13    4.21    3.91
  -5   0 -13    2.62    2.66
   5   0 -13    0.71    4.16
  -5   0  13    1.92    3.32
   5   0  13   -1.44    2.36
   5   0 -14   22.92   10.82
  -5   0 -14   37.39   15.23
  -5   0 -14   36.82   12.11
   5   0 -14   26.35    7.75
  -5   0  14   29.15    8.06
  -5   0 -15    8.78    5.42
  -5   0 -15    3.40    5.43
   5   0 -15   12.31   11.19
  -5   0  15   10.37    4.43
  -5   0 -16   55.47   12.53
  -5   0 -16   48.12   18.17
   5   0 -16   41.11   15.50
  -5   0  16   49.31    9.42
  -5   0 -17   95.24   10.29
  -5   0 -17   92.30   24.40
   5   0 -17   81.77   30.60
  -5   0  17   89.94   14.27
  -5   0 -18    8.63    7.96
  -5   0 -18    9.70    5.42
   5   0 -18    3.61    6.24
  -5   0  18    6.91    2.78
  -5   0 -19    1.60    5.11
  -5   0 -19    3.00    4.29
   5   0 -19   10.20    9.20
  -5   0  19    5.61    4.84
  -5   0 -20   33.41   18.28
   5   0 -20   23.12   11.99
  -5   1   0  786.62   13.69
  -5  -1   0  792.80   14.36
   5   1   0  756.62   12.90
  -5   1   1   28.86    2.20
  -5   1  -1   36.83    4.50
  -5  -1  -1   30.50   10.42
  -5  -1   1   40.26    4.02
   5   1   1   35.11    2.24
   5   1  -1   30.10    3.26
  -5   1   1   29.47   10.73
  -5   1  -2  899.82   16.24
  -5  -1  -2 1005.98   18.24
  -5  -1   2  931.39   15.95
   5  -1  -2  988.63   16.41
   5   1  -2  972.20   17.81
  -5   1   2  992.42   18.61
  -5   1  -3  604.08   20.79
  -5  -1  -3  617.88   21.38
  -5  -1   3  611.36   20.36
   5   1  -3  620.12   21.33
  -5   1   3  604.09   21.33
  -5   1  -4  921.05   26.30
  -5  -1  -4  821.94   23.80
  -5  -1   4  933.92   25.55
  -5   1  -4  947.43   25.90
  -5  -1  -4  885.23   23.71
   5   1  -4  848.31   24.55
   5  -1  -4  916.41   26.36
  -5   1   4  825.35   24.07
  -5   1  -5  489.50   10.16
  -5  -1  -5  478.15    8.54
  -5  -1   5  497.49    6.05
   5   1  -5  481.42   12.09
   5  -1  -5  490.95    9.85
  -5  -1   5  529.73    9.55
  -5   1   5  474.55    9.02
  -5   1  -6  459.84    8.83
  -5  -1  -6  444.03    9.47
  -5   1   6  441.92    3.90
  -5  -1   6  448.42    6.00
  -5   1  -6  454.47    6.52
  -5  -1  -6  448.02    5.87
   5   1  -6  449.44   10.59
   5  -1  -6  447.73   10.20
  -5  -1   6  459.00   11.67
  -5   1   6  439.12   14.53
  -5   1  -7  326.80    8.21
  -5  -1  -7  323.07    8.26
  -5   1   7  316.07    3.32
  -5  -1   7  330.58    5.12
  -5   1  -7  324.02    5.59
  -5  -1  -7  335.15    7.55
   5   1  -7  307.70   10.19
   5  -1  -7  338.55    9.98
  -5  -1   7  312.37    7.93
  -5   1   7  332.68    9.17
  -5   1  -8 1058.09   32.31
  -5  -1  -8 1145.31   40.62
  -5  -1   8 1122.60   32.22
  -5   1  -8 1131.46   32.54
  -5  -1  -8 1226.50   36.13
   5   1  -8 1155.82   35.08
   5  -1  -8 1121.21   33.98
  -5  -1   8 1126.40   34.82
  -5   1   8 1225.41   36.31
   5  -1  -9    7.42    1.69
  -5   1  -9    4.83    5.69
  -5  -1  -9    1.41    5.21
  -5  -1   9    8.67    2.58
  -5   1  -9   15.34    3.22
  -5  -1  -9   12.20    5.30
   5   1  -9    7.55    3.99
   5  -1  -9    9.29    5.91
  -5  -1   9    6.47    4.03
  -5   1   9    7.63    6.40
   5  -1 -10  277.89    8.12
  -5   1 -10  298.23   21.24
  -5  -1 -10  266.88   15.69
  -5  -1  10  268.85    8.58
  -5   1 -10  274.24    9.81
  -5  -1 -10  275.64   16.89
   5   1 -10  261.54   15.29
   5  -1 -10  266.96   16.51
  -5  -1  10  292.09   11.11
  -5   1  10  283.95   12.06
   5  -1 -11  154.72    9.94
  -5   1 -11  138.16    9.05
  -5  -1 -11  144.22   10.31
  -5  -1  11  160.06    8.35
  -5   1 -11  132.36   17.35
  -5  -1 -11  130.97   18.36
   5   1 -11  137.41   30.91
   5  -1 -11  177.34   18.99
  -5  -1  11  141.95    9.76
  -5   1  11  144.73   16.65
   5  -1  11  129.15   12.94
   5  -1 -12  521.57   15.14
  -5   1 -12  523.51   17.97
  -5  -1 -12  447.65   21.72
  -5  -1  12  489.39   15.21
  -5   1 -12  524.22   16.64
  -5  -1 -12  489.06   15.65
   5   1 -12  456.22   22.32
   5  -1 -12  499.48   18.44
  -5  -1  12  492.85   24.72
  -5   1  12  510.94   17.63
   5  -1  12  465.05   13.31
   5   1  12  517.49   17.95
   5  -1 -13  148.99   11.64
  -5   1 -13  143.60   17.52
  -5  -1 -13  165.01   12.31
  -5  -1  13  151.63   10.51
  -5   1 -13  138.49    7.38
  -5  -1 -13  165.26   11.52
   5   1 -13  148.23   21.42
   5  -1 -13  145.52   40.06
  -5  -1  13  159.29   18.00
  -5   1  13  179.68   16.66
   5   1  13  164.21   17.67
   5  -1 -14  119.29   11.61
  -5   1 -14  127.29   12.58
  -5  -1 -14  120.06    7.82
  -5  -1  14  113.11    9.84
  -5   1 -14  123.58   23.63
  -5  -1 -14  125.12   19.82
   5   1 -14  126.52   39.17
   5  -1 -14  126.29   15.74
  -5  -1  14  133.85   14.47
  -5   1  14  138.67   14.92
   5   1  14  152.95    7.73
  -5   1 -15   85.49   23.57
  -5  -1 -15   61.29   18.04
  -5  -1  15   61.34   12.52
  -5   1 -15   67.06   18.75
  -5  -1 -15   69.11   19.50
   5   1 -15   68.59   14.47
   5  -1 -15   73.78   14.22
  -5  -1  15   65.22   13.46
  -5   1  15   56.52    6.12
  -5   1 -16   64.76   15.47
  -5  -1 -16   66.61   17.33
  -5   1 -16   61.69   22.54
  -5  -1 -16   54.77   21.79
   5   1 -16   62.42   13.63
   5  -1 -16   78.15   11.10
  -5  -1  16   60.71    7.45
  -5   1  16   56.23    9.00
  -5   1 -17   20.68    6.84
  -5  -1 -17   12.48    5.94
  -5   1 -17   13.87    6.30
  -5  -1 -17   21.53    5.86
   5   1 -17   55.01   11.93
   5  -1 -17   21.01    8.69
  -5  -1  17   23.02    9.70
  -5   1  17   14.54    7.54
  -5   1 -18   54.43   19.15
  -5  -1 -18   53.64   13.51
  -5   1 -18   47.88   19.80
  -5  -1 -18   46.41   16.23
   5   1 -18   33.89   10.81
   5  -1 -18   58.40   20.67
  -5  -1  18   43.36   15.17
  -5   1  18   46.08   14.90
  -5   1 -19   -1.02    6.66
  -5  -1 -19   10.41    6.35
  -5   1 -19   -0.83    4.95
  -5  -1 -19    0.46    5.23
   5   1 -19   18.89   12.37
   5  -1 -19    3.24   11.15
  -5   1  19    6.68    5.03
  -5   1 -20   31.02   13.79
  -5  -1 -20   37.60   13.09
  -5   1 -20   42.97   15.32
   5   1 -20   42.91   20.35
   5  -1 -20   20.82   11.50
  -5   2   0  164.40    4.87
  -5  -2   0  168.57    4.54
   5   2   0  170.69    3.14
  -5   2   0  174.42    5.06
  -5   2   1  589.25   19.54
  -5   2  -1  645.50   21.92
  -5  -2  -1  649.44   39.76
  -5  -2   1  610.60   21.48
  -5   2  -1  687.59   41.91
   5   2   1  647.99   21.24
   5   2  -1  626.90   21.12
  -5  -2  -1  623.85   20.38
  -5   2  -1  661.83   40.40
  -5   2   1  643.64   22.27
  -5   2  -2 1739.23   29.32
   5  -2  -2 1718.70   27.40
  -5  -2  -2 1862.38   31.70
  -5  -2   2 1759.16   30.38
  -5   2  -2 1824.73   30.29
  -5   2   2 1710.04   29.66
  -5   2  -3    1.98    2.02
  -5  -2  -3    6.97    3.46
  -5  -2   3    7.70    2.49
  -5   2  -3    1.79    1.36
   5   2  -3   12.94    2.76
  -5   2   3    7.93    6.88
  -5   2  -4  470.91    8.05
  -5  -2  -4  488.82    9.17
  -5  -2   4  488.53    9.66
  -5  -2  -4  488.64    4.68
  -5   2  -4  476.69    6.49
   5   2  -4  505.22    8.94
  -5   2   4  506.37    9.63
  -5   2  -5  710.50   20.96
  -5  -2  -5  736.19   25.85
  -5  -2   5  738.45   20.81
  -5  -2  -5  758.07   20.70
  -5   2  -5  715.77   20.35
   5   2  -5  757.58   25.12
  -5   2   5  731.11   21.84
  -5   2  -6  194.30    6.52
  -5  -2  -6  162.59    6.65
  -5  -2   6  186.99    4.50
  -5   2  -6  199.83    5.00
   5   2  -6  163.85    7.68
  -5  -2  -6  180.85    4.13
   5  -2  -6  193.00    7.68
  -5   2   6  159.00   13.45
   5  -2  -7  278.64    2.90
  -5  -2  -7  314.90   12.18
  -5   2   7  284.44    3.39
  -5  -2   7  286.41    8.63
   5   2  -7  265.12    9.70
  -5  -2  -7  311.69    8.39
   5  -2  -7  300.46    8.60
  -5   2   7  292.60    9.83
   5  -2  -8  175.07    2.86
  -5   2  -8  163.33   19.71
  -5  -2  -8  218.10    8.32
  -5  -2   8  174.89    4.83
  -5   2  -8  183.27    5.12
   5   2  -8  214.05    9.90
   5  -2  -8  170.36    9.53
  -5   2   8  194.84    6.84
   5  -2  -9   30.08    3.72
  -5   2  -9   27.54   10.46
  -5  -2  -9   35.67   14.00
  -5  -2   9   34.82   10.22
  -5   2  -9   34.46   10.64
   5   2  -9   40.04   11.86
  -5  -2  -9   33.36   11.37
   5  -2  -9   42.23   10.94
  -5  -2   9   36.23   12.21
  -5   2   9   38.19   12.88
   5  -2 -10  145.55    9.06
  -5   2 -10  160.25   11.68
  -5  -2 -10  155.40   12.64
  -5  -2  10  146.91    8.95
  -5   2 -10  151.36   16.34
   5   2 -10  150.52   16.71
  -5  -2 -10  157.48   10.56
   5  -2 -10  151.12   15.20
  -5  -2  10  150.83   11.02
  -5   2  10  154.10   15.48
   5  -2  10  161.98    8.89
   5  -2 -11  166.00    8.99
  -5   2 -11  155.51    9.48
  -5  -2 -11  213.61   12.09
  -5  -2  11  156.42    9.03
  -5   2 -11  153.18    9.37
   5   2 -11  193.39   24.59
  -5  -2 -11  186.65   16.38
   5  -2 -11  158.55   32.01
  -5  -2  11  165.14   11.63
  -5   2  11  215.25   11.66
   5  -2 -12   15.09    7.35
  -5   2 -12   12.42    5.17
  -5  -2 -12   21.43    9.27
  -5  -2  12   14.49    6.34
  -5   2 -12   21.56    6.24
  -5  -2 -12   22.60    7.10
   5   2 -12   23.62   12.08
   5  -2 -12   13.91    8.92
  -5  -2  12   16.52    7.96
  -5   2  12   28.09    8.78
   5   2  12   14.73    7.35
   5  -2 -13  150.56   10.89
  -5   2 -13  135.38   19.48
  -5  -2 -13  135.46   15.10
  -5  -2  13  140.58   12.08
  -5   2 -13  130.69   16.23
  -5  -2 -13  163.65   12.13
   5   2 -13  138.01   23.40
   5  -2 -13  155.03   18.36
  -5  -2  13  152.73   11.15
  -5   2  13  147.06   17.92
   5   2  13  145.80   12.73
  -5   2 -14  162.08   25.04
  -5  -2 -14  145.12   12.08
  -5  -2  14  163.93    6.46
  -5   2 -14  164.02   12.67
  -5  -2 -14  150.32    9.65
   5   2 -14  142.78   18.05
   5  -2 -14  166.00   17.57
  -5  -2  14  173.83   15.05
  -5   2  14  163.00   13.15
   5   2  14  159.12    6.39
  -5   2 -15   23.94    9.94
  -5  -2 -15   18.97   12.64
  -5  -2  15   10.69    5.79
  -5   2 -15   18.18    6.37
  -5  -2 -15   22.30   10.56
   5   2 -15   58.30   15.14
   5  -2 -15   16.18    9.47
  -5  -2  15   17.08    5.43
  -5   2  15   28.39    9.20
   5   2  15  114.44   45.54
  -5   2 -16  169.42   38.85
  -5  -2 -16  162.77   19.67
  -5   2 -16  142.35   11.29
  -5  -2 -16  176.55    9.15
   5   2 -16  184.06   21.29
   5  -2 -16  161.74   11.24
  -5  -2  16  166.85    7.88
  -5   2  16  193.08   15.19
  -5   2 -17   87.98   10.19
  -5  -2 -17   95.85   24.95
  -5   2 -17   87.53   30.07
  -5  -2 -17   98.78    8.74
   5   2 -17   87.76   26.08
   5  -2 -17  114.68   14.28
  -5   2  17  112.24   17.13
  -5   2 -18   33.13    9.55
  -5  -2 -18   43.55   13.47
  -5  -2 -18   32.23   15.54
   5   2 -18   44.66   10.09
   5  -2 -18    0.69    9.79
  -5   2  18   33.82   11.98
  -5   2 -19    5.14    5.01
  -5  -2 -19    2.65    5.37
  -5   2 -19    3.58    5.04
   5   2 -19   10.54   12.09
   5  -2 -19    4.55    8.43
  -5   2  19    0.37    4.50
  -5   2 -20   50.66   17.11
  -5  -2 -20   35.90   13.97
  -5   2 -20   30.36   16.89
   5   2 -20   41.60   20.36
   5  -2 -20   21.45   12.27
  -5   2  20   42.42   15.39
  -5   3   0   43.59    2.47
  -5   3   0   44.92    2.69
   5   3   0   47.52    2.15
  -5   3   0   45.63   12.07
  -5   3   1  586.87   19.64
  -5   3  -1  565.95   20.62
  -5  -3  -1  577.25   20.21
  -5  -3   1  568.03   19.79
  -5   3  -1  551.55   18.83
   5   3   1  557.44   18.66
   5   3  -1  621.08   21.19
  -5   3  -1  565.20   19.46
  -5   3   1  599.62   20.83
  -5   3  -2  688.40   19.84
  -5  -3  -2  624.40   18.91
  -5  -3   2  708.40   20.46
   5   3   2  696.30   19.14
  -5   3  -2  679.21   19.29
   5   3  -2  611.83    7.88
  -5  -3  -2  623.28   17.16
  -5   3  -2  662.40   18.92
  -5   3   2  597.44    8.29
  -5   3  -3 1080.17   30.37
   5  -3  -3 1105.78   29.75
  -5  -3  -3 1175.61   33.33
  -5  -3   3 1096.72   30.64
   5  -3  -3 1142.51   30.74
  -5   3  -3 1117.31   31.86
  -5  -3  -3 1186.66   31.87
   5   3  -3 1151.05   32.22
  -5   3   3 1166.10   33.02
  -5   3  -4   89.39    7.18
  -5  -3  -4  100.35   11.01
   5  -3  -4   86.57    5.30
  -5  -3   4   84.64    6.55
  -5  -3  -4  106.00    7.81
  -5   3  -4  101.97    9.16
   5   3  -4   89.70   13.67
  -5   3   4   89.60    7.94
  -5   3  -5  209.72    6.44
  -5  -3  -5  188.60    5.80
  -5  -3   5  209.42    5.72
  -5   3  -5  221.22    6.25
   5   3  -5  197.80    6.73
  -5   3   5  192.44   10.24
   5  -3  -6  782.93   21.43
  -5   3  -6  772.95   23.67
  -5  -3  -6  798.65   24.55
  -5  -3   6  811.52   23.97
  -5   3   6  874.57   23.96
  -5   3  -6  786.08   23.01
   5   3  -6  817.84   25.14
  -5  -3  -6  811.10   23.12
  -5   3   6  799.14   24.59
  -5   3  -7  476.34   16.21
   5  -3  -7  483.62   13.56
  -5  -3  -7  534.04   17.89
  -5   3   7  558.66   15.81
  -5  -3   7  476.82   14.84
  -5   3  -7  502.87   17.03
   5   3  -7  544.72   18.71
  -5  -3  -7  540.66   16.76
  -5   3   7  523.36   17.46
   5  -3  -8   17.17    2.46
  -5   3  -8   28.07   11.21
  -5  -3  -8   22.64    8.45
  -5  -3   8   21.70    7.45
  -5   3  -8   22.91    7.94
   5   3  -8    5.82    6.89
  -5  -3  -8   17.18    5.15
   5  -3  -8   34.18   11.76
   5  -3   8   14.53    2.43
  -5   3   8   13.94    7.76
   5  -3  -9  193.23   10.00
  -5   3  -9  171.00   11.66
  -5  -3  -9  202.43   13.83
  -5  -3   9  211.11   11.84
  -5   3  -9  195.95   11.64
   5   3  -9  190.17   12.54
  -5  -3  -9  191.55   11.35
   5  -3  -9  183.81   16.02
   5  -3   9  215.52   10.90
  -5   3   9  186.91   12.02
   5  -3   9  199.64   10.14
   5  -3 -10   74.70    6.89
  -5   3 -10   63.88    6.40
  -5  -3 -10   81.09   12.48
  -5  -3  10   81.13   14.75
  -5   3 -10   76.36    5.06
   5   3 -10   97.31   13.39
  -5  -3 -10   91.50   15.01
   5  -3 -10  106.35   20.10
  -5   3  10   82.68   13.24
   5  -3  10   85.79    4.84
   5  -3 -11   20.25    5.52
  -5   3 -11   22.74    6.66
  -5  -3 -11   22.28   11.48
  -5  -3  11   22.84    8.58
  -5   3 -11   24.77    9.44
   5   3 -11   23.82   16.23
  -5  -3 -11   34.23    7.31
   5  -3 -11   19.23   12.04
  -5   3  11   24.12    9.49
   5  -3 -12   68.95    7.78
  -5   3 -12   65.05   24.31
  -5  -3 -12   68.23   25.87
  -5  -3  12   74.52   14.00
  -5   3 -12   67.90   22.54
   5   3 -12   67.20   20.85
  -5  -3 -12   71.73    6.66
   5  -3 -12   58.48   10.68
  -5   3  12   64.69    7.76
   5   3  12   57.36    5.17
   5  -3 -13  182.44    6.48
  -5   3 -13  187.05   16.54
  -5  -3 -13  212.39   11.47
  -5  -3  13  191.85    8.03
  -5   3 -13  171.79    9.75
   5   3 -13  208.09   30.58
  -5  -3 -13  185.37    8.41
   5  -3 -13  171.46   22.63
  -5   3  13  187.57   10.44
   5   3  13  176.73   16.65
  -5   3 -14   77.16   27.68
  -5  -3 -14  102.76   28.53
  -5  -3  14   72.27   19.83
  -5   3 -14   94.02    7.74
   5   3 -14   95.81   10.43
  -5  -3 -14   85.36   25.25
   5  -3 -14   91.45   29.47
  -5   3  14   98.15    8.79
   5   3  14   87.51    9.87
  -5   3 -15  102.91    9.03
  -5  -3 -15   99.16   30.36
  -5  -3  15   86.13   17.96
  -5   3 -15   85.95   15.55
   5   3 -15  100.00   37.83
  -5  -3 -15   96.52    8.08
   5  -3 -15   90.93   13.57
  -5   3  15   99.27   12.02
   5   3  15   91.08    9.44
  -5   3 -16   13.30    6.70
  -5  -3 -16    3.20    4.68
  -5  -3  16    7.52    4.03
  -5   3 -16    8.54    4.40
   5   3 -16   15.94    9.44
  -5  -3 -16    2.30    5.94
   5  -3 -16    5.28    6.26
  -5   3  16    6.23    2.24
   5   3  16   11.42    7.14
  -5   3 -17    7.01    5.80
  -5  -3 -17    1.67    4.54
  -5   3 -17    4.89    4.61
   5   3 -17   -0.57    5.36
  -5  -3 -17    6.38    5.85
   5  -3 -17    7.10    7.15
  -5   3  17    3.00    2.03
  -5   3 -18  101.61   38.80
  -5  -3 -18  129.53   36.08
  -5   3 -18   91.57   35.87
   5   3 -18  155.70   34.36
  -5  -3 -18  135.17   35.09
   5  -3 -18  115.35   55.01
  -5   3  18  153.51   35.66
  -5   3 -19   78.24   30.62
  -5  -3 -19   84.01   26.75
  -5   3 -19   51.17   23.54
   5   3 -19   63.64   29.94
   5  -3 -19   73.28   29.69
  -5   3  19   91.68   11.19
  -5   4   0 2150.98   59.01
  -5  -4   0 2236.92   61.46
  -5   4   0 2159.99   59.44
   5   4   0 2175.50   58.88
  -5   4   0 2091.23   58.09
  -5  -4  -1  387.10    8.23
  -5  -4   1  396.64    7.86
   5  -4  -1  393.71    5.77
  -5   4  -1  443.64    7.55
   5   4   1  443.98    8.66
   5   4  -1  377.59   10.74
  -5   4  -1  447.80    7.77
  -5   4  -2 1086.59   30.79
  -5  -4  -2 1047.31   30.12
  -5  -4   2 1057.99   30.13
   5  -4  -2 1042.22   28.86
   5   4   2 1090.09   29.81
  -5   4  -2 1012.75   28.58
   5   4  -2  983.88   27.73
  -5   4  -2 1090.23   30.71
  -5   4   2 1068.36   30.45
  -5   4  -3   73.04    6.28
  -5  -4  -3   69.81   18.79
  -5  -4   3   62.25    5.23
   5  -4  -3   66.42    6.24
   5   4   3   67.54    4.92
  -5   4  -3   67.45    5.60
   5   4  -3   58.01   15.34
  -5   4  -3   67.41    6.03
  -5   4   3   50.18    5.32
  -5   4  -4  538.42    9.45
  -5  -4  -4  563.06   10.54
   5  -4  -4  545.77    5.83
  -5  -4   4  510.83   12.18
  -5   4  -4  547.68    8.83
   5   4  -4  559.80   14.63
  -5   4   4  524.68   12.58
  -5   4  -5  630.92   23.61
  -5  -4  -5  654.85   20.53
   5  -4  -5  633.29   17.49
  -5  -4   5  626.06   18.85
  -5   4  -5  643.05   18.97
   5   4  -5  651.02   19.93
  -5   4   5  622.91   19.46
  -5   4  -6  901.93   27.29
   5  -4  -6  941.56   26.12
  -5  -4  -6  884.90   27.18
  -5  -4   6  878.80   25.85
  -5   4   6  895.66   24.86
  -5   4  -6  898.17   26.25
   5   4  -6  936.34   28.59
  -5   4   6  894.96   31.41
  -5   4  -7  464.60   16.30
   5  -4  -7  466.19   13.60
  -5  -4  -7  484.83   17.11
  -5  -4   7  469.54   15.03
  -5   4  -7  469.83   14.96
   5   4  -7  494.00   17.80
  -5  -4  -7  482.07   14.77
  -5   4   7  483.44   21.49
   5  -4   7  465.74   13.10
  -5   4  -8  195.66   13.27
   5  -4  -8  185.89   10.13
  -5  -4  -8  202.22   13.64
  -5  -4   8  176.87   12.12
  -5   4  -8  181.40   15.60
   5   4  -8  237.34   16.10
  -5  -4  -8  203.30   11.39
  -5   4   8  198.85   13.72
  -5   4  -9    5.41    4.83
   5  -4  -9    4.71    1.21
  -5  -4  -9    2.76    6.98
  -5  -4   9    2.46    2.44
  -5   4  -9    2.30    2.91
   5   4  -9    4.95    3.88
  -5  -4  -9    6.99    3.91
   5  -4  -9   -0.01    8.45
  -5   4   9   -0.08    3.68
  -5   4 -10  331.88   15.32
   5  -4 -10  342.10   15.71
  -5  -4 -10  324.24   15.15
  -5  -4  10  344.59   14.70
  -5   4 -10  303.68   15.72
   5   4 -10  350.80   17.51
  -5  -4 -10  339.77   14.75
   5  -4 -10  357.64   18.17
  -5   4  10  340.54   15.24
  -5   4 -11  385.93   13.92
   5  -4 -11  401.87   12.98
  -5  -4 -11  422.43   16.28
  -5  -4  11  395.25   13.10
  -5   4 -11  430.56   14.92
   5   4 -11  414.03   21.32
  -5  -4 -11  397.42   16.90
   5  -4 -11  393.02   16.43
  -5   4  11  405.85   14.76
  -5   4 -12   88.22    6.94
   5  -4 -12   76.80    9.52
  -5  -4 -12   88.26    8.73
  -5  -4  12   80.50   13.65
  -5   4 -12  101.10    8.13
   5   4 -12   92.07   33.97
  -5  -4 -12   98.90    6.05
   5  -4 -12   76.81   10.77
  -5   4  12   84.50    7.96
  -5   4 -13   69.30   27.90
  -5  -4 -13   88.98   11.58
  -5  -4  13   70.86   11.93
  -5   4 -13   57.57   23.73
   5   4 -13   70.57   19.48
  -5  -4 -13   50.41   17.33
   5  -4 -13   67.84   18.80
  -5   4  13   70.92   10.53
   5   4  13   64.98   13.54
  -5   4 -14   64.92   28.69
  -5  -4 -14   52.69   17.84
  -5  -4  14   63.55   16.49
  -5   4 -14   60.03   12.78
   5   4 -14   63.21   24.66
  -5  -4 -14   64.60   12.66
   5  -4 -14   57.40   16.35
  -5   4  14   58.28   17.28
   5   4  14   61.01    6.14
  -5   4 -15   13.57   10.12
  -5  -4 -15   29.19   10.80
  -5  -4  15   14.22    5.35
  -5   4 -15   20.75    8.82
   5   4 -15   19.86   13.14
  -5  -4 -15   20.35    6.59
   5  -4 -15   16.31    9.31
  -5   4  15   22.36    7.78
   5   4  15   19.73    9.50
  -5   4 -16   40.13   10.61
  -5  -4 -16   15.33    8.26
  -5  -4  16   16.11    6.95
  -5   4 -16   29.05    9.86
   5   4 -16   13.48    7.89
  -5  -4 -16   25.32    8.95
   5  -4 -16   17.35    8.13
  -5   4  16   20.74    7.58
   5   4  16   39.45   14.58
  -5   4 -17   51.53   17.30
  -5  -4 -17   36.33   25.69
  -5   4 -17   36.15   13.03
   5   4 -17   61.16   10.83
  -5  -4 -17   42.67   13.52
   5  -4 -17   56.71   21.60
  -5   4  17   38.08   13.04
  -5   4 -18   68.77   23.42
  -5  -4 -18   48.08   29.19
  -5   4 -18   55.89   18.86
   5   4 -18   57.32   15.98
   5  -4 -18   66.15   19.97
  -5   4  18   48.16   21.97
  -5   4 -19   23.23    6.61
  -5  -4 -19   41.21    9.63
  -5   4 -19   15.46    8.22
   5   4 -19   17.31    9.50
   5  -4 -19   24.51   16.44
  -5   4  19   19.86    9.40
  -5  -5   0  168.26    7.13
   5  -5   0  167.99    4.75
  -5   5   0  157.85   13.93
   5   5   0  160.02   10.51
  -5   5   0  163.24    5.31
  -5  -5  -1  789.55   23.86
  -5  -5   1  807.27   24.14
   5  -5  -1  787.50   22.33
  -5   5   1  782.27   23.15
  -5   5  -1  787.74   23.57
   5   5   1  769.95   22.96
  -5   5  -1  786.12   22.69
  -5   5   1  764.22   22.46
  -5   5  -2   99.78    7.67
  -5  -5  -2   99.78   13.29
  -5  -5   2   93.46    8.47
   5  -5  -2   89.12   11.32
   5   5   2   91.96    7.13
  -5   5  -2  105.23    7.92
   5   5  -2   98.25    7.43
  -5   5  -2  107.81    8.75
  -5   5   2  100.97    9.57
  -5   5  -3 1349.96   37.97
  -5  -5  -3 1248.26   35.96
  -5  -5   3 1265.68   36.00
   5  -5  -3 1303.50   35.80
   5   5   3 1251.03   34.25
  -5   5  -3 1297.72   36.46
   5   5  -3 1238.65   34.83
  -5   5  -3 1317.43   36.61
  -5   5   3 1206.24   34.48
  -5   5  -4   92.39   13.07
  -5  -5  -4  115.66   20.75
   5  -5  -4   85.46    2.71
  -5  -5   4   93.24    4.60
  -5   5  -4   90.94    4.50
   5   5  -4   96.77    5.45
  -5   5  -4   90.41    3.22
  -5   5   4   89.70   14.45
  -5   5  -5  177.35   16.32
  -5  -5  -5  201.89    8.26
   5  -5  -5  177.56    3.82
  -5  -5   5  161.79    6.11
  -5   5  -5  177.85    5.56
   5   5  -5  187.54    6.46
  -5   5   5  198.78    7.41
  -5   5  -6   92.83    5.49
  -5  -5  -6   86.23   20.69
   5  -5  -6   87.23    5.91
  -5  -5   6   77.99    6.09
  -5   5  -6  105.39    5.12
   5   5  -6   78.69   22.52
  -5   5   6   72.16   16.42
  -5   5  -7   30.68   10.34
   5  -5  -7   29.28    2.38
  -5  -5  -7   52.32   22.89
  -5  -5   7   25.12    8.73
  -5   5  -7   24.87    8.77
   5   5  -7   65.34   17.77
  -5   5   7   48.45   18.19
  -5   5  -8   97.14   10.77
   5  -5  -8   74.38    7.82
  -5  -5  -8   75.94   13.57
  -5  -5   8   75.91    5.74
  -5   5  -8   78.76   10.53
   5   5  -8   63.61   23.12
  -5  -5  -8   66.00   11.56
  -5   5   8   57.38   23.86
  -5   5  -9  712.68   21.83
   5  -5  -9  700.10   19.14
  -5  -5  -9  703.07   22.15
  -5  -5   9  704.22   20.11
  -5   5  -9  820.19   23.82
   5   5  -9  713.63   23.11
  -5  -5  -9  730.31   23.12
  -5   5   9  760.23   24.26
  -5   5 -10    6.50    7.42
   5  -5 -10    9.95    3.28
  -5  -5 -10   11.45    7.76
  -5  -5  10    4.95    3.28
  -5   5 -10    2.29    3.94
   5   5 -10   10.71    8.66
  -5  -5 -10    6.25    4.13
  -5   5  10    8.08    8.22
  -5   5 -11  153.22   23.41
   5  -5 -11  150.26    9.35
  -5  -5 -11  134.24    7.79
  -5  -5  11  156.96    7.02
  -5   5 -11  166.13    9.41
   5   5 -11  161.21   16.10
  -5  -5 -11  146.40   13.45
   5  -5 -11  150.47    9.49
  -5   5  11  155.58    8.99
  -5   5 -12   43.77   14.75
   5  -5 -12   47.72   11.59
  -5  -5 -12   64.29   19.32
  -5  -5  12   46.81   15.69
  -5   5 -12   46.18   16.17
   5   5 -12   46.60   16.86
  -5  -5 -12   59.88   15.98
   5  -5 -12   36.25   17.12
  -5   5  12   55.86   21.73
  -5   5 -13  128.86   18.13
  -5  -5 -13  157.59   27.26
  -5  -5  13  122.32   17.90
  -5   5 -13  158.66   26.04
   5   5 -13  119.74   38.47
  -5  -5 -13  124.38   10.79
   5  -5 -13  130.98   41.50
  -5   5  13  115.41   17.02
   5   5  13  141.08   11.08
  -5   5 -14    9.46    8.37
  -5  -5 -14    5.51    6.97
  -5  -5  14    7.88    4.90
  -5   5 -14   -1.31    4.95
   5   5 -14    9.28    6.32
  -5  -5 -14    1.44    4.15
   5  -5 -14   -1.19    9.39
  -5   5  14    6.38    3.59
   5   5  14    6.14    4.12
  -5   5 -15  175.18    9.65
  -5  -5 -15  164.73   19.67
  -5  -5  15  162.70    8.62
  -5   5 -15  150.52    7.47
   5   5 -15  144.84   39.24
  -5  -5 -15  147.67   14.59
   5  -5 -15  171.14   13.62
  -5   5  15  183.58   21.99
   5   5  15  163.57   18.89
  -5   5 -16  139.52   12.30
  -5  -5 -16  119.09   17.02
  -5  -5  16  142.67    8.99
  -5   5 -16  130.24   13.33
   5   5 -16  133.64   25.50
  -5  -5 -16  127.94   11.44
   5  -5 -16  126.35   16.14
  -5   5  16  138.55   17.37
   5   5  16  130.15   10.39
  -5   5 -17   21.51    9.33
  -5  -5 -17   13.96    4.61
  -5  -5  17   23.41    6.50
  -5   5 -17   30.80   11.79
   5   5 -17   20.52    8.34
  -5  -5 -17   24.89    9.12
   5  -5 -17   19.28   12.86
  -5   5  17   19.88    6.57
   5   5  17   17.34    7.81
  -5   5 -18    2.11    5.55
  -5  -5 -18    7.46    8.63
  -5   5 -18    4.66    4.11
   5   5 -18   14.02   10.29
   5  -5 -18    3.10    7.34
  -5   5  18    2.38    4.13
  -5   5 -19   16.69    6.70
  -5  -5 -19   20.00   10.02
  -5   5 -19   11.07    6.65
   5   5 -19   13.83    7.86
   5  -5 -19   35.11   13.53
  -5   5  19   10.13    9.00
  -5  -6   0  989.56   29.28
   5  -6   0 1016.77   29.98
  -5   6   0 1010.10   32.52
   5   6   0 1007.01   32.40
  -5   6   0 1027.65   29.83
  -5  -6  -1  220.51    8.16
  -5  -6   1  241.64    7.81
   5  -6  -1  257.42   10.82
  -5   6   1  205.87    6.19
  -5   6  -1  255.15    7.00
   5   6   1  265.83    9.29
   5   6  -1  208.20    5.62
  -5   6   1  213.20    6.46
  -5  -6  -2  109.52    8.17
  -5  -6   2   93.45    7.02
   5  -6  -2   97.47    9.03
   5  -6   2   84.65    4.71
  -5   6  -2   76.61    8.73
   5   6   2   98.21    7.94
   5   6  -2   93.14    6.13
  -5   6  -2   85.83    3.70
  -5   6   2   87.10    6.96
  -5   6  -3  336.41    7.62
  -5  -6  -3  317.28    8.37
  -5  -6   3  309.23    8.34
   5  -6  -3  329.64   10.23
   5   6   3  304.45    5.18
  -5   6  -3  319.22    7.16
   5   6  -3  309.72    6.78
  -5   6  -3  327.95    5.84
  -5   6   3  331.14    8.66
  -5   6  -4  421.95    8.41
  -5  -6  -4  465.93   16.04
   5  -6  -4  415.79    5.78
  -5  -6   4  399.19   10.73
  -5   6  -4  466.56   15.67
  -5   6  -4  422.69    7.00
  -5   6   4  479.29   16.56
  -5   6  -5  386.79    9.14
  -5  -6  -5  393.88   11.42
   5  -6  -5  373.29    5.69
  -5  -6   5  344.19   15.13
  -5   6  -5  385.52    8.12
   5   6  -5  384.85    9.63
  -5   6  -5  371.07    4.80
  -5   6   5  369.60   15.75
  -5   6  -6   76.11    8.36
  -5  -6  -6   85.26    8.02
   5  -6  -6   76.35    7.02
  -5  -6   6   77.03   14.87
  -5   6  -6   84.63    6.55
   5   6  -6   75.45   26.80
  -5   6   6   68.18   11.32
  -5   6  -7  171.40   23.28
  -5  -6  -7  174.36   14.71
   5  -6  -7  164.96    9.55
  -5  -6   7  161.60   10.77
  -5   6  -7  180.62   11.47
   5   6  -7  162.23   12.81
  -5   6   7  171.39   12.43
  -5   6  -8  213.22   16.39
   5  -6  -8  223.83   12.29
  -5  -6  -8  193.86   13.01
  -5  -6   8  228.72   14.57
  -5   6  -8  236.34    9.16
   5   6  -8  230.01   20.30
  -5   6   8  202.31   14.55
  -5   6  -9   10.45    7.11
   5  -6  -9   11.01    4.95
  -5  -6  -9   13.89    6.59
  -5  -6   9   10.24    4.74
  -5   6  -9    8.27    6.89
   5   6  -9   18.36    7.58
  -5   6   9   13.29    9.07
  -5   6 -10  115.12   19.04
   5  -6 -10   76.34    7.36
  -5  -6 -10   84.22   22.47
  -5  -6  10   94.40   16.32
  -5   6 -10   96.60    9.93
   5   6 -10   75.14   24.31
  -5  -6 -10   93.35    7.26
  -5   6  10   78.78   23.07
  -5   6 -11   87.28    8.43
   5  -6 -11   92.13   12.26
  -5  -6 -11  116.07    9.77
  -5  -6  11  104.58   20.95
  -5   6 -11  110.99   22.62
   5   6 -11  127.48    9.18
  -5  -6 -11  121.83    6.02
  -5   6  11  114.16   20.35
  -5   6 -12   88.34    7.86
  -5  -6 -12   99.39   14.62
  -5  -6  12   97.38   11.99
  -5   6 -12   87.91    6.46
   5   6 -12   92.72   24.56
  -5  -6 -12   81.51    8.52
   5  -6 -12   86.11   25.21
  -5   6  12   76.54   26.03
  -5   6 -13   62.84   21.31
  -5  -6 -13   57.13   19.18
  -5  -6  13   57.94    5.90
  -5   6 -13   52.48    9.49
   5   6 -13   58.39   16.01
  -5  -6 -13   53.66   17.29
   5  -6 -13   66.91   23.08
  -5   6  13   69.64   20.02
   5   6  13   54.83   18.85
  -5   6 -14   32.35   12.32
  -5  -6 -14   25.48   13.73
  -5  -6  14   27.68    7.47
  -5   6 -14   24.84   10.42
   5   6 -14   22.63    9.94
  -5  -6 -14   30.43    7.50
   5  -6 -14   20.60    8.60
  -5   6  14   33.08    7.77
   5   6  14   16.99   10.05
  -5   6 -15   67.27   24.82
  -5  -6 -15   50.81   10.16
  -5  -6  15   57.12   10.29
  -5   6 -15   46.69   18.46
   5   6 -15   63.12   13.53
  -5  -6 -15   67.73    9.11
   5  -6 -15   84.29   12.79
  -5   6  15   59.28   17.95
   5   6  15   52.47   26.30
  -5   6 -16  127.66   32.48
  -5  -6 -16  112.80   36.79
  -5  -6  16  113.14   19.09
  -5   6 -16  115.13   19.29
   5   6 -16  161.62   19.01
  -5  -6 -16  121.59   18.84
   5  -6 -16  118.39   44.01
  -5   6  16  121.47   26.15
   5   6  16  113.76   22.42
  -5   6 -17  106.72   41.13
  -5  -6 -17  127.13   28.42
  -5  -6  17  129.72   27.95
  -5   6 -17  111.91   34.42
   5   6 -17  121.82   27.77
   5  -6 -17  131.84   33.74
  -5   6  17  109.41   25.86
   5   6  17  620.67  113.47
  -5   6 -18   11.05    6.42
  -5  -6 -18   13.41    9.97
  -5   6 -18   10.63    6.82
   5   6 -18    9.57    8.32
   5  -6 -18    3.50    4.80
  -5   6  18   12.34    8.39
   5   6  18   11.46    6.48
  -5   6 -19    4.14    5.55
  -5  -6 -19    5.49    6.42
  -5   6 -19    7.56    6.35
   5   6 -19    5.78    9.87
   5  -6 -19    4.28    9.90
  -5   6  19   12.17    6.14
  -5  -7   0    3.54    4.53
   5  -7   0    3.66    2.70
  -5   7   0   -0.61    3.87
   5   7   0    1.67    2.28
  -5   7   0    2.49    2.59
  -5  -7  -1  402.79   23.20
  -5  -7   1  451.76   16.34
   5  -7  -1  434.15   14.12
   5  -7   1  516.36   17.08
  -5   7   1  431.58    9.40
  -5   7  -1  445.95   15.33
   5   7   1  451.00   14.24
   5   7  -1  436.91   14.41
  -5   7  -1  442.32   14.47
  -5   7   1  435.18    8.47
  -5  -7  -2   78.17   28.91
  -5  -7   2   50.65    6.99
   5  -7  -2   55.83   10.12
   5  -7   2   58.49    6.78
  -5   7   2   51.35    5.06
  -5   7  -2   59.13    6.65
   5   7   2   51.92    3.73
   5   7  -2   64.23    7.28
  -5   7  -2   62.86    4.76
  -5   7   2   54.02    8.22
  -5  -7  -3  302.65   10.64
  -5  -7   3  318.01    9.25
   5  -7  -3  308.37    6.29
   5  -7   3  319.98    8.71
  -5   7  -3  311.96    7.66
   5   7  -3  297.92   19.74
  -5   7  -3  303.94    8.19
  -5   7   3  290.39   17.51
  -5  -7  -4  434.99   11.91
   5  -7  -4  461.34   13.22
  -5  -7   4  461.93   11.92
   5  -7   4  435.95   22.78
   5   7   4  442.16    9.90
  -5   7  -4  431.90   10.75
   5   7  -4  463.85   12.34
  -5   7  -4  438.94   10.26
  -5   7   4  436.71   12.11
  -5   7  -5  101.32   13.44
  -5  -7  -5   94.37   11.33
   5  -7  -5  106.85    6.75
  -5  -7   5  114.77    9.76
  -5   7  -5  103.62   12.05
   5   7  -5   94.89   11.60
  -5   7  -5  107.48    6.24
  -5   7   5   87.29   13.35
  -5   7  -6   16.57    8.39
  -5  -7  -6    8.52    5.85
   5  -7  -6   12.37    4.22
  -5  -7   6   12.19    7.67
  -5   7  -6   12.58   11.31
   5   7  -6    5.24    2.51
  -5   7   6    8.39   10.04
  -5   7  -7  485.81   21.35
  -5  -7  -7  462.73   17.00
   5  -7  -7  465.52   15.80
  -5  -7   7  464.07   16.17
  -5   7  -7  471.06   15.72
   5   7  -7  420.90   14.86
  -5   7   7  473.56   16.05
  -5   7  -8  196.13   28.26
  -5  -7  -8  195.76   13.75
   5  -7  -8  195.01   12.63
  -5  -7   8  204.34   11.42
  -5   7  -8  190.35   11.26
   5   7  -8  185.95   11.62
  -5   7   8  178.54   23.22
  -5   7  -9  226.15   30.02
   5  -7  -9  243.18    8.69
  -5  -7  -9  241.11   22.41
  -5  -7   9  228.81   11.02
  -5   7  -9  218.88    9.26
   5   7  -9  244.35   22.82
  -5   7   9  268.26   12.44
  -5   7 -10  152.23   11.32
   5  -7 -10  148.18   12.51
  -5  -7 -10  167.12   14.10
  -5  -7  10  148.91   12.13
  -5   7 -10  128.88    6.67
   5   7 -10  173.55   22.61
  -5   7  10  146.53   23.55
  -5   7 -11    7.00    3.99
   5  -7 -11    8.38    3.35
  -5  -7 -11    8.53    7.70
  -5  -7  11    3.67    3.77
  -5   7 -11    8.97    5.65
   5   7 -11    1.50    8.06
  -5  -7 -11    7.12    3.29
  -5   7  11    6.89    2.73
  -5   7 -12    3.20    4.47
  -5  -7 -12    4.99    6.32
  -5  -7  12    8.17    4.41
  -5   7 -12    4.15    4.04
   5   7 -12    5.57    4.48
  -5  -7 -12    8.39    5.73
  -5   7  12    5.90    2.90
  -5   7 -13  225.41   33.40
  -5  -7 -13  257.75   22.26
  -5  -7  13  226.67   17.93
  -5   7 -13  243.33   19.13
   5   7 -13  237.66   28.55
  -5  -7 -13  225.92   18.35
   5  -7 -13  235.32   32.53
  -5   7  13  249.73   31.44
   5   7  13  310.18   25.78
  -5   7 -14    3.92    5.24
  -5  -7 -14    3.43    4.06
  -5  -7  14    1.69    4.28
  -5   7 -14    0.23    2.53
   5   7 -14    5.35    3.39
  -5  -7 -14    5.63    4.13
   5  -7 -14    5.37    5.74
  -5   7  14    4.53    4.42
   5   7  14    8.31    4.66
  -5   7 -15   99.79   12.91
  -5  -7 -15   89.52   29.77
  -5  -7  15   97.18   11.46
  -5   7 -15  107.14   16.21
   5   7 -15   95.72   30.08
  -5  -7 -15   86.48   20.77
   5  -7 -15   93.64   16.48
  -5   7  15  114.89   18.14
   5   7  15  111.55   17.82
  -5   7 -16   47.33   17.08
  -5  -7 -16   45.53   22.37
  -5  -7  16   43.28   16.08
  -5   7 -16   47.60   22.30
   5   7 -16   47.38   15.08
   5  -7 -16   48.20   13.28
  -5   7  16   45.66   14.35
   5   7  16   36.37   15.75
  -5   7 -17    6.82    5.67
  -5  -7 -17   14.85    6.92
  -5  -7  17    4.60    4.69
  -5   7 -17   -0.39    4.80
   5   7 -17    1.47    7.31
   5  -7 -17   -3.35    9.51
  -5   7  17    4.78    4.19
   5   7  17    7.95    5.30
  -5   7 -18    3.97    6.49
  -5  -7 -18    3.89    3.45
  -5   7 -18    6.62    7.50
   5   7 -18    7.29    6.39
   5  -7 -18    4.63    8.00
  -5   7  18    5.07    5.76
   5   7  18    7.75    5.14
  -5  -8   0  287.63   18.12
   5  -8   0  294.69   16.33
  -5   8   0  323.50   10.10
   5   8   0  282.93   17.55
  -5   8   0  302.19    7.45
  -5  -8  -1  148.24   11.10
  -5  -8   1  127.24    9.57
   5  -8  -1  132.76   16.10
   5  -8   1  144.00    9.58
  -5   8   1  156.32   11.01
  -5   8  -1  133.68    9.89
   5   8   1  137.41    8.63
   5   8  -1  137.43    9.08
  -5   8  -1  123.90    8.92
  -5   8   1  154.04    9.91
  -5  -8  -2  100.52   39.68
  -5  -8   2   90.50   30.58
   5  -8  -2   73.87    4.91
   5  -8   2   94.98    8.75
  -5   8   2   79.65    6.28
   5   8   2   84.35    8.83
  -5   8  -2   74.81    8.48
   5   8  -2   73.10    5.02
  -5   8  -2   90.61    6.11
  -5   8   2   89.61    8.37
  -5  -8  -3    1.25    6.55
  -5  -8   3    8.39    6.04
   5  -8  -3    3.14    2.46
   5  -8   3    4.42    2.69
   5   8   3    3.37    3.03
  -5   8  -3    8.25    3.92
   5   8  -3    7.09    4.25
  -5   8  -3    9.76    3.55
  -5   8   3    7.95    6.56
  -5  -8  -4    2.03    6.75
   5  -8  -4    2.45    1.78
  -5  -8   4   -1.81    6.23
   5  -8   4   -3.68    5.74
   5   8   4    1.28    2.24
  -5   8  -4    6.43    4.84
   5   8  -4    0.68    3.20
  -5   8  -4    1.64    1.07
  -5   8   4    6.26    5.79
  -5  -8  -5  419.88   16.35
   5  -8  -5  461.71   13.75
  -5  -8   5  461.91   16.82
   5  -8   5  426.37   14.56
  -5   8  -5  414.22   13.81
   5   8  -5  442.40   15.39
  -5   8  -5  452.35   12.46
  -5   8   5  456.17   16.06
  -5  -8  -6  198.46   32.32
   5  -8  -6  155.72   10.27
  -5  -8   6  143.39   11.24
   5  -8   6  175.15   12.74
  -5   8  -6  150.48   18.30
   5   8  -6  197.00   15.01
  -5   8  -6  170.08    9.30
  -5   8   6  162.84   16.25
  -5   8  -7  341.97   19.15
  -5  -8  -7  312.93   14.34
   5  -8  -7  330.02   13.09
  -5  -8   7  330.24   22.21
  -5   8  -7  342.15   15.33
   5   8  -7  342.75   16.68
  -5   8   7  332.56   21.64
  -5   8  -8   16.16   13.10
  -5  -8  -8   39.96   12.85
   5  -8  -8   30.33    4.61
  -5  -8   8   27.33    9.12
  -5   8  -8   17.21    5.33
   5   8  -8   30.05   11.06
  -5   8   8   37.05   15.01
  -5   8  -9   40.54   13.70
  -5  -8  -9   21.23    6.49
   5  -8  -9   27.03   11.72
  -5  -8   9   40.54   17.84
  -5   8  -9   28.12   11.56
   5   8  -9   13.24    8.36
  -5   8   9   32.20   12.98
  -5   8 -10  141.13    9.48
   5  -8 -10  150.42    7.08
  -5  -8 -10  144.22   11.04
  -5  -8  10  144.30   15.26
  -5   8 -10  162.40    8.82
   5   8 -10  138.72   18.18
  -5   8  10  151.79   16.27
  -5   8 -11  234.31   11.39
  -5  -8 -11  185.16   21.17
  -5  -8  11  228.49   10.70
  -5   8 -11  232.95   10.23
   5   8 -11  222.43   12.77
  -5   8  11  217.96   21.40
  -5   8 -12  102.98   10.66
  -5  -8 -12   75.34   30.95
  -5  -8  12  110.70   10.71
  -5   8 -12   89.43    6.26
   5   8 -12  100.96   30.98
  -5  -8 -12   93.87   16.55
  -5   8  12   83.31   26.65
  -5   8 -13   12.21    6.67
  -5  -8  13   10.87    6.16
  -5   8 -13    7.78    5.92
   5   8 -13   12.69    8.99
  -5  -8 -13   13.88    7.53
  -5   8  13   13.22   13.53
   5   8  13   18.30   10.50
  -5   8 -14    4.03    4.94
  -5  -8 -14   18.33    8.32
  -5  -8  14   -0.11    4.28
  -5   8 -14   19.37    7.40
   5   8 -14    5.74    6.83
  -5  -8 -14   10.22    6.63
   5  -8 -14   -1.76    8.27
  -5   8  14   13.40    6.08
   5   8  14    7.28    4.67
  -5   8 -15   10.92    6.39
  -5  -8 -15    5.86    4.09
  -5  -8  15   -3.86    4.12
  -5   8 -15    8.94    7.04
   5   8 -15    3.35    5.43
  -5  -8 -15    5.69    6.60
   5  -8 -15   11.90    8.24
  -5   8  15    9.81    7.09
   5   8  15    3.82    3.51
  -5   8 -16   30.46   16.58
  -5  -8 -16   25.86   11.74
  -5  -8  16   19.41   10.81
  -5   8 -16   32.01   14.12
   5   8 -16   19.36    9.96
   5  -8 -16   12.02    8.34
  -5   8  16   22.31    6.94
   5   8  16   14.52    9.93
  -5   8 -17   50.45   21.51
  -5  -8 -17   40.02   17.82
  -5  -8  17   38.99   19.76
  -5   8 -17   43.96   19.46
   5   8 -17   23.31   11.96
   5  -8 -17   41.91   11.41
  -5   8  17   39.75   15.49
   5   8  17   47.30    7.78
  -5   8 -18   20.84   11.94
  -5  -8 -18   21.16   11.37
  -5  -8  18   26.29   11.88
  -5   8 -18   17.55    7.21
   5   8 -18   22.01   13.33
   5  -8 -18   29.03    9.36
  -5   8  18   14.10    6.22
   5   8  18   23.77    9.18
  -5  -9   0    9.71    6.53
   5  -9   0   11.63    5.18
  -5   9   0    7.64    6.26
   5   9   0    8.01    3.04
  -5   9   0   14.94    4.24
  -5  -9  -1  120.57   35.31
  -5  -9   1  143.37   20.87
   5  -9  -1  147.83   10.64
   5  -9   1  114.08    8.26
  -5   9   1  125.92    9.04
  -5   9  -1  133.88    9.66
   5   9   1  149.70   19.00
   5   9  -1  118.32    8.72
  -5   9  -1  142.38    9.25
  -5   9   1  122.38   11.81
  -5  -9  -2  342.03   18.67
  -5  -9   2  343.51   14.55
   5  -9  -2  359.04   12.34
   5  -9   2  360.19   12.87
  -5   9   2  358.99   18.57
   5   9   2  335.46   11.47
  -5   9  -2  331.99   13.46
   5   9  -2  374.59   13.24
  -5   9  -2  327.34   10.66
  -5   9   2  360.26   23.58
  -5  -9  -3  563.68   18.92
  -5  -9   3  598.22   20.26
   5  -9  -3  535.69   15.97
   5  -9   3  591.05   19.28
   5   9   3  542.34   16.28
  -5   9  -3  540.48   18.11
   5   9  -3  574.34   30.03
  -5   9  -3  536.48   17.68
  -5   9   3  632.14   20.36
  -5  -9  -4   14.05    7.31
   5  -9  -4    9.24    5.18
  -5  -9   4   11.20    7.58
   5  -9   4    9.07    4.95
   5   9   4   14.14    6.31
  -5   9  -4   10.80    6.78
   5   9  -4    5.99    5.36
  -5   9  -4   14.76    3.19
  -5   9   4   -0.19    5.75
  -5  -9  -5    9.51    7.81
   5  -9  -5    7.49    3.68
  -5  -9   5   10.46   10.79
   5  -9   5   -0.33    6.11
  -5   9  -5   16.68    6.96
   5   9  -5    3.42    6.11
  -5   9  -5   13.16    2.99
  -5   9   5    7.77    5.17
  -5  -9  -6  196.08   16.71
   5  -9  -6  200.41   16.56
  -5  -9   6  230.64   19.74
   5  -9   6  204.27   15.08
  -5   9  -6  234.81   12.36
   5   9  -6  228.90   15.95
  -5   9  -6  212.10    8.85
  -5   9   6  197.52   11.24
  -5  -9  -7  103.84   26.35
   5  -9  -7  105.65   11.56
  -5  -9   7  112.85   11.80
   5  -9   7   87.63    7.00
  -5   9  -7   93.61   14.63
   5   9  -7  106.68    7.94
  -5   9   7   98.35    7.69
  -5  -9  -8   48.67   16.66
   5  -9  -8   39.04    9.19
  -5  -9   8   32.28    7.48
   5  -9   8   52.65   16.18
  -5   9  -8   32.39   10.84
   5   9  -8   46.50   15.94
  -5   9   8   46.66   16.07
  -5  -9  -9   46.73    9.66
   5  -9  -9   51.60    5.89
  -5  -9   9   49.79   14.50
   5  -9   9   31.92   18.10
  -5   9  -9   53.71   20.89
   5   9  -9   52.15   18.90
  -5   9   9   41.20   11.30
  -5  -9 -10  306.65   13.31
   5  -9 -10  287.03    9.61
  -5  -9  10  271.77   11.80
  -5   9 -10  289.77   15.31
   5   9 -10  301.61   13.25
  -5   9  10  269.53   15.56
  -5   9 -11   53.30   17.17
  -5  -9 -11   59.93   10.89
  -5  -9  11   70.61   24.26
  -5   9 -11   47.50   19.23
   5   9 -11   56.65   23.61
  -5   9  11   63.85   31.67
  -5   9 -12   20.95   14.33
  -5  -9 -12   21.94   13.31
  -5  -9  12   20.34    7.11
  -5   9 -12   28.06    8.38
   5   9 -12   26.89   10.25
  -5   9  12   18.44   12.77
  -5   9 -13   53.72   16.52
  -5  -9 -13   51.92   24.62
  -5  -9  13   49.04   19.45
  -5   9 -13   57.04   21.86
   5   9 -13   53.52   15.26
  -5  -9 -13   44.95   13.91
  -5   9  13   61.53   17.83
   5   9  13   53.06   22.02
  -5   9 -14   72.23   25.05
  -5  -9 -14   58.69   25.13
  -5  -9  14   71.50   28.74
  -5   9 -14   81.03   11.85
   5   9 -14   90.61   24.02
  -5  -9 -14   77.86    8.53
   5  -9 -14   90.93   21.25
  -5   9  14   97.33   18.39
   5   9  14   82.91   37.04
  -5   9 -15  109.77   30.55
  -5  -9 -15  128.78   35.66
  -5  -9  15  127.48    8.70
  -5   9 -15  117.18   17.99
   5   9 -15  104.98   10.10
   5  -9 -15   92.23   17.12
  -5   9  15  119.63   34.22
   5   9  15   86.09   30.39
  -5   9 -16    7.20    4.06
  -5  -9 -16   -3.64    7.23
  -5  -9  16    5.28    5.72
  -5   9 -16    0.93    4.67
   5   9 -16   -1.27    9.13
   5  -9 -16    6.33    9.67
  -5   9  16    5.58    4.65
   5   9  16    6.58    4.98
  -5   9 -17    8.57    6.72
  -5  -9 -17   18.22    7.05
  -5  -9  17    9.34    7.19
  -5   9 -17    1.98    3.52
   5   9 -17    5.83    5.62
   5  -9 -17   17.28    9.36
  -5   9  17   14.66    6.46
   5   9  17   11.67    6.76
  -5 -10   0   44.27   19.32
   5 -10   0   43.73   20.93
  -5  10   0   48.00   21.22
   5  10   0   61.29   20.50
  -5  10   0   48.19   16.58
  -5 -10  -1  521.96   20.72
  -5 -10   1  556.40   22.63
   5 -10  -1  545.27   21.22
   5 -10   1  543.87   21.82
  -5  10   1  568.87   22.32
  -5  10  -1  506.45   24.73
   5  10   1  534.58   20.44
   5  10  -1  582.62   21.75
  -5  10  -1  544.97   20.09
  -5  10   1  544.06   27.68
  -5 -10  -2  131.78   29.15
  -5 -10   2  194.05   14.92
   5 -10  -2  161.87   14.59
   5 -10   2  127.38   13.32
  -5  10   2  141.19   12.42
   5  10   2  165.88   18.40
  -5  10  -2  160.08   10.34
   5  10  -2  134.37   14.92
  -5  10  -2  164.52   13.65
  -5  10   2  134.32   12.75
  -5 -10  -3  277.66   25.48
  -5 -10   3  315.74   16.89
   5 -10  -3  320.48   13.78
   5 -10   3  271.64   13.08
   5  10   3  303.14   13.11
  -5  10  -3  302.91   14.85
   5  10  -3  283.33   12.21
  -5  10  -3  287.49   11.55
  -5  10   3  282.01   17.43
  -5 -10  -4  115.76   15.63
   5 -10  -4   97.40    6.40
  -5 -10   4   99.19   15.16
   5 -10   4  107.46    9.58
   5  10   4   88.81    6.95
  -5  10  -4  105.93   12.55
   5  10  -4  108.60    6.47
  -5  10  -4   92.63    4.93
  -5  10   4  115.63   31.08
  -5 -10  -5  431.73   17.70
   5 -10  -5  403.61   13.50
  -5 -10   5  403.77   16.82
   5 -10   5  401.77   25.34
   5  10   5  401.85   13.82
  -5  10  -5  436.85   16.40
   5  10  -5  393.37   14.29
  -5  10  -5  404.09   13.09
  -5  10   5  386.95   15.04
  -5 -10  -6   60.84   26.10
   5 -10  -6   78.84   13.23
  -5 -10   6   67.30   25.20
   5 -10   6   78.67   22.38
  -5  10  -6   97.00   15.71
   5  10  -6   83.63    9.62
  -5  10   6   99.44   17.64
  -5 -10  -7  269.56   21.25
   5 -10  -7  299.37   19.19
  -5 -10   7  305.22   20.01
   5 -10   7  284.49   19.16
  -5  10  -7  321.62   20.25
   5  10  -7  354.87   23.24
  -5  10   7  285.95   19.25
  -5 -10  -8   47.50   11.40
   5 -10  -8   39.62    5.70
  -5 -10   8   48.13   14.85
   5 -10   8   44.49   21.96
  -5  10  -8   49.01   18.37
   5  10  -8   44.33   12.29
  -5  10   8   40.30   15.78
  -5 -10  -9   31.67   16.06
   5 -10  -9   35.28    4.98
  -5 -10   9   37.81   16.95
   5 -10   9   36.36   12.98
  -5  10  -9   29.80   11.06
   5  10  -9   29.84   11.59
  -5  10   9   36.79   16.25
  -5 -10 -10  129.38   41.40
  -5 -10  10  125.44   14.00
   5 -10  10  139.86   21.41
  -5  10 -10  107.37   23.61
   5  10 -10  110.79   12.01
  -5  10  10  137.76   33.27
  -5 -10 -11  394.35   30.72
  -5 -10  11  424.64   13.88
   5 -10  11  422.44   15.01
  -5  10 -11  382.76   13.56
   5  10 -11  384.85   14.59
  -5  10  11  424.18   15.09
  -5 -10 -12   10.26    6.95
  -5 -10  12   11.93   11.46
   5 -10  12    9.25    8.72
  -5  10 -12   11.30    5.79
   5  10 -12   12.84    7.02
  -5  10  12   10.76    5.84
   5  10  12   34.45   10.51
  -5 -10 -13   73.55    8.32
  -5 -10  13   78.59   13.15
   5 -10  13   59.46   23.50
  -5  10 -13   54.73   18.52
   5  10 -13   48.45   19.50
  -5 -10 -13   62.37   16.61
  -5  10  13   60.64   18.97
   5  10  13   63.95   22.65
  -5 -10 -14   29.66    7.87
  -5 -10  14   27.30   13.45
   5 -10  14   21.51   10.65
  -5  10 -14   37.65    7.72
   5  10 -14   18.64    7.33
  -5 -10 -14   25.95    7.69
  -5  10  14   29.32    8.80
   5  10  14   17.47    8.38
  -5 -10 -15   15.01    7.82
  -5 -10  15    7.92    8.90
   5 -10  15    5.57    9.97
  -5  10 -15   12.03    5.22
   5  10 -15   17.92    8.87
   5 -10 -15   21.82   12.57
  -5  10  15    7.67    4.06
   5  10  15    9.03    6.97
  -5 -10 -16   27.30    9.85
  -5 -10  16   19.43    8.29
   5 -10  16   10.87   10.95
  -5  10 -16    8.25    5.14
   5  10 -16   20.52   15.05
   5 -10 -16   22.76    9.25
  -5  10  16   16.87    7.61
   5  10  16   10.78   13.20
  -5 -11   0  294.89   15.13
   5 -11   0  274.59   13.92
  -5  11   0  279.15   15.87
   5  11   0  278.64   21.89
  -5  11   0  273.63   14.64
  -5 -11  -1    0.19    3.64
  -5 -11   1    7.88    5.65
   5 -11  -1    4.62    3.83
   5 -11   1    3.34    2.19
  -5  11   1    6.27    6.84
  -5  11  -1    3.20    3.37
   5  11   1    8.49    6.68
   5  11  -1    5.77    3.58
  -5  11  -1   10.81    6.38
  -5  11   1    5.55    3.58
  -5 -11  -2  215.56   13.20
  -5 -11   2  224.27   13.95
   5 -11  -2  206.47   15.39
   5 -11   2  227.84   15.78
  -5  11   2  233.77   16.54
   5  11   2  199.30   18.68
  -5  11  -2  212.66   14.13
   5  11  -2  208.90   23.52
  -5  11  -2  236.97   15.18
  -5  11   2  195.95   14.06
  -5 -11  -3   20.08   12.10
  -5 -11   3   21.72    7.82
   5 -11  -3   12.56    5.19
   5 -11   3   33.34    9.68
  -5  11   3   23.96    7.69
   5  11   3   26.61    8.28
  -5  11  -3   19.63   10.01
   5  11  -3   33.27    8.77
  -5  11  -3   19.57    5.39
  -5  11   3   25.88    7.44
  -5 -11  -4  130.49   24.93
   5 -11  -4   93.98    7.58
  -5 -11   4   88.73   14.33
   5 -11   4  134.59   27.14
   5  11   4  107.40    8.49
  -5  11  -4   83.19    6.38
   5  11  -4  124.29   13.37
  -5  11  -4  104.34   10.28
  -5  11   4  106.47   11.58
  -5 -11  -5   46.84   15.51
   5 -11  -5   53.17   10.89
  -5 -11   5   65.71   17.16
   5 -11   5   43.96    6.15
   5  11   5   64.99    9.09
  -5  11  -5   51.74   15.03
   5  11  -5   54.96   17.42
  -5  11  -5   62.54    3.67
  -5  11   5   47.56   17.33
  -5 -11  -6   71.81   30.98
   5 -11  -6   66.80    7.57
  -5 -11   6   63.77   25.68
   5 -11   6   82.11   12.71
  -5  11  -6   63.33   22.99
   5  11  -6   64.64   21.93
  -5  11   6   73.06   24.75
  -5 -11  -7   27.21    7.88
   5 -11  -7   13.95    7.39
  -5 -11   7   11.97    7.55
   5 -11   7   10.97    6.49
  -5  11  -7    7.89    8.45
   5  11  -7   14.89    9.35
  -5  11   7   15.83   10.40
  -5 -11  -8  120.98   17.61
   5 -11  -8  135.36   15.84
  -5 -11   8  143.19   29.24
   5 -11   8  144.35   17.84
  -5  11  -8  136.16   14.69
   5  11  -8  115.03   11.00
  -5  11   8  139.29   31.42
  -5 -11  -9   60.93   23.52
   5 -11  -9   63.54    7.27
  -5 -11   9   57.93    9.47
   5 -11   9   69.30   29.44
  -5  11  -9   58.44   19.71
   5  11  -9   47.70   27.23
  -5  11   9   58.34   24.15
  -5 -11 -10   71.76   24.89
  -5 -11  10   63.87   21.64
   5 -11  10   71.65   28.66
  -5  11 -10   55.09   19.73
   5  11 -10   77.89   26.01
  -5  11  10   64.90   24.79
  -5 -11 -11   16.01   11.82
  -5 -11  11   22.51   11.49
   5 -11  11    8.72    5.65
  -5  11 -11   13.32    8.49
   5  11 -11   22.86   12.73
  -5  11  11   21.79    9.97
  -5 -11 -12  151.04   16.50
  -5 -11  12  166.92   25.32
   5 -11  12  132.51   11.79
  -5  11 -12  128.24   11.26
   5  11 -12  142.81    8.88
  -5  11  12  158.18   11.94
   5  11  12  150.93   22.36
  -5 -11 -13   13.45    8.20
  -5 -11  13    7.84    6.31
   5 -11  13    3.86    6.23
  -5  11 -13    9.05    4.71
   5  11 -13    7.95    5.89
  -5  11  13    9.34    6.42
   5  11  13   10.10    3.20
  -5 -11 -14   40.08   15.93
  -5 -11  14   41.46   16.89
   5 -11  14   31.12   19.40
  -5  11 -14   53.33   12.88
   5  11 -14   23.15   18.80
  -5  11  14   28.96   10.65
   5  11  14   38.79   11.46
  -5 -11 -15   -1.27    5.14
  -5 -11  15    7.48    6.20
   5 -11  15    3.80    8.75
  -5  11 -15    4.84    5.62
   5  11 -15   -0.75    9.17
  -5  11  15   14.45    6.31
   5  11  15    4.50    4.88
  -5 -12   0   12.97    9.72
   5 -12   0   17.47    6.81
  -5  12   0    9.38    8.21
   5  12   0   23.90    6.12
  -5  12   0   22.60    7.83
  -5 -12  -1   51.43   19.87
  -5 -12   1   50.00   16.37
   5 -12  -1   43.12   24.07
   5 -12   1   52.77   14.20
  -5  12   1   39.67   14.68
  -5  12  -1   36.76   23.33
   5  12   1   52.32   13.88
   5  12  -1   64.00   15.37
  -5  12  -1   47.46   15.65
  -5  12   1   57.86   17.93
  -5 -12  -2   85.57   30.53
  -5 -12   2   85.72   36.74
   5 -12  -2   87.24    5.78
   5 -12   2  107.37    8.11
  -5  12   2   87.15   15.50
   5  12   2   98.31    9.16
  -5  12  -2   89.49    7.12
   5  12  -2  107.97   10.06
  -5  12  -2   97.10    5.94
  -5  12   2   91.89    8.80
  -5 -12  -3    4.29    6.75
  -5 -12   3    2.58    4.12
   5 -12  -3    7.95    4.70
   5 -12   3    3.26    5.39
  -5  12   3    0.81    2.79
   5  12   3    3.79    3.01
  -5  12  -3    1.47    2.80
   5  12  -3   -2.17    4.59
  -5  12  -3    1.74    1.23
  -5  12   3    4.87    3.55
  -5 -12  -4  122.92   42.54
   5 -12  -4  107.42    5.78
  -5 -12   4   94.50   31.73
   5 -12   4  117.73   15.94
   5  12   4  124.53   11.10
  -5  12  -4  120.28   12.17
   5  12  -4  110.29   12.54
  -5  12  -4  125.77   11.78
  -5  12   4  130.41   10.85
  -5 -12  -5   79.17   35.20
   5 -12  -5   88.42    7.93
  -5 -12   5  112.68   17.81
   5 -12   5   81.79   24.20
   5  12   5   86.82    5.11
  -5  12  -5   88.49   12.70
   5  12  -5   75.96    6.79
  -5  12   5   97.52   26.43
  -5 -12  -6   61.74   20.09
   5 -12  -6   76.84    7.71
  -5 -12   6   68.83   26.31
   5 -12   6   56.26   24.31
  -5  12  -6   52.14   16.43
   5  12  -6   61.82   22.12
  -5  12   6   55.51   14.93
  -5 -12  -7  165.12   24.01
   5 -12  -7  197.22   16.96
  -5 -12   7  166.90   15.31
   5 -12   7  161.39   14.52
  -5  12  -7  174.34   33.23
   5  12  -7  197.05   21.56
  -5  12   7  194.86   22.20
  -5 -12  -8  185.00   10.08
   5 -12  -8  174.23    7.65
  -5 -12   8  173.65   10.52
   5 -12   8  228.14   13.52
  -5  12  -8  177.65   12.40
   5  12  -8  196.88   10.98
  -5  12   8  180.68   22.89
  -5 -12  -9   36.77   10.63
  -5 -12   9   28.95   14.79
   5 -12   9   26.98    5.53
  -5  12  -9   44.41   20.72
   5  12  -9   26.61   15.49
  -5  12   9   38.04   13.81
  -5 -12 -10   19.19    6.95
  -5 -12  10   27.06   16.89
   5 -12  10   34.38   12.28
  -5  12 -10   24.11   12.63
   5  12 -10   23.26    7.60
  -5  12  10   22.41   15.07
  -5 -12 -11   49.88    7.87
  -5 -12  11   39.12   14.54
   5 -12  11   50.86   14.31
  -5  12 -11   57.08   18.34
   5  12 -11   82.24   28.90
  -5  12  11   44.72   16.06
  -5 -12 -12   -1.03    5.36
  -5 -12  12    2.41    3.25
   5 -12  12    2.93    5.71
  -5  12 -12   -1.06    5.77
   5  12 -12    1.76    4.77
  -5  12  12    2.34    5.35
   5  12  12    5.99    9.25
  -5 -12 -13    2.97    5.94
  -5 -12  13    5.58    4.13
   5 -12  13    7.38    7.96
  -5  12 -13   10.59    8.04
   5  12 -13    2.04    6.59
  -5  12  13   11.49    6.95
   5  12  13   -9.68    8.68
  -5 -12 -14   24.18   12.39
  -5 -12  14   14.57    7.11
   5 -12  14   10.09   13.43
  -5  12 -14   11.21    5.12
   5  12 -14    6.28    4.38
  -5  12  14   13.26    5.07
   5  12  14   12.02    8.69
  -5 -13   0  209.68   17.26
   5 -13   0  194.02    9.15
  -5  13   0  199.18   25.17
   5  13   0  181.46    8.53
  -5  13   0  202.85    8.85
  -5 -13  -1  102.35   13.54
  -5 -13   1   91.33   11.08
   5 -13  -1   87.26    6.86
   5 -13   1   91.65   10.61
  -5  13   1   94.16   11.28
  -5  13  -1   82.22   28.08
   5  13   1   96.41   18.85
   5  13  -1   90.26   24.04
  -5  13  -1   87.29   11.74
  -5  13   1   82.67   15.23
  -5 -13  -2  101.45   38.10
  -5 -13   2  130.15   25.22
   5 -13  -2  120.75   11.98
   5 -13   2   87.02   10.31
  -5  13   2  119.10   37.11
   5  13   2  126.24   11.22
  -5  13  -2  121.53   22.18
   5  13  -2  108.62   20.86
  -5  13  -2  123.68   10.96
  -5  13   2   96.57   12.02
  -5 -13  -3   75.14   11.70
  -5 -13   3   63.53   38.91
   5 -13  -3   79.30   11.14
   5 -13   3   48.82   25.65
  -5  13   3   65.16   24.74
   5  13   3   80.09    9.72
  -5  13  -3   58.23   23.77
   5  13  -3   52.57   19.39
  -5  13  -3   67.28    4.95
  -5  13   3   49.03   22.72
  -5 -13  -4   72.65   30.71
   5 -13  -4   88.18    7.71
  -5 -13   4   84.55   21.32
   5 -13   4   75.05   30.30
   5  13   4   59.72    8.88
  -5  13  -4   75.88   25.19
   5  13  -4   98.44   29.19
  -5  13  -4   57.31    7.53
  -5  13   4   86.17   31.65
  -5 -13  -5   14.38    8.20
   5 -13  -5    9.87    4.66
  -5 -13   5   14.50    8.44
   5 -13   5   12.10    9.30
   5  13   5   10.21    4.70
  -5  13  -5    6.58    6.86
   5  13  -5   15.52   13.01
  -5  13   5   15.19    9.53
  -5 -13  -6   67.32   38.24
   5 -13  -6   86.72    9.14
  -5 -13   6   76.66   27.42
   5 -13   6   65.53   27.08
  -5  13  -6   80.87   35.44
   5  13  -6   70.75   24.65
  -5  13   6   80.40    7.81
  -5 -13  -7    0.03    4.03
   5 -13  -7    8.53    4.55
  -5 -13   7   -0.06    8.37
   5 -13   7    0.08    4.55
  -5  13  -7   -2.73    6.30
   5  13  -7   -0.06    5.85
  -5  13   7    7.70    6.81
  -5 -13  -8  117.20   38.26
   5 -13  -8  117.83   12.91
  -5 -13   8  103.53   45.06
   5 -13   8   85.75   29.87
  -5  13  -8  106.12   15.89
   5  13  -8  107.96   13.83
  -5  13   8  115.46   24.67
  -5 -13  -9   -1.93    6.63
  -5 -13   9    5.41    6.89
   5 -13   9    3.99    4.81
  -5  13  -9    3.09    3.83
   5  13  -9    1.14    3.53
  -5  13   9   -0.92    5.51
  -5 -13 -10   33.43   11.99
  -5 -13  10   18.44    6.72
   5 -13  10   39.39   12.28
  -5  13 -10   24.27    9.26
   5  13 -10   32.25   14.76
  -5  13  10   32.72   12.26
  -5 -13 -11   24.26   17.91
  -5 -13  11   26.72    9.46
   5 -13  11   23.26   13.20
  -5  13 -11   30.39   15.95
   5  13 -11   28.64   13.77
  -5  13  11   32.95   10.21
   5  13  11   18.73   12.75
  -5 -13 -12   15.70   12.96
  -5 -13  12   21.27   10.46
   5 -13  12   11.00   10.81
  -5  13 -12   27.34    9.08
   5  13 -12   17.83    8.29
  -5  13  12   27.69    9.53
   5  13  12   20.51   14.14
  -5 -13 -13   28.16    9.41
  -5 -13  13   39.24   15.56
   5 -13  13   26.17   18.62
  -5  13 -13   38.59   12.48
   5  13 -13   32.97    8.09
  -5  13  13   26.89   12.76
   5  13  13   20.28   10.81
  -5 -14   0  121.32   10.62
   5 -14   0   91.61   11.50
  -5  14   0  116.64   11.02
   5  14   0  105.89    7.03
  -5  14   0  104.92   17.35
  -5 -14  -1   45.95   17.99
  -5 -14   1   29.94   23.01
   5 -14  -1   46.39   13.38
   5 -14   1   41.24   16.67
  -5  14   1   34.15   12.92
  -5  14  -1   47.54   17.79
   5  14   1   56.23   17.55
   5  14  -1   46.63   17.73
  -5  14  -1   52.63   19.91
  -5  14   1   42.32   15.89
  -5 -14  -2  109.75   16.26
  -5 -14   2   83.85    9.64
   5 -14  -2  121.07   24.10
   5 -14   2   83.86   10.76
  -5  14   2   95.64   40.04
   5  14   2   83.80   22.94
  -5  14  -2  104.06   14.40
   5  14  -2   99.34   22.53
  -5  14  -2   90.60    9.45
  -5  14   2   89.24    9.12
  -5 -14  -3   20.90    8.06
  -5 -14   3   34.79    9.20
   5 -14  -3   21.71    6.33
   5 -14   3   15.45    9.79
  -5  14   3   18.32    9.77
   5  14   3   25.49   12.11
  -5  14  -3   26.90    9.85
   5  14  -3   30.93   18.85
  -5  14  -3   21.39    5.70
  -5  14   3   25.67   10.01
  -5 -14  -4  178.97   20.61
   5 -14  -4  155.89   23.60
  -5 -14   4  142.18   38.99
   5 -14   4  148.58    9.47
   5  14   4  161.36    9.18
  -5  14  -4  168.38   11.00
   5  14  -4  179.23   39.81
  -5  14   4  162.80   29.16
  -5 -14  -5   19.07   12.18
   5 -14  -5   19.60    9.90
  -5 -14   5   15.95   11.53
   5 -14   5   17.59    6.70
   5  14   5    9.03    4.55
  -5  14  -5   10.45    5.84
   5  14  -5   25.41   13.70
  -5  14   5   13.38    9.11
  -5 -14  -6   25.00   12.75
   5 -14  -6   20.56    9.74
  -5 -14   6   24.61   16.22
   5 -14   6   22.00   19.07
  -5  14  -6   10.16    4.94
  -5  14   6   30.66   11.46
  -5 -14  -7    9.64    8.74
   5 -14  -7    8.87    4.97
  -5 -14   7   19.10    9.33
   5 -14   7   14.76    8.86
  -5  14  -7   19.33   12.97
   5  14  -7    1.88    3.33
  -5  14   7    7.73    5.35
  -5 -14  -8   48.68   20.27
  -5 -14   8   80.91    8.69
   5 -14   8   46.83   26.50
  -5  14  -8   80.21   29.69
   5  14  -8   58.09   21.18
  -5  14   8   54.72   23.83
  -5 -14  -9   28.64    9.33
  -5 -14   9   22.40    7.58
   5 -14   9    8.44    7.36
   5  14  -9   18.40   11.75
  -5  14   9   34.74   14.41
  -5 -14 -10   29.45   11.71
  -5 -14  10   15.15   10.58
   5 -14  10   27.87   16.55
  -5  14 -10   41.68   10.69
   5  14 -10   16.65   10.78
  -5  14  10   15.57    9.12
  -5 -14 -11   29.82   16.39
  -5 -14  11   29.58   14.16
   5 -14  11   30.46   14.88
  -5  14 -11   27.37   14.58
   5  14 -11    8.72   19.04
  -5  14  11   11.55    6.88
   5  14  11   24.35   15.34
  -5 -14 -12   11.34   11.15
  -5 -14  12    7.95    6.05
   5 -14  12   13.40    8.79
  -5  14 -12    4.53    4.02
   5  14 -12    5.76    4.14
  -5  14  12    7.41    4.97
   5  14  12    6.57    6.56
  -5 -15   0   15.38   12.25
   5 -15   0   19.92    9.00
  -5  15   0   28.98   11.02
   5  15   0   22.97   11.71
  -5  15   0   15.90    8.54
  -5 -15  -1   44.37   21.53
  -5 -15   1   49.43    8.79
   5 -15  -1   41.53    7.98
   5 -15   1   35.42   17.42
  -5  15  -1   43.03   18.02
   5  15   1   42.30   13.99
   5  15  -1   57.77   16.31
  -5  15  -1   28.68   17.40
  -5  15   1   49.14   11.39
  -5 -15  -2   19.25   10.63
  -5 -15   2   15.54   10.16
   5 -15  -2   28.04   15.06
   5 -15   2   22.77   10.29
  -5  15   2   19.92    6.56
   5  15   2   33.87   11.54
  -5  15  -2   36.49   14.00
   5  15  -2   21.78    6.96
  -5  15  -2   23.47   13.74
  -5  15   2   29.05    8.18
  -5 -15  -3   70.06   20.42
  -5 -15   3   50.87   25.87
   5 -15  -3   72.20   10.81
   5 -15   3   56.14   24.53
   5  15   3   53.08   18.74
  -5  15  -3   68.23   13.15
   5  15  -3   59.57   23.55
  -5  15   3   60.43   14.19
  -5 -15  -4   21.94   10.58
   5 -15  -4    5.59    5.31
  -5 -15   4    5.16    5.07
   5 -15   4    3.12    3.57
   5  15   4    5.54    4.66
  -5  15  -4    5.23    4.73
   5  15  -4   -2.05    6.20
  -5  15   4   -0.48    5.39
  -5 -15  -5   12.33    7.37
   5 -15  -5   19.79    6.53
  -5 -15   5   22.30   13.85
   5 -15   5   12.27    5.49
   5  15   5   19.02    7.55
  -5  15  -5   11.73    9.03
   5  15  -5   12.86    5.54
  -5  15   5   15.06    8.34
  -5 -15  -6   76.33   31.41
   5 -15  -6   98.67   10.57
  -5 -15   6   98.24   36.11
   5 -15   6   98.51    8.55
  -5  15  -6   88.01   28.15
   5  15  -6  115.45   17.91
  -5  15   6  108.06   11.52
  -5 -15  -7   32.27   10.95
  -5 -15   7   31.31   11.24
   5 -15   7   21.26   13.58
  -5  15  -7   42.17   13.73
   5  15  -7   39.57    9.87
  -5  15   7   32.29   12.88
  -5 -15  -8   10.27    8.72
  -5 -15   8   21.22    9.49
   5 -15   8    4.45    5.37
  -5  15  -8   17.40   10.80
   5  15  -8   12.26    7.76
  -5  15   8   13.13   10.16
  -5 -15  -9   30.03   10.93
  -5 -15   9   17.80   15.28
   5 -15   9   33.67   12.35
  -5  15  -9   27.80    8.78
   5  15  -9   15.95   10.44
  -5  15   9   31.01   20.04
  -5 -15 -10   41.58    9.07
  -5 -15  10   52.90   13.18
   5 -15  10   46.46   17.17
  -5  15 -10   21.45    8.61
   5  15 -10   41.74   18.21
  -5  15  10   35.24   13.81
   5  15  10   29.98   15.97
  -5 -16   0   19.18   15.16
   5 -16   0   20.65    5.69
  -5  16   0   23.72    7.12
   5  16   0   18.76    7.16
  -5  16   0   20.05    9.00
  -5 -16  -1   14.91    8.66
  -5 -16   1    7.66    5.64
   5 -16  -1   15.89    8.76
   5 -16   1    8.21    6.86
  -5  16   1   19.11   10.05
  -5  16  -1   14.22    4.98
   5  16   1   19.75    7.15
   5  16  -1   16.10    6.55
  -5  16  -1   21.04    9.76
  -5  16   1    9.87    4.74
  -5 -16  -2   44.37   17.93
  -5 -16   2   35.89    8.63
   5 -16  -2   27.57   14.54
   5 -16   2   48.68   11.14
  -5  16   2   49.01   15.52
   5  16   2   32.71   11.49
  -5  16  -2   39.97   19.45
   5  16  -2   41.79   19.10
  -5  16   2   25.45   12.95
  -5 -16  -3    6.22    5.53
  -5 -16   3   -0.27    7.06
   5 -16  -3    3.59    4.13
   5 -16   3   10.04    7.13
   5  16   3    6.14    5.00
  -5  16  -3   -2.30    5.94
   5  16  -3    3.19    5.54
  -5  16   3    4.94    3.31
  -5 -16  -4   50.34   28.44
   5 -16  -4   51.69   14.12
  -5 -16   4   44.72   12.99
   5 -16   4   30.25   11.12
   5  16   4   41.83   15.40
  -5  16  -4   43.01   18.02
   5  16  -4   43.56   13.53
  -5  16   4   37.50   23.31
  -5 -16  -5    9.27    7.93
   5 -16  -5   15.79    6.52
  -5 -16   5   18.74   14.40
   5 -16   5   14.58    5.72
  -5  16  -5   15.79   11.38
   5  16  -5   15.58    7.01
  -5  16   5   12.10    8.68
  -5 -16  -6   93.09   17.91
   5 -16  -6   76.68   15.88
  -5 -16   6   94.33   42.17
   5 -16   6   77.43   38.25
  -5  16  -6   80.92   20.68
   5  16  -6   87.56   17.47
  -5  16   6   72.29   20.79
  -5 -16  -7    6.17    5.44
  -5 -16   7    7.32    6.11
   5 -16   7    0.17    5.02
  -5  16  -7    2.34    6.91
   5  16  -7    1.55    4.95
  -5  16   7    1.71    3.24
  -5 -16  -8   22.58    8.10
  -5 -16   8   21.00   13.10
   5 -16   8   13.24   13.00
  -5  16  -8   16.76   11.45
   5  16  -8   19.42    6.69
  -5  16   8   26.18   13.50
  -5 -17   0   71.25   34.08
   5 -17   0  110.69   11.66
  -5  17   0   71.12   35.53
   5  17   0   60.65   22.88
  -5  17   0   80.93    8.64
  -5 -17  -1    8.83    9.74
  -5 -17   1   14.65   11.72
   5 -17  -1    8.46    6.45
   5 -17   1    7.75    8.22
  -5  17   1    4.88   12.35
  -5  17  -1    5.49    5.33
   5  17   1   10.62    9.70
   5  17  -1   15.84    5.92
  -5  17   1   12.20    5.27
  -5 -17  -2    4.66    5.93
  -5 -17   2    3.62    7.67
   5 -17  -2    4.34    6.02
   5 -17   2   -1.62    7.80
  -5  17   2    5.58    7.64
   5  17   2    5.01    3.97
  -5  17  -2    2.72    6.74
   5  17  -2    7.80    4.24
  -5  17   2    3.43    3.62
  -5 -17  -3   72.94   21.58
  -5 -17   3   75.73   38.36
   5 -17  -3   55.17   31.38
   5 -17   3   99.62   16.10
   5  17   3   67.83   26.45
  -5  17  -3   79.28   25.62
   5  17  -3   92.21   30.43
  -5  17   3   84.63   17.37
  -5 -17  -4   23.29   13.81
   5 -17  -4   14.63    7.96
  -5 -17   4   27.35    9.62
   5 -17   4   11.73    8.58
   5  17   4   15.86    7.40
  -5  17  -4   29.49   12.25
   5  17  -4   12.03    3.74
  -5  17   4   31.29   10.74
  -5 -17  -5   -2.04    8.30
   5 -17  -5    9.08    4.87
  -5 -17   5    7.57    6.61
   5 -17   5    6.27    7.38
  -5  17  -5    2.65    5.42
   5  17  -5    4.22    3.49
  -5  17   5    5.13    5.36
  -5 -17  -6    2.19    8.98
  -5 -17   6   11.20    7.37
   5 -17   6   12.38    9.66
  -5  17  -6    6.80    8.37
   5  17  -6    9.38    7.77
  -5  17   6    5.00    5.78
  -6   0   0 1498.26   40.97
   6   0   0 1544.74   41.84
  -6   0  -1  396.87    6.57
  -6   0   1  397.63    5.58
   6   0   1  397.22    4.43
   6   0  -1  404.90    7.30
   6   0   1  408.31    5.50
  -6   0  -2   15.43    5.73
  -6   0   2   15.33    4.07
   6   0   2   16.34    2.01
   6   0  -2   15.65    5.20
  -6   0  -3 1219.97   34.20
   6   0  -3 1230.12   33.31
   6   0  -3 1231.15   34.40
  -6   0  -4  503.16    9.29
   6   0  -4  483.71    5.14
  -6   0  -4  471.76    4.42
   6   0   4  482.12    4.91
   6   0  -4  508.01    9.21
  -6   0   4  498.77   10.04
  -6   0   5 1276.84   34.22
  -6   0  -5 1354.64   38.50
  -6   0   5 1272.47   34.10
   6   0  -5 1229.86   35.30
   6   0   5 1286.29   34.74
  -6   0   5 1248.50   36.26
  -6   0   6  139.59    2.82
  -6   0  -6  155.61    7.22
  -6   0   6  145.87    3.09
  -6   0  -6  137.90    4.10
   6   0  -6  136.71    9.38
  -6   0   6  134.70    6.56
  -6   0  -7 1929.84   56.66
  -6   0   7 1862.69   51.11
  -6   0  -7 1800.45   49.90
   6   0  -7 1810.28   54.90
  -6   0   7 1844.62   54.36
  -6   0  -8    2.09    3.26
  -6   0  -8   -1.41    2.79
   6   0  -8    6.42    5.03
  -6   0   8   -0.13    4.80
  -6   0  -9  710.56   22.30
  -6   0  -9  692.32   20.06
   6   0  -9  656.72   21.45
  -6   0   9  614.15   19.23
  -6   0 -10   50.97    6.73
  -6   0  10   50.29    7.12
  -6   0 -10   52.88   12.75
   6   0 -10   54.11   21.71
  -6   0  10   65.73    8.73
  -6   0 -11   25.47   10.75
  -6   0  11   19.88    4.05
  -6   0 -11   28.94    7.89
   6   0 -11   23.78   10.84
  -6   0  11   21.51    8.60
  -6   0 -12  385.99   23.98
  -6   0  12  406.00   23.07
  -6   0 -12  403.61   26.62
   6   0 -12  425.00   27.42
  -6   0  12  375.09   26.20
   6   0  12  404.34   23.45
  -6   0 -13   44.34   15.12
  -6   0 -13   45.05   15.89
   6   0 -13   49.01   12.67
  -6   0  13   44.91   17.15
   6   0  13   47.24   10.17
  -6   0 -14   51.12   21.19
  -6   0 -14   55.81   12.54
   6   0 -14   51.85   21.84
  -6   0  14   52.57   14.23
  -6   0 -15  403.46   14.26
  -6   0 -15  434.64   11.15
   6   0 -15  385.82   41.84
  -6   0  15  387.73   11.42
  -6   0 -16   32.73   10.14
  -6   0 -16   26.86    9.72
   6   0 -16   38.55   18.82
  -6   0  16   32.11    9.97
  -6   0 -17   10.25    3.90
  -6   0 -17   18.60    5.64
   6   0 -17    9.24    7.30
  -6   0  17   14.72    5.86
  -6   0 -18   17.23   12.45
   6   0 -18    8.53    9.18
  -6   0  18   14.91    6.28
  -6   0 -19   71.89   21.85
   6   0 -19   55.64   16.67
  -6   0  19   50.20   21.50
  -6   1   0    9.48    2.36
  -6  -1   0    7.07    3.78
   6   1   0    8.58    2.88
  -6   1   1  125.26    8.31
  -6   1  -1  122.03    8.28
  -6  -1  -1  132.30    9.09
  -6  -1   1  125.29    8.35
   6   1   1  115.28    7.29
   6   1   1  122.51    8.23
   6   1  -1  141.46    9.60
  -6   1  -2  118.25    8.36
  -6  -1  -2   72.11    7.17
  -6  -1   2  112.15    7.61
   6   1  -2   81.41   10.90
  -6   1   2   71.98    6.81
  -6   1   3  562.79    5.12
  -6   1  -3  583.80    9.09
  -6  -1   3  593.17    5.60
   6   1  -3  550.67    8.77
   6  -1  -3  571.66    9.07
  -6  -1  -4  423.30    8.71
  -6  -1   4  401.89    6.76
   6   1  -4  413.30    8.27
   6  -1  -4  406.31    8.45
  -6   1   4  429.73    9.37
  -6   1  -5  165.45    6.88
  -6  -1  -5  158.70   11.09
  -6  -1   5  160.06   10.51
  -6   1  -5  153.52   10.09
  -6  -1  -5  153.21    9.38
   6   1  -5  155.10   11.20
   6  -1  -5  156.29   12.97
  -6   1   5  145.70   11.24
  -6   1  -6  970.48   29.21
  -6  -1  -6  978.62   29.88
  -6   1  -6  950.43   26.98
   6   1  -6  893.79   27.28
   6  -1  -6  898.25   27.97
  -6  -1   6  920.43   29.93
  -6   1   6  911.09   30.83
  -6   1  -7  371.17    9.71
  -6  -1  -7  380.90    9.57
  -6  -1   7  399.35    5.17
  -6   1  -7  374.16    5.74
  -6  -1  -7  390.00    4.86
   6   1  -7  363.35   15.85
   6  -1  -7  381.00   10.93
  -6  -1   7  430.36   10.08
  -6   1   7  378.64   12.36
  -6   1  -8  375.28   21.69
  -6  -1  -8  433.16   13.14
  -6   1   8  447.46    6.67
  -6   1   8  427.00    6.75
  -6  -1   8  417.83    7.86
  -6  -1  -8  412.68    9.46
   6   1  -8  446.85   14.44
   6  -1  -8  411.28   13.86
  -6  -1   8  387.42   11.20
  -6   1   8  442.71   11.51
  -6   1  -9  119.69   27.35
  -6  -1  -9  109.37    9.38
  -6  -1   9  113.18    7.81
  -6   1  -9  104.65   10.63
  -6  -1  -9  117.32    7.49
   6   1  -9  108.90   27.43
   6  -1  -9  137.77   22.68
  -6  -1   9  107.36    9.67
  -6   1   9  119.31   21.64
  -6   1 -10  251.17   19.63
  -6  -1 -10  274.20   11.59
  -6  -1  10  248.98    7.72
  -6   1 -10  262.04   12.83
  -6  -1 -10  275.67    8.97
   6   1 -10  295.25   14.36
   6  -1 -10  257.60   27.00
  -6  -1  10  280.08   12.48
  -6   1  10  259.17   20.61
  -6   1 -11  125.58    7.54
  -6  -1 -11  165.25    9.14
  -6  -1  11  144.98   10.14
  -6   1  11  135.40    3.82
  -6   1 -11  163.99   10.28
  -6  -1 -11  117.72   12.21
   6   1 -11  152.45   12.84
   6  -1 -11  141.16   13.17
  -6  -1  11  144.25    8.34
  -6   1  11  133.05   20.12
  -6   1 -12   21.50    7.83
  -6  -1 -12   19.93    8.83
  -6  -1  12   20.54    8.57
  -6   1 -12   22.03    7.37
  -6  -1 -12   13.94    6.76
   6   1 -12   17.47   13.95
   6  -1 -12    2.02    6.41
  -6  -1  12   25.36    5.83
  -6   1  12   23.32    7.90
   6  -1  12   17.60    6.60
  -6   1 -13   13.85    7.20
  -6  -1 -13    6.84    5.46
  -6  -1  13   20.18    4.85
  -6   1 -13   15.51    5.07
  -6  -1 -13    8.62    3.72
   6   1 -13   14.78    6.55
   6  -1 -13    9.81    5.99
  -6  -1  13   17.26    4.11
  -6   1  13   13.25    4.78
   6   1  13   14.67    7.93
  -6   1 -14   83.99   10.46
  -6  -1 -14   83.49   14.63
  -6   1 -14   77.70   25.91
  -6  -1 -14   69.57   22.27
   6   1 -14   82.38   28.63
   6  -1 -14   85.89   36.02
  -6  -1  14   87.05   16.75
  -6   1  14   91.91    7.72
   6   1  14   77.88   10.78
  -6   1 -15  107.19    8.74
  -6  -1 -15   97.14   28.41
  -6   1 -15  102.38   15.75
  -6  -1 -15  110.13    7.75
   6   1 -15  107.14   10.48
   6  -1 -15  103.48   15.01
  -6  -1  15  115.17   21.43
  -6   1  15  102.29   26.35
  -6   1 -16  108.49    7.78
  -6  -1 -16  123.22   35.46
  -6   1 -16  128.51    8.70
  -6  -1 -16  134.30    8.47
   6   1 -16  131.22   15.56
   6  -1 -16  118.76   13.34
  -6  -1  16  115.55   12.13
  -6   1  16  129.57   14.50
  -6   1 -17   11.62    4.98
  -6   1 -17    7.46    4.10
   6   1 -17   23.61    9.46
   6  -1 -17    3.51    8.96
  -6  -1  17   16.73    6.54
  -6   1  17    8.62    4.12
  -6   1 -18   16.63    9.57
  -6  -1 -18    8.45   11.64
   6   1 -18   27.58   15.12
   6  -1 -18   14.39   14.30
  -6  -1  18   10.12    6.17
  -6   1  18   18.09    5.62
  -6   1 -19   15.37    7.85
  -6  -1 -19   12.44    8.53
   6   1 -19   21.27   14.51
   6  -1 -19   10.59    8.00
  -6   1  19   15.64    4.78
  -6   2   0  671.18   18.88
  -6  -2   0  673.53   19.59
   6   2   0  665.49   18.93
  -6   2   0  677.94   20.41
  -6   2   1  138.84    8.79
  -6   2  -1  119.48    8.08
  -6  -2  -1  132.14    9.43
  -6  -2   1  125.70    8.67
   6   2   1  117.19    7.65
   6   2  -1  144.12   12.27
  -6   2   1  128.64   11.31
  -6   2  -2  351.60    6.64
  -6  -2  -2  393.87    7.80
   6  -2  -2  352.68    4.83
  -6   2  -2  360.09    5.43
   6   2  -2  371.30    6.57
  -6   2   2  384.69    8.08
  -6   2  -3  784.18   26.04
  -6  -2  -3  726.79   21.83
  -6  -2   3  791.73   22.50
   6  -2  -3  824.22   22.13
   6  -2  -3  809.06   21.65
  -6   2  -3  821.40   22.82
   6   2  -3  727.03   21.42
  -6   2   3  697.05   22.50
  -6   2  -4   90.85   12.87
  -6  -2  -4   84.87    6.89
  -6  -2   4   87.25    6.44
  -6   2  -4   91.27    6.25
   6   2  -4   75.89    7.17
  -6   2   4   67.99    7.52
  -6   2  -5   58.22    8.17
  -6  -2  -5   54.53    8.49
  -6  -2   5   65.66    3.19
  -6  -2  -5   59.58    1.42
  -6   2  -5   70.93    3.37
   6   2  -5   56.24    9.07
  -6   2   5   53.96   18.46
  -6   2  -6  186.16    6.10
  -6  -2  -6  208.43   10.65
  -6  -2   6  189.84    4.22
  -6  -2  -6  210.67    3.41
  -6   2  -6  195.52    4.54
   6   2  -6  216.47    7.67
   6  -2  -6  212.07    8.72
  -6   2   6  228.21    8.63
  -6   2  -7  100.14    5.74
  -6  -2  -7  112.50   21.63
  -6  -2   7  106.25    3.94
  -6   2  -7   96.68    3.77
  -6  -2  -7  106.54    6.44
   6   2  -7  111.23   18.84
   6  -2  -7  109.92    9.84
  -6   2   7  110.02   11.82
  -6   2  -8   29.08   15.80
  -6  -2  -8   41.88   15.64
  -6  -2   8   29.27    3.69
  -6   2  -8   26.23    6.32
  -6  -2  -8   29.74    7.46
   6   2  -8   35.48   14.60
   6  -2  -8   28.30   12.16
  -6   2   8   36.67   20.94
  -6   2  -9  349.44   12.93
  -6  -2  -9  373.16   14.64
  -6   2   9  361.15    9.12
  -6  -2   9  360.99   13.43
  -6   2   9  359.59    9.07
  -6   2  -9  353.54   18.71
  -6  -2  -9  365.64   14.51
   6   2  -9  370.14   16.09
   6  -2  -9  404.68   16.31
  -6   2   9  363.51   13.40
  -6   2 -10  205.27   12.19
  -6  -2 -10  228.72   12.19
  -6  -2  10  193.64    9.47
  -6   2 -10  211.39    9.52
  -6  -2 -10  204.74   14.73
   6   2 -10  231.88   14.63
   6  -2 -10  216.19   14.59
  -6   2  10  212.58   24.33
  -6   2 -11  218.84   33.46
  -6  -2 -11  221.25   12.52
  -6  -2  11  208.88    7.65
  -6   2 -11  210.90   14.14
  -6  -2 -11  204.17    8.15
   6   2 -11  211.28   14.03
   6  -2 -11  189.40   14.27
  -6   2  11  194.73   13.50
   6  -2  11  215.06    8.58
  -6   2 -12   46.47   18.16
  -6  -2 -12   25.26   12.08
  -6  -2  12   43.23   11.12
  -6   2 -12   47.34   14.12
  -6  -2 -12   34.80   11.32
   6   2 -12   45.17   11.68
   6  -2 -12   43.47   11.96
  -6   2  12   43.11    9.14
  -6   2 -13  116.74    8.62
  -6  -2 -13  147.40   10.82
  -6  -2  13  132.62    6.61
  -6   2 -13  134.07    7.72
  -6  -2 -13  126.35    6.68
   6   2 -13  125.97   33.54
   6  -2 -13  122.87   13.68
  -6   2  13  130.79   14.39
   6   2  13  108.74   11.30
  -6   2 -14  188.26   23.87
  -6  -2 -14  177.21   17.13
  -6   2 -14  167.45   17.34
  -6  -2 -14  158.84   20.41
   6   2 -14  171.98   15.96
   6  -2 -14  206.20   47.30
  -6   2  14  178.38   18.61
   6   2  14  156.49   18.58
  -6   2 -15  123.83   35.25
  -6  -2 -15  125.43    8.31
  -6   2 -15  115.30   14.80
  -6  -2 -15  126.53   18.81
   6   2 -15   99.10    9.92
   6  -2 -15   93.78   33.66
  -6   2  15  122.84    9.65
  -6   2 -16    8.97    4.84
  -6  -2 -16    5.87    5.02
  -6   2 -16    8.35    5.05
  -6  -2 -16    5.23    5.04
   6   2 -16    6.16    3.81
   6  -2 -16   10.59    6.77
  -6   2  16   11.94    4.70
  -6   2 -17   58.88   21.07
  -6  -2 -17   71.64   21.66
  -6   2 -17   75.92    8.75
   6   2 -17   71.63   28.17
   6  -2 -17   77.75   12.58
  -6   2  17   91.65   10.09
  -6   2 -18   39.25   13.18
  -6  -2 -18   34.13    8.63
  -6   2 -18   32.87   13.25
   6   2 -18   41.28   14.50
   6  -2 -18   43.28   13.47
  -6   2  18   38.85   15.05
  -6   2 -19   17.08    7.71
  -6  -2 -19   21.99    8.58
   6   2 -19   12.82   10.63
   6  -2 -19   12.28    9.71
  -6   2  19   10.44    6.12
  -6   3   0 1800.51   49.29
  -6  -3   0 1679.20   46.88
   6   3   0 1727.50   46.77
  -6   3   0 1689.12   46.75
  -6   3   1   69.75    4.83
  -6   3  -1   52.23    5.13
  -6  -3  -1   66.57    5.69
  -6  -3   1   54.70    6.53
  -6   3  -1   49.68    6.48
   6   3   1   52.14    3.98
   6   3  -1   65.04    4.90
  -6  -3  -1   61.37    6.32
  -6   3  -1   50.81    7.72
  -6   3   1   70.61    6.47
  -6   3  -2  281.83    6.13
  -6  -3  -2  241.51    7.21
  -6  -3   2  271.64    6.27
   6  -3  -2  277.77    4.29
  -6   3  -2  274.47    5.57
   6   3  -2  249.68    5.94
  -6   3   2  239.62    8.32
  -6   3  -3  517.65    8.81
   6  -3  -3  495.35    4.84
  -6  -3  -3  490.42   14.58
  -6  -3   3  488.80    8.09
   6  -3  -3  503.38    5.29
  -6   3  -3  500.73    7.57
   6   3  -3  471.37    8.60
  -6   3   3  464.71    9.06
  -6   3  -4 1051.61   30.13
  -6  -3  -4 1037.12   30.16
  -6  -3   4 1031.58   30.85
  -6   3  -4 1028.86   30.31
  -6  -3  -4 1053.70   28.15
   6   3  -4 1048.28   29.99
  -6  -3  -4 1051.76   28.09
  -6   3   4  999.67   32.22
  -6   3  -5 1159.35   34.40
  -6  -3  -5 1113.23   33.38
  -6  -3   5 1141.03   32.57
  -6   3  -5 1130.59   32.37
  -6  -3  -5 1166.72   32.12
   6   3  -5 1173.39   34.36
  -6  -3  -5 1162.23   32.04
  -6   3   5 1174.67   35.42
  -6   3  -6   11.07    6.80
  -6  -3  -6   13.60    4.03
  -6  -3   6   15.62    6.14
  -6   3  -6   17.94    5.70
   6   3  -6   10.44    4.08
  -6   3   6   16.19    5.67
  -6   3  -7  410.86   10.31
  -6  -3  -7  390.35   11.20
  -6  -3   7  383.16    8.43
  -6   3  -7  402.56    8.52
   6   3  -7  393.70   12.17
  -6  -3  -7  408.36    7.73
   6  -3  -7  383.89   12.30
  -6   3   7  381.78   11.95
  -6   3  -8  134.97   15.06
  -6  -3  -8  116.50   14.00
  -6  -3   8  117.18   13.55
  -6   3  -8  142.74    8.84
   6   3  -8  122.66   10.94
  -6  -3  -8  140.52    9.37
   6  -3  -8  133.15   17.33
  -6   3   8  132.41   13.64
  -6   3  -9  341.00   12.82
  -6  -3  -9  348.75   14.45
  -6  -3   9  350.47   12.70
  -6   3  -9  349.21   11.32
   6   3  -9  382.76   16.90
  -6  -3  -9  336.05   11.10
   6  -3  -9  357.00   20.50
  -6   3   9  340.31   24.56
   6  -3 -10   28.29    2.08
  -6   3 -10   32.81   14.00
  -6  -3 -10   46.14   14.42
  -6  -3  10   32.38   11.31
  -6   3 -10   30.63    9.92
   6   3 -10   42.23   13.68
  -6  -3 -10   39.80   11.44
   6  -3 -10   51.33   11.79
  -6   3  10   37.62   18.94
  -6   3 -11   25.72   15.25
  -6  -3 -11   28.34   12.40
  -6  -3  11   23.51    8.29
  -6   3 -11   22.01    6.15
   6   3 -11    9.05    9.02
  -6  -3 -11   26.53    4.86
   6  -3 -11   18.22   10.97
  -6   3  11   27.13   10.22
  -6   3 -12  224.26   23.45
  -6  -3 -12  222.44   15.56
  -6  -3  12  233.09   14.40
  -6   3 -12  225.52   14.39
   6   3 -12  202.48   15.33
  -6  -3 -12  203.62   12.85
   6  -3 -12  226.20   17.33
  -6   3  12  210.72   18.92
  -6   3 -13   87.90   24.54
  -6  -3 -13  101.22    8.48
  -6  -3  13   84.98    4.95
  -6   3 -13   83.70   19.14
   6   3 -13   81.82   29.81
  -6  -3 -13   93.25    5.89
   6  -3 -13   90.53   28.86
  -6   3  13   96.59   18.78
  -6   3 -14    8.53   10.49
  -6  -3 -14   14.35    8.30
  -6  -3  14   18.22    7.73
  -6   3 -14   10.42    6.68
   6   3 -14   15.94    8.61
  -6  -3 -14   24.13    6.16
   6  -3 -14    0.19    8.67
  -6   3  14   32.84   12.58
   6   3  14   18.95    4.55
  -6   3 -15    7.78    7.32
  -6  -3 -15   18.60    9.66
  -6   3 -15   26.11    5.62
   6   3 -15   21.20   14.05
  -6  -3 -15   23.85    8.84
   6  -3 -15   13.81   12.43
  -6   3  15   29.87   10.20
   6   3  15   16.79    6.38
  -6   3 -16   65.40   17.83
  -6  -3 -16   49.24   14.79
  -6   3 -16   37.56   15.14
   6   3 -16   60.71   12.86
   6  -3 -16   42.37   16.39
  -6   3  16   43.80   13.46
  -6   3 -17   79.12   26.67
  -6  -3 -17   94.71    7.28
  -6   3 -17   90.10   12.71
   6   3 -17   91.59   40.13
   6  -3 -17   69.59   22.90
  -6   3  17   86.82   24.20
  -6   3 -18   -2.25    7.10
  -6  -3 -18    3.23    4.61
  -6   3 -18   -0.50    4.29
   6   3 -18    7.37    6.59
   6  -3 -18    8.19    6.34
  -6   3  18    8.34    4.72
  -6   3 -19   30.17   14.91
  -6  -3 -19   25.80    8.98
   6   3 -19   12.69    9.77
   6  -3 -19   17.05   13.05
  -6   3  19   28.68   16.20
  -6   4   0  273.39    5.44
  -6  -4   0  285.22   14.87
   6   4   0  275.49    4.74
  -6   4   0  292.15    7.06
  -6   4  -1   93.21    6.88
  -6  -4  -1   79.32    7.77
  -6  -4   1   96.09    8.65
   6  -4  -1   82.20    5.72
  -6   4  -1   88.74   10.67
   6   4   1   89.74    7.81
   6   4  -1   89.47    6.40
  -6   4  -1   89.86   10.38
  -6   4   1   87.03   10.28
  -6   4  -2  132.65    9.82
  -6  -4  -2  121.01   17.36
  -6  -4   2  129.73    9.45
   6  -4  -2  139.66    8.96
  -6   4  -2  117.56    8.28
   6   4   2  127.83    8.69
   6   4  -2  154.83   10.54
  -6   4  -2  128.78    8.95
  -6   4   2  149.59   13.19
  -6   4  -3  366.67    8.88
  -6  -4  -3  396.10    9.75
  -6  -4   3  387.00    7.84
   6  -4  -3  370.04    5.79
  -6   4  -3  368.88    7.05
   6   4  -3  412.31    8.14
  -6   4  -3  361.83    6.59
  -6   4   3  421.25    9.11
  -6   4  -4 1609.27   47.46
   6  -4  -4 1537.26   42.11
  -6  -4  -4 1643.37   48.42
   6  -4  -4 1668.39   45.78
  -6  -4   4 1582.61   45.52
  -6   4  -4 1578.91   44.79
   6   4  -4 1652.77   47.52
  -6   4   4 1647.35   48.36
  -6   4  -5   22.87    8.36
  -6  -4  -5   16.34    9.60
  -6  -4   5   21.82    4.06
  -6   4  -5   22.57    9.21
   6   4  -5   12.58    5.46
  -6   4   5   18.71    7.69
  -6   4  -6  189.94   19.98
  -6  -4  -6  160.73   12.09
  -6  -4   6  189.90   13.15
  -6   4  -6  179.83   10.23
   6   4  -6  190.85   23.68
  -6  -4  -6  171.45    9.16
  -6   4   6  155.97   21.22
  -6   4  -7   61.49   22.18
  -6  -4  -7   72.39   10.85
  -6  -4   7   60.33    5.49
  -6   4  -7   63.79    8.71
   6   4  -7   75.57   25.39
  -6  -4  -7   66.06    3.99
  -6   4   7   76.65   14.72
   6  -4  -8  436.83   10.52
  -6   4  -8  409.07   13.66
  -6  -4  -8  441.11   16.84
  -6  -4   8  430.47   18.02
  -6   4   8  447.12   10.78
  -6   4  -8  441.82   13.26
   6   4  -8  453.85   17.64
  -6  -4  -8  422.67   13.64
  -6   4   8  438.24   15.05
   6  -4  -9  107.44    4.80
  -6   4  -9  109.49    8.35
  -6  -4  -9  131.56   11.37
  -6  -4   9  112.88   13.08
  -6   4  -9  116.51    8.04
   6   4  -9  121.39   13.16
  -6  -4  -9  119.84    8.24
   6  -4  -9  112.42   33.58
  -6   4   9  120.74   11.37
  -6   4 -10   11.93    7.76
  -6  -4 -10    9.69    3.56
  -6  -4  10    3.81    2.06
  -6   4 -10   11.84    3.77
   6   4 -10    5.69    6.70
  -6  -4 -10    6.50    2.58
   6  -4 -10   -0.90    8.01
  -6   4  10    4.93    5.53
  -6   4 -11   16.95    7.23
  -6  -4 -11   27.61    7.81
  -6  -4  11   24.59    6.29
  -6   4 -11   25.05    4.96
   6   4 -11   41.80    9.58
  -6  -4 -11   30.71    4.97
   6  -4 -11   24.82    7.56
  -6   4  11   34.22   11.21
  -6   4 -12   38.70   17.61
  -6  -4 -12   37.79   12.61
  -6  -4  12   39.72   13.98
  -6   4 -12   43.36   13.94
   6   4 -12   51.00   14.50
  -6  -4 -12   44.34   11.54
   6  -4 -12   46.82   11.09
  -6   4  12   44.87   14.42
  -6   4 -13    8.17    5.99
  -6  -4 -13   11.98    6.12
  -6  -4  13    3.92    5.17
  -6   4 -13    8.64    8.44
   6   4 -13   11.53   12.67
  -6  -4 -13    7.91    3.45
   6  -4 -13   19.52    9.38
  -6   4  13    7.69    3.15
  -6   4 -14   40.69   18.92
  -6  -4 -14   38.54   15.38
  -6  -4  14   24.36   13.78
  -6   4 -14   36.80   11.46
   6   4 -14   41.82   17.07
  -6  -4 -14   33.81    7.75
   6  -4 -14   42.19   23.06
  -6   4  14   38.09   10.07
   6   4  14   40.92   12.32
  -6   4 -15  106.18   12.06
  -6  -4 -15  113.06   26.29
  -6   4 -15  101.80    6.40
   6   4 -15  114.58    9.58
   6  -4 -15  125.01   14.95
  -6   4  15  111.81   10.36
   6   4  15  125.23   15.17
  -6   4 -16   72.25   25.55
  -6  -4 -16   94.88   13.13
  -6   4 -16   56.08   14.88
   6   4 -16   69.71   29.30
   6  -4 -16   77.93   29.39
  -6   4  16   79.17   23.43
   6   4  16   81.17   18.61
  -6   4 -17   10.46    7.08
  -6  -4 -17    7.01    6.27
  -6   4 -17    8.00    7.27
   6   4 -17    4.61   10.16
   6  -4 -17   11.91    7.66
  -6   4  17   11.66    5.94
  -6   4 -18   44.00   14.29
  -6  -4 -18   21.00   13.71
  -6   4 -18   41.98   11.01
   6   4 -18   34.44   13.43
   6  -4 -18   29.76   17.21
  -6   4  18   50.10   15.42
  -6   4 -19   37.40   16.22
  -6  -4 -19   36.49    8.41
   6   4 -19   48.16    9.43
   6  -4 -19   28.41   13.87
  -6   4  19   49.03   20.33
  -6  -5   0  923.18   27.95
   6  -5   0  895.89   26.18
  -6   5   0  927.79   29.86
   6   5   0  877.69   25.50
  -6   5   0  918.71   27.91
  -6   5  -1  759.96   22.57
  -6  -5  -1  805.32   24.73
  -6  -5   1  721.85   22.33
   6  -5  -1  736.04   21.36
  -6   5  -1  794.77   24.91
   6   5   1  749.39   21.48
   6   5  -1  859.05   24.89
  -6   5  -1  799.59   23.98
  -6   5   1  792.57   23.90
  -6   5  -2  176.74    7.12
  -6  -5  -2  164.74    7.68
  -6  -5   2  167.67    7.71
   6  -5  -2  161.73    4.41
  -6   5  -2  181.02    5.44
   6   5   2  191.40    9.11
   6   5  -2  165.65    5.15
  -6   5  -2  175.27    4.82
  -6   5   2  179.50    6.16
  -6   5  -3   66.58    3.77
  -6  -5  -3   67.17   12.68
  -6  -5   3   65.97   15.64
   6  -5  -3   73.17    8.01
   6   5   3   64.35    5.36
  -6   5  -3   68.68    4.21
   6   5  -3   64.84    4.92
  -6   5  -3   65.36    3.49
  -6   5   3   75.51    8.53
  -6   5  -4   70.02   13.62
  -6  -5  -4   49.85   19.49
   6  -5  -4   68.98    3.40
  -6  -5   4   65.22    3.96
  -6   5  -4   74.47    4.36
   6   5  -4   53.09    4.75
  -6   5   4   49.81    7.31
  -6   5  -5  500.78   11.69
  -6  -5  -5  465.54   13.81
   6  -5  -5  476.50    9.30
  -6  -5   5  497.94   10.96
  -6   5  -5  489.23   10.39
   6   5  -5  453.11   11.07
  -6   5   5  461.82   12.33
   6  -5  -6  207.39   10.46
  -6   5  -6  232.24   14.19
  -6  -5  -6  214.80   13.43
   6  -5  -6  222.22   11.16
  -6  -5   6  218.95   12.86
  -6   5  -6  224.75   12.61
   6   5  -6  233.38   20.38
  -6   5   6  227.08   13.60
  -6   5  -7  219.74   14.28
   6  -5  -7  220.63   11.46
  -6  -5  -7  224.60   14.57
  -6  -5   7  220.96   13.92
  -6   5  -7  199.74   12.79
   6   5  -7  253.93   26.27
  -6  -5  -7  230.41   13.39
  -6   5   7  227.51   14.83
  -6   5  -8   45.42   15.40
   6  -5  -8   41.03    2.71
  -6  -5  -8   58.64   20.16
  -6  -5   8   43.17   13.55
  -6   5  -8   40.32   15.27
   6   5  -8   51.17   18.79
  -6  -5  -8   43.61    3.96
  -6   5   8   51.11   16.23
  -6   5  -9    1.09    2.64
   6  -5  -9    0.98    0.74
  -6  -5  -9    2.96    3.80
  -6  -5   9    5.07    2.80
  -6   5  -9   -0.06    2.56
   6   5  -9    6.72    8.82
  -6  -5  -9    0.37    2.59
  -6   5   9    2.39    3.62
  -6   5 -10  143.78   17.40
  -6  -5 -10  135.93   14.00
  -6  -5  10  146.61    6.59
  -6   5 -10  135.84    7.12
   6   5 -10  161.04   14.65
  -6  -5 -10  154.95    6.16
   6  -5 -10  134.37    9.22
  -6   5  10  148.40   16.95
  -6   5 -11   44.58   13.68
  -6  -5 -11   43.47   15.56
  -6  -5  11   45.21   12.36
  -6   5 -11   71.52   21.72
   6   5 -11   52.19   19.65
  -6  -5 -11   46.46    9.64
   6  -5 -11   46.10   11.01
  -6   5  11   44.41   17.85
  -6   5 -12   68.80   25.77
  -6  -5 -12   72.02   27.40
  -6  -5  12   60.00   18.58
  -6   5 -12   75.39   13.82
   6   5 -12   77.35   28.67
  -6  -5 -12   59.56   14.77
   6  -5 -12   82.96   11.11
  -6   5  12   74.92    7.57
  -6   5 -13   45.31   13.31
  -6  -5 -13   53.30   22.19
  -6  -5  13   50.00   19.50
  -6   5 -13   54.85   19.02
   6   5 -13   64.11   26.37
  -6  -5 -13   69.63   11.14
   6  -5 -13   33.32   10.18
  -6   5  13   72.63   18.91
  -6   5 -14    2.68    4.44
  -6  -5 -14    5.89    5.18
  -6  -5  14    6.80    4.92
  -6   5 -14    5.72    2.94
   6   5 -14    3.26    4.36
  -6  -5 -14   -0.34    3.72
   6  -5 -14    7.69    9.55
  -6   5  14    6.91    5.32
   6   5  14    6.01    5.37
  -6   5 -15  183.62    9.62
  -6  -5 -15  188.47   31.22
  -6  -5  15  164.26    8.46
  -6   5 -15  129.45   20.73
   6   5 -15  157.41   10.68
   6  -5 -15  155.87   16.65
  -6   5  15  162.58   12.94
   6   5  15  154.24   14.02
  -6   5 -16   41.48   11.94
  -6  -5 -16   35.07   14.03
  -6   5 -16   31.83   14.18
   6   5 -16   19.23    8.98
   6  -5 -16   34.65   10.73
  -6   5  16   17.50    5.32
   6   5  16   33.55    5.51
  -6   5 -17   67.09   27.56
  -6  -5 -17   65.54   32.10
  -6   5 -17   87.62   20.65
   6   5 -17   78.55   37.89
   6  -5 -17   83.43   38.83
  -6   5  17   59.91   20.86
  -6   5 -18   46.33   16.88
  -6  -5 -18   37.78    9.26
  -6   5 -18   30.80    9.66
   6   5 -18   37.94   15.56
   6  -5 -18   22.41   20.66
  -6   5  18   37.09   17.92
  -6  -6   0   -6.47    4.75
   6  -6   0    2.59    2.91
  -6   6   0   -0.55    3.49
   6   6   0    1.49    1.72
  -6   6   0   -0.59    1.66
  -6  -6  -1   14.64    7.46
  -6  -6   1   12.05    4.40
   6  -6  -1   12.03    3.31
   6  -6   1   18.29    7.21
  -6   6   1   14.47    4.33
  -6   6  -1   12.97    5.37
   6   6   1   16.18    4.16
   6   6  -1   16.17    6.85
  -6   6  -1   14.63    4.32
  -6   6   1   16.58    5.65
  -6   6  -2 1515.83   43.40
  -6  -6  -2 1438.02   42.48
  -6  -6   2 1483.28   44.12
   6  -6  -2 1498.35   42.27
  -6   6  -2 1470.74   43.31
   6   6   2 1490.17   42.21
   6   6  -2 1528.92   43.71
  -6   6  -2 1454.10   41.75
  -6   6   2 1478.39   43.68
  -6   6  -3  426.48   11.93
  -6  -6  -3  422.86    9.97
  -6  -6   3  441.52   15.27
   6  -6  -3  452.91   13.93
   6   6   3  447.58   13.56
  -6   6  -3  443.77   14.57
   6   6  -3  429.76    8.44
  -6   6  -3  439.99   14.23
  -6   6   3  429.67    9.37
  -6   6  -4  161.80   10.66
  -6  -6  -4  160.74   23.67
   6  -6  -4  141.05   12.42
  -6  -6   4  150.27   15.81
  -6   6  -4  153.60   15.00
   6   6  -4  159.26   12.34
  -6   6  -4  151.38    8.77
  -6   6   4  153.64   12.85
  -6   6  -5  137.77    9.95
  -6  -6  -5  133.23   11.73
   6  -6  -5  134.16    8.96
  -6  -6   5  129.42    9.34
  -6   6  -5  135.83    9.31
   6   6  -5  136.09    9.78
  -6   6   5  132.82   12.57
  -6   6  -6   27.42    9.46
  -6  -6  -6   31.51   15.57
   6  -6  -6   25.45    3.58
  -6  -6   6   29.71   12.10
  -6   6  -6   23.19    8.53
   6   6  -6   28.49    8.28
  -6   6   6   26.43   24.07
  -6   6  -7   44.80   14.13
  -6  -6  -7   49.81   20.42
   6  -6  -7   37.60    4.84
  -6  -6   7   48.54   14.01
  -6   6  -7   42.06    8.58
   6   6  -7   42.04   17.95
  -6   6   7   44.43   23.54
  -6   6  -8  210.54   13.73
   6  -6  -8  200.94    5.67
  -6  -6  -8  207.33   30.36
  -6  -6   8  180.99   13.11
  -6   6  -8  201.81   10.16
   6   6  -8  180.89   11.52
  -6   6   8  195.08   24.53
  -6   6  -9  318.43   19.62
  -6  -6  -9  328.71   12.96
  -6  -6   9  323.14   21.68
  -6   6  -9  311.93   11.84
   6   6  -9  397.89   17.35
  -6  -6  -9  360.37   13.10
  -6   6   9  342.32   12.80
  -6   6 -10  266.03   16.98
  -6  -6 -10  273.79   20.96
  -6  -6  10  296.88   18.38
  -6   6 -10  303.61   19.03
   6   6 -10  259.93   17.95
  -6  -6 -10  264.78   16.28
  -6   6  10  266.56   22.17
  -6   6 -11    3.08    3.92
  -6  -6 -11   -1.80    6.44
  -6  -6  11    0.74    3.82
  -6   6 -11    3.32    4.01
   6   6 -11   -6.74    6.82
  -6  -6 -11    1.20    3.32
   6  -6 -11    4.04    7.84
  -6   6  11    3.93    5.00
  -6   6 -12   29.89   10.46
  -6  -6 -12   28.74    7.19
  -6  -6  12   29.35    9.63
  -6   6 -12   32.67    5.09
   6   6 -12   17.60    8.52
  -6  -6 -12   22.92    5.60
   6  -6 -12   38.52   13.56
  -6   6  12   30.17   11.86
  -6   6 -13    9.84    4.28
  -6  -6 -13    7.25    4.44
  -6  -6  13    7.31    4.53
  -6   6 -13   18.33   12.10
   6   6 -13   20.16    8.67
  -6  -6 -13   11.14    4.61
   6  -6 -13   13.08    8.01
  -6   6  13    6.78    6.23
  -6   6 -14  457.25   14.09
  -6  -6 -14  468.13   14.70
  -6  -6  14  452.73   12.56
  -6   6 -14  464.05   11.68
   6   6 -14  453.00   17.36
   6  -6 -14  431.68   17.19
  -6   6  14  410.87   18.89
   6   6  14  456.96   14.37
  -6   6 -15   48.71   15.67
  -6  -6 -15   37.72   10.53
  -6  -6  15   39.33   13.22
  -6   6 -15   29.56    9.45
   6   6 -15   54.40   15.28
   6  -6 -15   58.24   12.40
  -6   6  15   33.63    9.72
   6   6  15   25.66   11.54
  -6   6 -16    4.89    6.32
  -6  -6 -16   10.68    7.35
  -6  -6  16    5.60    4.85
  -6   6 -16    4.61    3.56
   6   6 -16    5.32    6.98
   6  -6 -16   18.29   13.40
  -6   6  16    6.18    3.64
   6   6  16    0.69    4.70
  -6   6 -17   13.94    8.59
  -6  -6 -17   16.31    8.62
  -6   6 -17    3.83    3.73
   6   6 -17    5.50    5.75
   6  -6 -17    8.86    7.14
  -6   6  17    5.41    5.89
   6   6  17    1.34    4.30
  -6   6 -18   43.68   16.65
  -6  -6 -18   31.83   12.68
  -6   6 -18   35.29   15.16
   6   6 -18   33.10    9.88
   6  -6 -18   41.08   15.24
  -6   6  18   41.06   12.47
  -6  -7   0  128.27   10.64
   6  -7   0  120.03    8.22
  -6   7   0  133.19   10.84
   6   7   0  130.12   10.18
  -6   7   0  128.22    8.38
  -6  -7  -1  490.79   13.32
  -6  -7   1  525.74   13.26
   6  -7  -1  498.29   15.07
   6  -7   1  475.29   10.61
  -6   7   1  491.44   19.21
  -6   7  -1  544.81   12.58
   6   7   1  527.92   14.70
   6   7  -1  495.07   10.36
  -6   7  -1  502.41   11.04
  -6   7   1  520.61   11.58
  -6  -7  -2   47.97   21.00
  -6  -7   2   29.43    8.90
   6  -7  -2   24.83    7.50
   6  -7   2   38.17    8.54
  -6   7  -2   20.40    7.97
   6   7   2   30.68    9.16
   6   7  -2   38.10   14.43
  -6   7  -2   21.64   10.27
  -6   7   2   29.78   11.91
  -6  -7  -3   63.57   21.49
  -6  -7   3   66.87   25.05
   6  -7  -3   64.00    4.70
   6  -7   3   51.77    4.32
   6   7   3   59.02    5.26
  -6   7  -3   56.52    4.64
   6   7  -3   74.76    9.55
  -6   7  -3   68.62    6.09
  -6   7   3   71.70   23.02
  -6   7  -4   56.84   16.93
  -6  -7  -4   55.45   10.56
   6  -7  -4   66.78    7.37
  -6  -7   4   69.83    9.04
   6   7   4   52.39    4.51
  -6   7  -4   67.49    6.90
   6   7  -4   51.94    6.39
  -6   7  -4   57.72    3.01
  -6   7   4   44.37    7.48
  -6   7  -5  237.24    9.84
  -6  -7  -5  247.17   11.67
   6  -7  -5  247.15    8.66
  -6  -7   5  251.17   12.29
  -6   7  -5  233.01   18.21
  -6   7  -5  228.92   12.64
  -6   7   5  278.18   12.49
  -6   7  -6  340.33   13.93
  -6  -7  -6  327.53   15.73
   6  -7  -6  353.62   10.57
  -6  -7   6  319.09   12.37
  -6   7  -6  330.07   11.96
   6   7  -6  311.80   13.25
  -6   7   6  325.02   13.12
  -6   7  -7  180.86   17.54
  -6  -7  -7  212.28   31.10
   6  -7  -7  186.72   14.10
  -6  -7   7  189.13   11.84
  -6   7  -7  205.23   10.07
   6   7  -7  201.94   10.88
  -6   7   7  187.75   18.09
  -6   7  -8   43.89   19.33
   6  -7  -8   30.86    5.57
  -6  -7  -8   34.68   11.34
  -6  -7   8   28.65   13.76
  -6   7  -8   17.95    7.51
   6   7  -8   49.85   13.61
  -6   7   8   21.20   16.20
  -6   7  -9   70.08   20.51
  -6  -7  -9   68.79   27.98
  -6  -7   9   90.94   12.61
  -6   7  -9   71.11   14.90
   6   7  -9   72.01   18.32
  -6   7   9   72.68   25.10
  -6   7 -10   87.61   13.73
  -6  -7 -10   89.99   10.71
  -6  -7  10   86.25   13.67
  -6   7 -10   78.01    6.99
   6   7 -10   87.62   11.22
  -6  -7 -10   89.52    9.22
  -6   7  10   80.14   19.80
  -6   7 -11  124.99   28.80
  -6  -7 -11  122.57   15.76
  -6  -7  11  116.48    6.63
  -6   7 -11  127.18   25.15
   6   7 -11  137.95   21.24
  -6  -7 -11  138.54    7.03
  -6   7  11  125.30   12.60
  -6   7 -12   55.31   12.84
  -6  -7 -12   50.57   12.99
  -6  -7  12   48.71   17.25
  -6   7 -12   62.49   16.95
   6   7 -12   68.79   28.15
  -6  -7 -12   46.78   15.92
   6  -7 -12   51.01   10.95
  -6   7  12   62.64   20.39
  -6   7 -13   43.64   14.04
  -6  -7 -13   32.93   11.46
  -6  -7  13   37.94   14.34
  -6   7 -13   48.46    8.94
   6   7 -13   20.49   13.34
  -6  -7 -13   38.34   10.30
   6  -7 -13   49.63   14.45
  -6   7  13   41.70   10.35
  -6   7 -14    2.35    4.67
  -6  -7 -14    3.48    6.08
  -6  -7  14    3.21    3.31
  -6   7 -14    1.81    2.92
   6   7 -14    7.13    7.46
   6  -7 -14    5.35    4.69
  -6   7  14   12.24    3.08
   6   7  14    2.17    3.20
  -6   7 -15   50.99   14.57
  -6  -7 -15   46.20   21.19
  -6  -7  15   42.22   20.51
  -6   7 -15   43.74   18.91
   6   7 -15   48.30   11.69
   6  -7 -15   56.14   19.88
  -6   7  15   68.53   11.12
   6   7  15   48.16   16.81
  -6   7 -16   12.93    7.71
  -6  -7 -16   18.77   13.65
  -6  -7  16   12.97    5.71
  -6   7 -16   26.37    9.17
   6   7 -16   16.50    8.79
   6  -7 -16    0.12    9.78
  -6   7  16   14.81    5.82
   6   7  16   16.33    6.87
  -6   7 -17   43.96   15.56
  -6  -7 -17   37.99   17.28
  -6   7 -17   43.26   12.77
   6   7 -17   47.37   15.13
   6  -7 -17   26.43   11.66
  -6   7  17   31.77   11.27
   6   7  17   30.31   14.96
  -6   7 -18   59.32   11.72
  -6  -7 -18   46.85   23.73
  -6   7 -18   36.85   17.64
   6   7 -18   48.88   20.94
   6  -7 -18   63.67   25.06
  -6   7  18   48.39   23.12
   6   7  18   55.67   33.48
  -6  -8   0   -2.29    6.92
   6  -8   0    2.94    2.25
  -6   8   0   13.19    4.26
   6   8   0    7.10    2.37
  -6   8   0    7.83    1.93
  -6  -8  -1  160.99   17.11
  -6  -8   1  181.74   23.32
   6  -8  -1  208.17   19.71
   6  -8   1  175.32   11.41
  -6   8   1  197.32   13.77
  -6   8  -1  181.42   12.84
   6   8   1  187.68   14.11
   6   8  -1  166.53   16.52
  -6   8  -1  195.90   11.64
  -6   8   1  180.60   13.04
  -6  -8  -2   46.28   20.30
  -6  -8   2   59.62   24.06
   6  -8  -2   55.09    5.07
   6  -8   2   48.40   11.81
  -6   8  -2   42.87   20.20
   6   8   2   39.26   11.72
   6   8  -2   51.32    5.85
  -6   8  -2   43.82    4.55
  -6   8   2   51.57   20.97
  -6  -8  -3  372.65   15.59
  -6  -8   3  375.46   15.54
   6  -8  -3  372.07   13.07
   6  -8   3  395.71   13.29
   6   8   3  394.26   11.99
  -6   8  -3  358.97   12.40
   6   8  -3  372.55   13.07
  -6   8  -3  388.72   11.66
  -6   8   3  401.23   14.44
  -6  -8  -4  259.87   13.94
   6  -8  -4  243.05    8.73
  -6  -8   4  263.50   13.56
   6  -8   4  282.22   12.80
   6   8   4  260.32    8.93
  -6   8  -4  243.13   10.31
   6   8  -4  256.81   10.01
  -6   8  -4  253.19    8.09
  -6   8   4  294.42   12.90
  -6  -8  -5    1.73    7.66
   6  -8  -5    1.71    2.06
  -6  -8   5   -2.80    5.22
   6  -8   5   11.02   13.10
  -6   8  -5    3.19    3.88
   6   8  -5    4.40    4.68
  -6   8   5    2.49    4.34
  -6   8  -6    1.39    4.90
  -6  -8  -6    4.02    3.59
   6  -8  -6    1.49    1.99
  -6  -8   6    5.87    5.88
  -6   8  -6    8.61    5.04
   6   8  -6    8.51    3.10
  -6   8  -6    3.22    1.33
  -6   8   6    5.78    3.65
  -6   8  -7   25.85   18.96
  -6  -8  -7   19.25   12.39
   6  -8  -7   22.62    8.74
  -6  -8   7   19.22   12.38
  -6   8  -7   28.33   10.07
   6   8  -7   24.67   12.17
  -6   8   7   30.39    7.82
  -6   8  -8  419.14   28.52
  -6  -8  -8  401.92   24.93
   6  -8  -8  410.67   23.54
  -6  -8   8  402.25   24.57
  -6   8  -8  441.08   26.44
   6   8  -8  408.16   25.66
  -6   8   8  389.17   24.29
  -6   8  -9  470.49   23.01
  -6  -8  -9  504.63   14.50
  -6  -8   9  484.21   16.52
  -6   8  -9  485.74   26.21
   6   8  -9  464.04   15.90
  -6   8   9  506.37   13.59
  -6   8 -10   12.13    5.62
  -6  -8 -10   15.40    7.93
  -6  -8  10   10.13    5.54
  -6   8 -10   13.61    8.79
   6   8 -10   11.29    7.60
  -6   8  10    2.05    4.52
  -6   8 -11   14.87    9.54
  -6  -8 -11    7.84    3.35
  -6  -8  11    6.58    5.55
  -6   8 -11   10.77    6.31
   6   8 -11    6.83    5.42
  -6  -8 -11    3.59    2.58
  -6   8  11   13.71    8.36
  -6   8 -12   76.93   33.34
  -6  -8 -12   88.35   35.95
  -6  -8  12   86.44   14.26
  -6   8 -12   79.66    6.85
   6   8 -12   63.63   30.08
  -6  -8 -12   98.98    6.10
  -6   8  12   85.51   14.98
  -6   8 -13   87.69   29.77
  -6  -8 -13   61.96   24.70
  -6  -8  13   76.23   23.39
  -6   8 -13   68.31   22.65
   6   8 -13   96.38   27.68
   6  -8 -13   88.22   33.16
  -6   8  13   77.31   27.81
  -6   8 -14    3.16    4.73
  -6  -8 -14    7.26    6.49
  -6  -8  14    2.98    2.93
  -6   8 -14    2.63    3.97
   6   8 -14    2.98    3.37
   6  -8 -14   -4.57    7.46
  -6   8  14    5.11    4.82
   6   8  14   -3.13    5.58
  -6   8 -15   40.57   19.97
  -6  -8 -15   53.15    8.90
  -6  -8  15   31.99   12.60
  -6   8 -15   39.58   10.46
   6   8 -15   37.19   21.58
   6  -8 -15   48.95   11.01
  -6   8  15   50.72   13.23
   6   8  15   40.25   15.92
  -6   8 -16   47.81   17.91
  -6  -8 -16   63.60   10.86
  -6  -8  16   31.42   17.44
  -6   8 -16   43.58    8.64
   6   8 -16   38.27   16.11
   6  -8 -16   44.74   13.07
  -6   8  16   50.40   18.67
   6   8  16   50.68   12.14
  -6   8 -17   10.47    7.01
  -6  -8 -17    8.00    5.28
  -6   8 -17    5.16    6.11
   6   8 -17    4.18   10.36
   6  -8 -17    2.53    7.27
  -6   8  17    6.71    6.48
   6   8  17    5.41    3.90
  -6  -9   0  289.38   28.83
   6  -9   0  273.10   11.44
  -6   9   0  280.74   21.18
   6   9   0  305.70   12.75
  -6   9   0  321.55   13.39
  -6  -9  -1  227.73   14.51
  -6  -9   1  218.67   18.31
   6  -9  -1  227.84   11.22
   6  -9   1  201.54   16.30
  -6   9   1  226.28   12.68
  -6   9  -1  205.84   12.06
   6   9   1  207.00    9.11
   6   9  -1  238.31   11.13
  -6   9  -1  205.20    9.34
  -6   9   1  251.09   12.06
  -6  -9  -2  111.30   11.71
  -6  -9   2  111.79   28.29
   6  -9  -2  128.81    8.25
   6  -9   2  100.67    7.82
  -6   9   2  117.08    8.71
  -6   9  -2  101.37   11.01
   6   9   2  107.56    6.91
   6   9  -2  123.42   17.68
  -6   9  -2  123.03    7.31
  -6   9   2  109.41   19.39
  -6  -9  -3   20.02    9.06
  -6  -9   3   24.21   14.96
   6  -9  -3   26.13    5.22
   6  -9   3   20.83   10.02
   6   9   3   32.35    8.65
  -6   9  -3   21.85   10.15
   6   9  -3   24.75   11.74
  -6   9  -3   28.53    9.02
  -6   9   3   12.77   10.43
  -6  -9  -4  579.33   23.70
   6  -9  -4  515.70   19.13
  -6  -9   4  478.86   19.47
   6  -9   4  557.00   39.32
   6   9   4  535.88   19.68
  -6   9  -4  582.66   23.95
   6   9  -4  549.30   21.28
  -6   9  -4  525.01   18.41
  -6   9   4  548.91   22.02
  -6  -9  -5  168.99   10.71
   6  -9  -5  150.37   12.04
  -6  -9   5  159.04   10.66
   6  -9   5  172.32    8.93
  -6   9  -5  155.01    8.20
  -6   9  -5  163.47    6.02
  -6   9   5  182.83   10.76
  -6  -9  -6   61.29   20.16
   6  -9  -6   72.76    9.75
  -6  -9   6   64.93   22.28
   6  -9   6   61.93   16.37
  -6   9  -6   69.95    6.06
   6   9  -6   62.97   22.01
  -6   9   6   49.04   21.60
  -6  -9  -7  174.37   13.38
   6  -9  -7  199.14   12.39
  -6  -9   7  197.33   22.76
   6  -9   7  175.52   19.38
  -6   9  -7  217.64   14.76
   6   9  -7  186.68   28.92
  -6   9   7  177.64   25.30
  -6  -9  -8  239.64   13.58
   6  -9  -8  210.32   12.15
  -6  -9   8  227.65   16.64
   6  -9   8  201.89   13.65
  -6   9  -8  250.86   13.53
   6   9  -8  221.82   15.77
  -6   9   8  191.32   16.50
  -6   9  -9   22.29    8.34
  -6  -9  -9   15.15    7.48
  -6  -9   9    3.54    6.98
  -6   9  -9   14.58    4.93
   6   9  -9    2.98    5.14
  -6   9   9    5.79    3.21
  -6   9 -10   97.91   34.02
  -6  -9 -10  102.11   23.26
  -6  -9  10   92.59   19.05
  -6   9 -10   86.70   16.05
   6   9 -10   99.04   19.61
  -6   9  10   98.58   12.89
  -6   9 -11  136.14   25.18
  -6  -9 -11   97.41   33.24
  -6  -9  11  104.78   10.97
  -6   9 -11   96.90   15.15
   6   9 -11   77.11   29.43
  -6   9  11  111.15   20.49
  -6   9 -12  373.22   15.25
  -6  -9 -12  377.44   15.15
  -6  -9  12  369.26   11.51
  -6   9 -12  371.15   11.67
   6   9 -12  337.37   29.55
  -6   9  12  368.79   14.52
  -6   9 -13   21.00    6.75
  -6  -9 -13   19.31   10.17
  -6  -9  13   20.12    6.24
  -6   9 -13   24.48    9.39
   6   9 -13   22.52   10.82
  -6   9  13   13.97    7.41
  -6   9 -14   13.61    9.93
  -6  -9 -14    9.56    6.51
  -6  -9  14   15.69    6.80
  -6   9 -14   23.91    8.09
   6   9 -14   17.75   14.84
   6  -9 -14   32.13    9.43
  -6   9  14   14.35    8.67
   6   9  14   31.37   12.81
  -6   9 -15    1.22    6.28
  -6  -9 -15    7.94    6.86
  -6  -9  15    7.03    8.29
  -6   9 -15    5.90    4.46
   6   9 -15    4.36    5.20
   6  -9 -15    9.69   10.54
  -6   9  15    4.19    5.89
   6   9  15    6.43    3.16
  -6   9 -16   51.42   13.81
  -6  -9 -16   33.65   22.63
  -6  -9  16   27.75   11.99
  -6   9 -16   43.52   10.47
   6   9 -16   33.13   13.15
   6  -9 -16   44.08   25.54
  -6   9  16   55.20   12.98
   6   9  16   34.44   17.00
  -6 -10   0  145.05   13.74
   6 -10   0  130.66   11.66
  -6  10   0  127.24   24.77
   6  10   0  121.24    9.01
  -6  10   0  110.51   16.16
  -6 -10  -1  291.73   12.14
  -6 -10   1  263.14   32.79
   6 -10  -1  272.53   11.28
   6 -10   1  296.26   13.30
  -6  10   1  328.79   14.52
  -6  10  -1  288.53   12.80
   6  10   1  300.31   19.07
   6  10  -1  294.21   13.91
  -6  10  -1  266.75   15.84
  -6  10   1  307.88   12.07
  -6 -10  -2  188.97   10.67
  -6 -10   2  217.48   13.56
   6 -10  -2  198.07    9.68
   6 -10   2  204.13   10.54
  -6  10   2  196.59   11.33
  -6  10  -2  201.32   13.72
   6  10   2  198.85   12.21
   6  10  -2  205.01   12.95
  -6  10  -2  175.09   12.00
  -6  10   2  184.28   11.84
  -6 -10  -3  153.07    8.42
  -6 -10   3  149.35   18.43
   6 -10  -3  141.09   19.10
   6 -10   3  157.98   14.98
   6  10   3  156.20   10.28
  -6  10  -3  154.91   21.58
   6  10  -3  138.58   19.26
  -6  10  -3  143.48    5.21
  -6  10   3  169.30   10.89
  -6 -10  -4   14.22   12.52
   6 -10  -4    7.33    4.24
  -6 -10   4   11.89    5.25
   6 -10   4   16.24    5.65
   6  10   4   15.12    4.07
  -6  10  -4   14.17    5.92
   6  10  -4   12.77    7.14
  -6  10  -4   11.50    3.92
  -6  10   4   21.72    6.14
  -6 -10  -5   57.11   19.03
   6 -10  -5   64.27    7.13
  -6 -10   5   58.27   23.00
   6 -10   5   52.03   16.56
  -6  10  -5   69.05   20.42
   6  10  -5   55.80   18.67
  -6  10  -5   52.70    5.25
  -6  10   5   58.66   17.65
  -6 -10  -6    7.85   10.49
   6 -10  -6    2.03    1.93
  -6 -10   6    2.80    3.94
   6 -10   6    3.13    2.10
  -6  10  -6   -3.74    4.50
   6  10  -6   15.30    7.08
  -6  10   6    3.74    3.27
  -6 -10  -7   38.95   11.46
   6 -10  -7   62.65    7.00
  -6 -10   7   62.70   15.95
   6 -10   7   44.74   22.38
  -6  10  -7   57.15   19.62
   6  10  -7   49.14   11.23
  -6  10   7   47.26   17.76
  -6 -10  -8   11.61    7.05
  -6 -10   8    6.74    4.81
   6 -10   8    7.14    5.89
  -6  10  -8    7.71    6.20
   6  10  -8   13.91    8.38
  -6  10   8    8.99    8.54
  -6 -10  -9  177.70   26.16
  -6 -10   9  166.92   27.14
   6 -10   9  154.10   22.68
  -6  10  -9  166.18   25.26
   6  10  -9  157.03   13.86
  -6  10   9  151.72   16.98
  -6 -10 -10   87.77   26.30
  -6 -10  10  103.20    8.88
   6 -10  10   77.51   21.67
  -6  10 -10   98.03   11.02
   6  10 -10  108.37    8.48
  -6  10  10  123.98   17.73
  -6 -10 -11   44.69   12.12
  -6 -10  11   44.46   15.97
   6 -10  11   36.40   15.25
  -6  10 -11   49.75   18.78
   6  10 -11   32.19   14.07
  -6  10  11   56.39   15.92
  -6 -10 -12   45.90   20.38
  -6 -10  12   57.92   21.71
   6 -10  12   55.89   13.58
  -6  10 -12   45.44   18.62
   6  10 -12   50.07   24.21
  -6  10  12   64.92   17.60
  -6 -10 -13  122.11   29.36
  -6 -10  13  124.89   15.57
   6 -10  13  127.96   10.39
  -6  10 -13  115.94   20.57
   6  10 -13  101.72   35.28
  -6  10  13  107.97   25.90
   6  10  13  142.39   16.03
  -6 -10 -14   13.32   13.01
  -6 -10  14   31.03   14.04
   6 -10  14   35.73   13.93
  -6  10 -14   27.46   10.24
   6  10 -14   41.18   12.27
  -6  10  14   43.68   14.67
   6  10  14   44.09   14.69
  -6 -10 -15   17.28   11.42
  -6 -10  15   12.71    4.74
   6 -10  15   11.90    8.80
  -6  10 -15   16.70   11.00
   6  10 -15   21.77    8.69
   6 -10 -15   17.94   13.47
  -6  10  15   17.07    8.63
   6  10  15    9.72    7.40
  -6 -10 -16   12.26    7.68
  -6 -10  16    1.55    2.16
   6 -10  16    7.43    4.14
  -6  10 -16    1.84    3.12
   6  10 -16    3.63    6.01
   6 -10 -16    7.08    9.37
  -6  10  16   -0.71    4.71
   6  10  16    1.27    4.28
  -6 -11   0   24.63   13.09
   6 -11   0   29.27    7.26
  -6  11   0   27.23    4.81
   6  11   0   25.93    5.82
  -6  11   0   18.72   10.51
  -6 -11  -1   41.20    7.27
  -6 -11   1   36.98   16.02
   6 -11  -1   16.94    8.42
   6 -11   1   27.63   10.81
  -6  11   1   26.87   15.46
  -6  11  -1   33.21    8.92
   6  11   1   32.72    7.96
   6  11  -1   43.73    9.57
  -6  11  -1   35.76   15.95
  -6  11   1   36.78   13.16
  -6 -11  -2  161.82   13.88
  -6 -11   2  132.77    8.51
   6 -11  -2  130.03   12.43
   6 -11   2  139.77   11.78
  -6  11   2  165.22   30.30
  -6  11  -2  138.34   14.43
   6  11   2  140.02    8.88
   6  11  -2  158.66   14.61
  -6  11  -2  138.89    6.36
  -6  11   2  154.78   11.63
  -6 -11  -3   17.80   11.23
  -6 -11   3   28.82    9.45
   6 -11  -3   16.34    7.82
   6 -11   3   17.16    6.72
   6  11   3   17.08    5.03
  -6  11  -3   23.13    6.32
   6  11  -3   18.09    5.71
  -6  11  -3   18.38    5.88
  -6  11   3   18.04    7.86
  -6 -11  -4    5.63    8.51
   6 -11  -4    7.75    3.73
  -6 -11   4    9.15    6.10
   6 -11   4    1.51    3.00
   6  11   4    5.75    2.70
  -6  11  -4    5.81    3.09
   6  11  -4   10.94    5.05
  -6  11  -4   -0.20    2.28
  -6  11   4    7.84    2.81
  -6 -11  -5   12.14    5.28
   6 -11  -5   16.79    5.77
  -6 -11   5   16.41   12.20
   6 -11   5   16.37    6.59
  -6  11  -5   13.02    7.40
   6  11  -5   22.23    6.76
  -6  11   5   29.78    8.96
  -6 -11  -6  329.00   12.47
   6 -11  -6  387.36   10.75
  -6 -11   6  351.59   11.53
   6 -11   6  412.24   14.92
  -6  11  -6  366.07   11.35
   6  11  -6  379.74   11.49
  -6  11   6  353.82   20.26
  -6 -11  -7   87.55   14.92
   6 -11  -7   99.57   12.95
  -6 -11   7   90.48   10.10
   6 -11   7   96.20   34.62
  -6  11  -7  106.65   27.20
   6  11  -7   82.54   30.55
  -6  11   7   94.81   27.54
  -6 -11  -8   89.03   39.89
  -6 -11   8   62.38   24.36
   6 -11   8  111.68   19.79
  -6  11  -8   86.94   24.97
   6  11  -8   87.28   29.24
  -6  11   8   87.66   26.05
  -6 -11  -9   61.98   17.48
  -6 -11   9   73.31    9.67
   6 -11   9   67.34   16.80
  -6  11  -9   32.64   13.91
   6  11  -9   49.62    7.23
  -6  11   9   63.11   21.29
  -6 -11 -10  146.22   21.70
  -6 -11  10  153.66    9.78
   6 -11  10  142.62   20.16
  -6  11 -10  158.95    9.99
   6  11 -10  115.96    8.39
  -6  11  10  123.69   19.82
  -6 -11 -11    8.27    4.87
  -6 -11  11    4.96    6.72
   6 -11  11   12.77    7.29
  -6  11 -11    6.13    3.80
   6  11 -11   11.50    6.46
  -6  11  11    9.83    6.60
  -6 -11 -12    3.39    8.23
  -6 -11  12    5.85    7.51
   6 -11  12    5.09    5.86
  -6  11 -12   11.20    5.21
   6  11 -12   10.09    7.34
  -6  11  12    5.83    5.46
  -6 -11 -13    5.08    8.20
  -6 -11  13    4.88    4.03
   6 -11  13    2.58    5.64
  -6  11 -13   10.33    7.98
   6  11 -13    4.07    5.80
  -6  11  13    4.50    3.10
   6  11  13    3.32    3.95
  -6 -11 -14   13.13   11.31
  -6 -11  14   -0.62    6.10
   6 -11  14    3.17    7.02
  -6  11 -14    8.62    3.78
   6  11 -14    2.47    5.59
  -6  11  14   10.48    8.41
   6  11  14    5.20    9.77
  -6 -11 -15    6.00    6.84
  -6 -11  15    1.07    4.40
   6 -11  15    3.79   10.01
  -6  11 -15    3.61    3.85
   6  11 -15    2.55    4.04
   6 -11 -15    5.94    9.11
  -6  11  15    3.58    3.92
   6  11  15   10.38    6.50
  -6 -12   0  125.59   35.04
   6 -12   0  107.72   16.38
  -6  12   0  120.33   16.16
   6  12   0  110.05    9.91
  -6  12   0  117.05    7.93
  -6 -12  -1    1.32    7.36
  -6 -12   1   20.20    9.85
   6 -12  -1   21.94    7.05
   6 -12   1   -0.99    4.63
  -6  12   1    9.18    8.05
  -6  12  -1   11.71    4.51
   6  12   1   12.92    3.78
   6  12  -1   13.88    4.54
  -6  12  -1   15.07    6.26
  -6  12   1   16.70   10.05
  -6 -12  -2   54.06   26.48
  -6 -12   2   52.13   22.21
   6 -12  -2   61.25    8.83
   6 -12   2   46.82   16.29
  -6  12   2   52.58   25.74
  -6  12  -2   52.24   14.46
   6  12   2   46.24   14.62
  -6  12  -2   44.68   16.71
  -6  12   2   58.68   21.78
  -6 -12  -3  257.89   18.12
  -6 -12   3  219.04   28.03
   6 -12  -3  235.71   14.52
   6 -12   3  225.64   10.06
   6  12   3  253.99    8.21
  -6  12  -3  246.04   10.33
   6  12  -3  251.79    9.32
  -6  12  -3  206.34    8.31
  -6  12   3  241.50   14.16
  -6 -12  -4   10.94   11.50
   6 -12  -4   39.22    7.35
  -6 -12   4   31.01   13.25
   6 -12   4   23.49    8.86
   6  12   4   20.20    5.85
  -6  12  -4   20.40    7.10
   6  12  -4   19.92    6.63
  -6  12  -4   15.79    6.60
  -6  12   4   20.85   11.19
  -6 -12  -5   68.67   30.01
   6 -12  -5   56.49    7.51
  -6 -12   5   78.44    8.55
   6 -12   5   90.57   30.84
   6  12   5   65.48    7.67
  -6  12  -5   74.63   32.05
   6  12  -5   90.68    6.90
  -6  12   5   83.69    8.29
  -6 -12  -6   16.87    8.59
   6 -12  -6   28.06    8.34
  -6 -12   6   12.41    8.68
   6 -12   6    8.71    7.37
  -6  12  -6   22.85    7.79
   6  12  -6   10.64    7.20
  -6  12   6   11.70    6.99
  -6 -12  -7  161.23   20.94
  -6 -12   7  191.04   13.90
   6 -12   7  180.58   15.55
  -6  12  -7  174.87   44.21
   6  12  -7  189.40   19.31
  -6  12   7  152.14   20.58
  -6 -12  -8   12.89    7.96
  -6 -12   8   19.84   13.29
   6 -12   8   13.33   10.54
  -6  12  -8   11.16   11.80
   6  12  -8   13.69    8.99
  -6  12   8   24.46   10.17
  -6 -12  -9   94.59   25.14
  -6 -12   9  118.82    9.57
   6 -12   9  111.95   39.96
  -6  12  -9  119.81   23.68
   6  12  -9  102.36    7.68
  -6  12   9   98.64   20.40
  -6 -12 -10    8.88    8.58
  -6 -12  10   23.73   12.87
   6 -12  10   12.20    9.49
  -6  12 -10   -3.11    5.47
   6  12 -10   10.36    5.20
  -6  12  10   13.74    4.25
  -6 -12 -11   30.78   14.31
  -6 -12  11   10.35   10.61
   6 -12  11   23.02   13.39
  -6  12 -11   16.87    7.14
   6  12 -11   30.85   14.93
  -6  12  11   22.33   14.03
  -6 -12 -12   44.35   18.35
  -6 -12  12   39.94   12.18
   6 -12  12   41.50   15.45
  -6  12 -12   44.77   16.48
   6  12 -12   43.97   13.05
  -6 -12 -13   -2.10    7.92
  -6 -12  13    8.99    6.58
   6 -12  13    3.57    5.61
  -6  12 -13   11.66    5.07
   6  12 -13    8.96    6.73
  -6  12  13   10.92    7.18
   6  12  13    3.82    5.89
  -6 -12 -14    7.55   11.09
  -6 -12  14    8.09    5.43
   6 -12  14    2.23    4.63
  -6  12 -14    7.88    4.09
   6  12 -14    6.10    7.09
  -6  12  14    3.34    7.61
   6  12  14   19.75    9.90
  -6 -13   0  149.21   14.59
   6 -13   0  155.62   19.74
  -6  13   0  144.09   24.60
   6  13   0  120.11   11.87
  -6  13   0  148.85   17.98
  -6 -13  -1  105.47   33.27
  -6 -13   1  137.95   22.58
   6 -13  -1  116.62   25.26
   6 -13   1  119.41   21.72
  -6  13   1  109.37   18.98
  -6  13  -1  108.07   10.78
   6  13   1  109.65   12.46
   6  13  -1  112.51   15.16
  -6  13  -1  100.53   19.51
  -6  13   1  116.21   10.96
  -6 -13  -2   12.37   11.77
  -6 -13   2   53.98   20.34
   6 -13  -2   53.46   16.64
   6 -13   2   40.17   12.98
  -6  13   2   31.34   18.00
  -6  13  -2   60.84   27.66
   6  13   2   52.27   13.88
   6  13  -2   39.12   11.02
  -6  13  -2   59.38   20.83
  -6  13   2   47.89   17.41
  -6 -13  -3  102.18   36.71
  -6 -13   3  106.44   32.35
   6 -13  -3  109.96   16.90
   6 -13   3  113.61   16.36
   6  13   3  113.00   10.07
  -6  13  -3  131.90   13.54
   6  13  -3  101.23   18.09
  -6  13  -3   99.70   18.90
  -6  13   3  111.18    8.88
  -6 -13  -4   51.89   17.64
   6 -13  -4   37.26   15.03
  -6 -13   4   71.77   30.30
   6 -13   4   45.59   16.44
   6  13   4   45.62   15.32
  -6  13  -4   54.46   27.94
   6  13  -4   41.99    9.11
  -6  13   4   49.05   17.89
  -6 -13  -5    7.15    6.46
   6 -13  -5    5.80    3.20
  -6 -13   5    1.68    4.05
   6 -13   5    0.35    5.75
   6  13   5    5.90    5.55
  -6  13  -5    9.54   10.35
   6  13  -5   10.79    6.61
  -6  13   5    1.38    2.89
  -6 -13  -6   55.41   21.46
   6 -13  -6   63.85    6.83
  -6 -13   6   62.58   27.36
   6 -13   6   63.93   20.46
  -6  13  -6   69.05   18.62
   6  13  -6   57.75   15.94
  -6  13   6   66.28   26.83
  -6 -13  -7   12.21   11.18
  -6 -13   7    4.00    7.11
   6 -13   7    9.14    3.80
  -6  13  -7    8.48    4.17
   6  13  -7    2.07    5.66
  -6  13   7   12.34    7.17
  -6 -13  -8   29.89   28.76
  -6 -13   8   63.73   21.98
   6 -13   8   48.50    7.39
  -6  13  -8   44.29   17.00
   6  13  -8   44.24   16.34
  -6  13   8   58.17   18.82
  -6 -13  -9  108.68   26.91
  -6 -13   9   94.57   19.31
   6 -13   9   93.61   12.18
  -6  13  -9   81.59   25.73
   6  13  -9   78.07   24.33
  -6  13   9  110.01   30.40
  -6 -13 -10    7.08   10.59
  -6 -13  10   28.74   12.34
   6 -13  10   27.31   10.17
  -6  13 -10   16.66    7.13
   6  13 -10   19.56    9.28
  -6  13  10   28.65    9.06
  -6 -13 -11   27.71   10.44
  -6 -13  11   20.58    6.40
   6 -13  11   33.69   10.36
  -6  13 -11   16.42   11.32
   6  13 -11   29.40   15.22
  -6  13  11   30.55   11.81
  -6 -13 -12   15.50    8.70
  -6 -13  12   20.02   11.71
  -6  13 -12   24.86   11.51
   6  13 -12   37.67   13.03
  -6  13  12   35.54   12.21
   6  13  12   36.43   14.15
  -6 -13 -13   20.52    7.13
  -6 -13  13    8.83    5.76
   6 -13  13   13.16   12.88
  -6  13 -13   16.87    6.54
   6  13 -13   21.31    9.73
  -6  13  13   12.63    6.25
   6  13  13    9.28   11.85
  -6 -14   0   25.80   12.44
   6 -14   0    8.63    9.69
  -6  14   0   19.32    9.68
   6  14   0   19.54    7.51
  -6  14   0   15.98    6.28
  -6 -14  -1  119.85   15.80
  -6 -14   1  121.76   22.60
   6 -14  -1  131.44   15.37
   6 -14   1  130.79   13.10
  -6  14   1  110.28   20.75
  -6  14  -1  109.85   36.06
   6  14   1  127.49   18.15
   6  14  -1  126.63   14.99
  -6  14  -1  138.12    7.57
  -6  14   1  118.31    8.67
  -6 -14  -2  103.32   41.15
  -6 -14   2  116.31   11.32
   6 -14  -2  124.61   10.78
   6 -14   2  118.43   18.01
  -6  14   2  122.00   15.44
  -6  14  -2  107.44   12.30
   6  14   2  121.15   12.67
   6  14  -2  119.19   29.34
  -6  14  -2  118.71    7.53
  -6  14   2  115.56    9.78
  -6 -14  -3   63.67   30.20
  -6 -14   3   23.26   15.04
   6 -14  -3   38.60   23.14
   6 -14   3   55.78   22.58
   6  14   3   47.70   20.21
  -6  14  -3   55.17   21.75
   6  14  -3   78.92   16.73
  -6  14   3   55.09   23.10
  -6 -14  -4   42.32   19.67
   6 -14  -4   62.25   11.44
  -6 -14   4   59.38   25.09
   6 -14   4   53.40   19.97
   6  14   4   44.20   21.12
  -6  14  -4   45.70   16.78
   6  14  -4   72.19   23.31
  -6  14   4   52.61   17.82
  -6 -14  -5   15.98   11.00
   6 -14  -5   26.41    8.48
  -6 -14   5   26.55   10.60
   6 -14   5   26.52    9.79
  -6  14  -5   23.06   10.37
   6  14  -5   14.87    6.56
  -6  14   5    8.03   10.52
  -6 -14  -6   65.99   14.67
  -6 -14   6   94.71   11.91
   6 -14   6   57.77   16.58
  -6  14  -6   53.17   25.21
   6  14  -6   71.42   15.41
  -6  14   6   56.35   17.26
  -6 -14  -7   -2.20    8.34
  -6 -14   7    2.56    4.65
   6 -14   7   -1.43    5.57
  -6  14  -7   -0.11    2.84
   6  14  -7   10.35    5.25
  -6  14   7   -0.72    6.34
  -6 -14  -8   34.44   19.40
  -6 -14   8   32.44   19.76
   6 -14   8   29.92    9.97
  -6  14  -8   33.18   11.54
   6  14  -8   30.45   12.09
  -6  14   8   43.01   13.59
  -6 -14  -9   10.49    8.22
  -6 -14   9   31.77   10.04
   6 -14   9   12.06    5.92
  -6  14  -9   25.56    9.20
   6  14  -9   17.64    9.17
  -6  14   9   19.20    7.02
  -6 -14 -10   15.31   11.55
  -6 -14  10   21.93    5.71
   6 -14  10   20.48   13.30
  -6  14 -10   11.22    4.54
   6  14 -10   19.43   11.50
  -6  14  10   10.48   10.21
  -6 -14 -11    7.08    9.00
  -6 -14  11    9.81    7.09
   6 -14  11    8.89    5.69
  -6  14 -11    8.63    7.98
   6  14 -11   18.68   11.97
  -6  14  11   17.68    7.57
  -6 -15   0   13.13   11.82
   6 -15   0   24.94   12.66
  -6  15   0   16.53    8.63
   6  15   0   22.22   10.00
  -6  15   0   29.08   10.26
  -6 -15  -1    6.43    6.54
  -6 -15   1    3.62    7.36
   6 -15  -1    6.32    4.06
   6 -15   1   12.14    7.44
  -6  15   1    8.84    6.29
  -6  15  -1    4.53    5.24
   6  15   1    8.28    3.67
   6  15  -1    6.91    3.75
  -6  15  -1    3.06    4.07
  -6  15   1    9.66    6.07
  -6 -15  -2   16.17    8.71
  -6 -15   2    9.47   12.04
   6 -15  -2   13.62    9.08
   6 -15   2    2.05    2.66
  -6  15   2   18.01    9.70
  -6  15  -2   -0.66    6.33
   6  15   2   14.60    5.21
   6  15  -2   14.15    5.59
  -6  15   2   17.78    5.40
  -6 -15  -3   72.63   24.91
  -6 -15   3   52.66   23.71
   6 -15  -3   58.92    7.55
   6 -15   3   58.33   22.34
   6  15   3   54.68   18.09
  -6  15  -3   54.75   27.10
   6  15  -3   73.52    7.46
  -6  15   3   63.59   27.52
  -6 -15  -4   41.79   17.44
   6 -15  -4   20.73    8.77
  -6 -15   4   34.64   22.03
   6 -15   4   24.01   10.49
   6  15   4   19.60   10.92
  -6  15  -4   29.73    9.71
  -6  15   4   32.35   16.55
  -6 -15  -5   85.84   27.68
   6 -15  -5  113.20    7.70
  -6 -15   5   86.00   41.33
   6 -15   5  105.73    8.32
  -6  15  -5   75.49   28.59
   6  15  -5  131.83   11.95
  -6  15   5  113.23   25.10
  -6 -15  -6    3.56    4.38
  -6 -15   6   -5.26    7.52
   6 -15   6    4.70    6.73
  -6  15  -6   18.79   10.44
   6  15  -6   -7.86    6.32
  -6  15   6   -0.64    6.47
  -6 -15  -7   66.30   36.77
  -6 -15   7   65.41   23.24
   6 -15   7   58.09   20.70
  -6  15  -7   61.83   25.85
   6  15  -7   79.03   23.40
  -6  15   7   56.25   19.36
  -6 -15  -8   15.96   10.23
  -6 -15   8    9.15    5.39
   6 -15   8    2.40    8.08
  -6  15  -8    4.44    3.95
   6  15  -8   -0.32    6.15
  -6  15   8   -2.47    6.44
  -6 -15  -9   18.09   13.79
  -6 -15   9   37.58   12.80
   6 -15   9   23.81   15.15
  -6  15  -9   17.20    7.89
   6  15  -9   16.56    6.03
  -6  15   9   18.00   11.44
  -6 -15 -10    9.42    5.87
  -6 -15  10   19.18    8.69
   6 -15  10    9.08    6.66
  -6  15 -10    8.84    8.57
   6  15 -10   11.58   12.06
  -6  15  10   10.56    9.78
  -6 -16   0   63.53   17.91
   6 -16   0   36.80   20.07
  -6  16   0   30.84   23.56
   6  16   0   43.93   18.25
  -6  16   0   60.34   26.41
  -6 -16  -1    8.30    7.53
  -6 -16   1    8.46    4.96
   6 -16  -1   18.65    6.34
   6 -16   1    2.32    2.44
  -6  16   1    9.13    5.30
  -6  16  -1    5.24    6.05
   6  16   1   11.30    6.57
   6  16  -1    5.24    3.91
  -6  16  -1    6.34    4.07
  -6  16   1    6.65    5.64
  -6 -16  -2    6.56   10.38
  -6 -16   2   19.84    9.58
   6 -16  -2   20.27    8.89
   6 -16   2    9.84    7.69
  -6  16   2    9.42    9.39
  -6  16  -2    6.51    5.91
   6  16   2   11.61    4.55
   6  16  -2   18.93    9.65
  -6  16   2    4.97    3.70
  -6 -16  -3   44.62   29.19
  -6 -16   3   12.62    9.61
   6 -16  -3   37.92   18.09
   6 -16   3   32.40   17.13
   6  16   3   32.15    9.45
  -6  16  -3   37.22   13.12
   6  16  -3   37.93   15.28
  -6  16   3   30.80   15.08
  -6 -16  -4   81.80   33.37
   6 -16  -4   51.70   25.23
  -6 -16   4   69.85   27.31
   6 -16   4   73.92   23.63
   6  16   4   45.02   24.00
  -6  16  -4   69.10   26.21
   6  16  -4   61.39   19.71
  -6  16   4   58.94   24.56
  -6 -16  -5   24.92    8.72
  -6 -16   5   17.59   15.25
   6 -16   5   31.23   11.41
  -6  16  -5   36.89   12.71
   6  16  -5   49.77   16.65
  -6  16   5   27.51   15.74
  -6 -16  -6   16.08   12.05
  -6 -16   6   11.73   11.72
   6 -16   6   13.12    8.75
   6  16  -6   12.27    7.43
  -6  16   6   11.78    4.86
  -6 -16  -7   35.49   13.26
  -6 -16   7    9.45   10.65
   6 -16   7   16.48    9.73
  -6  16  -7   14.66    8.30
   6  16  -7   25.18   10.23
  -6  16   7   16.44    9.46
  -6 -17   0    5.38    5.64
   6 -17   0    0.90    5.78
  -6  17   0   -0.36    7.91
   6  17   0    6.37    4.38
  -6  17   0    2.95    4.20
  -6 -17  -1   23.63   10.10
  -6 -17   1   37.90   10.30
   6 -17  -1   23.67   12.60
   6 -17   1   28.40    9.28
  -6  17   1   32.29    8.70
  -6  17  -1   34.54   12.61
   6  17   1   29.07   11.70
  -6  17   1   29.36   13.36
  -6 -17  -2    4.04    9.90
  -6 -17   2    5.21    5.89
   6 -17  -2   -5.18    5.54
   6 -17   2   -1.03    6.48
  -6  17  -2    6.97    8.19
   6  17   2   -1.68    4.69
   6  17  -2    4.35    4.36
  -6  17   2    6.95    4.75
  -6 -17  -3   21.95   14.16
  -6 -17   3   27.79   11.27
   6 -17  -3   12.05    7.55
   6 -17   3   36.45   12.39
   6  17   3   19.87   12.14
  -6  17  -3   34.45   11.88
   6  17  -3   30.52   11.27
  -6  17   3   61.39   13.09
  -6 -17  -4    5.69    6.81
  -6 -17   4   10.58    5.89
   6 -17   4   10.12    5.83
   6  17   4    5.99    4.68
  -6  17  -4    3.85    4.89
   6  17  -4    3.72    5.47
  -6  17   4    5.35    5.46
  -7   0   0    1.14    1.92
   7   0   0   -0.18    0.71
  -7   0  -1  168.07    4.90
  -7   0   1  172.51    4.40
   7   0  -1  164.97    7.64
   7   0   1  171.89    3.84
  -7   0  -2   47.79    7.28
  -7   0   2   42.41    4.48
   7   0   2   47.22    3.14
   7   0  -2   46.67    4.80
   7   0   2   47.69    3.88
  -7   0  -3  603.55   14.77
   7   0  -3  640.32   20.73
  -7   0  -4  229.24    6.66
   7   0  -4  227.58    2.83
   7   0  -4  219.97    7.03
  -7   0   5  252.40    2.59
  -7   0  -5  259.87    7.98
  -7   0   5  249.79    2.87
  -7   0  -5  258.46    2.63
   7   0  -5  244.09    7.63
  -7   0   5  256.04   17.87
  -7   0   6    3.54    0.92
  -7   0  -6    9.03    4.81
  -7   0   6    3.35    0.66
   7   0  -6   -2.54    4.75
  -7   0   6    2.93    5.24
  -7   0  -7   16.67    3.16
  -7   0   7   16.40    1.96
  -7   0   7   12.97    1.41
   7   0  -7   31.82    7.34
  -7   0   7   20.69    9.29
  -7   0  -8  439.37   26.46
  -7   0   8  424.82   10.51
  -7   0   8  431.09   10.75
  -7   0  -8  426.13   13.94
   7   0  -8  416.98   17.54
  -7   0   8  437.77   15.20
  -7   0  -9   39.99    5.79
  -7   0   9   47.26    3.31
  -7   0  -9   44.47   12.25
   7   0  -9   52.43    8.67
  -7   0   9   53.98   17.96
  -7   0 -10   49.46   15.51
  -7   0 -10   46.88    7.59
   7   0 -10   37.85   15.99
  -7   0  10   44.37   15.87
  -7   0 -11  372.97   14.89
  -7   0 -11  365.23   13.35
   7   0 -11  361.54   15.74
  -7   0  11  363.56   22.34
  -7   0 -12   -0.59    5.37
  -7   0 -12   -1.10    3.08
   7   0 -12   -1.62    8.56
  -7   0  12    4.54    4.49
  -7   0 -13   46.74   14.39
  -7   0 -13   44.17   14.57
   7   0 -13   83.01   13.03
  -7   0  13   57.79   17.40
  -7   0 -14   -0.10    6.87
  -7   0 -14    5.62    4.78
   7   0 -14    7.00    8.26
  -7   0  14   -0.61    4.73
  -7   0 -15  152.13   11.38
   7   0 -15  169.12   35.16
  -7   0  15  170.73   16.81
  -7   0 -16   86.47   12.97
   7   0 -16   55.77   17.68
  -7   0  16   68.61    9.10
  -7   0 -17   78.84   28.86
   7   0 -17   54.05   31.09
  -7   0  17   57.51   19.04
  -7   0 -18   13.26    7.55
   7   0 -18   24.73   13.33
  -7   0  18   11.02    5.86
  -7   0 -19    3.85    4.82
   7   0 -19    4.72    5.23
  -7   0  19    3.13    2.60
  -7   1   0    0.88    1.63
  -7  -1   0    3.15    1.54
   7   1   0    1.18    1.39
  -7   1   1  673.87   18.89
  -7   1  -1  685.16   19.78
  -7  -1  -1  711.46   20.86
  -7  -1   1  713.53   20.44
   7   1   1  744.33   20.25
   7   1   1  713.08   19.67
   7   1  -1  673.25   19.06
  -7   1   2  892.04   24.82
  -7   1  -2  841.62   26.59
  -7  -1  -2  880.25   25.42
  -7  -1   2  876.21   24.45
   7   1  -2  907.07   26.67
   7  -1  -2  888.22   25.59
  -7   1  -3  196.55    7.22
  -7  -1  -3  196.88    6.33
  -7  -1   3  182.42    3.78
   7  -1  -3  178.82    2.53
   7   1  -3  191.14    5.71
   7  -1  -3  182.78    6.21
  -7   1   3  188.12    6.79
  -7   1  -4  215.93    6.41
  -7  -1  -4  222.40    7.47
  -7  -1   4  200.77    3.60
   7   1  -4  204.48    9.83
   7  -1  -4  200.90    6.90
  -7   1   4  219.78    7.48
  -7   1  -5  657.65   21.02
  -7  -1  -5  645.41   20.58
   7   1  -5  641.12   20.41
   7  -1  -5  641.89   20.22
  -7   1   5  647.17   23.31
  -7   1  -6  335.55    9.81
  -7  -1  -6  335.83   11.83
  -7  -1  -6  340.43    4.93
  -7   1  -6  332.74    6.77
   7   1  -6  354.29   15.05
   7  -1  -6  369.78   11.19
  -7   1   6  357.64   11.54
  -7   1  -7  497.66   21.50
  -7  -1  -7  496.46   15.47
  -7   1  -7  509.69    8.88
   7   1  -7  504.12   13.66
   7  -1  -7  500.20   14.64
  -7   1  -8  331.64   16.21
  -7  -1  -8  321.99   14.66
  -7   1  -8  337.67    9.77
  -7  -1  -8  302.01    9.71
   7   1  -8  319.61   16.38
   7  -1  -8  336.91   15.38
  -7   1   8  294.64   22.67
  -7   1  -9  107.13   18.51
  -7  -1  -9  106.52    9.03
  -7  -1   9  100.96    6.86
  -7   1  -9  102.77    5.63
  -7  -1  -9  105.35    6.33
   7   1  -9  132.16   13.90
   7  -1  -9   98.32   32.41
  -7  -1   9  109.36   17.01
  -7   1   9   99.24    9.99
  -7   1 -10  251.95   11.58
  -7  -1 -10  273.88   13.91
  -7  -1  10  279.41   10.27
  -7   1 -10  289.19   11.06
  -7  -1 -10  267.79   11.13
   7   1 -10  254.77   31.21
   7  -1 -10  265.89   14.97
  -7  -1  10  275.65   17.16
  -7   1  10  259.29   12.35
  -7   1 -11  150.82   22.84
  -7  -1 -11  161.63   25.94
  -7   1 -11  148.17    9.63
  -7  -1 -11  142.73    5.50
   7   1 -11  152.91   17.76
   7  -1 -11  153.05   13.86
  -7  -1  11  163.91   20.00
  -7   1  11  147.17   15.88
  -7   1 -12   44.88   16.31
  -7  -1 -12   32.89    7.68
  -7   1 -12   37.55    7.83
  -7  -1 -12   35.68   11.47
   7   1 -12   22.69   10.31
   7  -1 -12   21.93    8.44
  -7  -1  12   32.51   14.68
  -7   1  12   41.34   11.73
  -7   1 -13  110.14   18.14
  -7  -1 -13  116.66   21.76
  -7   1 -13  113.76    5.46
  -7  -1 -13  115.20    5.19
   7   1 -13   98.40   34.69
   7  -1 -13   98.29   32.29
  -7  -1  13  101.03    8.30
  -7   1  13  110.04   12.24
  -7   1 -14  294.84   23.21
  -7  -1 -14  275.48   35.41
  -7   1 -14  258.71   18.91
   7   1 -14  254.81   21.08
   7  -1 -14  261.13   27.74
  -7  -1  14  285.09   21.84
  -7   1  14  273.01   26.21
  -7   1 -15   16.62    7.41
  -7  -1 -15   23.42    9.01
   7   1 -15   23.68    9.04
   7  -1 -15   10.33    9.41
  -7  -1  15   23.15    7.01
  -7   1  15   14.92    6.83
  -7   1 -16   34.29   11.98
  -7  -1 -16   30.33   13.77
   7   1 -16   36.37   13.00
   7  -1 -16   32.35   16.82
  -7  -1  16   33.82   12.72
  -7   1  16   43.06   13.78
  -7   1 -17   36.17   16.46
  -7  -1 -17   44.71   10.25
   7   1 -17   31.71   11.19
   7  -1 -17   37.25   18.15
  -7   1  17   28.11   10.45
  -7   1 -18   30.99   12.99
  -7  -1 -18   30.83   10.95
   7   1 -18   26.09   11.71
   7  -1 -18   22.78   14.87
  -7   1  18   20.53    8.98
  -7   1 -19   26.10    6.69
  -7  -1 -19   24.23   12.28
   7   1 -19   18.90    7.90
   7  -1 -19   10.21   10.63
  -7   1  19   25.00    8.75
  -7   2   0   -0.56    2.07
  -7  -2   0    2.44    3.18
   7   2   0   -0.26    1.28
  -7   2   1    0.81    1.23
  -7   2  -1   -0.10    2.49
  -7  -2  -1    1.33    1.61
  -7  -2   1    1.84    2.78
   7   2   1    0.06    0.61
   7   2  -1    3.67    2.30
  -7   2   1    2.14    2.49
  -7   2  -2  247.19    5.85
  -7  -2  -2  290.13    7.41
  -7  -2   2  264.00    5.87
   7   2  -2  276.16    7.44
  -7   2   2  258.70    7.45
  -7   2  -3  353.02    6.98
  -7  -2   3  351.76    6.36
  -7   2  -3  362.80    4.79
  -7   2  -4   94.50    5.06
  -7  -2  -4  108.66   13.51
  -7  -2   4  103.07    3.86
  -7   2  -4   98.53    3.52
   7   2  -4  116.79   17.58
  -7   2   4  111.98    6.38
  -7   2  -5 1138.95   33.52
  -7  -2  -5 1076.30   33.40
  -7  -2   5 1155.91   33.29
  -7   2  -5 1097.32   31.25
   7   2  -5 1051.38   31.19
   7  -2  -5 1123.52   33.36
  -7   2   5 1048.16   32.55
  -7   2  -6  531.99   12.10
  -7  -2  -6  524.77   13.34
  -7  -2   6  523.55   10.67
  -7   2  -6  549.90    9.75
   7   2  -6  521.63   12.33
   7  -2  -6  525.89   13.38
  -7   2   6  535.48   13.47
  -7   2  -7  532.94   12.74
  -7  -2  -7  524.66   13.14
  -7  -2   7  545.49   10.21
  -7  -2  -7  529.09    8.00
  -7   2  -7  542.12   10.38
  -7  -2  -7  521.50    8.42
   7   2  -7  553.26   14.50
   7  -2  -7  532.39   15.37
  -7   2   7  529.65   14.23
  -7   2  -8  340.31   13.34
  -7  -2  -8  289.36   12.82
  -7  -2   8  340.19   10.07
  -7   2  -8  322.94    9.65
   7   2  -8  318.56   15.53
   7  -2  -8  311.49   15.27
  -7   2   8  326.79   14.33
  -7   2  -9  270.32   20.28
  -7  -2  -9  300.28   27.00
  -7  -2   9  298.63   11.13
  -7   2  -9  294.80   11.49
  -7  -2  -9  278.04   10.18
   7   2  -9  320.75   22.90
   7  -2  -9  277.19   15.48
  -7   2   9  286.05   14.00
  -7   2 -10   72.95    6.15
  -7  -2 -10   61.87   18.50
  -7  -2  10   73.95    4.09
  -7   2 -10   73.20    4.42
  -7  -2 -10   76.26    6.38
   7   2 -10   79.38   11.40
   7  -2 -10   71.79   21.40
  -7   2  10   79.00   22.29
  -7   2 -11   23.41    8.02
  -7  -2 -11   17.25    7.62
  -7  -2  11   26.06    6.26
  -7   2 -11   23.27    8.83
  -7  -2 -11   13.16    3.76
   7   2 -11    9.63    6.48
   7  -2 -11   27.80    8.07
  -7   2  11   16.99    8.35
  -7   2 -12   59.56   21.37
  -7  -2 -12   52.04   17.31
  -7   2 -12   61.47    5.17
  -7  -2 -12   52.17   12.13
   7   2 -12   51.16   10.73
   7  -2 -12   48.56   11.90
  -7   2  12   49.66   10.14
  -7   2 -13   23.33    9.60
  -7  -2 -13   28.83    7.65
  -7   2 -13   26.66    7.82
   7   2 -13   19.73   10.73
   7  -2 -13   21.41    7.67
  -7   2  13   31.22    7.42
  -7   2 -14   59.39   20.03
  -7  -2 -14   43.80   21.76
  -7   2 -14   38.68   17.29
   7   2 -14   30.62   10.74
   7  -2 -14   39.43   16.15
  -7   2  14   35.71   11.80
   7   2  14   56.69    7.07
  -7   2 -15    5.67    3.63
  -7  -2 -15   -0.21    6.44
  -7   2 -15    3.75    3.85
   7   2 -15   -5.47    8.92
   7  -2 -15    6.26    7.10
  -7   2  15    5.98    5.40
  -7   2 -16   43.70   12.06
  -7  -2 -16   48.50   17.23
   7   2 -16   60.66   19.52
   7  -2 -16   51.15   12.80
  -7   2  16   40.35   12.31
  -7   2 -17   28.28   13.64
  -7  -2 -17   23.40   10.63
   7   2 -17   28.27   14.99
   7  -2 -17   20.80   10.47
  -7   2  17   35.26    9.53
  -7   2 -18    5.68    4.04
  -7  -2 -18   17.43    9.93
   7   2 -18    5.62    5.50
   7  -2 -18   -2.46    9.71
  -7   2  18   17.80    6.21
  -7   2 -19   31.69   13.11
  -7  -2 -19   43.87   12.33
   7   2 -19   23.15   13.88
   7  -2 -19   30.64   21.30
  -7   2  19   30.55   10.46
  -7   3   0    1.66    1.96
  -7  -3   0    5.76    3.77
   7   3   0    1.28    1.46
  -7   3   0    0.86    2.11
  -7   3   1  425.47    5.55
  -7   3  -1  437.82   13.67
  -7  -3  -1  429.87   12.77
  -7  -3   1  449.70   14.31
   7   3   1  428.10    4.70
   7   3  -1  425.89    5.92
  -7  -3  -1  413.36    3.93
  -7   3  -1  446.50   14.33
  -7   3   1  426.17   11.72
  -7   3   2   73.47    2.68
  -7   3  -2   80.58    9.26
  -7  -3  -2   64.33    4.29
  -7  -3   2   73.28   11.72
  -7   3  -2   73.65    7.51
   7   3  -2   73.89   11.15
  -7   3   2   91.10   16.14
  -7   3  -3  406.23    7.16
  -7  -3   3  406.08    7.52
   7  -3  -3  395.90    3.77
  -7   3  -3  401.22    5.84
   7   3  -3  369.50    7.11
  -7   3   3  364.07    8.79
  -7   3  -4  948.97   28.07
  -7  -3  -4  934.10   28.40
  -7  -3   4  912.33   26.71
  -7   3  -4  913.09   26.57
   7   3  -4  957.31   28.56
  -7   3   4  921.72   28.13
  -7   3  -5   57.11    9.56
  -7  -3  -5   61.74    9.29
  -7  -3   5   47.95    4.75
  -7   3  -5   49.74    5.58
   7   3  -5   47.07   19.05
  -7   3   5   45.40   20.42
  -7   3  -6   28.44   15.07
  -7  -3  -6   51.53   15.66
  -7  -3   6   33.79    9.98
  -7   3  -6   30.02    7.81
   7   3  -6   42.72   13.37
  -7   3   6   41.31   15.28
  -7   3  -7   28.15    8.86
  -7  -3  -7   32.45    6.45
  -7  -3   7   29.43    7.83
  -7  -3  -7   22.19    2.97
  -7   3  -7   26.61   10.66
  -7  -3  -7   21.52    4.37
   7   3  -7   26.63    8.82
   7  -3  -7   32.28   10.72
  -7   3   7   27.62    6.45
  -7   3  -8  509.07   27.01
  -7  -3  -8  525.45   18.63
  -7  -3   8  483.68   14.73
  -7   3  -8  494.12   15.26
   7   3  -8  484.15   16.90
   7  -3  -8  478.46   28.20
  -7   3   8  537.88   18.12
  -7   3  -9  145.21    9.75
  -7  -3  -9  133.11   14.64
  -7  -3   9  137.48    7.41
  -7   3  -9  146.02   14.24
  -7  -3  -9  133.29    7.74
   7   3  -9  136.85   45.83
   7  -3  -9  149.17   12.68
  -7   3   9  132.71   12.90
  -7   3 -10   34.37   12.73
  -7  -3 -10   27.88    7.81
  -7  -3  10   27.89    8.27
  -7   3 -10   33.40    4.70
  -7  -3 -10   32.43    7.97
   7   3 -10   32.31   10.48
   7  -3 -10   35.60    9.06
  -7   3  10   29.63    8.04
  -7   3 -11   72.56    9.10
  -7  -3 -11   84.70   26.91
  -7  -3  11   67.77    9.09
  -7   3 -11   76.59   11.85
  -7  -3 -11   74.64    8.95
   7   3 -11   98.94   12.22
   7  -3 -11   82.54   10.82
  -7   3  11   66.26   24.02
  -7   3 -12    2.91    3.78
  -7  -3 -12    5.30    5.48
  -7  -3  12    5.05    3.21
  -7   3 -12    1.40    2.62
  -7  -3 -12    5.38    3.48
   7   3 -12   17.46    5.77
   7  -3 -12    6.23    6.58
  -7   3  12   11.44    7.51
  -7   3 -13  253.64   20.79
  -7  -3 -13  197.93   24.52
  -7   3 -13  241.62   17.93
   7   3 -13  219.23   32.38
   7  -3 -13  233.04   35.54
  -7   3  13  217.23   20.24
  -7   3 -14    9.21    3.85
  -7  -3 -14   10.35    7.50
  -7   3 -14    9.01    4.63
   7   3 -14   20.01   11.29
   7  -3 -14   16.89    9.03
  -7   3  14   16.08    4.28
   7   3  14   10.66    4.44
  -7   3 -15  104.08   26.59
  -7  -3 -15   99.03   20.51
  -7   3 -15  100.43    7.67
   7   3 -15   77.15   30.36
   7  -3 -15   96.00   38.81
  -7   3  15   73.69   17.46
   7   3  15   95.63   17.69
  -7   3 -16   40.83   11.30
  -7  -3 -16   35.85   12.94
  -7   3 -16   40.69   17.56
   7   3 -16   36.24   11.44
   7  -3 -16   62.02   14.10
  -7   3  16   31.58    9.67
  -7   3 -17   28.25   12.07
  -7  -3 -17   26.33   10.64
   7   3 -17   56.20   24.56
   7  -3 -17   48.19   30.26
  -7   3  17   34.01   15.02
  -7   3 -18   26.01   11.43
   7   3 -18    9.41    7.38
   7  -3 -18   11.80   10.44
  -7   3  18   11.95    7.81
  -7   4   0  445.46   13.69
  -7  -4   0  427.51    8.01
   7   4   0  458.20   13.94
  -7   4   0  424.87    7.76
  -7   4  -1  140.43    6.84
  -7  -4  -1  185.49    6.68
  -7  -4   1  146.01    6.08
  -7   4  -1  153.98    4.93
   7   4   1  151.18    3.97
   7   4  -1  191.91    7.56
  -7   4  -1  157.64    5.33
  -7   4   1  168.92    6.01
  -7   4  -2   39.39    6.03
  -7  -4  -2   43.17   11.37
  -7  -4   2   33.29    9.98
   7  -4  -2   35.33    2.85
  -7   4  -2   31.52    9.63
   7   4   2   37.85    2.20
   7   4  -2   33.00   10.42
  -7  -4  -2   43.15    2.04
  -7   4  -2   40.42    3.56
  -7   4   2   30.93   12.87
  -7   4  -3  101.68    4.13
  -7  -4  -3  118.68   15.22
  -7  -4   3  105.43    6.52
   7  -4  -3  111.13    4.57
  -7   4  -3  105.56    4.30
   7   4  -3  114.00    5.23
  -7  -4  -3  101.37    2.47
  -7   4   3  146.22   22.19
  -7   4  -4  942.98   17.48
   7  -4  -4  940.56   12.86
  -7  -4  -4  885.75   18.05
   7  -4  -4  949.23   12.91
  -7  -4   4  986.17   18.81
  -7   4  -4  948.32   17.86
   7   4  -4  899.29   16.31
  -7  -4  -4  884.07   12.02
  -7  -4  -4  885.59   12.13
  -7   4   4  926.91   18.21
  -7   4  -5  109.05    8.39
  -7  -4  -5  113.82   19.37
  -7  -4   5   96.67    9.67
  -7   4  -5  112.76    6.99
  -7  -4  -5  102.97    5.41
   7   4  -5  100.33    8.72
  -7  -4  -5  110.63    6.45
  -7   4   5  112.37   12.25
  -7   4  -6   22.32    9.38
  -7  -4  -6   34.51    9.53
  -7  -4   6   20.36    5.49
  -7   4  -6   17.95    4.36
  -7  -4  -6   19.05    3.33
   7   4  -6   28.06    8.00
  -7  -4  -6   19.24    4.68
  -7   4   6   15.01   10.40
  -7   4  -7    5.37    3.82
  -7  -4  -7   11.27    7.42
  -7  -4   7    5.39    5.45
  -7   4  -7    3.95    2.29
   7   4  -7    9.21    5.44
  -7   4   7    4.80    3.64
  -7   4  -8  117.94   19.80
  -7  -4  -8  128.91   22.75
  -7  -4   8  105.56    7.11
  -7   4  -8  120.78    7.07
   7   4  -8  127.04   16.83
  -7  -4  -8  110.12    7.11
  -7   4   8  116.77    9.70
  -7   4  -9   36.51   13.73
  -7  -4  -9   43.27   20.94
  -7  -4   9   40.82   13.16
  -7   4  -9   37.38   11.89
   7   4  -9   65.81   18.72
  -7  -4  -9   36.64   10.79
   7  -4  -9   43.52   12.96
  -7   4   9   47.87   15.73
  -7   4 -10   15.01    5.13
  -7  -4 -10   13.11    6.75
  -7  -4  10   13.45    3.30
  -7   4 -10    8.12    4.64
   7   4 -10   17.75   11.25
  -7  -4 -10   14.96    4.39
   7  -4 -10    9.47    8.32
  -7   4  10    9.75    5.61
  -7   4 -11   71.18   25.52
  -7  -4 -11   68.64   10.34
  -7  -4  11   66.07    9.64
  -7   4 -11   90.39    5.90
   7   4 -11   38.19   16.03
  -7  -4 -11   48.36   12.32
   7  -4 -11   88.11   12.05
  -7   4  11   59.29   16.94
  -7   4 -12   44.38   14.38
  -7  -4 -12   71.49   23.20
  -7  -4  12   45.12   14.35
  -7   4 -12   53.12   15.93
   7   4 -12   60.80   23.40
   7  -4 -12   55.45   12.11
  -7   4  12   79.31   22.22
  -7   4 -13  139.44   12.91
  -7  -4 -13  144.52   17.62
  -7  -4  13  126.31   16.73
  -7   4 -13  147.73   12.71
   7   4 -13  135.83   14.62
   7  -4 -13  126.94   20.62
  -7   4  13  152.63   17.23
  -7   4 -14   58.32   28.34
  -7  -4 -14   51.61   18.91
  -7   4 -14   49.90   16.76
   7   4 -14   53.77   16.59
   7  -4 -14   63.22   27.09
  -7   4  14   62.07   23.92
  -7   4 -15   64.89   21.33
  -7  -4 -15   68.97   23.94
  -7   4 -15   57.58   22.21
   7   4 -15   57.24   24.80
   7  -4 -15   67.92   28.21
  -7   4  15   70.12   22.10
   7   4  15   62.35    8.78
  -7   4 -16  268.99   30.35
  -7  -4 -16  280.97   13.71
  -7   4 -16  259.95    9.97
   7   4 -16  260.56   23.65
   7  -4 -16  275.30   17.32
  -7   4  16  282.93   18.79
  -7   4 -17    5.20    7.97
  -7  -4 -17   12.65   10.24
   7   4 -17   10.85   14.17
   7  -4 -17   14.72    6.53
  -7   4  17   10.53    5.46
  -7   4 -18   -4.52    7.07
  -7  -4 -18    7.69    6.53
   7   4 -18   -4.02   10.69
   7  -4 -18    6.37    6.21
  -7   4  18    5.69    4.56
  -7  -5   0  247.04    7.29
   7   5   0  231.35    4.31
  -7   5   0  235.32    6.19
  -7   5  -1   81.36   15.41
  -7  -5  -1   92.85   14.51
  -7  -5   1   83.44    7.80
   7  -5  -1   77.67   10.25
  -7   5  -1   81.89    4.51
   7   5   1   82.12    6.45
   7   5  -1   97.67    5.89
  -7   5  -1   87.77    4.64
  -7   5   1   88.95    5.90
  -7   5  -2  353.01   13.04
  -7  -5  -2  395.21   11.40
  -7  -5   2  330.76    9.08
   7  -5  -2  355.92    7.18
  -7   5  -2  339.96   10.59
   7   5   2  357.82    7.43
   7   5  -2  391.78    8.49
  -7   5  -2  347.59    9.07
  -7   5   2  383.35    9.77
  -7   5  -3  521.15   11.41
  -7  -5  -3  517.83   12.92
  -7  -5   3  461.38   10.84
   7  -5  -3  513.25    8.89
   7   5   3  502.65    8.31
  -7   5  -3  493.61   10.24
   7   5  -3  511.21   11.75
  -7   5  -3  510.13   12.11
  -7   5   3  513.50   12.30
  -7   5  -4  346.49    9.76
  -7  -5  -4  326.11   11.29
  -7  -5   4  344.35    9.71
   7  -5  -4  342.77    6.46
  -7   5  -4  333.73    8.21
   7   5  -4  358.67   10.21
  -7   5   4  324.55   10.52
  -7   5  -5  174.65   10.68
   7  -5  -5  184.19    9.21
  -7  -5  -5  189.52   13.69
   7  -5  -5  181.53    9.22
  -7  -5   5  191.21   11.69
  -7   5  -5  188.78   10.77
   7   5  -5  190.16   12.57
  -7   5   5  216.72   14.68
  -7   5  -6    3.68    3.89
  -7  -5  -6   -1.39    6.90
  -7  -5   6    7.94    3.52
  -7   5  -6    2.23    3.78
   7   5  -6    5.00    3.44
  -7   5   6    6.83    5.30
  -7   5  -7  170.06   12.52
  -7  -5  -7  129.21   11.80
  -7  -5   7  140.39    9.50
  -7   5  -7  157.01    9.87
   7   5  -7  143.62   10.67
  -7  -5  -7  146.82    9.08
  -7   5   7  128.80   26.05
  -7   5  -8   27.45   12.03
  -7  -5  -8   37.39   10.79
  -7  -5   8   42.65    9.18
  -7   5  -8   32.58    9.32
   7   5  -8   55.61   19.49
  -7  -5  -8   36.23    8.93
  -7   5   8   41.57   19.69
  -7   5  -9  429.96   16.32
  -7  -5  -9  390.94   16.04
  -7  -5   9  416.27   13.42
  -7   5  -9  407.52   16.98
   7   5  -9  405.04   34.56
  -7  -5  -9  419.65   12.85
  -7   5   9  397.58   14.99
  -7   5 -10    7.86    4.13
  -7  -5 -10    5.72    6.61
  -7  -5  10    8.95    3.99
  -7   5 -10    8.66    4.25
   7   5 -10   10.10    6.30
  -7  -5 -10    4.28    2.86
   7  -5 -10   12.86   11.78
  -7   5  10   12.12    4.63
  -7   5 -11  109.76    7.86
  -7  -5 -11   97.09   32.76
  -7  -5  11   94.35    8.49
  -7   5 -11  100.43    6.90
   7   5 -11  111.57   13.29
   7  -5 -11  114.66   12.88
  -7   5  11  101.26   10.33
  -7   5 -12    8.01    8.02
  -7  -5 -12   -0.56    7.41
  -7  -5  12    8.46    4.01
  -7   5 -12    5.28    5.44
   7   5 -12    6.00    3.19
   7  -5 -12    8.56    7.93
  -7   5  12    8.28    4.28
  -7   5 -13   54.07   16.77
  -7  -5 -13   53.24   18.09
  -7  -5  13   40.70   12.57
  -7   5 -13   57.62    7.08
   7   5 -13   50.89   20.41
   7  -5 -13   55.96   16.74
  -7   5  13   69.37   21.72
  -7   5 -14   91.36   11.22
  -7  -5 -14   92.48   27.93
  -7   5 -14  138.80   16.96
   7   5 -14  103.35   14.34
   7  -5 -14   82.79   29.75
  -7   5  14   88.20   22.70
  -7   5 -15   40.23    9.10
  -7  -5 -15   41.25   20.98
  -7   5 -15   35.42   15.62
   7   5 -15   33.02   10.17
   7  -5 -15   20.52    7.10
  -7   5  15   36.79   12.72
   7   5  15   39.16    7.24
  -7   5 -16   56.32   18.88
  -7  -5 -16   56.06    8.97
  -7   5 -16   46.97   12.19
   7   5 -16   45.76   15.61
   7  -5 -16   52.24   14.94
  -7   5  16   50.48   11.43
   7   5  16   49.92   11.21
  -7   5 -17    7.65    3.74
  -7  -5 -17    6.34    4.87
   7   5 -17   14.32   12.56
   7  -5 -17    5.88    6.80
  -7   5  17   10.63    5.04
  -7   5 -18    5.45    7.54
  -7  -5 -18    4.14    6.22
   7   5 -18    6.31    4.76
   7  -5 -18   -1.32    9.52
  -7   5  18   -3.68    6.24
  -7  -6   0   -0.54    5.24
   7  -6   0    3.59    2.63
  -7   6   0    3.46    2.91
   7   6   0   -0.60    2.00
  -7   6   0    0.61    2.25
  -7  -6  -1  313.63   10.81
  -7  -6   1  331.29   10.72
   7  -6  -1  323.60    8.33
   7  -6   1  343.61   17.53
  -7   6  -1  328.84    8.80
   7   6   1  347.38   12.48
   7   6  -1  321.25    7.41
  -7   6  -1  327.97    8.55
  -7   6   1  321.27    8.99
  -7   6  -2  351.38    9.08
  -7  -6  -2  354.82   11.05
  -7  -6   2  305.68    9.29
   7  -6  -2  343.02   11.70
  -7   6  -2  350.06    9.04
   7   6   2  355.78    7.32
   7   6  -2  319.81    8.01
  -7   6  -2  354.24    8.64
  -7   6   2  305.37    9.42
  -7   6  -3    9.15    6.47
  -7  -6  -3    9.17    3.93
  -7  -6   3    6.53    4.29
   7  -6  -3    7.89    2.82
   7   6   3    1.32    2.59
  -7   6  -3    5.16    3.38
   7   6  -3    1.74    2.71
  -7   6  -3    7.12    3.61
  -7   6   3    5.87    5.55
  -7   6  -4    8.40    8.93
  -7  -6  -4    9.73    7.18
  -7  -6   4   19.28    5.70
   7  -6  -4   16.98    5.40
  -7   6  -4   14.05    6.22
   7   6  -4   17.05    5.21
  -7   6  -4   13.26    3.09
  -7   6   4   15.83    7.66
  -7   6  -5   58.21   13.68
  -7  -6  -5   47.46   18.11
   7  -6  -5   53.32    3.15
  -7  -6   5   62.62    5.60
  -7   6  -5   50.40   16.52
   7   6  -5   48.46   17.05
  -7   6   5   39.84   17.75
  -7   6  -6  658.92   24.91
  -7  -6  -6  652.16   25.60
   7  -6  -6  602.52   19.89
  -7  -6   6  600.17   22.01
  -7   6  -6  633.06   22.63
   7   6  -6  656.07   24.72
  -7   6   6  604.77   23.02
  -7   6  -7    0.00    4.39
  -7  -6  -7    1.62    4.02
  -7  -6   7    5.91    3.19
  -7   6  -7    2.05    1.98
   7   6  -7   11.22    6.16
  -7   6   7   10.37    5.99
  -7   6  -8   21.69   12.56
  -7  -6  -8   21.39    6.71
  -7  -6   8   22.86    6.16
  -7   6  -8   18.77    6.69
   7   6  -8   17.91    6.57
  -7  -6  -8   25.95    8.51
  -7   6   8   24.98   12.68
  -7   6  -9    1.46    4.24
  -7  -6  -9    4.60    6.18
  -7  -6   9    5.28    2.81
  -7   6  -9    6.09    2.55
   7   6  -9    6.48    4.34
  -7  -6  -9   10.78    3.85
  -7   6   9   -3.39    5.60
  -7   6 -10  309.93   20.04
  -7  -6 -10  310.33   14.46
  -7  -6  10  312.41   10.90
  -7   6 -10  310.85   11.37
   7   6 -10  304.65   20.61
  -7   6  10  265.60   14.33
  -7   6 -11   51.00   22.47
  -7  -6 -11   44.20   25.34
  -7  -6  11   36.20   13.73
  -7   6 -11   50.97   16.31
   7   6 -11   43.06   21.17
   7  -6 -11   10.34    8.09
  -7   6  11   41.49   17.82
  -7   6 -12    2.25    6.25
  -7  -6 -12    8.93    6.10
  -7  -6  12    1.55    3.21
  -7   6 -12   16.12    4.87
   7   6 -12   10.55   12.84
   7  -6 -12    7.90    7.06
  -7   6  12   13.14    5.61
  -7   6 -13   65.95   21.03
  -7  -6 -13   40.89   29.00
  -7  -6  13   51.41   19.88
  -7   6 -13   46.82   16.61
   7   6 -13   59.13   18.05
   7  -6 -13   39.83    8.84
  -7   6  13   56.69   17.11
  -7   6 -14    5.32    4.47
  -7  -6 -14    7.09    8.27
  -7  -6  14    2.48    5.18
  -7   6 -14    0.99    4.20
   7   6 -14    8.32    5.50
   7  -6 -14    9.69    8.98
  -7   6  14   13.61    6.98
  -7   6 -15   27.46   13.28
  -7  -6 -15   12.22    6.16
  -7   6 -15   24.18    7.70
   7   6 -15   23.87   13.35
   7  -6 -15   20.80   16.69
  -7   6  15   29.28    7.22
   7   6  15   17.18    7.44
  -7   6 -16   -2.56    7.12
  -7  -6 -16    5.35    5.89
  -7   6 -16    2.28    4.28
   7   6 -16    4.21    4.28
   7  -6 -16   14.66   12.40
  -7   6  16    0.93    2.59
   7   6  16   -1.93    5.32
  -7   6 -17   10.07    5.49
  -7  -6 -17   12.98   10.40
  -7   6 -17   15.64    6.03
   7   6 -17   19.18   11.39
   7  -6 -17   16.60    9.94
  -7   6  17   25.79    9.65
   7   6  17   10.04    9.88
  -7   6 -18  103.85   33.89
  -7  -6 -18  142.59   14.88
   7   6 -18  139.36   13.05
   7  -6 -18  150.79   33.34
  -7   6  18  120.94   14.30
  -7  -7   0    8.64    6.29
   7  -7   0    7.45    3.14
  -7   7   0    6.19    3.87
   7   7   0   10.79    4.36
  -7   7   0    6.36    3.80
  -7  -7  -1  112.42   11.05
  -7  -7   1  171.43   13.03
   7  -7  -1  117.40    8.36
   7  -7   1  132.20    9.94
  -7   7  -1  110.32    8.55
   7   7   1  119.79    7.35
   7   7  -1  118.25    8.30
  -7   7  -1  118.61   10.51
  -7   7   1  117.10   18.45
  -7  -7  -2  796.52   24.25
  -7  -7   2  749.12   22.71
   7  -7  -2  789.31   21.27
   7  -7   2  822.94   22.93
  -7   7  -2  782.56   22.21
   7   7   2  751.94   19.78
   7   7  -2  802.16   21.87
  -7   7  -2  857.62   23.51
  -7   7   2  702.77   30.06
  -7  -7  -3  587.30   19.60
  -7  -7   3  633.32   20.24
   7  -7  -3  613.44   16.91
   7   7   3  617.86   18.46
  -7   7  -3  580.91   25.36
   7   7  -3  628.10   18.70
  -7   7  -3  632.03   19.71
  -7   7   3  611.60   19.40
  -7   7  -4  120.18   12.54
  -7  -7  -4  146.37   27.39
  -7  -7   4  116.18   16.11
   7  -7  -4  116.84    8.90
  -7   7  -4  101.08    7.90
   7   7  -4  141.30   15.47
  -7   7  -4  111.51   10.96
  -7   7   4  131.23   11.57
  -7   7  -5   17.73    7.99
  -7  -7  -5   14.41    9.23
   7  -7  -5   13.58    4.55
  -7  -7   5   19.30    8.56
  -7   7  -5    8.62    5.91
   7   7  -5   13.88   10.98
  -7   7   5   14.37    6.93
  -7   7  -6   24.97    9.84
  -7  -7  -6   17.61   10.40
   7  -7  -6   12.29    5.94
  -7  -7   6   20.41    6.45
  -7   7  -6   24.40    7.33
   7   7  -6   20.01    6.00
  -7   7   6   10.56    5.73
  -7   7  -7   76.51    9.57
  -7  -7  -7   58.89   14.47
  -7  -7   7   70.30    6.96
  -7   7  -7   52.31   14.48
   7   7  -7   52.07   20.04
  -7   7   7   52.90   16.94
  -7   7  -8   24.42   12.37
  -7  -7  -8   32.06   11.92
  -7  -7   8   33.96   11.55
  -7   7  -8   29.96   10.01
   7   7  -8   35.59   10.54
  -7   7   8   28.87   11.69
  -7   7  -9  217.83   10.82
  -7  -7  -9  239.25   11.43
  -7  -7   9  217.59   10.13
  -7   7  -9  217.22    9.51
   7   7  -9  215.16   14.11
  -7  -7  -9  225.46    8.15
  -7   7   9  232.01   12.38
  -7   7 -10  325.29   11.71
  -7  -7 -10  291.36   12.00
  -7  -7  10  318.21   10.88
  -7   7 -10  306.69   19.93
   7   7 -10  314.42   12.85
  -7   7  10  328.71   12.97
  -7   7 -11   13.68    9.44
  -7  -7 -11    8.45    9.84
  -7  -7  11    3.24    4.15
  -7   7 -11    5.14    3.93
   7   7 -11    8.27    6.02
  -7   7  11   11.07   10.74
  -7   7 -12   32.13   19.89
  -7  -7 -12   34.93   18.06
  -7  -7  12   27.63   11.21
  -7   7 -12   30.95    9.35
   7   7 -12   43.76   11.98
   7  -7 -12   42.18   20.41
  -7   7  12   38.98    7.28
  -7   7 -13   83.96   31.74
  -7  -7 -13  107.59   24.43
  -7  -7  13   90.25   16.53
  -7   7 -13   92.69   15.97
   7   7 -13   89.01   36.04
   7  -7 -13  108.38   23.25
  -7   7  13   95.06   26.91
  -7   7 -14  211.85   26.93
  -7  -7 -14  263.35   13.66
  -7  -7  14  250.83   10.61
  -7   7 -14  251.73    9.59
   7   7 -14  256.72   13.91
   7  -7 -14  220.03   14.99
  -7   7  14  222.79   20.62
  -7   7 -15   84.13   14.68
  -7  -7 -15   84.05   12.25
  -7   7 -15   51.62   20.57
   7   7 -15   55.28   27.40
   7  -7 -15   73.91   13.20
  -7   7  15   66.53   30.53
   7   7  15   71.66   12.70
  -7   7 -16   11.10   11.21
  -7  -7 -16   15.12    8.49
  -7   7 -16   12.86    7.65
   7   7 -16   12.04   10.63
   7  -7 -16    0.47    5.63
  -7   7  16    3.36    7.07
   7   7  16   11.46    5.41
  -7   7 -17    5.73    4.55
  -7  -7 -17   10.21    5.33
  -7   7 -17    2.06    3.21
   7   7 -17    8.02    5.06
   7  -7 -17   16.83   12.78
  -7   7  17    4.10    5.67
   7   7  17    4.40    5.83
  -7  -8   0  436.23   19.67
   7  -8   0  473.64   17.79
  -7   8   0  470.01   18.98
   7   8   0  456.20   16.78
  -7   8   0  457.11   18.05
  -7  -8  -1   98.32   13.23
  -7  -8   1   44.84   29.76
   7  -8  -1   81.40    7.05
   7  -8   1   81.28    9.26
  -7   8  -1   84.76   15.13
   7   8   1   94.63    7.80
   7   8  -1   74.07    7.42
  -7   8  -1   83.75    6.26
  -7   8   1   83.21   11.64
  -7  -8  -2   19.35   11.47
  -7  -8   2    8.27    7.65
   7  -8  -2   12.29    4.14
   7  -8   2   15.99    4.11
  -7   8  -2   12.61    8.51
   7   8   2   14.34    3.59
   7   8  -2   16.38    6.40
  -7   8  -2   15.42    4.49
  -7   8   2    6.86    5.57
  -7  -8  -3  161.18   13.41
  -7  -8   3  137.12   11.86
   7  -8  -3  163.51    8.92
   7  -8   3  176.61   21.50
   7   8   3  142.04    9.79
  -7   8  -3  155.34   13.06
   7   8  -3  153.06   11.20
  -7   8  -3  161.78    9.40
  -7   8   3  162.84   11.38
  -7  -8  -4  464.66   19.77
  -7  -8   4  463.01   25.85
   7  -8  -4  499.02   17.99
   7  -8   4  480.90   19.07
   7   8   4  464.38   20.03
  -7   8  -4  500.38   19.52
   7   8  -4  482.51   30.83
  -7   8  -4  503.93   17.95
  -7   8   4  455.40   21.35
  -7  -8  -5  135.77   19.61
   7  -8  -5  150.08    7.79
  -7  -8   5  153.53    9.10
  -7   8  -5  161.19    8.58
   7   8  -5  161.21   10.57
  -7   8  -5  152.47    6.27
  -7   8   5  129.58    9.50
  -7   8  -6   45.87   16.46
  -7  -8  -6   43.88    7.29
   7  -8  -6   42.06    5.59
  -7  -8   6   41.35   14.93
  -7   8  -6   37.32   15.55
   7   8  -6   46.42   16.39
  -7   8   6   45.84   10.83
  -7   8  -7  140.47   17.51
  -7  -8  -7  160.14   24.83
  -7  -8   7  138.49   14.15
  -7   8  -7  160.14   12.31
   7   8  -7  168.30   17.12
  -7   8   7  169.33   13.06
  -7   8  -8  214.44   10.06
  -7  -8  -8  251.73   12.82
  -7  -8   8  220.12   11.72
  -7   8  -8  213.22   20.79
   7   8  -8  222.50   17.41
  -7   8   8  224.63   10.20
  -7   8  -9    2.92    3.98
  -7  -8  -9   14.32    8.48
  -7  -8   9   10.70    4.78
  -7   8  -9   10.22    4.96
   7   8  -9   11.81    5.09
  -7   8   9    8.19    5.45
  -7   8 -10   44.44   14.09
  -7  -8 -10   37.39   10.51
  -7  -8  10   35.32   16.63
  -7   8 -10   32.22   12.86
   7   8 -10   27.33   11.23
  -7   8  10   36.19   21.50
  -7   8 -11   92.57   28.94
  -7  -8 -11   97.93   33.08
  -7  -8  11   83.53   12.59
  -7   8 -11   91.70   17.40
   7   8 -11   96.24   34.53
  -7   8  11  109.55   36.11
  -7   8 -12  283.98   13.01
  -7  -8 -12  252.97   31.25
  -7  -8  12  265.14   10.32
  -7   8 -12  268.78    9.57
   7   8 -12  295.60   37.40
  -7   8  12  257.00   12.70
  -7   8 -13   29.12   12.42
  -7  -8 -13   24.18    7.37
  -7  -8  13   17.69    7.99
  -7   8 -13   13.69    8.49
   7   8 -13   21.43   10.68
   7  -8 -13   24.35   11.99
  -7   8  13   23.42    9.60
  -7   8 -14   -1.80    6.78
  -7  -8 -14   -5.22    6.94
  -7  -8  14   -0.74    4.82
  -7   8 -14    2.50    3.17
   7   8 -14    5.68    4.65
   7  -8 -14   13.95    9.47
  -7   8  14    9.57    3.94
  -7   8 -15   60.61   31.27
  -7  -8 -15   60.35   21.95
  -7   8 -15   51.14   20.29
   7   8 -15   62.76   27.61
   7  -8 -15   83.85   22.26
  -7   8  15   54.01   24.63
   7   8  15   61.23   28.16
  -7   8 -16  113.19   16.75
  -7  -8 -16  102.53   18.39
  -7   8 -16   66.09   25.36
   7   8 -16   81.57   32.39
   7  -8 -16   81.83   14.95
  -7   8  16  101.74   30.17
   7   8  16   86.21   12.73
  -7   8 -17   18.91   12.20
  -7  -8 -17   12.76    8.72
  -7   8 -17    9.90    5.87
   7   8 -17    6.74    5.47
   7  -8 -17   16.41   10.11
  -7  -9   0    3.91    5.30
   7  -9   0    1.63    2.46
  -7   9   0    2.70    2.48
   7   9   0    5.02    2.30
  -7   9   0   -0.97    3.84
  -7  -9  -1  379.64   26.43
  -7  -9   1  364.49   16.41
   7  -9  -1  379.40   19.27
   7  -9   1  361.66   13.32
  -7   9   1  343.89   25.40
  -7   9  -1  378.45   15.05
   7   9   1  360.41   13.35
   7   9  -1  366.49   25.12
  -7   9  -1  350.02   11.72
  -7   9   1  357.61   13.40
  -7  -9  -2   26.50   14.98
  -7  -9   2   32.95   12.88
   7  -9  -2   30.54    5.00
   7  -9   2   29.32   11.38
  -7   9  -2   34.53    9.27
   7   9   2   53.11    5.41
   7   9  -2   28.25   10.48
  -7   9  -2   39.54    4.57
  -7   9   2   30.59    8.70
  -7  -9  -3  198.91   10.60
  -7  -9   3  169.26    9.37
   7  -9  -3  212.44    8.67
   7  -9   3  228.73   23.54
   7   9   3  208.45    8.95
  -7   9  -3  210.83   10.17
   7   9  -3  209.19   16.90
  -7   9  -3  194.79    8.14
  -7   9   3  213.07   11.53
  -7  -9  -4   17.03    8.68
  -7  -9   4   20.11    9.44
   7  -9  -4   13.01   12.22
   7  -9   4   19.94    6.45
   7   9   4   20.21    4.15
  -7   9  -4   19.16    5.66
   7   9  -4   10.44    6.67
  -7   9  -4   20.87    5.95
  -7   9   4   11.27    5.72
  -7  -9  -5    6.07    5.30
   7  -9  -5   20.31    4.58
  -7  -9   5   24.10    7.35
   7  -9   5   11.10    4.08
  -7   9  -5    2.38    3.73
   7   9  -5    7.60    5.65
  -7   9  -5    6.40    3.21
  -7   9   5    5.53    5.65
  -7  -9  -6   78.51   22.03
   7  -9  -6   85.83    8.88
  -7  -9   6   72.49   22.73
   7  -9   6   82.99    6.68
  -7   9  -6   82.70   24.59
   7   9  -6   75.93    7.49
  -7   9   6   73.04    7.15
  -7  -9  -7   52.17   19.65
  -7  -9   7   49.84   16.17
   7  -9   7   53.46   23.12
  -7   9  -7   47.10   15.42
   7   9  -7   38.51   14.16
  -7   9   7   56.39   19.65
  -7   9  -8  442.09   12.83
  -7  -9  -8  415.19   15.51
  -7  -9   8  435.91   13.10
  -7   9  -8  472.95   12.20
   7   9  -8  404.98   12.97
  -7   9   8  400.77   13.74
  -7   9  -9    3.21    4.32
  -7  -9  -9    5.94    7.42
  -7  -9   9   12.80    7.75
  -7   9  -9    9.20    4.98
   7   9  -9    1.95    3.33
  -7   9   9    5.32    4.42
  -7   9 -10    1.72    4.56
  -7  -9 -10    4.30    7.78
  -7  -9  10    0.66    2.78
  -7   9 -10   -1.28    4.15
   7   9 -10    5.57    3.57
  -7   9  10    2.01    4.47
  -7   9 -11  126.63   16.89
  -7  -9 -11  139.78   19.65
  -7  -9  11  114.01   10.86
  -7   9 -11  136.45    7.60
   7   9 -11  102.02   32.27
  -7   9  11  116.56   34.36
  -7   9 -12   35.80   18.44
  -7  -9 -12   60.31   20.07
  -7  -9  12   51.22   14.35
  -7   9 -12   58.71   14.15
   7   9 -12   37.26   11.86
  -7   9  12   47.15   11.57
  -7   9 -13   75.30   25.61
  -7  -9 -13   73.38   20.29
  -7  -9  13   59.35   20.48
  -7   9 -13   92.18   16.20
   7   9 -13   69.44   23.66
  -7   9  13   71.71   21.19
  -7   9 -14   -3.42    6.47
  -7  -9 -14    5.50    9.12
  -7  -9  14    2.85    3.00
  -7   9 -14    7.66    5.99
   7   9 -14   -0.73    7.69
   7  -9 -14    7.17    5.63
  -7   9  14   -1.41    7.45
  -7   9 -15   20.10   10.27
  -7  -9 -15   24.21    7.76
  -7  -9  15   15.81    4.64
  -7   9 -15   10.81    5.37
   7   9 -15   10.34    7.40
   7  -9 -15   24.72    9.86
  -7   9  15   31.21    8.89
   7   9  15   18.90    7.04
  -7   9 -16   11.47    7.85
  -7  -9 -16   10.85    6.82
  -7   9 -16    5.78    3.99
   7   9 -16    0.75    4.40
   7  -9 -16   50.81   10.68
  -7   9  16   16.46    5.15
   7   9  16   10.18    5.88
  -7 -10   0    5.41    6.35
   7 -10   0    6.91    4.66
  -7  10   0    2.45    5.10
   7  10   0    5.57    2.27
  -7  10   0    7.57    4.92
  -7 -10  -1   67.56   29.46
  -7 -10   1   61.78   24.67
   7 -10  -1   62.82    7.55
   7 -10   1   57.93   13.76
  -7  10   1   70.25   15.80
  -7  10  -1   57.35   20.59
   7  10   1   64.34    6.26
   7  10  -1   63.64    5.17
  -7  10  -1   61.09    6.39
  -7  10   1   58.11   10.68
  -7 -10  -2   30.90   12.82
  -7 -10   2    8.76    6.33
   7 -10  -2   11.25    3.24
   7 -10   2   24.02    7.30
  -7  10  -2   19.20    9.11
   7  10   2   10.37    3.75
   7  10  -2   18.42    5.23
  -7  10  -2   15.09    4.45
  -7  10   2   19.77    5.72
  -7 -10  -3   49.47   11.86
  -7 -10   3   11.43    8.09
   7 -10  -3   11.06    5.74
   7 -10   3   35.72    8.90
   7  10   3   17.35    6.03
  -7  10  -3   18.16    8.83
   7  10  -3   29.54    8.77
  -7  10  -3   15.62    6.83
  -7  10   3   25.92   10.16
  -7 -10  -4   76.88   12.24
  -7 -10   4   57.54   22.60
   7 -10  -4   74.37    6.34
   7 -10   4   74.24    8.60
   7  10   4   69.03    8.37
  -7  10  -4   70.84   25.19
   7  10  -4   75.21    8.05
  -7  10  -4   70.50    8.28
  -7  10   4   57.67   17.91
  -7 -10  -5  142.09    9.24
   7 -10  -5  151.96   14.59
  -7 -10   5  131.62   21.53
   7 -10   5  152.92   11.37
  -7  10  -5  147.98    9.42
   7  10  -5  148.02   12.55
  -7  10   5  136.73   12.61
  -7 -10  -6  182.34   21.84
  -7 -10   6  167.85    8.59
   7 -10   6  152.97   23.42
  -7  10  -6  176.78    8.33
   7  10  -6  159.35   10.92
  -7  10   6  180.72   12.81
  -7 -10  -7  267.52   13.87
  -7 -10   7  272.98   18.72
   7 -10   7  269.57   18.61
  -7  10  -7  277.66    9.90
   7  10  -7  286.52   11.22
  -7  10   7  246.15   11.60
  -7 -10  -8    1.36    4.52
  -7 -10   8   10.88    4.22
   7 -10   8    6.89    7.19
  -7  10  -8   17.64    6.79
   7  10  -8   10.69    8.15
  -7  10   8   10.80    9.47
  -7 -10  -9   79.88   26.60
  -7 -10   9   78.84   10.75
   7 -10   9   71.99   29.92
  -7  10  -9   72.74   21.28
   7  10  -9   93.44   33.90
  -7  10   9   89.14   30.79
  -7 -10 -10   72.54   32.06
  -7 -10  10   55.17   22.07
   7 -10  10   78.60   21.55
  -7  10 -10   59.68   23.83
   7  10 -10   52.80   21.43
  -7  10  10   63.73   17.56
  -7 -10 -11   53.88   25.34
  -7 -10  11   53.92   21.92
   7 -10  11   66.57   26.64
  -7  10 -11   64.70   10.62
   7  10 -11   72.84   14.22
  -7  10  11   61.17   15.87
  -7 -10 -12    9.15    9.64
  -7 -10  12    4.58    3.93
   7 -10  12    5.12    3.84
  -7  10 -12    1.48    4.37
   7  10 -12    5.29    2.70
  -7  10  12    8.89    4.80
  -7 -10 -13    6.84    7.77
  -7 -10  13    4.70    4.41
  -7  10 -13    5.59    3.41
   7  10 -13    9.95    6.70
  -7  10  13    4.00    4.80
  -7  10 -14    3.48    4.99
  -7 -10 -14    7.77    5.49
  -7 -10  14    7.15    4.92
  -7  10 -14    3.02    3.86
   7  10 -14   14.95    9.64
   7 -10 -14    8.64    7.37
  -7  10  14   -1.73    6.70
   7  10  14    3.60    6.36
  -7  10 -15    6.29    3.65
  -7 -10 -15   -2.60    7.64
  -7 -10  15    5.75    6.10
  -7  10 -15    1.99    3.16
   7  10 -15   -4.38    8.12
   7 -10 -15    3.47    5.47
  -7  10  15    8.06    4.65
   7  10  15    6.59    6.18
  -7 -11   0   -1.14    7.41
   7 -11   0    5.15    2.87
  -7  11   0    3.68    3.26
   7  11   0    4.28    3.30
  -7  11   0    3.97    3.78
  -7 -11  -1   60.14   16.51
  -7 -11   1   55.37   20.54
   7 -11  -1   70.79    6.08
   7 -11   1   44.65   17.22
  -7  11   1   65.11   20.98
  -7  11  -1   67.97   18.56
   7  11   1   67.18   13.49
   7  11  -1   67.03   17.29
  -7  11  -1   67.62    7.78
  -7  11   1   56.82    7.36
  -7 -11  -2  312.93   16.23
  -7 -11   2  306.37   13.62
   7 -11  -2  286.06   18.40
   7 -11   2  323.23   12.18
  -7  11  -2  278.76   16.76
   7  11   2  312.17   10.45
   7  11  -2  344.52   20.71
  -7  11  -2  295.26   10.26
  -7  11   2  309.78   12.07
  -7 -11  -3    1.88    5.19
  -7 -11   3    2.87    4.61
   7 -11  -3    2.76    4.92
   7 -11   3    4.98    2.97
   7  11   3    3.83    2.52
  -7  11  -3    7.72    6.69
   7  11  -3    3.91    3.31
  -7  11  -3    4.13    7.28
  -7  11   3    7.72    5.94
  -7 -11  -4   16.05    6.34
  -7 -11   4    9.91   10.07
   7 -11  -4   10.36    3.74
   7 -11   4   14.97    7.65
   7  11   4    8.28    4.35
  -7  11  -4    9.50    8.36
   7  11  -4   18.39    6.05
  -7  11  -4    3.04    4.01
  -7  11   4   22.82    7.07
  -7 -11  -5   48.90   18.49
   7 -11  -5   62.12    6.48
  -7 -11   5   86.72   36.41
   7 -11   5   42.85   16.12
  -7  11  -5   61.94   18.70
   7  11  -5   53.78   21.24
  -7  11   5   54.13   22.64
  -7 -11  -6    7.51    5.88
  -7 -11   6   17.52   10.82
   7 -11   6   13.32   10.08
  -7  11  -6   16.85    8.76
   7  11  -6    8.16    5.75
  -7  11   6   11.65    5.91
  -7 -11  -7   96.04   37.83
  -7 -11   7  107.42    9.42
   7 -11   7  122.84   16.57
  -7  11  -7  101.11    6.88
   7  11  -7   94.38    7.23
  -7  11   7   94.36   10.18
  -7 -11  -8   18.32   10.84
  -7 -11   8   29.69   12.65
   7 -11   8   19.59    7.72
  -7  11  -8   24.94    7.85
   7  11  -8   19.71   13.16
  -7  11   8   33.27    9.26
  -7 -11  -9   13.97   10.95
  -7 -11   9   17.52    8.12
   7 -11   9   12.59    7.93
  -7  11  -9    5.16    5.72
   7  11  -9   17.04    9.65
  -7  11   9   17.04    8.53
  -7 -11 -10   56.13   22.22
  -7 -11  10   60.97   26.89
   7 -11  10   92.60   17.05
  -7  11 -10   77.14   19.08
   7  11 -10   66.80   21.73
  -7  11  10   83.43   24.88
  -7 -11 -11   22.42   13.70
  -7 -11  11   24.65    8.52
   7 -11  11   30.34   16.15
  -7  11 -11   20.88   13.59
   7  11 -11   32.93   11.04
  -7  11  11   47.39   18.42
  -7 -11 -12   46.74   26.68
  -7 -11  12   17.21    8.22
   7 -11  12   37.29   21.35
  -7  11 -12   25.92   13.01
   7  11 -12   28.58    9.97
  -7  11  12   46.23   13.39
  -7 -11 -13   30.80   13.32
  -7 -11  13   21.98    8.80
   7 -11  13   10.26    7.87
  -7  11 -13   14.53    8.34
   7  11 -13   19.79   10.54
  -7  11  13   22.67    9.76
  -7 -11 -14   61.96    8.47
  -7 -11  14   37.47   18.82
   7 -11  14   41.59   23.33
  -7  11 -14   47.65   13.90
   7  11 -14   67.31   30.61
  -7  11  14   63.91   24.73
   7  11  14   47.36   31.68
  -7 -12   0    8.10    5.42
   7 -12   0    2.17    3.05
  -7  12   0    3.17    4.78
   7  12   0    2.01    2.61
  -7  12   0   -2.73    4.03
  -7 -12  -1  256.70   23.57
  -7 -12   1  295.20   23.76
   7 -12  -1  292.57   21.64
   7 -12   1  254.40   22.15
  -7  12   1  263.39   20.84
  -7  12  -1  311.61   24.14
   7  12   1  272.01   30.20
   7  12  -1  271.89   29.91
  -7  12  -1  298.07   22.38
  -7  12   1  257.91   19.63
  -7 -12  -2   86.50   35.30
  -7 -12   2   68.94   25.02
   7 -12  -2   65.66   18.88
   7 -12   2   74.41   27.57
  -7  12  -2   77.47    7.11
   7  12   2   88.02    7.80
   7  12  -2   99.37   23.54
  -7  12  -2   74.21   11.86
  -7  12   2   93.37   10.22
  -7 -12  -3  151.21   28.96
  -7 -12   3  158.43   31.22
   7 -12  -3  166.38   13.59
   7 -12   3  130.73   15.20
   7  12   3  143.77   17.05
  -7  12  -3  148.29   16.25
   7  12  -3  153.59   21.96
  -7  12  -3  161.15   12.61
  -7  12   3  183.22   18.48
  -7 -12  -4   37.76   20.54
  -7 -12   4   45.78   16.22
   7 -12  -4   40.73    6.01
   7 -12   4   41.71   16.90
   7  12   4   36.10    8.60
  -7  12  -4   30.10   16.39
   7  12  -4   44.86   17.66
  -7  12   4   41.63   17.06
  -7 -12  -5   25.66   17.91
   7 -12  -5   32.33    6.92
  -7 -12   5   42.71   16.03
   7 -12   5   32.51   12.97
  -7  12  -5   26.14    9.41
   7  12  -5   40.50   13.58
  -7  12   5   35.23   12.54
  -7 -12  -6   11.83   10.98
  -7 -12   6    8.91    8.28
   7 -12   6   14.52   13.13
  -7  12  -6   19.69    7.55
   7  12  -6   12.79    4.03
  -7  12   6   16.41    8.66
  -7 -12  -7    3.94    6.05
  -7 -12   7    1.76    2.66
   7 -12   7   -1.78    7.75
  -7  12  -7    3.27    6.12
   7  12  -7    8.22    5.62
  -7  12   7    9.27    6.53
  -7 -12  -8   42.34   17.11
  -7 -12   8   36.40    7.50
   7 -12   8   50.21   17.91
  -7  12  -8   43.99   13.60
   7  12  -8   23.10    8.41
  -7  12   8   34.49   12.49
  -7 -12  -9   71.99   11.03
  -7 -12   9   59.65   10.03
   7 -12   9   49.89   12.10
  -7  12  -9   56.41   21.54
   7  12  -9   61.51   26.72
  -7  12   9   57.90   20.82
  -7 -12 -10    8.20    6.49
  -7 -12  10    8.30    4.33
   7 -12  10   14.07    7.89
  -7  12 -10    6.67    5.32
   7  12 -10   15.83    6.75
  -7  12  10   12.49    5.52
  -7 -12 -11  106.10   42.74
  -7 -12  11   93.52   21.00
   7 -12  11  117.67   26.16
  -7  12 -11  102.30   26.18
   7  12 -11  116.14   29.20
  -7  12  11  132.86   51.08
  -7 -12 -12   -0.32    8.24
  -7 -12  12    6.33    4.94
   7 -12  12   -1.52    7.40
  -7  12 -12    2.85    2.76
   7  12 -12    1.52    3.72
  -7  12  12   -2.92    7.86
  -7 -12 -13   34.51   15.79
  -7 -12  13   45.64    7.55
   7 -12  13   43.32   12.99
  -7  12 -13   32.47   19.43
   7  12 -13   36.06   16.62
  -7  12  13   33.54   17.51
  -7 -13   0  160.24   15.50
   7 -13   0  152.19   18.70
  -7  13   0  159.13   29.49
   7  13   0  166.53   11.63
  -7  13   0  141.14   14.34
  -7 -13  -1   14.69    8.81
  -7 -13   1   28.66   10.88
   7 -13  -1   22.29    9.56
   7 -13   1   40.89    9.79
  -7  13   1   32.91   11.68
  -7  13  -1   20.38   19.94
   7  13   1   27.68   10.09
   7  13  -1   28.61    7.01
  -7  13  -1   35.67    9.62
  -7  13   1   24.21    6.47
  -7 -13  -2   40.24   18.95
  -7 -13   2   32.69   16.46
   7 -13  -2   37.91    6.54
   7 -13   2   40.36   17.54
  -7  13  -2   48.74   16.28
   7  13   2   30.28   10.73
   7  13  -2   53.06   13.85
  -7  13  -2   41.83   12.30
  -7  13   2   55.14   20.62
  -7 -13  -3   51.55   21.15
  -7 -13   3   48.79   17.52
   7 -13  -3   50.12    9.86
   7 -13   3   50.73   16.81
   7  13   3   41.83    8.39
  -7  13  -3   68.51   21.38
   7  13  -3   51.70   13.86
  -7  13   3   50.74   20.57
  -7 -13  -4   99.01   42.14
  -7 -13   4   88.53    9.51
   7 -13  -4   95.29   10.75
   7 -13   4  105.73   16.43
   7  13   4   88.15   18.61
  -7  13  -4  112.24    9.09
   7  13  -4  104.26    7.30
  -7  13   4  117.55   12.20
  -7 -13  -5   53.56   20.63
  -7 -13   5   24.95   24.10
   7 -13   5   53.02   18.28
  -7  13  -5   56.68   19.20
   7  13  -5   57.63   14.20
  -7  13   5   46.83   23.38
  -7 -13  -6   10.58    6.73
  -7 -13   6    6.10    3.89
   7 -13   6   10.66    7.00
  -7  13  -6    4.19    6.82
   7  13  -6   15.33    7.24
  -7  13   6   15.59   10.45
  -7 -13  -7   43.67   10.26
  -7 -13   7   59.72    7.78
   7 -13   7   42.85   17.96
  -7  13  -7   45.77   15.51
   7  13  -7   50.31   17.38
  -7  13   7   62.89   17.47
  -7 -13  -8   78.76   30.92
  -7 -13   8   65.11   27.48
   7 -13   8   69.54   27.62
  -7  13  -8  101.07   13.27
   7  13  -8   70.05   24.81
  -7  13   8   84.49    9.92
  -7 -13  -9   34.99   12.19
  -7 -13   9   26.73    7.74
   7 -13   9   18.86    6.72
  -7  13  -9   27.87   11.99
   7  13  -9   29.47   10.47
  -7  13   9   26.47    8.33
  -7 -13 -10    7.05    7.89
  -7 -13  10    6.20    7.95
   7 -13  10    6.72    9.12
  -7  13 -10    7.55    3.95
  -7  13  10    6.51    7.41
  -7 -13 -11   23.74   14.47
  -7 -13  11   20.49   14.20
   7 -13  11   33.12    8.69
  -7  13 -11   31.92   12.65
   7  13 -11   42.26   20.17
  -7  13  11   50.89   19.57
  -7 -13 -12   23.36   12.08
  -7 -13  12   29.33   12.53
   7 -13  12   16.58    7.79
  -7  13 -12   21.62    8.70
   7  13 -12   13.23    6.92
  -7  13  12   37.72   14.06
  -7 -14   0   23.75   14.70
   7 -14   0   18.98    7.31
  -7  14   0   24.69   11.62
   7  14   0   20.68    8.08
  -7  14   0   25.40   10.66
  -7 -14  -1   15.57    7.25
  -7 -14   1    5.84    6.55
   7 -14  -1    1.62    4.02
   7 -14   1   10.98    6.24
  -7  14   1    6.49    5.31
  -7  14  -1   -0.23    6.05
   7  14   1    5.18    3.58
   7  14  -1    3.32    3.15
  -7  14  -1    2.90    2.35
  -7  14   1    5.02    4.18
  -7 -14  -2   17.82    8.17
  -7 -14   2   29.38   11.03
   7 -14  -2   17.51    8.31
   7 -14   2   19.14    9.20
  -7  14  -2   30.21   11.26
   7  14   2   26.83    9.35
   7  14  -2   28.04    8.58
  -7  14  -2   29.24    9.18
  -7  14   2   26.03   10.63
  -7 -14  -3   59.67   30.27
  -7 -14   3   78.24   34.99
   7 -14  -3   80.52    7.04
   7 -14   3   70.43   21.49
   7  14   3   80.58   10.85
  -7  14  -3   71.73   24.52
   7  14  -3   91.19   20.58
  -7  14   3   66.71   26.03
  -7 -14  -4   33.46   18.90
  -7 -14   4   41.12   15.77
   7 -14   4   48.53   10.57
   7  14   4   33.47   13.44
  -7  14  -4   36.98   12.95
   7  14  -4   42.03   12.39
  -7  14   4   47.92   16.58
  -7 -14  -5  143.96   28.43
  -7 -14   5  117.46   13.61
   7 -14   5  107.43   14.19
  -7  14  -5  105.73   17.80
   7  14  -5  116.87   12.35
  -7  14   5  118.65   12.73
  -7 -14  -6   72.34    9.10
  -7 -14   6   58.85    8.94
   7 -14   6   60.97   18.76
  -7  14  -6   61.06   25.86
   7  14  -6   75.54   15.79
  -7  14   6   55.62   15.78
  -7 -14  -7   37.70   17.14
  -7 -14   7   37.17   12.05
   7 -14   7   52.07   25.94
  -7  14  -7   42.31   17.62
   7  14  -7   37.27   21.52
  -7  14   7   48.34   29.12
  -7 -14  -8    4.34    7.68
  -7 -14   8    7.88    4.17
   7 -14   8   11.73    9.64
  -7  14  -8    6.73    4.49
   7  14  -8    9.74    6.84
  -7  14   8    1.63    4.34
  -7 -14  -9   59.26   17.82
  -7 -14   9   48.33   20.92
   7 -14   9   63.30   28.82
  -7  14  -9   48.23   19.74
   7  14  -9   46.36   16.87
  -7  14   9   68.41   15.63
  -7 -14 -10   27.48   17.60
  -7 -14  10   28.19   18.21
   7 -14  10   23.28   12.79
  -7  14 -10   28.42    9.49
   7  14 -10   31.77    9.97
  -7  14  10   36.67   22.25
  -7 -15   0    5.07    4.60
   7 -15   0    4.35    4.13
  -7  15   0    9.51    6.08
   7  15   0    5.82    4.40
  -7  15   0    4.34    3.36
  -7 -15  -1   80.00   15.52
  -7 -15   1   88.26   36.19
   7 -15  -1   91.29    8.63
   7 -15   1   79.05   10.06
  -7  15   1   80.08   27.75
  -7  15  -1   78.59   31.34
   7  15   1   87.77   11.12
   7  15  -1   82.78   10.76
  -7  15  -1   85.60    6.95
  -7  15   1   71.61   15.58
  -7 -15  -2    5.96   13.53
  -7 -15   2   17.03   12.32
   7 -15  -2   15.90    9.56
   7 -15   2   21.01    6.42
  -7  15  -2   20.16    8.98
   7  15   2   23.29    8.59
   7  15  -2   32.42   10.36
  -7  15   2   31.81   11.61
  -7 -15  -3   56.24   25.93
  -7 -15   3   42.45   19.45
   7 -15  -3   25.16   11.51
   7 -15   3   48.03   20.22
   7  15   3   48.31   12.75
  -7  15  -3   33.30   13.01
   7  15  -3   43.26   18.00
  -7  15   3   50.11   19.66
  -7 -15  -4   48.17   21.98
  -7 -15   4   51.52   22.64
   7 -15   4   46.10   21.30
   7  15   4   55.76   14.62
  -7  15  -4   46.22   17.74
   7  15  -4   63.87   19.11
  -7  15   4   55.24   21.88
  -7 -15  -5   37.49   10.31
  -7 -15   5   25.62   15.93
   7 -15   5   20.33    9.86
  -7  15  -5   21.88   10.06
   7  15  -5   13.23    3.36
  -7  15   5   22.70   11.66
  -7 -15  -6    4.00    7.47
  -7 -15   6   17.61   15.67
   7 -15   6   13.28    9.03
  -7  15  -6   13.62    6.32
   7  15  -6   12.79    4.97
  -7  15   6    6.82    4.23
  -7 -15  -7    3.89    5.07
  -7 -15   7    3.81    6.44
   7 -15   7    8.46    6.91
  -7  15  -7   -0.82    4.84
   7  15  -7    7.85    5.66
  -7  15   7    6.50    3.88
  -7 -15  -8   46.67   21.95
  -7 -15   8   34.05   17.52
   7 -15   8   27.21    8.60
  -7  15  -8   42.58   17.53
   7  15  -8   38.33   18.48
  -7  15   8   46.70   21.55
  -7 -15  -9    2.70    6.76
  -7 -15   9    4.97    4.76
   7 -15   9    8.26    7.26
  -7  15  -9   18.29   12.99
   7  15  -9    7.80    5.20
  -7  15   9   12.31    9.02
  -7 -16   0   59.42   25.16
   7 -16   0   72.10    9.49
  -7  16   0   55.99   30.89
   7  16   0   59.04   17.64
  -7  16   0   77.03   17.44
  -7 -16  -1   10.23    7.66
  -7 -16   1   26.62   14.42
   7 -16  -1   14.98    6.18
   7 -16   1   12.07    7.44
  -7  16   1   15.24    8.52
  -7  16  -1   20.64   11.40
   7  16   1    8.25    7.33
   7  16  -1   13.49    7.18
  -7  16   1   12.71    5.35
  -7 -16  -2   13.53   14.94
  -7 -16   2   16.77    9.79
   7 -16  -2   23.18    8.14
   7 -16   2   11.46    6.58
  -7  16  -2   17.24    8.90
   7  16   2   19.57   12.15
   7  16  -2   11.33    4.20
  -7  16   2   18.19    7.19
  -7 -16  -3    9.41   14.63
  -7 -16   3    8.15   13.70
   7 -16   3   18.12   16.19
   7  16   3   17.41   10.54
   7  16  -3   21.21    8.86
  -7  16   3   24.34    8.79
  -7 -16  -4   45.79   27.99
  -7 -16   4   41.64    9.55
   7 -16   4   51.76   15.67
  -7  16  -4   30.45   12.94
   7  16  -4   43.84   15.96
  -7  16   4   40.27   16.95
  -7 -16  -5    9.34   10.02
  -7 -16   5    9.71    8.05
   7 -16   5    3.50    4.61
  -7  16  -5    5.33    4.63
   7  16  -5    7.07    5.09
  -7  16   5    5.47    2.56
  -7 -16  -6    3.16    7.27
  -7 -16   6   11.06    7.82
   7 -16   6   15.73    7.54
  -7  16  -6    9.87    6.49
   7  16  -6    6.75    2.35
  -7  16   6   15.98   10.62
  -7 -17   0   29.87    9.64
   7 -17   0   21.71    5.52
  -7  17   0   24.42   11.04
   7  17   0   24.36    7.66
  -7 -17  -1   12.30    6.84
  -7 -17   1    6.63    6.72
   7 -17  -1    4.02    3.67
   7 -17   1   16.53    8.52
  -7  17   1    6.66   10.31
  -7  17  -1    9.43   11.77
   7  17   1   16.68   11.04
   7  17  -1   11.34    3.84
  -8   0   0 1090.67   32.50
   8   0   0 1070.37   31.27
  -8   0  -1    3.63    1.46
  -8   0   1    2.06    1.69
   8   0   1    6.60    2.43
   8   0  -1    6.59    3.21
  -8   0  -2  191.40    5.40
  -8   0   2  165.91    4.31
   8   0   2  172.70    2.52
   8   0   2  175.11    3.29
   8   0  -2  186.32    7.45
  -8   0  -3  885.09   26.94
  -8   0   3  857.21   24.13
   8   0  -3  859.79   25.80
  -8   0  -4  288.05   16.06
   8   0  -4  269.24   15.28
  -8   0   5   79.57    1.76
  -8   0  -5   97.29   16.02
  -8   0   5   79.48    2.32
   8   0  -5   84.68   15.66
  -8   0  -6  159.99   11.24
   8   0  -6  175.19   12.76
  -8   0  -7   98.94   12.62
  -8   0  -7   85.06    4.70
   8   0  -7   88.06   10.19
  -8   0   7   92.87    9.74
  -8   0  -8    9.73    6.96
   8   0  -8   28.59   11.04
  -8   0   8    9.21    4.37
  -8   0  -9  104.89    6.73
  -8   0  -9   96.33    3.17
   8   0  -9  107.83    9.13
  -8   0   9  120.96   19.87
  -8   0 -10   12.13    7.39
  -8   0 -10    4.75    2.22
   8   0 -10    1.27    8.29
  -8   0  10    6.88    3.38
  -8   0 -11   19.27    9.44
   8   0 -11   19.97    9.35
  -8   0  11   16.74    3.79
  -8   0 -12  590.45   28.81
   8   0 -12  575.18   16.43
  -8   0  12  597.77   19.57
  -8   0 -13   47.10   20.91
   8   0 -13   46.62   11.32
  -8   0  13   59.30   14.45
  -8   0 -14    1.54    4.57
   8   0 -14   -1.36    9.56
  -8   0  14    3.62    5.16
  -8   0 -15   78.28   26.78
   8   0 -15   63.54   12.79
  -8   0  15   64.26   22.18
  -8   0 -16   82.99   27.40
   8   0 -16   79.54   26.69
  -8   0  16   86.55   12.78
  -8   0 -17    5.73    5.05
   8   0 -17    7.89    6.33
  -8   0  17    2.93    2.80
  -8   0 -18   14.86    9.65
   8   0 -18   29.96   11.85
  -8   0  18   17.99   10.37
  -8   1   0   73.30    5.03
  -8  -1   0   70.85    7.53
   8   1   0   75.86    4.71
  -8   1   1   28.93    6.73
  -8   1  -1   37.24    3.24
  -8  -1  -1   19.42    6.68
  -8  -1   1   27.92    7.64
   8   1   1   27.45    2.37
   8   1   1   30.00    3.18
   8   1  -1   23.99    6.27
   8  -1  -1   36.58    3.70
  -8   1   2  373.16    4.53
  -8   1  -2  399.00   13.66
  -8  -1  -2  377.11    7.25
   8   1  -2  368.88    7.13
   8  -1  -2  400.13    6.92
  -8   1  -3  108.62    5.08
  -8  -1  -3  105.13   15.18
  -8  -1   3  115.26    3.48
   8   1  -3   98.69    5.14
   8  -1  -3  112.94    6.18
  -8   1   4  684.24    9.19
  -8   1  -4  693.77   13.94
  -8  -1  -4  623.98   13.29
  -8  -1   4  685.70   11.00
   8  -1  -4  670.46    9.07
   8   1  -4  622.48   12.89
   8  -1  -4  671.60   13.88
  -8   1   4  636.68   16.98
  -8   1  -5   76.39    6.26
  -8  -1  -5   84.78    6.63
   8   1  -5   95.67    9.15
   8  -1  -5   72.21    8.89
  -8   1   5   93.86   12.93
  -8   1  -6  341.08   12.62
  -8  -1  -6  312.62   12.21
   8   1  -6  297.07   11.77
   8  -1  -6  306.09   13.25
  -8   1   6  317.30   12.59
  -8   1  -7   83.40   15.74
  -8  -1  -7   86.82   11.03
   8   1  -7   69.46   20.16
   8  -1  -7   72.36   18.04
  -8   1   7   85.79   20.77
  -8   1  -8  394.23   17.52
  -8  -1  -8  415.00   18.04
  -8   1  -8  418.56   14.57
  -8  -1  -8  391.97   12.98
   8   1  -8  423.26   18.43
   8  -1  -8  398.37   24.67
  -8   1   8  395.35   17.20
  -8   1  -9  198.95   11.41
  -8  -1  -9  170.76   19.64
  -8   1  -9  172.26    6.19
   8   1  -9  170.54   14.01
   8  -1  -9  175.13   27.46
  -8   1   9  141.82    9.88
  -8   1 -10  191.30   21.09
  -8  -1 -10  176.74   12.53
  -8   1 -10  172.91   10.36
   8   1 -10  199.18   16.75
   8  -1 -10  196.87   15.89
  -8   1  10  186.92   20.71
  -8   1 -11    1.53    4.03
  -8  -1 -11    2.33    3.24
  -8   1 -11    3.70    1.48
   8   1 -11    8.20    7.83
   8  -1 -11    6.77    2.47
  -8   1  11    6.04    3.43
  -8   1 -12   51.21   16.44
  -8  -1 -12   81.07    7.68
   8   1 -12   64.24   12.94
   8  -1 -12   51.87   19.29
  -8   1  12   76.71    6.53
  -8   1 -13   10.66   14.42
  -8  -1 -13    6.83    6.15
   8   1 -13   16.62   10.54
   8  -1 -13   19.01    7.82
  -8   1  13    9.23    4.17
  -8   1 -14   65.25   22.49
  -8  -1 -14   53.92   20.87
   8   1 -14   49.30   16.68
   8  -1 -14   65.05   25.25
  -8   1  14   53.43   17.14
  -8   1 -15   17.46    6.00
  -8  -1 -15   18.85    7.41
   8   1 -15   20.36    9.11
   8  -1 -15   14.49   13.56
  -8   1  15   15.24    6.96
  -8   1 -16  135.23    8.81
  -8  -1 -16  121.99   37.73
   8   1 -16  131.33   25.99
   8  -1 -16  100.03   34.25
  -8   1  16  147.71   15.56
  -8   1 -17   12.32    6.53
  -8  -1 -17    5.05    6.96
   8   1 -17   13.28    9.42
   8  -1 -17   11.98    9.28
  -8   1  17    6.78    6.94
  -8   1 -18   20.35    8.69
  -8  -1 -18   27.75   12.08
   8   1 -18   14.64   11.37
   8  -1 -18   20.66   20.57
  -8   1  18   18.18    6.78
  -8   2   0    1.76    1.77
  -8  -2   0    0.30    1.34
   8   2   0    2.15    1.57
  -8   2   1   80.62    5.66
  -8   2  -1   81.98    3.83
  -8  -2  -1   89.26    4.89
  -8  -2   1   73.09    5.22
   8   2   1   76.93    1.46
   8   2   1   77.97    1.92
   8   2  -1   83.19    7.37
  -8   2   2  855.60   24.25
  -8   2  -2  882.54   25.93
  -8  -2  -2  811.59   24.38
  -8  -2   2  912.28   26.98
   8   2  -2  877.44   25.59
  -8   2   2  824.78   25.74
  -8   2  -3  828.18   14.87
  -8  -2  -3  886.40   16.25
  -8  -2   3  903.51   16.35
   8  -2  -3  843.96   12.81
   8   2  -3  941.57   16.22
  -8   2   3  901.96   17.84
  -8   2  -4  114.72    7.84
  -8  -2  -4  139.97   11.60
  -8  -2   4  121.18    7.63
  -8   2  -4  135.38    8.58
   8   2  -4  137.71   13.92
   8  -2  -4  124.43   11.16
  -8   2   4  144.57   20.38
  -8   2  -5   68.11    4.90
  -8  -2  -5   69.75   19.48
  -8  -2   5   64.56    3.98
  -8   2  -5   64.06    4.18
   8   2  -5   63.96    7.32
   8  -2  -5   74.10    9.41
  -8   2   5   74.76   26.30
  -8   2  -6  575.50   18.05
  -8  -2  -6  551.15   18.04
  -8  -2   6  570.56   15.28
  -8   2  -6  533.21   14.87
   8   2  -6  557.42   21.83
   8  -2  -6  582.40   18.77
  -8   2   6  541.76   17.80
  -8   2  -7  132.94   23.22
  -8  -2  -7  130.01   21.37
  -8  -2   7  132.02   10.78
  -8   2  -7  138.53    8.07
   8   2  -7  123.04   11.68
   8  -2  -7  141.56   12.09
  -8   2   7  127.08   10.51
  -8   2  -8  110.82   20.78
  -8  -2  -8   84.49    8.41
  -8  -2   8  104.65    7.72
  -8   2  -8  108.83    6.14
   8   2  -8   85.50   11.10
   8  -2  -8  101.73   15.25
  -8   2   8   87.70    8.64
  -8   2  -9  274.41   22.36
  -8  -2  -9  281.57   22.77
  -8  -2   9  266.65    8.31
  -8   2  -9  282.55    9.14
   8   2  -9  287.45   28.99
   8  -2  -9  293.27   15.31
  -8   2   9  258.29   14.29
  -8   2 -10  203.25   18.30
  -8  -2 -10  209.95   25.42
  -8   2 -10  203.49   13.18
   8   2 -10  211.10   19.95
   8  -2 -10  233.83   23.18
  -8   2  10  208.92   15.52
  -8   2 -11    9.76    7.42
  -8  -2 -11    6.81    3.99
  -8   2 -11    9.99    5.59
   8   2 -11   -1.65    7.17
   8  -2 -11    5.27    4.38
  -8   2  11    9.01    8.02
  -8   2 -12   17.72    7.72
  -8  -2 -12   15.41    8.47
  -8   2 -12   11.09    5.10
   8   2 -12   11.01   11.01
   8  -2 -12    4.08    4.63
  -8   2  12   11.76    5.63
  -8   2 -13   52.71   20.75
  -8  -2 -13   50.77   25.46
   8   2 -13   67.21   27.52
   8  -2 -13   76.71   13.92
  -8   2  13   67.31   26.33
  -8   2 -14   90.40   32.02
  -8  -2 -14   91.27   30.51
   8   2 -14   67.15   26.86
   8  -2 -14   83.99   12.87
  -8   2  14   82.73    7.18
  -8   2 -15   64.09   19.89
  -8  -2 -15   61.46   16.94
   8   2 -15   59.46   12.86
   8  -2 -15   50.07   15.10
  -8   2  15   63.34   22.86
  -8   2 -16    0.88    4.44
  -8  -2 -16    5.16    5.93
   8   2 -16    5.10    4.18
   8  -2 -16    9.79    5.97
  -8   2  16    6.17    3.59
  -8   2 -17    2.60    3.81
  -8  -2 -17    8.98    9.88
   8   2 -17    4.13    5.27
   8  -2 -17    1.41    6.19
  -8   2  17    3.34    3.82
  -8   2 -18   25.74    9.52
  -8  -2 -18   17.39   10.31
   8   2 -18   26.59   13.60
   8  -2 -18   30.20   14.29
  -8   2  18   21.73   13.54
  -8   3   0   70.82    3.25
  -8  -3   0   71.84   12.58
   8   3   0   70.37    7.52
  -8   3   0   67.43   12.02
  -8   3   1  154.27    8.92
  -8   3  -1  174.64    9.62
  -8  -3  -1  168.35   10.40
  -8  -3   1  187.58   10.75
   8   3   1  184.92    9.55
   8   3  -1  158.96   10.94
  -8   3   1  154.76   11.26
  -8   3   2  482.50    8.16
  -8   3  -2  518.46   10.44
  -8  -3  -2  502.43   11.61
  -8  -3   2  541.50   11.23
   8   3  -2  479.81    9.46
  -8   3   2  498.13   12.18
  -8   3  -3   82.31    9.62
  -8  -3  -3  104.65    8.50
  -8  -3   3   88.83    9.55
   8  -3  -3   90.06    4.88
   8  -3  -3   93.97    5.24
  -8   3  -3   81.17    8.03
   8   3  -3   97.92   10.05
  -8   3   3   91.73    7.82
  -8   3  -4  215.95   15.24
  -8  -3  -4  209.00   13.09
  -8  -3   4  227.12   12.39
  -8   3  -4  223.04   11.82
   8   3  -4  228.27   22.51
  -8   3   4  234.16   15.03
  -8   3  -5  464.61   23.04
  -8  -3  -5  410.70   13.90
  -8  -3   5  462.88   13.20
  -8   3  -5  429.11   13.20
   8   3  -5  446.38   15.02
  -8   3   5  434.68   15.95
  -8   3  -6  156.01   22.43
  -8  -3  -6  149.64   14.50
  -8  -3   6  128.58    8.13
  -8   3  -6  157.88    9.05
   8   3  -6  158.66   25.85
   8  -3  -6  128.56   11.39
  -8   3   6  138.38   15.68
  -8   3  -7  263.89   13.13
  -8  -3  -7  257.31   20.27
  -8  -3   7  262.26   10.87
  -8   3  -7  262.79    9.89
   8   3  -7  259.00   12.39
   8  -3  -7  276.81   33.44
  -8   3   7  253.71   12.74
  -8   3  -8  220.87   12.24
  -8  -3  -8  209.56   10.78
  -8  -3   8  234.07    9.49
  -8   3  -8  220.50    9.03
   8   3  -8  217.53   11.80
   8  -3  -8  225.72   23.81
  -8   3   8  210.98   11.26
  -8   3  -9   37.31   12.20
  -8  -3  -9   46.60   12.41
  -8  -3   9   31.55    9.54
  -8   3  -9   33.42   10.22
   8   3  -9   45.55   12.43
   8  -3  -9   59.21   11.98
  -8   3   9   51.91   11.82
  -8   3 -10   31.05   18.20
  -8  -3 -10   37.83   13.43
  -8  -3  10   27.96    6.81
  -8   3 -10   24.24    7.73
   8   3 -10   21.50    6.47
   8  -3 -10   40.96    9.14
  -8   3  10   37.38   10.28
  -8   3 -11    1.36    5.17
  -8  -3 -11   -0.26    5.75
  -8   3 -11    2.34    1.71
   8   3 -11   -0.65    7.77
   8  -3 -11    9.95    7.34
  -8   3  11    6.60    3.91
  -8   3 -12   14.34   10.78
  -8  -3 -12   14.47    7.48
  -8   3 -12    8.40    3.59
   8   3 -12   16.51    9.73
   8  -3 -12   19.34    8.56
  -8   3  12   13.09    5.59
  -8   3 -13   87.41    8.71
  -8  -3 -13   70.05    7.72
   8   3 -13   58.38   17.88
   8  -3 -13   60.98   29.93
  -8   3  13   73.00   21.87
  -8   3 -14   79.85    8.79
  -8  -3 -14   73.69   17.59
   8   3 -14   64.88   27.72
   8  -3 -14   92.34   30.62
  -8   3  14   77.40   20.56
  -8   3 -15   57.43   30.71
  -8  -3 -15   54.34   26.66
   8   3 -15   50.12   18.74
   8  -3 -15   61.27    8.40
  -8   3  15   49.17   10.57
  -8   3 -16   31.90   10.08
  -8  -3 -16   40.09   14.31
   8   3 -16   33.26    8.86
   8  -3 -16   24.92   12.90
  -8   3  16   35.06   15.84
  -8   3 -17   47.14    8.47
  -8  -3 -17   50.91   14.00
   8   3 -17   31.23   23.11
   8  -3 -17   24.88   14.03
  -8   3  17   21.20    9.09
  -8   3 -18   14.00    5.98
  -8  -3 -18   32.36    8.22
   8   3 -18   29.57   16.85
   8  -3 -18   22.04   10.57
  -8   3  18   20.16   10.96
  -8   4   0   90.50    8.64
  -8  -4   0   89.50   13.67
   8   4   0   97.54    5.94
  -8   4   0  112.87   15.21
  -8   4   1  673.66   11.35
  -8   4  -1  689.84   15.86
  -8  -4  -1  656.10   13.84
  -8  -4   1  669.22   13.49
   8   4   1  654.97   11.25
   8   4  -1  682.00   14.81
  -8   4  -1  672.13   13.56
  -8   4   1  640.74   13.42
  -8   4  -2  200.93   11.42
  -8  -4  -2  197.33   12.28
  -8  -4   2  185.54   11.00
   8  -4  -2  171.42   10.11
  -8   4  -2  183.28   10.22
   8   4   2  181.30    9.03
   8   4  -2  189.74   10.88
  -8   4   2  180.09   11.80
  -8   4  -3   64.93    5.42
  -8  -4  -3   70.26    5.73
  -8  -4   3   51.14   16.84
   8  -4  -3   61.58    2.34
  -8   4  -3   56.62    3.43
   8   4  -3   78.99    6.00
  -8   4   3   77.75   14.41
  -8   4  -4  282.68   10.15
  -8  -4  -4  277.66   12.00
  -8  -4   4  273.49    9.49
  -8   4  -4  280.23   11.72
   8   4  -4  272.51   17.07
  -8   4   4  251.18   20.34
  -8   4  -5   11.38    8.26
  -8  -4  -5   15.12    7.83
  -8  -4   5   15.89   11.09
  -8   4  -5   22.35    7.49
   8   4  -5   20.25    7.31
  -8   4   5    9.30    9.22
  -8   4  -6    5.22    3.57
  -8  -4  -6    8.24    4.13
  -8  -4   6    6.04    2.46
  -8   4  -6    9.73    2.41
   8   4  -6    6.23    5.47
  -8   4   6    5.02    4.22
  -8   4  -7    7.52    7.61
  -8  -4  -7   15.73    6.65
  -8  -4   7    8.76    4.48
  -8   4  -7   13.31    4.43
   8   4  -7   16.21    7.28
  -8   4   7    7.98    6.69
  -8   4  -8  132.85    9.04
  -8  -4  -8  185.63   11.18
  -8  -4   8  126.69   12.00
  -8   4  -8  147.39    5.45
   8   4  -8  163.56    9.16
   8  -4  -8  153.24   17.75
  -8   4   8  207.34   13.00
  -8   4  -9  102.01   14.86
  -8  -4  -9   97.55   10.15
  -8  -4   9  111.79    5.67
  -8   4  -9   92.46   10.39
   8   4  -9   82.34   24.65
   8  -4  -9  112.05   10.01
  -8   4   9   85.79   10.42
  -8   4 -10   83.46    8.98
  -8  -4 -10   64.99   23.86
  -8  -4  10   78.95    4.76
  -8   4 -10   67.45   10.16
   8   4 -10   64.36   20.50
   8  -4 -10   74.45    9.19
  -8   4  10   69.52   24.48
  -8   4 -11   68.79    6.97
  -8  -4 -11   54.02    9.31
  -8  -4  11   53.09   15.82
  -8   4 -11   72.23    9.97
   8   4 -11   55.03   17.02
   8  -4 -11   70.90   11.32
  -8   4  11   53.97   20.99
  -8   4 -12   39.09   19.82
  -8  -4 -12   54.60   15.71
  -8   4 -12   39.36   13.53
   8   4 -12   43.99   11.71
   8  -4 -12   37.01   15.51
  -8   4  12   45.59   11.78
  -8   4 -13  103.92   10.09
  -8  -4 -13  107.97   13.63
  -8   4 -13   66.12   18.34
   8   4 -13   91.01   27.32
   8  -4 -13   78.54   13.92
  -8   4  13  105.09   10.39
  -8   4 -14  110.15   31.06
  -8  -4 -14   83.61   27.01
   8   4 -14   80.64   37.25
   8  -4 -14   69.38   20.58
  -8   4  14   83.75   11.75
  -8   4 -15   87.44   30.82
  -8  -4 -15   89.50   10.42
   8   4 -15   73.50   26.26
   8  -4 -15   83.28   30.66
  -8   4  15   70.45   17.40
   8   4  15   85.73   11.50
  -8   4 -16   21.83   12.75
  -8  -4 -16   -2.11    7.06
   8   4 -16   17.30   12.59
   8  -4 -16   16.75   10.41
  -8   4  16   23.92    5.45
  -8   4 -17    8.26    5.68
  -8  -4 -17    5.86    5.87
   8   4 -17    0.43    9.17
   8  -4 -17   -5.89   10.57
  -8   4  17    1.58    3.73
  -8   4 -18   14.90    6.88
  -8  -4 -18   26.14   11.00
   8   4 -18    3.41   11.46
   8  -4 -18   15.24   11.95
  -8   4  18   24.25    7.76
  -8   5   0  306.73    7.88
  -8  -5   0  314.66   10.90
   8   5   0  290.00   15.67
  -8   5   0  303.65    8.03
  -8   5  -1  265.81   14.40
  -8  -5  -1  242.57   23.48
  -8  -5   1  244.06   19.21
   8  -5  -1  257.44   13.58
   8   5   1  255.91   13.51
   8   5  -1  263.56   18.93
  -8   5  -1  263.05   18.44
  -8   5   1  247.84   14.73
  -8   5  -2    5.47    5.96
  -8  -5  -2    4.76    6.84
  -8  -5   2    7.40    4.33
   8  -5  -2    4.49    2.76
  -8   5  -2    8.48    3.89
   8   5   2    4.13    2.73
   8   5  -2    9.82    3.88
  -8   5  -2    8.57    3.71
  -8   5   2    7.54    6.65
  -8   5  -3    7.82    4.90
  -8  -5  -3    6.65    7.33
  -8  -5   3    7.87    6.44
   8  -5  -3    7.36    2.37
  -8   5  -3    6.46    2.82
   8   5  -3    5.40    2.15
  -8  -5  -3    5.94    1.71
  -8   5   3    7.91    5.54
  -8   5  -4  109.33    8.65
  -8  -5  -4  102.92   14.62
  -8  -5   4  102.25   10.87
   8  -5  -4  103.98    5.75
  -8   5  -4  101.95   14.03
   8   5  -4  121.67   19.92
  -8  -5  -4  112.08    5.98
  -8   5   4  120.82   12.76
  -8   5  -5  632.40   18.97
  -8  -5  -5  545.92   27.42
  -8  -5   5  604.77   17.62
  -8   5  -5  570.45   19.92
   8   5  -5  578.39   24.96
  -8   5   5  547.33   18.28
  -8   5  -6   32.94   12.15
  -8  -5  -6   37.37    6.63
  -8  -5   6   36.35    9.18
  -8   5  -6   25.39    7.35
   8   5  -6   27.30   10.53
  -8   5   6   40.01   15.22
  -8   5  -7  164.73   17.79
  -8  -5  -7  152.94   19.04
  -8  -5   7  160.42    7.61
  -8   5  -7  165.21    7.08
   8   5  -7  169.71   19.78
  -8   5   7  169.64   10.53
  -8   5  -8   36.08   12.71
  -8  -5  -8   60.26   19.24
  -8  -5   8   50.10    5.67
  -8   5  -8   44.92   13.54
   8   5  -8   47.37   13.57
  -8   5   8   31.49   18.87
  -8   5  -9  117.79   17.32
  -8  -5  -9  109.82   23.02
  -8  -5   9  131.03   13.27
  -8   5  -9  121.73    5.20
   8   5  -9  126.47   22.07
   8  -5  -9  126.79    8.87
  -8   5   9  153.08   20.11
  -8   5 -10   36.33   13.96
  -8  -5 -10   43.85   20.13
  -8  -5  10   42.52   14.66
  -8   5 -10   45.38   15.11
   8   5 -10   43.03   26.85
   8  -5 -10   43.20    8.74
  -8   5  10   52.67   17.64
  -8   5 -11  241.28   10.31
  -8  -5 -11  231.94   28.76
  -8  -5  11  243.65    8.08
  -8   5 -11  243.32    7.79
   8   5 -11  231.48   13.18
   8  -5 -11  235.40   14.22
  -8   5  11  215.43   14.50
  -8   5 -12   80.03   26.47
  -8  -5 -12   67.43   24.00
  -8   5 -12   68.50    9.66
   8   5 -12   56.29   23.55
   8  -5 -12   61.91   20.52
  -8   5  12   50.09   15.38
  -8   5 -13   54.54   14.44
  -8  -5 -13   36.31   20.00
  -8   5 -13   52.83   19.03
   8   5 -13   37.45   23.06
   8  -5 -13   56.81    9.19
  -8   5  13   51.03   11.15
  -8   5 -14    1.95    3.81
  -8  -5 -14    3.70    3.71
  -8   5 -14    1.52    5.03
   8   5 -14    5.42    5.95
   8  -5 -14   13.65    7.67
  -8   5  14   -0.75    6.04
  -8   5 -15   61.13   17.43
  -8  -5 -15   72.32   25.38
   8   5 -15   39.26   16.65
   8  -5 -15   79.41   24.46
  -8   5  15   68.78   19.05
   8   5  15   70.68    8.51
  -8   5 -16    9.18    8.09
  -8  -5 -16    4.79    8.45
   8   5 -16   15.29    9.31
   8  -5 -16   -1.19   10.17
  -8   5  16   15.65    5.10
  -8   5 -17   59.05   27.08
  -8  -5 -17   56.55   27.00
   8   5 -17   60.44   20.53
   8  -5 -17   82.58   15.23
  -8   5  17   64.66   29.05
  -8  -6   0  205.04   15.06
   8  -6   0  190.75   11.53
   8   6   0  194.30   15.43
  -8   6   0  188.78   12.74
  -8  -6  -1   10.64    6.04
  -8  -6   1    7.83    6.22
   8  -6  -1    9.06    7.44
  -8   6  -1   10.27    5.18
   8   6   1    5.85    3.84
   8   6  -1    8.17    3.44
  -8   6  -1    3.80    3.38
  -8   6   1    4.11    3.92
  -8   6  -2  177.64   11.00
  -8  -6  -2  182.32   17.81
  -8  -6   2  191.44   13.31
   8  -6  -2  164.98   14.92
  -8   6  -2  172.38   11.09
   8   6   2  163.24    9.33
   8   6  -2  194.20   12.32
  -8   6  -2  166.93   10.51
  -8   6   2  206.88   17.42
  -8   6  -3  505.92   15.50
  -8  -6  -3  497.76   17.64
  -8  -6   3  490.42   15.88
   8  -6  -3  496.58   13.51
   8   6   3  493.50   12.86
  -8   6  -3  492.01   14.82
   8   6  -3  540.95   16.01
  -8   6  -3  503.14   16.70
  -8   6   3  507.63   17.26
  -8   6  -4  132.97    9.41
  -8  -6  -4  130.59   28.06
  -8  -6   4  123.22   14.83
   8  -6  -4  125.26    6.25
  -8   6  -4  123.52    7.54
   8   6  -4  108.37    9.90
  -8   6   4  122.64   17.85
  -8   6  -5  101.62   18.55
  -8  -6  -5   57.75    6.96
  -8  -6   5   84.93    7.58
  -8   6  -5   74.05   10.36
   8   6  -5   70.59    8.98
  -8   6   5   59.09   26.88
  -8   6  -6   29.39    9.84
  -8  -6  -6   33.69   13.49
  -8  -6   6   32.22   12.59
  -8   6  -6   26.71    9.98
   8   6  -6   42.79   14.02
  -8   6   6   40.79   11.02
  -8   6  -7   86.21   10.31
  -8  -6  -7   72.84    7.29
  -8  -6   7   81.18   11.86
  -8   6  -7   73.96    6.68
   8   6  -7  102.90    9.12
  -8   6   7   84.60   10.77
  -8   6  -8  253.68   16.78
  -8  -6  -8  292.90   19.90
  -8  -6   8  245.84   15.42
  -8   6  -8  239.77   15.13
   8   6  -8  279.68   18.91
  -8   6   8  276.39   20.50
  -8   6  -9  414.06   14.66
  -8  -6  -9  374.91   36.15
  -8  -6   9  415.29   13.99
  -8   6  -9  408.04   12.69
   8   6  -9  391.03   13.98
  -8   6   9  406.96   22.13
  -8   6 -10    5.82    5.23
  -8  -6 -10   22.37   10.45
  -8  -6  10   10.04    5.79
  -8   6 -10   11.14    3.96
   8   6 -10    8.94    6.58
  -8   6  10    3.54    7.31
  -8   6 -11   -0.71    6.15
  -8  -6 -11    8.65    3.43
  -8  -6  11    0.03    4.42
  -8   6 -11    2.88    4.30
   8   6 -11    2.50    4.87
   8  -6 -11   12.92    6.31
  -8   6  11    5.04    6.42
  -8   6 -12   54.24   22.61
  -8  -6 -12   70.54   29.09
  -8  -6  12   49.80   18.98
  -8   6 -12   74.97   21.60
   8   6 -12   71.43   28.49
   8  -6 -12   68.82   24.21
  -8   6  12   89.95   17.94
  -8   6 -13   10.59    6.94
  -8  -6 -13    7.93    5.72
  -8   6 -13   11.61    6.47
   8   6 -13   15.01   10.02
   8  -6 -13    1.96    7.36
  -8   6  13   16.08    4.41
  -8   6 -14   58.43   21.52
  -8  -6 -14   62.68   21.18
  -8   6 -14   43.56   20.11
   8   6 -14   53.83   15.88
   8  -6 -14   82.03   12.50
  -8   6  14   67.82   21.47
  -8   6 -15   38.17   13.70
  -8  -6 -15   60.55   11.33
   8   6 -15   35.93   14.81
   8  -6 -15   23.27   13.91
  -8   6  15   52.15   15.56
  -8   6 -16    3.30    6.01
  -8  -6 -16    6.22    8.13
   8   6 -16    8.87   10.97
   8  -6 -16    6.06    5.19
  -8   6  16    0.74    3.21
   8   6  16    5.65    3.81
  -8   6 -17   37.11   12.63
  -8  -6 -17   25.55   15.65
   8   6 -17   32.52    9.99
   8  -6 -17   12.72    9.34
  -8   6  17   27.15   15.70
  -8  -7   0  323.99   16.53
   8  -7   0  305.30   12.31
   8   7   0  278.81   14.53
  -8   7   0  342.39   15.31
  -8  -7  -1  433.13   19.35
  -8  -7   1  420.08   36.16
   8  -7  -1  431.67   15.85
   8  -7   1  423.35   16.08
  -8   7  -1  450.58   19.04
   8   7   1  420.59   14.92
   8   7  -1  414.60   15.32
  -8   7  -1  457.62   17.39
  -8   7   1  404.00   23.27
  -8  -7  -2    5.61    8.59
  -8  -7   2    4.39    6.92
   8  -7  -2    2.33    2.13
   8  -7   2   -0.40    4.50
  -8   7  -2    1.75    2.58
   8   7   2    1.13    1.70
   8   7  -2    4.29    2.01
  -8   7  -2    2.34    2.42
  -8   7   2   -2.08    5.40
  -8   7  -3  187.54   17.09
  -8  -7  -3  193.33   12.91
  -8  -7   3  198.14   14.10
   8  -7  -3  196.00    9.71
   8   7   3  180.14    9.08
  -8   7  -3  201.71    7.60
   8   7  -3  192.75   10.71
  -8   7  -3  182.22   13.66
  -8   7   3  194.23   12.32
  -8   7  -4   98.76   20.32
  -8  -7  -4   81.65   38.64
  -8  -7   4   96.26   11.51
   8  -7  -4   93.24    6.63
  -8   7  -4   92.89   14.91
   8   7  -4   81.90   12.39
  -8   7  -4   88.15    4.41
  -8   7   4   87.52   32.23
  -8   7  -5  414.94   20.74
  -8  -7  -5  428.72   17.09
  -8  -7   5  399.34   19.56
  -8   7  -5  408.83   13.69
   8   7  -5  436.53   24.72
  -8   7   5  406.08   20.71
  -8   7  -6   11.47    6.42
  -8  -7  -6   24.00   12.31
  -8  -7   6   23.44    6.65
  -8   7  -6   22.73    9.51
   8   7  -6   23.86    6.16
  -8   7   6   31.02   10.02
  -8   7  -7  292.19   18.62
  -8  -7  -7  248.10   16.61
  -8  -7   7  267.57   22.82
  -8   7  -7  265.57   16.47
   8   7  -7  244.61   21.40
  -8   7   7  259.79   17.45
  -8   7  -8   34.79   10.39
  -8  -7  -8   48.91   13.55
  -8  -7   8   28.31   13.30
  -8   7  -8   41.75   12.21
   8   7  -8   47.70   14.49
  -8   7   8   55.72   16.87
  -8   7  -9   88.37    6.70
  -8  -7  -9  116.25   25.16
  -8  -7   9   91.36   23.57
  -8   7  -9   82.21   15.67
   8   7  -9  104.36   10.65
  -8   7   9  101.08   15.98
  -8   7 -10   34.98   13.63
  -8  -7 -10   43.32   15.98
  -8  -7  10   30.43   12.49
  -8   7 -10   51.39   15.91
   8   7 -10   43.84   13.70
  -8   7  10   35.02   20.29
  -8   7 -11  321.38   13.55
  -8  -7 -11  281.80   35.51
  -8  -7  11  317.50   10.36
  -8   7 -11  346.48   10.42
   8   7 -11  284.39   27.64
  -8   7  11  303.03   13.73
  -8   7 -12   33.92   15.80
  -8  -7 -12   28.80    8.39
  -8  -7  12   32.14    9.15
  -8   7 -12   29.91   10.71
   8   7 -12   34.53   15.58
   8  -7 -12   37.06   20.12
  -8   7  12   58.19   13.34
  -8   7 -13   82.44   10.75
  -8  -7 -13   63.45   19.14
  -8   7 -13   75.36   21.94
   8   7 -13   70.00   24.98
   8  -7 -13   69.60   19.03
  -8   7  13   82.48   29.00
  -8   7 -14   10.30    5.06
  -8  -7 -14   12.53   10.24
  -8   7 -14   15.48    7.67
   8   7 -14    8.99    5.08
   8  -7 -14   22.49    9.12
  -8   7  14   10.12    3.68
  -8   7 -15   38.49   13.66
  -8  -7 -15   20.77   11.72
  -8   7 -15   30.91   13.47
   8   7 -15   46.68   19.97
   8  -7 -15   31.13   13.46
  -8   7  15   35.72   11.95
  -8   7 -16    2.38    5.25
  -8  -7 -16   21.10   13.16
   8   7 -16   17.72   10.07
   8  -7 -16   18.72   10.53
  -8   7  16   22.64   10.24
   8   7  16    9.22    7.11
  -8  -8   0   55.34   15.31
   8  -8   0   44.56    6.77
  -8   8   0   43.37   11.24
   8   8   0   35.12   12.40
  -8   8   0   36.97   15.91
  -8  -8  -1  293.96   13.31
  -8  -8   1  350.97   15.46
   8  -8  -1  311.46   18.54
   8  -8   1  344.91   12.52
  -8   8  -1  325.16   12.86
   8   8   1  338.63   10.99
   8   8  -1  312.29   10.83
  -8   8  -1  322.37   11.60
  -8   8   1  340.18   12.99
  -8  -8  -2  245.49   13.29
  -8  -8   2  241.71   25.90
   8  -8  -2  264.41   16.15
   8  -8   2  262.61   17.38
  -8   8  -2  256.79   10.80
   8   8   2  258.96    9.69
   8   8  -2  236.83    9.10
  -8   8  -2  266.13   10.61
  -8   8   2  244.98   12.51
  -8  -8  -3  277.20   14.78
  -8  -8   3  236.30   25.16
   8  -8  -3  221.88   17.16
   8  -8   3  278.57   15.72
   8   8   3  236.79    7.91
  -8   8  -3  256.84   11.45
   8   8  -3  268.16   19.93
  -8   8  -3  238.73    8.95
  -8   8   3  271.74   12.09
  -8  -8  -4   32.34   14.05
  -8  -8   4   41.23   18.35
   8  -8  -4   42.17    5.26
   8  -8   4   35.46    5.19
  -8   8  -4   43.30   18.98
   8   8  -4   40.86   14.01
  -8   8  -4   44.32   11.63
  -8   8   4   35.84   13.31
  -8   8  -5   52.58   21.48
  -8  -8  -5   51.39   20.14
  -8  -8   5   45.64   25.06
  -8   8  -5   54.30   11.15
   8   8  -5   47.16   17.52
  -8   8   5   43.43   19.71
  -8   8  -6   31.21   10.72
  -8  -8  -6   30.93    8.54
  -8  -8   6   36.27   16.49
  -8   8  -6   27.23   10.30
   8   8  -6   36.29   13.15
  -8   8   6   29.99   12.20
  -8   8  -7    5.53    6.14
  -8  -8  -7   32.23    8.97
  -8  -8   7   20.81    9.21
  -8   8  -7   17.30    8.31
   8   8  -7   17.97    9.79
  -8   8   7   27.10   10.33
  -8   8  -8   47.49   17.82
  -8  -8  -8   39.64   16.54
  -8  -8   8   54.34   25.52
  -8   8  -8   43.07   19.41
   8   8  -8   52.30   20.81
  -8   8   8   48.20   22.84
  -8   8  -9  135.28   15.48
  -8  -8  -9  182.98   33.33
  -8  -8   9  142.12   13.48
  -8   8  -9  123.31   18.89
   8   8  -9  140.91   12.23
  -8   8   9  160.93   28.63
  -8   8 -10   26.74   11.70
  -8  -8  10   18.29    9.59
  -8   8 -10   35.34   10.42
   8   8 -10   23.25    7.42
  -8   8  10   23.64    7.17
  -8   8 -11   41.66   11.86
  -8  -8 -11   31.38   12.95
  -8  -8  11   27.31   12.23
  -8   8 -11   29.61    8.06
   8   8 -11   36.45   16.18
  -8   8  11   36.25   13.40
  -8   8 -12  128.13   12.25
  -8  -8 -12   80.36   30.55
  -8  -8  12  136.87    8.92
  -8   8 -12  122.75   15.65
   8   8 -12  120.16   16.62
   8  -8 -12  133.14   16.08
  -8   8  12  125.94   14.34
  -8   8 -13   87.50   27.71
  -8  -8 -13  110.37   10.52
  -8   8 -13   99.06   14.13
   8   8 -13   89.87   14.11
   8  -8 -13  115.52   15.10
  -8   8  13  105.06   21.07
  -8   8 -14   15.62    8.42
  -8  -8 -14   14.65   12.61
  -8   8 -14   20.29    7.53
   8   8 -14   18.12    9.32
   8  -8 -14   14.77    9.49
  -8   8  14    8.17    9.73
  -8   8 -15   40.11   17.23
  -8  -8 -15   57.65   30.99
  -8   8 -15   38.37   19.99
   8   8 -15   48.18   23.86
   8  -8 -15   63.37   17.27
  -8   8  15   61.61   24.64
   8   8  15   50.15   12.98
  -8   8 -16   14.14    8.70
  -8  -8 -16    3.47    7.55
   8   8 -16    5.38    5.86
   8  -8 -16   -1.52    8.94
  -8   8  16    8.00    5.81
   8   8  16    2.19    2.70
  -8  -9   0   80.69   13.43
   8  -9   0   80.33   13.77
  -8   9   0   82.42   17.93
   8   9   0   84.55    8.77
  -8   9   0   83.49    9.23
  -8  -9  -1   27.19   10.14
  -8  -9   1   34.23   13.55
   8  -9  -1   32.59   13.09
   8  -9   1   36.47   10.35
  -8   9  -1   36.28   13.42
   8   9   1   34.70   11.62
   8   9  -1   31.09   11.62
  -8   9  -1   39.78   15.88
  -8   9   1   31.52   16.91
  -8  -9  -2   14.64    6.61
  -8  -9   2   21.17    9.42
   8  -9  -2   14.81    5.50
   8  -9   2   15.03    6.10
  -8   9  -2   20.77    5.11
   8   9   2   14.90    4.97
   8   9  -2   10.01    5.69
  -8   9  -2   16.86    4.41
  -8   9   2    9.99    6.53
  -8  -9  -3    3.07    6.03
  -8  -9   3    4.62    2.97
   8  -9  -3    5.27    3.61
   8  -9   3    3.86    2.87
   8   9   3    6.11    2.77
  -8   9  -3    7.34    4.48
   8   9  -3    4.62    2.87
  -8   9  -3    2.83    2.69
  -8   9   3    8.26    4.54
  -8  -9  -4   59.94   15.29
  -8  -9   4   60.48   24.76
   8  -9  -4   48.71   18.41
   8  -9   4   48.12   18.23
   8   9   4   50.42    7.04
  -8   9  -4   64.58    7.83
   8   9  -4   51.11    5.81
  -8   9  -4   49.40   14.83
  -8   9   4   58.76   23.35
  -8  -9  -5  106.01   11.94
  -8  -9   5  105.03   17.65
   8  -9   5   98.46    6.35
  -8   9  -5   91.74    7.38
   8   9  -5  141.82   29.31
  -8   9  -5   90.64    4.59
  -8   9   5  104.47   18.16
  -8  -9  -6  130.84   20.43
  -8  -9   6  139.86   19.62
   8  -9   6  138.82    8.55
  -8   9  -6  167.29    8.58
   8   9  -6  145.85   12.64
  -8   9   6  127.52   15.80
  -8  -9  -7  307.95   15.01
  -8  -9   7  277.44   10.71
  -8   9  -7  275.29    9.42
   8   9  -7  273.45    8.78
  -8   9   7  287.18   12.29
  -8   9  -8   29.02   11.40
  -8  -9  -8   30.31   12.31
  -8  -9   8   37.94   13.31
  -8   9  -8   32.66    8.22
   8   9  -8   32.61   14.68
  -8   9   8   41.38   14.40
  -8   9  -9   18.12    8.03
  -8  -9   9   21.73    6.77
  -8   9  -9   15.52    4.25
   8   9  -9   13.19    5.40
  -8   9   9    9.70    7.76
  -8   9 -10   96.30   13.45
  -8  -9 -10  106.07   11.03
  -8  -9  10  110.05    8.04
  -8   9 -10   85.79   10.36
   8   9 -10   77.63   35.22
  -8   9  10   86.67    9.96
  -8   9 -11  112.16   10.34
  -8  -9 -11  102.96   12.36
  -8  -9  11   86.29    7.74
  -8   9 -11   85.95   14.70
   8   9 -11   70.56   24.33
  -8   9  11  117.41   22.73
  -8   9 -12   12.13    9.12
  -8  -9 -12    8.83    7.53
  -8  -9  12    1.78    3.94
  -8   9 -12    9.32    2.47
   8   9 -12   -0.47    6.29
  -8   9  12    4.36    3.82
  -8   9 -13    2.14    3.74
  -8  -9 -13    3.78    5.92
  -8  -9  13    6.90    7.35
  -8   9 -13   -0.73    3.89
   8   9 -13    3.03    4.20
   8  -9 -13    5.52    6.06
  -8   9  13    3.24    4.45
  -8   9 -14   10.73    6.22
  -8  -9 -14   13.24    8.00
  -8   9 -14    9.48    4.54
   8   9 -14    8.88   11.53
   8  -9 -14   22.62   14.63
  -8   9 -15    5.48    5.11
  -8  -9 -15    5.64    5.58
  -8   9 -15    3.04    3.44
   8   9 -15    1.69    6.70
   8  -9 -15   16.00    9.72
  -8   9  15    6.19    5.61
   8   9  15    9.79    8.16
  -8 -10   0   10.10    5.32
   8 -10   0    6.79    4.13
  -8  10   0   16.57    3.90
   8  10   0    8.65    3.72
  -8  10   0    3.19    3.56
  -8 -10  -1   35.34    9.94
  -8 -10   1   28.49   11.02
   8 -10  -1   25.91    6.22
   8 -10   1   15.72    6.16
  -8  10  -1   19.86    6.36
   8  10   1   16.70    4.52
   8  10  -1   32.66    8.79
  -8  10  -1   23.49    8.52
  -8  10   1   24.40   10.17
  -8 -10  -2   35.46    8.30
  -8 -10   2   54.00    9.23
   8 -10  -2   51.76    6.00
   8 -10   2   49.20   14.14
  -8  10  -2   51.19   17.61
   8  10   2   44.35   12.93
   8  10  -2   45.00   14.12
  -8  10  -2   56.27    7.07
  -8  10   2   41.75   15.91
  -8 -10  -3  122.14   16.28
  -8 -10   3  132.37   27.62
   8 -10  -3  103.71    7.47
   8 -10   3  134.05   10.08
   8  10   3  101.98   14.70
  -8  10  -3   97.31   21.85
   8  10  -3   92.98   12.74
  -8  10  -3  143.04    6.42
  -8  10   3  114.85   22.96
  -8 -10  -4   -0.21    7.83
  -8 -10   4   -1.21    7.42
   8 -10  -4    6.42    4.84
   8 -10   4    4.10    4.29
   8  10   4    3.69    2.33
  -8  10  -4    5.26    3.47
   8  10  -4    5.98    3.20
  -8  10  -4   -1.92    2.17
  -8  10   4    6.51    5.22
  -8 -10  -5   58.77   16.80
  -8 -10   5   44.70   15.92
   8 -10   5   45.77   15.48
  -8  10  -5   48.73   16.71
   8  10  -5   50.42    7.49
  -8  10   5   64.15    7.58
  -8 -10  -6  135.56   21.30
  -8 -10   6  147.90   14.56
   8 -10   6  116.21   11.92
  -8  10  -6  116.33   11.54
   8  10  -6  120.58   15.05
  -8  10   6  123.37   12.43
  -8 -10  -7   14.19    8.72
  -8 -10   7   20.41    6.17
   8 -10   7    9.26    5.58
  -8  10  -7   20.69    8.94
   8  10  -7    8.90    4.23
  -8  10   7   14.04   10.60
  -8 -10  -8   14.36    7.04
  -8 -10   8   16.58    5.07
   8 -10   8   14.70    7.15
  -8  10  -8   18.70    6.66
   8  10  -8   17.30   12.86
  -8  10   8   18.20    8.60
  -8 -10  -9   35.61   15.86
  -8 -10   9   69.45    7.78
   8 -10   9   51.23   18.58
  -8  10  -9   62.83   21.06
   8  10  -9   47.61   16.82
  -8  10   9   55.25   13.06
  -8 -10 -10   70.96   25.77
  -8 -10  10   63.54    9.94
   8 -10  10   70.92   24.30
  -8  10 -10   59.94   24.13
   8  10 -10   62.72   28.27
  -8  10  10   78.43   27.54
  -8 -10 -11   11.65    8.12
  -8 -10  11    7.15    4.52
  -8  10 -11    2.12    4.74
   8  10 -11   -1.51    4.46
  -8  10  11   10.34    5.60
  -8  10 -12    3.62    5.26
  -8 -10 -12    6.99    5.51
  -8 -10  12    4.43    5.88
  -8  10 -12   11.42    5.07
   8  10 -12   15.10    7.26
  -8  10  12    7.53    5.62
  -8  10 -13   34.11   13.35
  -8 -10 -13   20.58   12.45
  -8 -10  13   44.87    9.13
  -8  10 -13   36.74   18.65
   8  10 -13   41.51   16.70
  -8  10  13   46.18   21.06
  -8  10 -14   12.04    8.14
  -8 -10 -14    8.10    7.53
  -8  10 -14    4.36    4.39
   8  10 -14    8.76    6.36
   8 -10 -14   14.48    9.81
  -8  10  14   13.62    7.01
  -8 -11   0  193.87   30.23
   8 -11   0  192.51   14.59
  -8  11   0  150.60    8.35
   8  11   0  176.41    6.65
  -8  11   0  160.05    7.67
  -8 -11  -1  140.17   30.41
  -8 -11   1  121.76   12.86
   8 -11  -1  135.95   13.59
   8 -11   1  128.67   12.12
  -8  11  -1  146.57    9.35
   8  11   1  144.19   11.29
   8  11  -1  150.08    9.78
  -8  11  -1  142.55    7.41
  -8  11   1  128.09    7.65
  -8 -11  -2  147.33   18.61
  -8 -11   2  145.26   31.21
   8 -11  -2  135.64   21.23
   8 -11   2  156.25   17.39
  -8  11  -2  128.88   13.22
   8  11   2  124.74   12.29
   8  11  -2  137.08   13.82
  -8  11  -2  146.81   12.05
  -8  11   2  147.59   23.92
  -8 -11  -3    2.33    5.31
  -8 -11   3   11.56    7.13
   8 -11   3    5.29    3.85
   8  11   3   11.34    5.36
  -8  11  -3    1.80    3.69
   8  11  -3    7.06    2.88
  -8  11  -3    4.29    2.25
  -8  11   3    3.96    4.32
  -8 -11  -4   95.52   12.07
  -8 -11   4   97.40   13.63
   8 -11   4   89.09   23.66
   8  11   4   76.42    5.10
  -8  11  -4   74.73    6.33
   8  11  -4   94.42   13.91
  -8  11   4   92.87   14.40
  -8 -11  -5   21.21   23.48
  -8 -11   5   25.53   11.92
   8 -11   5   44.08   15.36
  -8  11  -5   37.67   11.90
   8  11  -5   29.10   12.00
  -8  11   5   25.97   11.61
  -8 -11  -6   22.96    8.81
  -8 -11   6   29.13    7.10
   8 -11   6   30.39   11.07
  -8  11  -6   32.98    9.84
   8  11  -6   20.93    8.96
  -8  11   6   25.02   14.49
  -8 -11  -7   14.82    7.00
  -8 -11   7   15.59   10.14
   8 -11   7   16.00    9.28
  -8  11  -7   27.55    6.79
   8  11  -7   14.83    6.35
  -8  11   7   11.81    5.77
  -8 -11  -8   75.88    9.01
  -8 -11   8   63.00   28.04
   8 -11   8   57.39   27.61
  -8  11  -8   53.05   13.84
   8  11  -8   65.53   25.19
  -8  11   8   63.89   20.30
  -8 -11  -9   -6.58    7.57
  -8 -11   9    6.73    4.20
   8 -11   9   12.15    7.50
  -8  11  -9   15.58    7.42
   8  11  -9   14.87   13.22
  -8  11   9    6.28    5.04
  -8 -11 -10   39.87   14.43
  -8 -11  10   69.67   10.31
   8 -11  10   49.11   15.58
  -8  11 -10   52.23   22.13
   8  11 -10   47.69   17.73
  -8  11  10   63.04   21.57
  -8 -11 -11   15.25   17.92
  -8 -11  11   26.45    7.35
   8 -11  11   29.02   20.04
  -8  11 -11   27.55    8.78
   8  11 -11   30.71   17.44
  -8  11  11   45.87   11.98
  -8 -11 -12   47.06   20.26
  -8 -11  12   38.96   19.92
   8 -11  12   44.62   14.63
  -8  11 -12   41.53   13.75
   8  11 -12   42.46   24.78
  -8  11  12   86.52   26.18
  -8 -11 -13   20.14   12.97
  -8 -11  13   17.09    7.61
   8 -11  13    9.72    7.47
  -8  11 -13   24.85   10.58
   8  11 -13   10.47    9.31
  -8  11  13   18.60    8.04
  -8 -12   0  276.84   14.08
   8 -12   0  287.04    9.78
  -8  12   0  225.93    9.83
   8  12   0  261.54   20.08
  -8  12   0  253.97    8.80
  -8 -12  -1   15.65    6.89
  -8 -12   1    6.94    8.98
   8 -12  -1   16.63    6.87
  -8  12  -1   12.63    9.81
   8  12   1   15.39    7.15
   8  12  -1   16.87    6.57
  -8  12  -1    7.31    9.41
  -8  12   1   26.02   11.93
  -8 -12  -2   15.46    7.69
  -8 -12   2   12.34    7.73
   8 -12  -2   12.16    5.78
   8 -12   2   10.88    7.48
  -8  12  -2   12.62    5.88
   8  12   2   15.13    6.14
   8  12  -2   11.69    5.13
  -8  12  -2   14.09   10.16
  -8  12   2   13.32    5.17
  -8 -12  -3  119.20   21.88
  -8 -12   3   96.97   15.92
   8 -12  -3  114.91    7.85
   8 -12   3  109.08   15.01
   8  12   3  108.05   11.42
  -8  12  -3  115.94   21.83
   8  12  -3  121.09   12.25
  -8  12  -3  117.11    6.23
  -8  12   3  111.55   17.88
  -8 -12  -4   37.35   16.42
  -8 -12   4   20.51   19.66
   8 -12   4   38.44   14.67
  -8  12  -4   33.34   11.83
   8  12  -4   28.92    8.58
  -8  12   4   29.46   15.58
  -8 -12  -5    8.60    5.13
  -8 -12   5   17.90    9.59
   8 -12   5   11.05    5.90
  -8  12  -5   18.78    6.75
   8  12  -5   16.15    5.96
  -8  12   5   13.12   10.46
  -8 -12  -6   14.02    8.77
  -8 -12   6    8.82    4.81
   8 -12   6   10.22    7.05
  -8  12  -6    5.28    4.43
   8  12  -6   18.48    5.11
  -8  12   6   11.97    7.15
  -8 -12  -7   25.86   13.75
  -8 -12   7   43.38    9.66
   8 -12   7   35.23   13.73
   8  12  -7   30.25    9.97
  -8  12   7   36.63   15.37
  -8 -12  -8   13.41    7.77
  -8 -12   8   22.41   13.65
   8 -12   8   30.47   10.88
  -8  12  -8   19.33    3.90
   8  12  -8   17.06    9.41
  -8  12   8   23.76   10.64
  -8 -12  -9   37.69   24.52
  -8 -12   9   41.01   16.74
   8 -12   9   38.85   22.47
  -8  12  -9   54.52   16.76
   8  12  -9   35.30   16.48
  -8  12   9   58.28   15.32
  -8 -12 -10    8.56    5.59
  -8 -12  10   10.68    7.46
   8 -12  10   10.57    5.41
  -8  12 -10    8.77    5.25
   8  12 -10   12.52    9.67
  -8  12  10   15.58    5.47
  -8 -12 -11   -4.24    7.89
  -8 -12  11    3.33    7.65
   8 -12  11    0.32    6.88
  -8  12 -11   -2.32    5.15
   8  12 -11    2.35    4.76
  -8  12  11    7.25    6.44
  -8 -12 -12   59.40   28.43
  -8 -12  12   67.64    7.32
   8 -12  12   70.33   33.89
  -8  12 -12   55.19   20.32
   8  12 -12   57.19   24.08
  -8  12  12   70.02   23.36
  -8 -13   0   -0.49    7.43
   8 -13   0    3.63    3.89
  -8  13   0    4.34    7.34
   8  13   0    4.92    4.04
  -8  13   0    4.24    4.31
  -8 -13  -1   34.05   14.58
  -8 -13   1   15.31   17.16
   8 -13  -1   31.83   11.61
   8 -13   1   20.96   11.42
  -8  13  -1   34.14   16.07
   8  13   1   23.83   10.25
   8  13  -1   35.84    9.34
  -8  13  -1   36.94    8.22
  -8  13   1   28.73   12.14
  -8 -13  -2   37.27   23.50
  -8 -13   2   51.05   23.20
   8 -13  -2   61.63   10.09
   8 -13   2   48.28   21.69
  -8  13  -2   57.28   23.61
   8  13   2   60.02    5.00
   8  13  -2   51.61   20.39
  -8  13  -2   58.62   12.25
  -8  13   2   66.55    6.71
  -8 -13  -3    8.20    6.01
  -8 -13   3   15.57   12.66
   8 -13   3   20.14   12.54
  -8  13  -3   15.41    5.58
   8  13  -3   29.37   10.59
  -8  13   3   35.15   12.31
  -8 -13  -4  221.93   13.07
  -8 -13   4  197.42   27.08
   8 -13   4  207.15   10.48
  -8  13  -4  232.66   11.90
   8  13  -4  237.27   21.67
  -8  13   4  213.69   10.84
  -8 -13  -5    7.54   10.03
  -8 -13   5   10.59    4.25
   8 -13   5    7.93    3.67
  -8  13  -5   13.33    4.64
   8  13  -5    8.03    4.07
  -8  13   5    8.18    6.24
  -8 -13  -6   74.54   26.13
  -8 -13   6   86.71   31.32
   8 -13   6  100.27   19.22
  -8  13  -6   80.03   23.86
   8  13  -6   96.69   13.32
  -8  13   6  118.33   11.99
  -8 -13  -7   13.84   10.79
  -8 -13   7    6.27    4.17
   8 -13   7   10.69    9.17
  -8  13  -7   10.85    8.61
   8  13  -7    5.42    3.44
  -8  13   7    2.94    3.90
  -8 -13  -8  127.70   37.58
  -8 -13   8   74.20   34.69
   8 -13   8  118.68   31.37
  -8  13  -8  113.15   25.43
   8  13  -8   73.25   33.94
  -8  13   8   97.22   33.28
  -8 -13  -9   34.69   15.91
  -8 -13   9   29.84   13.07
   8 -13   9   37.55   16.15
  -8  13  -9   23.05    9.73
   8  13  -9   25.97   10.57
  -8  13   9   17.62   17.64
  -8 -13 -10   63.12   12.68
  -8 -13  10   32.74   20.45
   8 -13  10   66.65   13.75
  -8  13 -10   31.86   15.87
   8  13 -10   51.59   20.08
  -8  13  10   48.74   13.24
  -8 -13 -11   10.28    7.38
  -8 -13  11    7.65    4.75
   8 -13  11    4.80    6.14
  -8  13 -11   15.30    7.70
   8  13 -11    5.70    6.47
  -8  13  11    4.07   10.45
  -8 -14   0   29.39   16.01
   8 -14   0   21.89   11.13
  -8  14   0   25.50   11.93
   8  14   0   24.89   12.71
  -8  14   0   31.46   11.01
  -8 -14  -1    7.56    8.95
  -8 -14   1   22.32   12.18
   8 -14  -1    7.46    9.14
   8 -14   1   15.82   11.31
  -8  14  -1   13.25    8.45
   8  14   1   15.17    6.65
   8  14  -1   18.04    4.81
  -8  14  -1   20.42    5.94
  -8  14   1   20.65    7.73
  -8 -14  -2   10.94    8.01
  -8 -14   2   34.79    7.49
   8 -14  -2   34.74    5.53
   8 -14   2   23.66   12.46
  -8  14  -2   36.94   15.34
   8  14  -2   27.53    8.53
  -8  14   2   27.88    8.45
  -8 -14  -3   43.32   20.42
  -8 -14   3   37.97   15.67
   8 -14   3   33.06   17.67
  -8  14  -3   32.84   14.27
   8  14  -3   57.57   17.22
  -8  14   3   47.86   22.39
  -8 -14  -4   12.77    7.66
  -8 -14   4   -2.13    4.08
   8 -14   4    3.01    1.96
  -8  14  -4    6.17    4.97
   8  14  -4    5.42    3.09
  -8  14   4    1.79    3.09
  -8 -14  -5    9.70   11.62
  -8 -14   5    9.19    5.98
   8 -14   5   21.52    6.26
  -8  14  -5   17.15   10.58
   8  14  -5   20.93    8.14
  -8  14   5   16.17   10.44
  -8 -14  -6   65.20   33.77
  -8 -14   6   65.96   31.92
   8 -14   6   77.63   29.28
  -8  14  -6   58.29   27.62
   8  14  -6   66.10   30.04
  -8  14   6   63.95   28.41
  -8 -14  -7   17.16   16.02
  -8 -14   7   12.08   10.62
   8 -14   7   15.09   10.50
  -8  14  -7   12.53    8.19
   8  14  -7    4.65    4.74
  -8  14   7    8.26   10.88
  -8 -14  -8    0.92   10.82
  -8 -14   8   13.11    6.79
   8 -14   8    3.80    3.20
  -8  14  -8    5.58    3.37
   8  14  -8    6.32    7.98
  -8  14   8    8.18    5.81
  -8 -14  -9   -1.65    8.70
  -8 -14   9    7.93    3.40
   8 -14   9   18.88   11.72
  -8  14  -9    3.93    3.66
   8  14  -9    5.73    4.65
  -8  14   9    9.15    8.18
  -8 -15   0    8.44    6.04
   8 -15   0   10.00    5.44
  -8  15   0   19.44   10.62
   8  15   0    5.47    3.60
  -8  15   0    5.21    4.74
  -8 -15  -1   46.72   20.32
  -8 -15   1   30.25   22.67
   8 -15  -1   33.68   14.97
   8 -15   1   27.77   14.10
  -8  15  -1   52.09   18.71
   8  15  -1   43.91   18.33
  -8  15   1   32.63   13.70
  -8 -15  -2   62.33   22.86
  -8 -15   2   64.68   16.19
   8 -15   2   38.86   24.18
  -8  15  -2   54.78   21.95
   8  15  -2   56.35   17.81
  -8  15   2   66.11   14.36
  -8 -15  -3    9.40    8.79
  -8 -15   3   -2.43    7.00
   8 -15   3    3.16    3.90
  -8  15  -3    2.65    3.68
   8  15  -3    6.42    4.95
  -8  15   3    6.88    4.53
  -8 -15  -4   22.14   10.04
  -8 -15   4   27.35   16.68
   8 -15   4   33.99   17.48
  -8  15  -4   31.01   10.64
   8  15  -4   45.73   13.43
  -8  15   4   33.41   11.94
  -8 -15  -5   28.49   16.52
  -8 -15   5   34.21   12.24
   8 -15   5   39.11   12.30
  -8  15  -5   17.60   10.16
   8  15  -5   43.43    8.64
  -8  15   5   37.00   16.06
  -8 -15  -6    7.77   10.75
  -8 -15   6    4.74    3.20
   8 -15   6    5.77    3.41
  -8  15  -6    1.24    3.09
   8  15  -6    3.38    4.15
  -8  15   6    6.99    5.48
  -8 -15  -7   46.95   13.23
  -8 -15   7   31.24   11.95
   8 -15   7   28.95   14.73
  -8  15  -7   23.37   11.27
   8  15  -7   22.60    8.43
  -8  15   7   22.16    8.53
  -8 -16   0   18.20    9.27
   8 -16   0   22.19    9.77
  -8  16   0   17.57   10.44
  -8 -16  -1   70.29   18.26
  -8 -16   1   49.60   38.53
   8 -16   1   39.18   22.91
  -8  16  -1   62.02   17.92
   8  16  -1   45.45   25.79
  -8  16   1   34.24   18.71
  -8 -16  -2   23.16   14.62
  -8 -16   2   23.42   11.07
   8 -16   2   11.88    7.24
  -8  16  -2   16.66    7.69
   8  16  -2   27.37   10.05
  -8  16   2   14.41   10.64
  -8 -16  -3   40.82   16.75
  -8 -16   3   39.76   17.83
   8 -16   3   19.11   11.44
  -8  16  -3   34.91   14.24
   8  16  -3   25.55   10.97
  -8  16   3   29.51   11.59
  -8 -16  -4   30.58   18.09
  -8 -16   4   46.13   14.37
   8 -16   4   15.35   13.97
  -8  16  -4   22.49    8.59
  -8  16   4   26.40   15.86
  -9   0   0   -1.15    2.33
   9   0   0    1.09    2.24
  -9   0  -1  152.84   10.78
  -9   0   1  144.30    8.69
   9   0   1  148.55    9.41
   9   0  -1  153.50   11.73
  -9   0  -2   60.71    8.63
  -9   0   2   54.61    6.30
   9   0   2   57.59    1.81
   9   0   2   58.33    2.02
   9   0  -2   56.69    5.30
  -9   0  -3  268.80   15.13
  -9   0   3  252.35   13.07
   9   0  -3  258.94   14.58
  -9   0  -4   83.54    7.87
   9   0  -4   79.33    7.00
  -9   0   5  249.19    6.38
  -9   0  -5  257.84   11.23
   9   0  -5  239.46    9.43
  -9   0  -6  172.12   12.37
   9   0  -6  157.86   20.09
  -9   0  -7  666.30   25.42
   9   0  -7  652.22   25.96
  -9   0  -8  188.89   18.68
   9   0  -8  200.72   22.75
  -9   0  -9  513.57   30.91
   9   0  -9  506.51   30.67
  -9   0 -10   46.77   12.12
   9   0 -10   32.38   12.39
  -9   0  10   27.72   15.49
  -9   0 -11    0.18    8.41
   9   0 -11    7.35    8.14
  -9   0  11    9.02    5.54
  -9   0 -12    2.91    4.54
   9   0 -12    4.50    8.29
  -9   0  12    8.89    3.66
  -9   0 -13   -2.50    6.57
   9   0 -13    2.13    4.56
  -9   0  13    5.07    1.84
  -9   0 -14   12.79   10.26
   9   0 -14    6.83    5.95
  -9   0  14    6.42    6.32
  -9   0 -15   17.20   13.39
   9   0 -15   23.84   10.09
  -9   0  15   14.44    9.14
  -9   0 -16    8.19    7.43
   9   0 -16    3.78   10.80
  -9   0 -17   44.88   16.39
   9   0 -17   53.45   14.01
  -9   1   0  124.73    7.30
  -9  -1   0  121.45   11.48
   9   1   0  117.20    6.81
   9  -1   0  119.51    8.63
  -9   1   1  204.59   10.83
  -9   1  -1  227.08   12.63
  -9  -1  -1  206.38   11.88
  -9  -1   1  239.28   12.91
   9   1   1  213.15   10.83
   9   1   1  231.60   11.93
   9   1  -1  214.24   12.41
   9  -1  -1  230.37   14.66
   9  -1   1  201.70   10.93
  -9   1   2   38.72    5.13
  -9   1  -2   38.64   11.15
  -9  -1  -2   40.96   11.53
  -9  -1   2   39.19    7.20
   9   1  -2   38.43   14.07
   9  -1  -2   38.44   10.95
  -9   1  -3   38.66   11.15
  -9  -1  -3   41.52   10.98
  -9  -1   3   43.04    7.68
   9   1  -3   31.53   10.16
   9  -1  -3   44.63    6.11
  -9   1   4  313.74    8.05
  -9   1  -4  320.69   11.49
  -9  -1  -4  305.88   11.67
  -9  -1   4  314.38    9.46
   9  -1  -4  302.08    7.72
   9  -1   4  331.98    8.51
   9   1  -4  325.06   11.24
   9  -1  -4  311.50   11.59
  -9   1  -5  191.66   13.11
  -9  -1  -5  221.64   17.26
   9   1  -5  192.74   13.60
   9  -1  -5  202.21   13.84
  -9   1  -6    9.12    8.94
  -9  -1  -6    6.31    6.79
   9   1  -6    7.24    6.86
   9  -1  -6   11.10    4.21
  -9   1   6   11.86    8.64
  -9   1  -7   40.08   20.99
  -9  -1  -7   40.00   10.24
   9   1  -7   29.16    9.85
   9  -1  -7   45.19   18.42
  -9   1   7   36.81   13.76
  -9   1  -8  150.18    7.45
  -9  -1  -8  155.10   10.19
   9   1  -8  148.44   13.77
   9  -1  -8  142.28   10.35
  -9   1   8  140.59   11.21
  -9   1  -9   54.60   19.17
  -9  -1  -9   55.56   19.05
   9   1  -9   46.87    7.60
   9  -1  -9   42.30    7.85
  -9   1   9   75.22   21.85
  -9   1 -10   12.02    7.57
  -9  -1 -10    4.88    6.58
   9   1 -10    9.99    5.31
   9  -1 -10   19.15    7.33
  -9   1  10   15.29    6.93
  -9   1 -11  315.80   11.73
  -9  -1 -11  329.65   26.38
   9   1 -11  316.61   35.19
   9  -1 -11  294.21   20.34
  -9   1  11  291.34   16.03
  -9   1 -12   27.51   16.04
  -9  -1 -12   53.96   16.72
   9   1 -12   41.63   15.08
   9  -1 -12   35.26   16.51
  -9   1  12   35.30   12.95
  -9   1 -13  149.37   19.14
  -9  -1 -13  103.20   15.83
   9   1 -13   85.28   33.55
   9  -1 -13   95.60   35.89
  -9   1  13   88.48   12.17
  -9   1 -14    9.06    7.01
  -9  -1 -14   15.37    8.48
   9   1 -14   13.21    7.97
   9  -1 -14   15.38    8.05
  -9   1  14    8.99    3.42
  -9   1 -15   12.49    9.32
  -9  -1 -15   11.20    6.52
   9   1 -15    8.84    6.02
   9  -1 -15    5.08    9.10
  -9   1  15   15.73    6.35
  -9   1 -16   11.43    9.42
  -9  -1 -16    9.99    5.98
   9   1 -16   11.10    7.62
   9  -1 -16   18.39   10.03
  -9   1  16   14.63    8.15
  -9   1 -17   41.97    9.70
  -9  -1 -17   50.56   15.43
   9   1 -17   52.24   10.66
   9  -1 -17   49.26    9.97
  -9   1  17   37.15   21.75
  -9   2   0   80.68    8.69
  -9  -2   0   82.86    6.82
   9   2   0   83.11    7.66
  -9   2   1  476.14   10.12
  -9   2  -1  488.85   11.58
  -9  -2  -1  470.40   20.57
  -9  -2   1  493.20   10.32
   9   2   1  474.63    6.92
   9   2   1  498.51    7.26
   9   2  -1  469.11    8.91
  -9   2   2  151.07    8.60
  -9   2  -2  166.52    9.77
  -9  -2  -2  151.13    9.97
  -9  -2   2  182.89   10.24
   9   2  -2  163.73   10.97
  -9   2  -3  543.79   15.92
  -9  -2  -3  509.44   16.11
  -9  -2   3  585.26   16.85
   9   2  -3  535.39   20.21
   9  -2  -3  573.32   17.89
  -9   2   3  547.53   18.05
  -9   2  -4  243.30   13.94
  -9  -2  -4  257.28   11.20
  -9  -2   4  260.13    8.82
   9   2  -4  271.04   13.35
   9  -2  -4  245.89   11.61
  -9   2   4  271.95   12.53
  -9   2  -5   17.15    5.02
  -9  -2  -5    6.72    3.43
  -9  -2   5   12.20    3.85
   9   2  -5    3.82    5.80
   9  -2  -5    7.60    6.51
  -9   2   5   14.59    8.10
  -9   2  -6    3.31    2.62
  -9  -2  -6    8.61    5.24
  -9  -2   6    4.58    2.97
  -9   2  -6    4.27    2.04
   9   2  -6    9.68    7.13
   9  -2  -6   -1.91    6.75
  -9   2   6    2.13    5.29
  -9   2  -7   35.27   14.43
  -9  -2  -7   32.09   11.33
  -9  -2   7   32.58    9.70
  -9   2  -7   32.97    6.15
   9   2  -7   48.89   12.36
   9  -2  -7   52.36   17.50
  -9   2   7   47.36   13.56
  -9   2  -8    8.36    6.12
  -9  -2  -8   22.42    6.68
  -9   2  -8   11.33    2.86
   9   2  -8   14.12    8.23
   9  -2  -8   13.98    8.09
  -9   2   8   17.55    4.63
  -9   2  -9   72.76    8.78
  -9  -2  -9   71.09   24.32
   9   2  -9   62.69    6.76
   9  -2  -9   76.30   25.33
  -9   2   9   73.53    8.88
  -9   2 -10   44.35   13.09
  -9  -2 -10   64.33   12.41
   9   2 -10   58.73    8.94
   9  -2 -10   46.12   10.88
  -9   2  10   66.64   21.70
  -9   2 -11  150.13   33.40
  -9  -2 -11  136.63   11.37
   9   2 -11  117.71   25.38
   9  -2 -11  143.20   37.57
  -9   2  11  106.79   12.97
  -9   2 -12   52.65   12.09
  -9  -2 -12   47.73   14.83
   9   2 -12   46.62   10.38
   9  -2 -12   47.86   15.46
  -9   2  12   51.14   14.22
  -9   2 -13   37.48   15.19
  -9  -2 -13   38.52   16.16
   9   2 -13   48.13   11.28
   9  -2 -13   25.45   13.21
  -9   2  13   19.98   10.48
  -9   2 -14   53.35   21.90
  -9  -2 -14   55.01   23.14
   9   2 -14   54.43    8.28
   9  -2 -14   52.65   16.93
  -9   2  14   54.59   22.29
  -9   2 -15  192.05   30.80
  -9  -2 -15  220.21   39.49
   9   2 -15  213.63   11.63
   9  -2 -15  194.27   28.56
  -9   2  15  225.15   19.78
  -9   2 -16   43.82   18.78
  -9  -2 -16   53.73   20.35
   9   2 -16   26.57    8.49
   9  -2 -16   43.77   13.89
  -9   2  16   40.42   14.14
  -9   2 -17   14.89   12.29
  -9  -2 -17    9.27    8.79
   9   2 -17   22.47   13.06
   9  -2 -17   21.69   13.48
  -9   2  17   19.52   10.69
  -9   3   0   21.71    7.54
  -9  -3   0   26.87    5.96
   9   3   0   27.84    2.87
  -9   3   1  113.90    7.79
  -9   3  -1  114.52    7.26
  -9  -3  -1  109.36    8.44
  -9  -3   1  121.20    8.37
   9   3   1  110.41    5.85
   9   3  -1  115.47   10.11
  -9   3   2  254.20    9.38
  -9   3  -2  217.45   12.44
  -9  -3  -2  259.84   10.62
  -9  -3   2  218.40   12.67
   9   3  -2  247.01    8.51
  -9   3   2  252.54   10.97
  -9   3  -3  278.77    9.77
  -9  -3  -3  300.25   12.00
  -9  -3   3  298.09    9.61
   9  -3  -3  295.62    8.15
   9   3  -3  315.26   10.78
  -9   3   3  292.88   17.93
  -9   3  -4    4.54    3.77
  -9  -3  -4    5.52    3.47
  -9  -3   4    9.73    3.90
   9   3  -4    7.93    3.91
  -9   3   4    4.53    4.19
  -9   3  -5  109.24   11.59
  -9  -3  -5  121.63   10.94
  -9  -3   5  104.20    5.94
  -9   3  -5  110.52    7.63
   9   3  -5  120.52    9.89
   9  -3  -5  116.73   18.10
  -9   3   5  122.62   10.00
  -9   3  -6   35.92   12.09
  -9  -3  -6   22.94   10.03
  -9  -3   6   27.62    7.28
  -9   3  -6   24.68    6.12
   9   3  -6   11.53    8.16
   9  -3  -6   32.61   12.41
  -9   3   6   24.25    5.55
  -9   3  -7  200.01   10.30
  -9  -3  -7  228.57   11.64
  -9  -3   7  201.93   11.43
  -9   3  -7  209.61    9.80
   9   3  -7  215.64   38.33
   9  -3  -7  208.06   11.62
  -9   3   7  198.89   11.03
  -9   3  -8   18.21    7.14
  -9  -3  -8   18.86    7.21
  -9  -3   8   23.30    6.43
  -9   3  -8   20.39    4.76
   9   3  -8   20.18    9.19
   9  -3  -8   26.35   13.34
  -9   3   8   25.01    6.83
  -9   3  -9   77.95   20.18
  -9  -3  -9   93.99   17.95
  -9   3  -9   79.51    4.74
   9   3  -9   92.48   27.40
   9  -3  -9   82.65    9.38
  -9   3   9   83.84   10.02
  -9   3 -10  130.28    8.92
  -9  -3 -10  127.76   10.30
   9   3 -10  109.02    7.37
   9  -3 -10  144.50   18.97
  -9   3  10  111.63   13.23
  -9   3 -11   20.75    5.62
  -9  -3 -11   32.32   11.50
   9   3 -11   11.16    5.11
   9  -3 -11   24.78    9.83
  -9   3  11   13.00   11.81
  -9   3 -12   11.14    5.08
  -9  -3 -12   15.20    9.96
   9   3 -12    2.56    6.69
   9  -3 -12   14.01    7.50
  -9   3  12   10.64    6.43
  -9   3 -13   16.98   11.14
  -9  -3 -13   33.13   11.62
   9   3 -13   35.98   13.34
   9  -3 -13    9.67    6.19
  -9   3  13   16.12    8.87
  -9   3 -14  177.62   24.60
  -9  -3 -14  232.04   12.02
   9   3 -14  192.63   14.28
   9  -3 -14  180.74   16.49
  -9   3  14  178.25   24.70
  -9   3 -15   23.65   10.95
  -9  -3 -15   21.94   10.03
   9   3 -15   10.63    8.03
   9  -3 -15   30.91   13.74
  -9   3  15   20.65    7.32
  -9   3 -16    3.01    6.94
  -9  -3 -16   13.29    8.07
   9   3 -16   19.75   13.67
   9  -3 -16   12.51    6.84
  -9   3  16   11.85    5.52
  -9   3 -17   18.13    9.90
  -9  -3 -17   24.64    9.76
   9   3 -17   10.20    7.02
   9  -3 -17   12.73    8.48
  -9   3  17   15.26    5.21
  -9   4   0   59.13    7.52
  -9  -4   0   57.22   11.34
   9   4   0   54.65    4.22
  -9   4   0   52.92    5.22
  -9   4   1    4.13    3.10
  -9   4  -1    4.78    2.11
  -9  -4  -1    7.30    6.42
  -9  -4   1    0.00    4.69
   9   4   1    3.87    1.69
   9   4  -1    4.80    1.90
  -9   4   1    5.19    5.90
  -9   4  -2   40.71   10.48
  -9  -4  -2   36.29   12.17
  -9  -4   2   27.18    4.85
   9  -4  -2   28.31    8.04
   9   4  -2   28.67    9.96
  -9   4   2   38.70   16.61
  -9   4  -3  226.99   13.44
  -9  -4  -3  206.55   14.60
  -9  -4   3  216.62   12.89
   9  -4  -3  219.84   11.51
   9   4  -3  201.42   11.96
  -9   4   3  225.65   15.13
  -9   4  -4   24.18    7.66
  -9  -4  -4    9.16    6.82
  -9  -4   4    7.15    3.17
  -9   4  -4   11.76    3.61
   9   4  -4   14.37    7.06
  -9   4   4    7.33    4.76
  -9   4  -5  352.64   20.79
  -9  -4  -5  334.99   16.15
  -9  -4   5  358.15   13.84
  -9   4  -5  350.23   13.80
   9   4  -5  347.85   26.17
  -9   4   5  324.40   14.65
  -9   4  -6  466.16   16.62
  -9  -4  -6  440.15   17.54
  -9  -4   6  441.89   13.49
  -9   4  -6  434.44   13.65
   9   4  -6  417.11   21.24
  -9   4   6  432.99   15.99
  -9   4  -7  121.87    6.20
  -9  -4  -7  148.92   22.95
  -9  -4   7  144.33    6.20
  -9   4  -7  143.75    7.03
   9   4  -7  138.51   14.08
   9  -4  -7  168.73   10.55
  -9   4   7  158.62    9.07
  -9   4  -8   74.50   14.72
  -9  -4  -8   81.47   10.78
  -9  -4   8   93.26    5.06
  -9   4  -8   74.30   13.68
   9   4  -8   73.57   27.67
   9  -4  -8   75.92   26.67
  -9   4   8   86.62   33.21
  -9   4  -9  131.50    8.64
  -9  -4  -9  120.96   10.68
  -9  -4   9  116.73   14.16
  -9   4  -9  123.80   13.03
   9   4  -9  116.23    7.28
   9  -4  -9  120.34   11.93
  -9   4   9  123.38   10.52
  -9   4 -10  248.97   12.62
  -9  -4 -10  286.86   13.05
  -9   4 -10  245.17    6.47
   9   4 -10  291.28   24.45
   9  -4 -10  236.46   23.14
  -9   4  10  299.58   12.73
  -9   4 -11   56.99   22.59
  -9  -4 -11   63.86   25.58
   9   4 -11   48.60   15.42
   9  -4 -11   58.52   10.71
  -9   4  11   71.18   18.50
  -9   4 -12    6.61    9.79
  -9  -4 -12   -0.03    7.15
   9   4 -12    2.53    7.45
   9  -4 -12    9.54    6.29
  -9   4  12    6.18    4.25
  -9   4 -13   17.52    5.51
  -9  -4 -13    4.01    5.31
   9   4 -13   15.71    8.83
   9  -4 -13   10.85    4.93
  -9   4  13    7.72    4.89
  -9   4 -14    6.54    5.60
  -9  -4 -14   20.90   10.81
   9   4 -14   12.04    7.17
   9  -4 -14   -3.10    8.13
  -9   4  14    1.56    5.79
  -9   4 -15   17.86    7.42
  -9  -4 -15   14.59    9.04
   9   4 -15   11.60    6.00
   9  -4 -15   16.17   15.50
  -9   4  15   34.32    9.52
  -9   4 -16    3.01    5.60
  -9  -4 -16    6.10    5.37
   9   4 -16    4.47    9.71
   9  -4 -16    2.64    4.27
  -9   4  16    6.85    6.45
  -9   4 -17   10.14    6.83
  -9  -4 -17    5.30    3.46
   9   4 -17   10.15    7.31
   9  -4 -17   14.24   14.19
  -9   4  17    9.52    7.92
  -9   5   0  183.01    9.43
  -9  -5   0  182.46   18.26
   9   5   0  180.66   10.35
  -9   5   0  196.79   11.97
  -9   5  -1  216.71    9.40
  -9  -5  -1  207.19   11.21
  -9  -5   1  227.63   10.68
   9  -5  -1  233.34   13.51
   9   5   1  210.41    8.14
   9   5  -1  220.20    9.10
  -9   5  -1  209.76   10.59
  -9   5   1  214.48   11.37
  -9   5  -2  304.38   12.00
  -9  -5  -2  263.57   12.19
  -9  -5   2  326.41   13.60
   9  -5  -2  328.52   13.88
   9   5   2  298.59    9.96
   9   5  -2  266.41   10.54
  -9   5   2  253.47   13.00
  -9   5  -3  202.88    8.80
  -9  -5  -3  188.31   11.72
  -9  -5   3  211.33   10.24
   9  -5  -3  214.63    8.00
  -9   5  -3  193.76    9.90
   9   5  -3  180.07   21.54
  -9   5   3  192.36   18.76
  -9   5  -4   53.98   17.56
  -9  -5  -4   55.95   19.42
  -9  -5   4   53.74    5.67
  -9   5  -4   54.39   11.90
   9   5  -4   53.62   13.88
  -9   5   4   55.46    6.94
  -9   5  -5   22.37    9.91
  -9  -5  -5   16.22   10.96
  -9  -5   5   10.93    5.18
  -9   5  -5   17.56    6.09
   9   5  -5   22.98    5.86
  -9   5   5   25.27   11.49
  -9   5  -6   24.25    9.13
  -9  -5  -6   26.23    9.77
  -9  -5   6   20.59    6.84
  -9   5  -6   18.33    4.87
   9   5  -6   39.14    9.56
  -9   5   6   29.33   10.21
  -9   5  -7   24.39    8.45
  -9  -5  -7   29.65    9.68
  -9  -5   7   19.70    5.02
  -9   5  -7   22.94    6.99
   9   5  -7   34.44   12.59
  -9   5   7   26.07    9.22
  -9   5  -8   37.59   18.79
  -9  -5  -8   46.63   22.17
  -9  -5   8   36.76    7.74
  -9   5  -8   38.13   12.90
   9   5  -8   49.93   14.70
  -9   5   8   34.23    9.41
  -9   5  -9  232.52    9.63
  -9  -5  -9  238.03   10.37
  -9  -5   9  225.69    7.42
  -9   5  -9  242.29    8.19
   9   5  -9  234.96   10.25
   9  -5  -9  234.65   12.01
  -9   5   9  278.89   13.23
  -9   5 -10   71.93    8.89
  -9  -5 -10   83.43   32.51
  -9   5 -10   69.28   11.72
   9   5 -10   76.42   22.34
   9  -5 -10   69.23   16.00
  -9   5  10   87.89   17.37
  -9   5 -11   52.03   15.21
  -9  -5 -11   37.52   12.97
   9   5 -11   35.43   15.05
   9  -5 -11   26.79    8.23
  -9   5  11   19.35   13.96
  -9   5 -12   44.55   14.72
  -9  -5 -12   42.19    9.88
   9   5 -12   41.56   14.81
   9  -5 -12   39.25   12.95
  -9   5  12   45.09    7.48
  -9   5 -13   68.79   25.26
  -9  -5 -13   61.02   29.34
   9   5 -13   49.46   15.21
   9  -5 -13   68.89   17.51
  -9   5  13   45.79   20.72
  -9   5 -14   31.60   12.08
  -9  -5 -14   33.48   16.46
   9   5 -14   28.72   10.51
   9  -5 -14   43.53   15.93
  -9   5  14   26.38    6.68
  -9   5 -15   34.10   11.88
  -9  -5 -15   39.51   19.38
   9   5 -15   19.18   11.01
   9  -5 -15   39.81   11.10
  -9   5  15   25.48    8.40
  -9   5 -16   57.35   19.25
  -9  -5 -16   17.04    8.15
   9   5 -16   33.71   12.54
   9  -5 -16   43.84   22.05
  -9   5  16   26.06   13.35
  -9  -6   0 1371.88   49.76
   9  -6   0 1361.65   46.47
   9   6   0 1376.41   13.50
  -9   6   0 1383.64   23.12
  -9   6  -1   85.38    7.96
  -9  -6  -1  105.74   32.38
  -9  -6   1   72.54    8.90
   9  -6  -1   92.99    9.40
   9   6   1   76.78    9.12
   9   6  -1  105.64    9.28
  -9   6  -1   90.90   11.91
  -9   6   1  100.51   10.54
  -9   6  -2  154.50    8.66
  -9  -6  -2  184.00   12.65
  -9  -6   2  174.51   11.22
   9  -6  -2  158.23    9.82
  -9   6  -2  157.94   11.38
   9   6   2  152.49    7.13
   9   6  -2  171.31   12.35
  -9   6  -2  159.81    9.09
  -9   6   2  163.20   13.01
  -9   6  -3  376.21   13.58
  -9  -6  -3  333.61   14.49
  -9  -6   3  391.74   14.20
   9  -6  -3  370.66   11.47
  -9   6  -3  341.89   11.45
   9   6  -3  383.61   12.57
  -9   6   3  354.34   14.21
  -9   6  -4  373.66   13.10
  -9  -6  -4  382.40   15.58
  -9  -6   4  378.90   13.33
  -9   6  -4  359.13   13.81
   9   6  -4  382.44   24.22
  -9   6   4  341.70   23.50
  -9   6  -5    4.78    3.46
  -9  -6  -5    7.64    6.72
  -9  -6   5   11.72    6.90
   9   6  -5    8.49    4.58
  -9   6   5    5.28    7.02
  -9   6  -6   24.54    8.95
  -9  -6  -6   20.34    6.49
  -9  -6   6   21.94    7.19
  -9   6  -6   21.85    6.48
   9   6  -6   11.63    4.29
  -9   6   6   12.74    7.79
  -9   6  -7   12.19    8.03
  -9  -6  -7   29.02   14.02
  -9  -6   7   29.37    9.23
  -9   6  -7   24.79    8.11
   9   6  -7   29.77    5.07
  -9   6   7   33.52    9.56
  -9   6  -8  138.77    7.22
  -9  -6  -8  167.25   11.39
  -9  -6   8  154.25    6.37
  -9   6  -8  152.03   11.97
   9   6  -8  169.30   25.38
  -9   6   8  152.54   26.54
  -9   6  -9  114.38    7.11
  -9  -6  -9  134.58   36.17
  -9  -6   9  113.31    6.15
  -9   6  -9  131.02    6.18
   9   6  -9  136.24   10.10
  -9   6   9  132.13   13.26
  -9   6 -10   25.61    7.85
  -9  -6 -10   22.26   13.71
  -9  -6  10   23.68    6.87
  -9   6 -10   24.50    5.93
   9   6 -10   18.92   10.69
   9  -6 -10   33.28   10.25
  -9   6  10   16.56    8.67
  -9   6 -11   26.77    9.77
  -9  -6 -11   13.99   16.10
  -9   6 -11   19.08    4.97
   9   6 -11   20.68    7.86
   9  -6 -11   23.37   12.19
  -9   6  11   30.06   16.34
  -9   6 -12  340.70   41.93
  -9  -6 -12  315.26   38.42
   9   6 -12  266.33   11.81
   9  -6 -12  340.83   16.25
  -9   6  12  322.66   13.37
  -9   6 -13   47.18   12.96
  -9  -6 -13   34.74    9.24
   9   6 -13   23.59   11.05
   9  -6 -13   66.79   12.38
  -9   6  13   27.28    6.37
  -9   6 -14   13.12    6.16
  -9  -6 -14   11.09    7.03
   9   6 -14    9.38    6.69
   9  -6 -14   -2.61    8.84
  -9   6  14    5.97    7.05
  -9   6 -15    4.59    7.47
  -9  -6 -15   26.12   11.66
   9   6 -15   24.85   12.04
   9  -6 -15   34.34   13.18
  -9   6  15   35.78   14.48
  -9   6 -16   63.25   23.34
  -9  -6 -16   90.81   13.22
   9   6 -16   61.31   33.32
   9  -6 -16   70.41   25.21
  -9   6  16   63.78   30.36
  -9  -7   0  121.49   11.13
   9  -7   0  125.21    7.88
   9   7   0  113.90   12.29
  -9   7   0  122.49   18.75
  -9  -7  -1   66.32   22.79
  -9  -7   1   53.30   23.88
   9  -7  -1   60.91    8.33
   9  -7   1   83.70    9.07
   9   7   1   58.45    6.49
   9   7  -1   60.31    5.43
  -9   7  -1   62.30    6.42
  -9   7   1   67.73   11.28
  -9  -7  -2  286.35   13.03
  -9  -7   2  274.52   12.85
   9  -7  -2  276.14    9.13
   9  -7   2  293.27   17.90
  -9   7  -2  280.27   10.80
   9   7   2  256.94    8.11
   9   7  -2  274.79   16.91
  -9   7  -2  258.32   17.02
  -9   7   2  257.53   18.92
  -9   7  -3    4.83    3.60
  -9  -7  -3   16.45    9.20
  -9  -7   3   11.62    3.48
   9  -7  -3    5.88    4.28
  -9   7  -3    5.22    5.49
   9   7  -3   12.18    3.34
  -9   7  -3    7.27    3.93
  -9   7   3   19.33    8.49
  -9   7  -4  180.96   17.01
  -9  -7  -4  196.28   14.53
  -9  -7   4  173.82   12.69
  -9   7  -4  202.42   13.09
   9   7  -4  174.27   15.45
  -9   7   4  190.50   13.44
  -9   7  -5    4.03    3.99
  -9  -7  -5    2.31    4.64
  -9  -7   5    7.55    7.83
  -9   7  -5   -0.21    3.12
   9   7  -5   -1.84    3.86
  -9   7   5   -4.07    5.26
  -9   7  -6   72.94   11.32
  -9  -7  -6   65.90   21.05
  -9  -7   6   70.57    7.59
  -9   7  -6   73.65    9.55
   9   7  -6   72.23   18.79
  -9   7   6   77.40   26.65
  -9   7  -7   29.12    8.98
  -9  -7  -7   21.18   16.98
  -9  -7   7   24.22    8.75
  -9   7  -7   27.45    5.40
   9   7  -7   39.62   10.48
  -9   7   7   32.68   24.14
  -9   7  -8  130.73    9.37
  -9  -7  -8  158.40   10.13
  -9  -7   8  103.78    7.51
  -9   7  -8  101.34   13.68
   9   7  -8  134.22   11.33
  -9   7   8  143.68   13.57
  -9   7  -9   42.75   17.39
  -9  -7  -9   35.88   13.41
  -9  -7   9   54.34    7.29
  -9   7  -9   55.24   10.96
   9   7  -9   37.02   16.23
  -9   7   9   35.60   16.89
  -9   7 -10   90.59   11.20
  -9  -7 -10  133.56   22.28
  -9  -7  10   83.07   17.12
  -9   7 -10  107.03   12.95
   9   7 -10   87.45   35.81
  -9   7  10  105.70   10.58
  -9   7 -11   53.53   21.42
  -9  -7 -11   50.56   20.46
  -9   7 -11   52.78   17.44
   9   7 -11   48.98   19.71
   9  -7 -11   45.37   19.29
  -9   7  11   80.27   24.09
  -9   7 -12   55.52   25.09
  -9  -7 -12   60.68   12.82
  -9   7 -12   49.41   17.11
   9   7 -12   43.23   17.21
   9  -7 -12   48.94   11.14
  -9   7  12   65.01   23.09
  -9   7 -13   22.68   17.90
  -9  -7 -13   41.83    9.96
   9   7 -13   30.17    9.75
   9  -7 -13   36.02   13.84
  -9   7  13   64.86   25.58
  -9   7 -14   29.82   13.39
  -9  -7 -14   28.64   14.60
   9   7 -14   31.07   15.38
   9  -7 -14   28.61   12.52
  -9   7  14   32.05   16.63
  -9   7 -15    2.51    5.94
  -9  -7 -15    3.04    7.06
   9   7 -15   -1.82    7.66
   9  -7 -15    1.80    8.70
  -9   7  15    1.82    5.74
  -9   7 -16   13.75    8.97
  -9  -7 -16    6.29    5.97
   9   7 -16   11.48    9.36
   9  -7 -16   12.42   10.00
  -9   7  16   13.41    8.82
   9   7  16   11.09    3.85
  -9  -8   0    2.79    3.89
   9  -8   0    1.60    1.78
   9   8   0    3.99    2.06
  -9   8   0   -0.92    4.27
  -9  -8  -1   33.31   14.69
  -9  -8   1   36.90   18.04
   9  -8  -1   30.81   11.97
   9  -8   1   41.85   11.97
  -9   8  -1   49.77   19.49
   9   8   1   48.54    5.38
   9   8  -1   39.66    4.53
  -9   8  -1   43.89   16.11
  -9   8   1   45.66   18.42
  -9  -8  -2   76.75   14.35
  -9  -8   2   81.53   16.90
   9  -8  -2   79.45    9.85
  -9   8  -2   81.67    5.83
   9   8   2   87.25    5.22
   9   8  -2   74.67    7.08
  -9   8  -2   86.66    9.85
  -9   8   2   84.67   18.87
  -9  -8  -3   46.46   20.88
  -9  -8   3   57.96   25.84
   9  -8   3   46.61   17.07
  -9   8  -3   65.36   10.60
   9   8  -3   53.05    5.09
  -9   8  -3   63.65    5.32
  -9   8   3   65.37   14.40
  -9  -8  -4    4.07    3.69
  -9  -8   4   -2.45    6.31
   9  -8   4   -0.52    4.04
  -9   8  -4    1.09    2.28
   9   8  -4    2.72    1.75
  -9   8  -4    2.59    0.69
  -9   8   4   -0.93    4.15
  -9   8  -5   92.37    8.63
  -9  -8  -5   82.61   28.25
  -9  -8   5  104.37   25.67
  -9   8  -5  119.21    7.86
   9   8  -5   80.33   13.35
  -9   8   5   97.24    8.45
  -9   8  -6  488.41   12.58
  -9  -8  -6  412.16   25.36
  -9  -8   6  480.14   12.69
  -9   8  -6  479.68   11.13
   9   8  -6  473.37   11.20
  -9   8   6  502.33   14.32
  -9   8  -7   28.76   11.04
  -9  -8  -7   54.01   23.17
  -9  -8   7   17.33   10.62
  -9   8  -7   25.37   11.80
   9   8  -7   31.18   13.50
  -9   8   7   33.75   15.81
  -9   8  -8  139.61   14.86
  -9  -8  -8  136.19   13.24
  -9  -8   8  171.00   14.30
  -9   8  -8  145.95   20.27
   9   8  -8  138.57   12.32
  -9   8   8  163.92   22.11
  -9   8  -9   42.79   16.88
  -9  -8  -9   25.58   15.91
  -9  -8   9   29.42    9.92
  -9   8  -9   37.33   10.84
   9   8  -9   38.58   14.99
  -9   8   9   31.04   20.36
  -9   8 -10  104.80   16.21
  -9  -8 -10  106.26   36.53
  -9  -8  10   95.97   19.10
  -9   8 -10  108.29   15.13
   9   8 -10   94.11   24.89
  -9   8  10   97.57   31.47
  -9   8 -11   35.86   13.66
  -9  -8 -11   17.99    8.75
  -9  -8  11   14.46    8.16
  -9   8 -11   30.53    8.86
   9   8 -11   26.58   10.31
  -9   8  11   30.42    6.47
  -9   8 -12   16.46   10.69
  -9  -8 -12   17.11   10.20
  -9   8 -12   17.62    4.81
   9   8 -12   11.72   11.05
   9  -8 -12   41.99   10.28
  -9   8  12   25.56    5.94
  -9   8 -13   12.23   10.03
  -9  -8 -13   -1.98    7.49
   9   8 -13    4.30    5.36
   9  -8 -13    6.44    5.58
  -9   8  13   -0.17    6.49
  -9   8 -14    5.41    7.39
  -9  -8 -14   13.09   10.12
   9   8 -14    8.60    6.92
   9  -8 -14    5.84    6.42
  -9   8  14    6.59    6.24
  -9   8 -15    8.78    5.30
  -9  -8 -15   14.37    7.40
   9   8 -15   17.21   11.54
   9  -8 -15    7.04    9.64
  -9   8  15   10.94    5.83
  -9  -9   0   22.99    8.26
   9  -9   0   17.00    6.22
   9   9   0   15.34    4.36
  -9   9   0   23.76   13.98
  -9  -9  -1   78.97   10.73
  -9  -9   1   62.46   25.02
   9  -9  -1   57.54   11.17
   9  -9   1   83.94   12.00
  -9   9  -1   65.23   10.97
   9   9   1   66.02   10.18
   9   9  -1   70.84    6.98
  -9   9  -1   55.60    7.17
  -9   9   1   78.42    8.76
  -9  -9  -2  375.62   19.19
  -9  -9   2  381.33   15.08
   9  -9  -2  397.89   14.74
   9  -9   2  398.39   13.00
  -9   9  -2  435.02   15.10
   9   9  -2  364.63   21.68
  -9   9  -2  382.64   16.69
  -9   9   2  405.18   26.43
  -9  -9  -3   19.77    9.25
  -9  -9   3   34.37   10.44
   9  -9   3   20.29    5.35
  -9   9  -3   24.16   10.68
   9   9  -3   19.45    5.91
  -9   9  -3   22.38    7.69
  -9   9   3   23.43    6.78
  -9  -9  -4    9.78    6.81
  -9  -9   4    7.46    5.89
   9  -9   4    6.91    3.97
  -9   9  -4    7.03    5.43
   9   9  -4    3.97    3.59
  -9   9  -4    3.54    1.44
  -9   9   4    1.06    1.97
  -9  -9  -5   17.76   11.10
  -9  -9   5   32.46    7.02
   9  -9   5   29.45    5.71
  -9   9  -5   30.78    9.24
   9   9  -5   40.85    7.48
  -9   9   5   23.55    9.05
  -9  -9  -6   13.94    7.82
  -9  -9   6    9.96    5.22
   9  -9   6    7.01    3.91
  -9   9  -6   14.88    5.85
   9   9  -6   10.82    7.48
  -9   9   6   23.23    9.24
  -9   9  -7   83.80   14.98
  -9  -9  -7   74.17   30.39
  -9  -9   7   62.33   19.21
  -9   9  -7   69.72   13.99
   9   9  -7   53.91   18.00
  -9   9   7   66.84   28.15
  -9   9  -8   -0.24    5.96
  -9  -9  -8   -2.13    7.77
  -9  -9   8    1.58    4.43
  -9   9  -8    4.78    4.68
   9   9  -8    2.77    4.94
  -9   9   8    3.38    2.83
  -9   9  -9   23.67    8.74
  -9  -9  -9   25.56   17.82
  -9  -9   9   27.09   10.07
  -9   9  -9   15.01    8.19
   9   9  -9   29.19   13.91
  -9   9   9   21.78   10.72
  -9   9 -10   42.28   20.60
  -9  -9 -10   72.49   32.59
  -9  -9  10   51.15   16.81
  -9   9 -10   52.10   18.54
   9   9 -10   62.61   18.89
  -9   9  10   77.73   21.36
  -9   9 -11   56.34   13.40
  -9  -9 -11   51.67   19.87
  -9  -9  11   42.84    8.91
  -9   9 -11   49.76   21.28
   9   9 -11   41.35   19.69
  -9   9  11   27.45    9.92
  -9   9 -12   -0.81    6.28
  -9  -9 -12   -2.76    7.96
  -9   9 -12   -0.85    4.21
   9   9 -12    1.90    6.72
  -9   9  12    7.74    5.86
  -9   9 -13   20.28    9.38
  -9  -9 -13   17.28    8.05
   9   9 -13   22.37    7.62
   9  -9 -13   25.16    9.69
  -9   9  13   28.05   11.84
  -9   9 -14   48.14   23.20
  -9  -9 -14   58.70   11.88
   9   9 -14   54.97   24.14
   9  -9 -14   71.48   10.58
  -9   9  14   51.99   37.85
  -9 -10   0  113.99   35.54
   9 -10   0  103.98    9.75
   9  10   0  110.86    9.49
  -9  10   0   98.89    6.83
  -9 -10  -1  205.57   10.92
  -9 -10   1  197.90   18.43
   9 -10  -1  198.53    7.17
   9 -10   1  213.76    7.28
  -9  10  -1  177.43    8.31
   9  10   1  187.92   12.32
   9  10  -1  201.26    6.91
  -9  10  -1  191.39    9.03
  -9  10   1  196.71   11.53
  -9 -10  -2   87.20   31.10
  -9 -10   2   85.06   23.61
   9 -10  -2   85.05    8.88
   9 -10   2   92.17   12.12
  -9  10  -2   88.70   17.94
   9  10  -2  102.79   12.75
  -9  10  -2   93.35   11.42
  -9  10   2  107.65   10.10
  -9 -10  -3   45.47   16.23
  -9 -10   3   38.20    7.42
   9 -10   3   47.03   16.66
  -9  10  -3   35.55   15.23
   9  10  -3   38.32   14.45
  -9  10  -3   30.90    9.91
  -9  10   3   44.35   19.40
  -9 -10  -4  133.29   22.13
  -9 -10   4  148.47   17.14
   9 -10   4  135.93   27.85
  -9  10  -4  122.49   15.90
   9  10  -4  166.98   13.48
  -9  10   4  135.56   16.28
  -9 -10  -5   10.73    8.51
  -9 -10   5   22.39    7.39
   9 -10   5    8.29    7.75
  -9  10  -5   14.01    4.01
   9  10  -5    7.67    3.85
  -9  10   5    5.92    7.71
  -9 -10  -6   16.10   13.99
  -9 -10   6   19.55    6.98
   9 -10   6   11.07    4.33
  -9  10  -6   18.82    5.80
   9  10  -6   19.48    8.38
  -9  10   6   14.71   10.26
  -9 -10  -7    7.18    4.90
  -9 -10   7    8.82    5.08
   9 -10   7    6.99    8.25
  -9  10  -7    7.54    3.62
   9  10  -7    8.56    5.99
  -9  10   7    0.54    5.41
  -9 -10  -8   16.40    8.83
  -9 -10   8   19.98    6.26
   9 -10   8   15.13    6.39
  -9  10  -8   18.50    9.53
   9  10  -8   17.68    5.35
  -9  10   8   21.41    8.03
  -9 -10  -9   68.14   13.94
  -9 -10   9   40.19   17.59
   9 -10   9   57.40   14.28
  -9  10  -9   40.34   14.83
   9  10  -9   51.29   22.54
  -9  10   9   43.89   14.07
  -9 -10 -10   23.45   18.25
  -9 -10  10   35.48   12.45
   9 -10  10   30.48   11.07
  -9  10 -10   24.52    7.56
   9  10 -10   24.94   12.88
  -9  10  10   35.29   10.74
  -9  10 -11   80.89   26.90
  -9 -10 -11   64.25   39.94
  -9 -10  11   56.57   29.85
  -9  10 -11   87.32   26.01
   9  10 -11   74.40   31.65
  -9  10  11   85.87   31.36
  -9  10 -12   50.25   19.06
  -9 -10 -12   50.04   11.81
  -9  10 -12   38.77   11.58
   9  10 -12   48.57   28.57
  -9  10  12   89.11   23.68
  -9  10 -13   12.03   11.24
  -9 -10 -13    2.04    3.90
  -9  10 -13   11.91    7.89
   9  10 -13    7.48    8.62
   9 -10 -13   22.20   12.72
  -9  10  13   17.45    5.47
  -9 -11   0   25.29    8.97
   9 -11   0   12.01    7.11
   9  11   0   19.01    4.94
  -9  11   0    9.16    5.69
  -9 -11  -1  101.73   17.44
  -9 -11   1   84.39   27.48
   9 -11  -1   93.62   11.30
   9 -11   1   81.89   11.68
  -9  11  -1   78.45   27.48
   9  11  -1   84.65   16.16
  -9  11  -1   81.25   10.62
  -9  11   1   80.96   21.77
  -9 -11  -2   17.84    8.75
  -9 -11   2   15.52    9.76
   9 -11   2   17.63    4.58
  -9  11  -2   23.95    8.95
   9  11  -2   37.52    6.33
  -9  11  -2   29.69   13.34
  -9  11   2   20.39    7.16
  -9 -11  -3    2.25    3.66
  -9 -11   3    8.88    5.23
   9 -11   3    3.04    4.73
  -9  11  -3    2.24    3.37
   9  11  -3   -1.05    4.01
  -9  11  -3    4.25    3.82
  -9  11   3    6.45    4.74
  -9 -11  -4   58.89   13.90
  -9 -11   4   79.82   27.59
   9 -11   4   76.07   12.45
  -9  11  -4   71.65    8.60
   9  11  -4   69.68   10.16
  -9  11   4   65.88   24.67
  -9 -11  -5   77.32    8.63
  -9 -11   5   65.84   17.66
   9 -11   5   80.34   11.25
  -9  11  -5   49.20   17.82
   9  11  -5   53.34   10.34
  -9  11   5   53.29   24.97
  -9 -11  -6   11.49    8.20
  -9 -11   6    8.25    5.34
   9 -11   6    9.19    6.58
  -9  11  -6    5.43    6.58
   9  11  -6    7.80    4.54
  -9  11   6    6.36    7.46
  -9 -11  -7   10.63    5.00
  -9 -11   7    8.66    4.85
   9 -11   7    5.45    4.80
  -9  11  -7   10.55    5.40
   9  11  -7   16.12   12.25
  -9  11   7   17.17   13.09
  -9 -11  -8   67.94   24.74
  -9 -11   8   62.69   22.19
   9 -11   8   71.11   29.27
  -9  11  -8   74.10    7.38
   9  11  -8  100.70   15.35
  -9  11   8   78.97   22.52
  -9 -11   9   11.00    5.54
   9 -11   9   13.75    5.88
  -9  11  -9   10.60    4.19
   9  11  -9    5.45    5.00
  -9  11   9   13.77    7.43
  -9 -11 -10    2.49    7.27
  -9 -11  10    8.07    5.28
   9 -11  10    6.36    6.85
  -9  11 -10    8.69    6.15
   9  11 -10    4.72    4.63
  -9  11  10    6.47    6.51
  -9 -11 -11   31.18   14.70
  -9 -11  11   32.19   11.42
   9 -11  11   22.12    7.77
  -9  11 -11   21.56    9.39
   9  11 -11   14.48    7.04
  -9  11  11   36.24   13.09
  -9 -11 -12    7.28    9.59
  -9 -11  12   10.02    5.34
   9 -11  12   10.37    7.31
  -9  11 -12    3.98    4.24
   9  11 -12   10.89    7.18
  -9  11  12    9.08    5.59
  -9 -12   0   34.60   16.57
   9 -12   0   32.72   11.50
   9  12   0   25.41    6.36
  -9  12   0   26.74    9.64
  -9 -12  -1   14.33    7.93
  -9 -12   1   16.60    9.57
   9 -12  -1   18.34    5.71
   9 -12   1   20.25   11.07
  -9  12  -1   18.57    8.44
   9  12  -1   13.47    4.79
  -9  12  -1   19.48    8.97
  -9  12   1   23.22    6.59
  -9 -12  -2    9.53    6.44
  -9 -12   2    6.48    8.75
   9 -12   2   12.03    8.68
  -9  12  -2    8.10    7.36
   9  12  -2   11.29    4.26
  -9  12  -2    9.66    6.54
  -9  12   2   14.30    6.29
  -9 -12  -3   81.99   13.83
  -9 -12   3   99.28   12.20
   9 -12   3   89.59    7.23
  -9  12  -3  103.87   23.54
   9  12  -3  102.12    9.52
  -9  12   3   91.90   13.93
  -9 -12  -4   63.61   22.47
  -9 -12   4   50.33   30.87
   9 -12   4   57.16   17.90
  -9  12  -4   62.05   14.37
   9  12  -4   52.89   11.70
  -9  12   4   60.87   16.42
  -9 -12  -5   88.63   30.60
  -9 -12   5  110.88   10.66
   9 -12   5  105.52   12.81
  -9  12  -5  102.39   19.13
   9  12  -5  114.23    7.38
  -9  12   5  140.33   16.04
  -9 -12  -6   15.28    6.14
  -9 -12   6   32.80   10.55
   9 -12   6   29.78   10.68
  -9  12  -6   20.33    7.07
   9  12  -6   18.38    8.05
  -9  12   6   27.53   13.84
  -9 -12  -7  138.91   25.26
  -9 -12   7  141.45   10.76
   9 -12   7  136.11   14.28
  -9  12  -7  129.42   16.23
   9  12  -7  125.17   26.20
  -9  12   7  138.28    8.20
  -9 -12  -8   53.38   22.59
  -9 -12   8   56.28   18.21
   9 -12   8   45.11   15.03
  -9  12  -8   41.58   19.49
   9  12  -8   47.58   21.58
  -9  12   8   63.00   27.54
  -9 -12  -9  153.60   11.34
  -9 -12   9  143.76   30.38
   9 -12   9  172.87   20.63
  -9  12  -9  166.04   10.17
   9  12  -9  169.21   14.88
  -9  12   9  175.81   32.35
  -9 -12 -10   19.64   10.82
  -9 -12  10    9.12    4.37
   9 -12  10   18.32    6.37
   9  12 -10   17.81   10.12
  -9  12  10   19.55   13.42
  -9 -12 -11   24.49    8.76
  -9 -12  11   12.01    6.80
   9 -12  11    8.55    9.63
  -9  12 -11    7.37    5.71
   9  12 -11   15.08   10.96
  -9  12  11    4.46    5.43
  -9 -13   0   31.53   16.75
  -9  13   0   40.53   15.53
  -9 -13  -1   54.06   22.52
  -9 -13   1   65.02   25.79
   9 -13   1   68.28    9.07
  -9  13  -1   57.90   12.68
   9  13  -1   55.93   15.85
  -9  13  -1   56.42   17.13
  -9  13   1   58.82   21.07
  -9 -13  -2   15.32   16.69
  -9 -13   2    6.83    6.06
   9 -13   2   10.43    6.16
  -9  13  -2   12.55    4.38
   9  13  -2   21.24    4.60
  -9  13   2   13.47    6.84
  -9 -13  -3    0.32    3.99
  -9 -13   3    8.47    8.12
   9 -13   3    6.27    4.42
  -9  13  -3    3.82    3.66
   9  13  -3    3.49    3.16
  -9  13   3    2.28    2.36
  -9 -13  -4   17.32    7.47
  -9 -13   4    1.01    3.78
   9 -13   4    7.58    5.79
  -9  13  -4    2.98    3.71
   9  13  -4    4.13    2.54
  -9  13   4    8.07    4.26
  -9 -13  -5   71.98   31.67
  -9 -13   5   81.04   10.34
   9 -13   5   53.75   16.63
  -9  13  -5   51.93   16.71
   9  13  -5   71.05   19.98
  -9  13   5   80.92    9.90
  -9 -13  -6    6.98    4.70
  -9 -13   6    7.00    6.33
   9 -13   6    6.41    3.84
  -9  13  -6   22.04    9.26
   9  13  -6    0.88    2.92
  -9  13   6    5.86    3.82
  -9 -13  -7    9.06    9.78
  -9 -13   7    5.91    5.27
   9 -13   7    3.16    5.42
  -9  13  -7    7.97    5.85
   9  13  -7   14.43    5.02
  -9  13   7    5.36    2.18
  -9 -13  -8    6.08    4.55
  -9 -13   8    0.21    5.24
   9 -13   8    8.50    5.44
  -9  13  -8    3.30    3.60
   9  13  -8    2.69    3.13
  -9  13   8    1.43    2.31
  -9 -13  -9    4.83    8.39
  -9 -13   9    7.94    5.99
   9 -13   9    5.10    7.32
  -9  13  -9    0.32    2.62
   9  13  -9    4.83    6.39
  -9  13   9    5.97    4.02
  -9 -13 -10    4.38    9.18
  -9 -13  10    2.20    6.16
   9 -13  10    1.68    2.77
  -9  13 -10    2.86    4.48
   9  13 -10   -8.32    5.86
  -9  13  10   -2.17    8.41
  -9 -14   0   17.32   15.32
   9 -14   0   17.05    4.38
  -9  14   0   15.26    5.31
  -9 -14  -1   73.22   32.92
  -9 -14   1   55.23   29.14
   9 -14   1   60.84   16.62
  -9  14  -1   68.02   29.24
  -9  14   1   65.57   18.14
  -9 -14  -2   17.80    7.93
  -9 -14   2   17.46    7.92
   9 -14   2   27.04    7.57
  -9  14  -2   17.74    5.29
   9  14  -2   17.72    7.69
  -9  14   2   17.59    5.95
  -9 -14  -3   80.36   21.64
  -9 -14   3   49.96   25.09
   9 -14   3   77.33   19.68
  -9  14  -3   58.51   25.80
   9  14  -3   68.20   24.46
  -9  14   3   71.00   24.71
  -9 -14  -4   12.94    9.67
  -9 -14   4    3.88    5.45
   9 -14   4   10.03    6.87
  -9  14  -4    6.31    3.04
   9  14  -4   10.00    5.03
  -9  14   4   20.17    8.24
  -9 -14  -5   -6.08    7.97
  -9 -14   5    2.66    5.57
   9 -14   5    8.08    9.80
  -9  14  -5    6.27    4.66
   9  14  -5    6.03    4.52
  -9  14   5    6.78    5.09
  -9 -14  -6   11.65    8.84
  -9 -14   6   13.57   10.65
   9 -14   6    6.05    5.85
  -9  14  -6    6.86    7.44
   9  14  -6    6.18    3.42
  -9  14   6    5.58    5.62
  -9 -14  -7    9.03    5.65
  -9 -14   7    5.80    3.85
   9 -14   7    4.15    7.03
  -9  14  -7   -2.49    4.57
   9  14  -7   -0.60    3.48
  -9  14   7    7.40    4.88
  -9 -14  -8    7.51    6.85
  -9 -14   8    6.26    6.67
   9 -14   8    2.27    4.44
  -9  14  -8    0.74    3.37
   9  14  -8   14.89    9.63
  -9  14   8    5.86    6.33
  -9 -15   0   10.51    9.86
  -9 -15  -1   12.68   13.53
   9 -15   1   14.08   13.52
  -9  15  -1   18.05    6.24
  -9  15   1   19.90    7.70
  -9 -15  -2   27.93   12.81
  -9 -15   2   40.55   17.30
   9 -15   2   29.15   14.86
  -9  15  -2   39.87   13.17
  -9  15   2   35.71   13.03
  -9 -15  -3    7.56   11.03
  -9 -15   3   14.45    8.40
   9 -15   3   10.34    9.30
  -9  15  -3   11.02    9.48
   9  15  -3   20.44    8.92
  -9  15   3   20.35    9.99
  -9 -15  -4   11.43    6.57
  -9 -15   4   20.36    9.19
   9 -15   4   13.22    7.51
  -9  15  -4   14.68   10.28
   9  15  -4   15.13    7.30
  -9  15   4   10.36    5.65
  -9 -15  -5   37.08   12.15
  -9 -15   5   27.58   10.76
   9 -15   5   19.42   12.71
  -9  15  -5   23.78    9.19
   9  15  -5   22.40    5.29
  -9  15   5   17.32    4.80
 -10   0   0   17.39    3.96
  10   0   0   10.75    6.05
 -10   0   1  202.27   12.11
 -10   0  -1  174.29   10.91
  10   0   1  178.16   10.01
  10   0  -1  194.89   16.70
 -10   0   2  453.17   15.76
 -10   0  -2  452.45   16.66
  10   0  -2  448.67   22.89
 -10   0   3  112.24    5.71
 -10   0  -3  122.34    7.92
  10   0  -3  111.79    7.78
 -10   0  -4   -1.64    4.25
  10   0  -4   -4.30    4.47
 -10   0  -5    3.19    4.35
  10   0  -5    4.72    5.55
 -10   0  -6  143.80   21.93
  10   0  -6  128.24   10.52
 -10   0  -7    0.14    2.88
  10   0  -7   -4.22    6.67
 -10   0  -8   29.36   10.52
  10   0  -8   26.30    8.70
 -10   0  -9    3.58    2.70
  10   0  -9    7.52    3.22
 -10   0 -10  374.02   28.90
  10   0 -10  398.45   12.86
 -10   0 -11    9.23    5.80
  10   0 -11   16.82    8.14
 -10   0 -12    7.79    5.36
  10   0 -12    5.96    4.12
 -10   0 -13   34.74   10.44
  10   0 -13   49.94   19.77
 -10   0 -14   25.97   13.84
  10   0 -14   26.77    9.35
 -10   0 -15   13.01    4.66
  10   0 -15   22.17   11.41
 -10   0 -16    7.39    5.98
  10   0 -16    1.25    7.28
 -10   0 -17    7.99    7.73
  10   0 -17   18.42    9.87
 -10   1   0  143.77    7.58
 -10  -1   0  149.15    8.33
  10   1   0  144.06    8.64
  10  -1   0  135.73   11.23
 -10   1   1   45.48    6.56
 -10   1  -1   34.63    5.01
 -10  -1  -1   38.62   13.36
 -10  -1   1   45.20    3.85
  10   1   1   42.64    3.23
  10   1  -1   45.13    5.19
  10  -1  -1   45.96   15.21
  10  -1   1   41.46    3.08
 -10   1   2  302.10   11.08
 -10   1  -2  262.06   15.45
 -10  -1  -2  302.85   12.45
 -10  -1   2  269.99   12.06
  10   1  -2  294.88   13.11
  10  -1  -2  265.88   11.94
  10  -1   2  281.63   11.16
 -10   1  -3  267.15   15.10
 -10  -1  -3  293.67   12.49
 -10  -1   3  282.89   10.52
  10   1  -3  279.25   12.21
  10  -1  -3  273.18   13.50
  10  -1   3  274.10    9.34
 -10   1  -4  163.80    9.51
 -10  -1  -4  119.21    9.67
 -10  -1   4  156.47    7.63
  10   1  -4  130.99    8.99
  10  -1  -4  156.41   15.65
 -10   1  -5   39.86   14.83
 -10  -1  -5   47.01   21.69
  10   1  -5   64.73   12.86
  10  -1  -5   38.54   15.20
 -10   1  -6   40.87   12.14
 -10  -1  -6   54.53   19.92
  10   1  -6   55.58    8.33
  10  -1  -6   42.59   18.43
 -10   1  -7  111.65    8.69
 -10  -1  -7  113.56    7.29
  10   1  -7  137.20   12.69
  10  -1  -7  127.43    9.86
 -10   1  -8   83.32   12.46
 -10  -1  -8   73.44   22.26
  10   1  -8   84.13   23.46
  10  -1  -8   58.86   18.83
 -10   1   8   79.32   27.14
 -10   1  -9  148.81    8.70
 -10  -1  -9  143.51    8.63
  10   1  -9  123.53   32.33
  10  -1  -9  144.31   17.14
 -10   1   9  159.16   26.46
 -10   1 -10   89.99   32.99
 -10  -1 -10   88.99   23.36
  10   1 -10   93.00    8.82
  10  -1 -10  124.24   16.75
 -10   1  10   94.10   28.99
 -10   1 -11   15.14    8.56
 -10  -1 -11   -1.46    6.27
  10   1 -11    5.66    4.34
  10  -1 -11   10.30   10.49
 -10   1  11    9.87    6.47
 -10   1 -12   18.53    5.24
 -10  -1 -12   19.42    7.81
  10   1 -12   18.28    9.64
  10  -1 -12   36.95   14.97
 -10   1  12   28.16    8.87
 -10   1 -13   10.53    4.52
 -10  -1 -13    3.78    4.86
  10   1 -13   11.30    8.29
  10  -1 -13    4.78    7.21
 -10   1  13    4.66    8.48
 -10   1 -14   66.10   14.34
 -10  -1 -14   54.15   13.55
  10   1 -14   47.59   13.08
  10  -1 -14   54.73    9.99
 -10   1  14   51.62   19.12
 -10   1 -15   27.97   11.61
 -10  -1 -15   39.79   12.01
  10   1 -15   35.23   13.49
  10  -1 -15   44.28   14.12
 -10   1  15   28.67   12.22
 -10   1 -16   44.65   22.06
 -10  -1 -16   47.46   17.79
  10   1 -16   43.90   12.81
  10  -1 -16   59.58   22.90
 -10   1  16   47.67   18.85
 -10   1 -17    7.97    4.85
 -10  -1 -17   -0.42    4.89
  10   1 -17   -4.19   10.03
  10  -1 -17    8.33    6.06
 -10   2   0  174.16    8.59
 -10  -2   0  171.64    9.50
  10   2   0  161.32    7.64
 -10   2   1  157.94    8.17
 -10   2  -1  162.45   12.72
 -10  -2  -1  162.03    9.35
 -10  -2   1  158.46    8.56
  10   2  -1  150.00   13.34
  10  -2  -1  162.73   11.14
 -10   2   2   14.52    4.02
 -10   2  -2   14.34    4.93
 -10  -2  -2   11.00    6.09
 -10  -2   2   19.10    6.17
  10   2  -2   16.63    5.27
  10  -2  -2   15.96    6.59
 -10   2  -3   67.22   13.25
 -10  -2  -3   75.35    9.78
 -10  -2   3   59.65    7.63
  10   2  -3   75.10    8.88
  10  -2  -3   64.64    7.35
 -10   2  -4  149.83   11.03
 -10  -2  -4  138.72    9.72
 -10  -2   4  158.88    8.95
  10   2  -4  130.30    9.19
  10  -2  -4  151.84   12.83
 -10   2  -5   40.31   13.91
 -10  -2  -5   59.34    8.38
 -10  -2   5   38.28    7.05
  10   2  -5   39.08   12.11
  10  -2  -5   55.17   11.22
 -10   2   5   53.22   16.65
 -10   2  -6   16.88    6.28
 -10  -2  -6   13.59    4.00
  10   2  -6   10.31    4.05
  10  -2  -6    3.40   11.32
 -10   2   6   17.58    5.25
 -10   2  -7   80.10   16.02
 -10  -2  -7   88.66   18.26
  10   2  -7   85.83    8.21
  10  -2  -7   95.05    9.30
 -10   2   7  105.76   20.47
 -10   2  -8   67.77   22.87
 -10  -2  -8   89.78    8.78
  10   2  -8   81.81   23.12
  10  -2  -8   75.38   23.72
 -10   2   8   89.86   25.75
 -10   2  -9   57.36   18.28
 -10  -2  -9   58.14   18.14
  10   2  -9   58.16   21.92
  10  -2  -9   46.77    6.17
 -10   2   9   69.00   24.11
 -10   2 -10    9.60    8.09
 -10  -2 -10   18.25    9.30
  10   2 -10   21.59    6.02
  10  -2 -10   12.60    8.20
 -10   2  10   12.67    4.62
 -10   2 -11   67.42   27.32
 -10  -2 -11   53.70   21.05
  10   2 -11   67.64   12.03
  10  -2 -11   33.00    9.15
 -10   2  11   59.43   21.32
 -10   2 -12  115.16    7.92
 -10  -2 -12  138.49   10.61
  10   2 -12  115.83    9.77
  10  -2 -12   91.84   21.83
 -10   2  12   90.92   28.66
 -10   2 -13   71.04   27.53
 -10  -2 -13   69.27   23.18
  10   2 -13   79.22   13.57
  10  -2 -13   65.32   16.38
 -10   2  13   75.49   24.34
 -10   2 -14   -5.13    6.21
 -10  -2 -14    9.64    7.27
  10   2 -14    4.20    5.42
  10  -2 -14    7.14    3.93
 -10   2  14    7.46    5.87
 -10   2 -15   32.27   13.34
 -10  -2 -15   29.23    8.68
  10   2 -15   17.91    7.81
  10  -2 -15   25.56   11.90
 -10   2  15   28.86    7.71
 -10   2 -16   65.59   17.72
 -10  -2 -16   40.90   17.42
  10   2 -16   56.62   26.50
  10  -2 -16   58.08   27.03
 -10   2  16   75.25   23.93
 -10   3   0   29.60    7.10
 -10  -3   0   30.92    8.45
  10   3   0   30.06    5.34
 -10   3   1  134.52    9.66
 -10   3  -1  127.19    7.03
 -10  -3  -1  149.14    9.06
 -10  -3   1  153.15    8.83
  10   3  -1  145.78    7.43
 -10   3   2   12.90    3.91
 -10   3  -2   14.94    4.79
 -10  -3  -2    4.92    4.11
 -10  -3   2   15.65    4.38
  10   3  -2   12.28    4.23
 -10   3  -3  214.99    9.69
 -10  -3  -3  199.32   19.62
 -10  -3   3  229.61    9.65
  10   3  -3  227.09   11.62
 -10   3   3  225.84   12.52
 -10   3  -4  326.31   11.82
 -10  -3  -4  328.42   13.12
 -10  -3   4  340.34   11.36
  10   3  -4  327.82   23.84
  10  -3  -4  321.83   12.65
 -10   3   4  330.48   17.76
 -10   3  -5   50.99    8.96
 -10  -3  -5   35.79   14.26
 -10  -3   5   42.78   10.63
  10   3  -5   45.26   18.43
  10  -3  -5   51.74   24.87
 -10   3   5   57.17   19.28
 -10   3  -6   28.05    9.72
 -10  -3  -6    8.51    5.19
 -10  -3   6   23.14    7.81
  10   3  -6   20.00    6.66
  10  -3  -6   27.96    8.69
 -10   3   6   12.77    6.90
 -10   3  -7   34.78   13.13
 -10  -3  -7   29.23   10.20
  10   3  -7   32.93    5.49
  10  -3  -7   54.44   17.45
 -10   3   7   45.40   14.31
 -10   3  -8  365.68   13.28
 -10  -3  -8  320.91   13.58
  10   3  -8  355.77   14.55
  10  -3  -8  346.23   13.90
 -10   3   8  358.39   15.14
 -10   3  -9   35.71   10.37
 -10  -3  -9   16.13    7.16
  10   3  -9   34.99    7.63
  10  -3  -9   33.81    7.52
 -10   3   9   34.09   14.00
 -10   3 -10  107.38   31.93
 -10  -3 -10  115.37   17.47
  10   3 -10   94.90    9.61
  10  -3 -10  115.50   38.13
 -10   3  10  126.61   38.65
 -10   3 -11   89.75   36.27
 -10  -3 -11  123.44   11.30
  10   3 -11  101.99    9.46
  10  -3 -11   97.07   28.94
 -10   3  11  103.64   18.49
 -10   3 -12   12.25   15.36
 -10  -3 -12   14.22    6.88
  10   3 -12   31.18   14.99
  10  -3 -12   15.86    6.06
 -10   3  12   12.16    7.16
 -10   3 -13  111.70   16.51
 -10  -3 -13   85.77   27.95
  10   3 -13   80.54   29.71
  10  -3 -13  109.03   14.19
 -10   3  13   80.79   20.12
 -10   3 -14    3.91    4.47
 -10  -3 -14    3.21    6.13
  10   3 -14    6.04    7.46
  10  -3 -14   14.87    9.30
 -10   3  14   -2.12    6.29
 -10   3 -15   43.10   18.36
 -10  -3 -15   35.82   13.42
  10   3 -15   33.06   13.47
  10  -3 -15   43.15   17.25
 -10   3  15   32.34   11.43
 -10   3 -16   15.95    7.94
 -10  -3 -16   12.90    8.48
  10   3 -16   16.64    6.34
  10  -3 -16    7.43   12.44
 -10   3  16   29.60   12.15
 -10   4   0   19.52    6.16
 -10  -4   0   21.10    7.87
  10   4   0   18.66    6.25
 -10   4   1  176.37    8.66
 -10   4  -1  167.52    8.90
 -10  -4  -1  158.43   11.69
 -10  -4   1  184.12   18.14
  10   4  -1  165.90    8.84
 -10   4   1  179.96   12.90
 -10   4  -2  238.44    8.78
 -10  -4  -2  251.92   22.06
 -10  -4   2  223.13   17.99
  10  -4  -2  218.25    9.06
  10   4  -2  223.69   12.95
 -10   4   2  237.00   23.57
 -10   4  -3   47.31   13.29
 -10  -4  -3   47.38   12.18
 -10  -4   3   37.38   13.83
  10   4  -3   35.66   11.11
 -10   4   3   58.02   11.29
 -10   4  -4   91.92   10.49
 -10  -4  -4   83.44    6.03
 -10  -4   4   90.80   11.85
  10   4  -4   98.27    6.61
 -10   4   4   86.95    6.74
 -10   4  -5  113.45    6.94
 -10  -4  -5   87.81   17.46
 -10  -4   5  107.98    5.64
 -10   4  -5  111.22    4.59
  10   4  -5   96.44   12.39
 -10   4   5   92.34   11.62
 -10   4  -6  107.89    9.63
 -10  -4  -6  115.57   10.68
 -10  -4   6   97.01    4.64
 -10   4  -6  109.38    3.85
  10   4  -6  118.27   10.86
  10  -4  -6   93.25    9.24
 -10   4   6  109.31    7.68
 -10   4  -7  135.24   16.23
 -10  -4  -7  148.38    9.30
 -10  -4   7  123.71    7.26
  10   4  -7  138.66   14.99
  10  -4  -7  101.05   28.37
 -10   4   7  128.23   23.81
 -10   4  -8   78.45    6.31
 -10  -4  -8   94.39    7.06
  10   4  -8   83.19    8.30
  10  -4  -8   93.92    8.75
 -10   4   8   84.23   26.66
 -10   4  -9   73.18    7.11
 -10  -4  -9   83.21   12.38
  10   4  -9   73.72   24.40
  10  -4  -9   65.71   26.24
 -10   4   9   84.78   35.06
 -10   4 -10  120.62   21.26
 -10  -4 -10  105.06   17.33
  10   4 -10  100.57    7.68
  10  -4 -10  127.99   14.61
 -10   4  10   98.94   12.15
 -10   4 -11   54.78   15.67
 -10  -4 -11   65.06   20.28
  10   4 -11   58.24   15.49
  10  -4 -11   22.25    8.23
 -10   4  11   58.26   17.03
 -10   4 -12    7.61    5.16
 -10  -4 -12   -0.03    4.30
  10   4 -12   27.89    7.51
  10  -4 -12   -0.63    6.99
 -10   4  12    4.06    4.23
 -10   4 -13   68.28   17.21
 -10  -4 -13   66.54   14.16
  10   4 -13   45.65   19.22
  10  -4 -13   57.28   24.23
 -10   4  13   59.12   27.20
 -10   4 -14   75.76   41.44
 -10  -4 -14   68.37   36.04
  10   4 -14   73.42   24.88
  10  -4 -14   86.91   23.24
 -10   4  14   81.87   36.53
 -10   4 -15   10.63    7.73
 -10  -4 -15    3.14    5.27
  10   4 -15   15.93   11.32
  10  -4 -15    8.23   10.30
 -10   4  15    0.50    5.33
 -10   4 -16   -0.05    6.36
 -10  -4 -16    6.23    7.30
  10   4 -16    1.06    5.63
  10  -4 -16   -1.10    8.55
 -10   4  16    4.63    7.87
 -10   5   0  266.11    9.64
 -10  -5   0  274.32   11.85
 -10   5   0  255.68   20.95
 -10   5  -1  217.65    8.33
 -10  -5  -1  188.63    8.79
 -10  -5   1  225.04   10.04
  10  -5  -1  198.24    7.98
  10   5  -1  238.48    8.45
 -10   5   1  212.66   21.68
 -10   5  -2  335.22   11.83
 -10  -5  -2  370.18   15.16
 -10  -5   2  330.67   12.17
  10  -5  -2  343.92   10.87
  10   5  -2  343.75   16.37
 -10   5   2  355.53   14.03
 -10   5  -3    4.66    3.10
 -10  -5  -3    3.88    5.20
 -10  -5   3    4.12    2.44
  10   5  -3    3.95    3.32
 -10   5   3    9.05    5.22
 -10   5  -4  266.80   16.87
 -10  -5  -4  268.16   27.23
 -10  -5   4  268.04   16.47
 -10   5  -4  257.87   16.03
  10   5  -4  247.09   20.80
 -10   5   4  250.59   16.96
 -10   5  -5  294.90   18.88
 -10  -5  -5  276.32   17.94
 -10  -5   5  274.72   16.63
 -10   5  -5  273.68   17.03
  10   5  -5  293.70   22.02
 -10   5   5  252.81   18.91
 -10   5  -6   36.32   13.30
 -10  -5  -6   30.30    9.19
 -10  -5   6   35.04    8.41
 -10   5  -6   27.10    6.29
  10   5  -6   36.07    5.19
 -10   5   6   32.55    9.80
 -10   5  -7  158.58    7.07
 -10  -5  -7  175.30    9.79
 -10  -5   7  153.01   13.56
 -10   5  -7  175.47    6.31
  10   5  -7  165.38   12.90
 -10   5   7  163.95   11.14
 -10   5  -8  103.72    6.27
 -10  -5  -8  127.53   13.62
  10   5  -8  134.94   12.44
  10  -5  -8  103.58   29.44
 -10   5   8  142.89   23.11
 -10   5  -9   17.75    9.95
 -10  -5  -9   33.39   13.89
  10   5  -9   21.66   10.63
  10  -5  -9   34.62   11.81
 -10   5   9   42.45   14.59
 -10   5 -10  157.56   26.06
 -10  -5 -10  146.26    8.99
  10   5 -10  125.46    8.20
  10  -5 -10  156.31   13.91
 -10   5  10  148.93   25.30
 -10   5 -11   74.26   30.40
 -10  -5 -11   69.53   29.55
  10   5 -11   56.54   24.52
  10  -5 -11   77.45   11.68
 -10   5  11   92.43   31.28
 -10   5 -12   58.23   19.87
 -10  -5 -12   34.04   12.79
  10   5 -12   57.58    8.88
  10  -5 -12   43.26   22.13
 -10   5  12   52.65   24.14
 -10   5 -13   18.03    7.80
 -10  -5 -13   26.59   11.21
  10   5 -13   21.19   10.14
  10  -5 -13    5.82    7.08
 -10   5  13   25.26   12.03
 -10   5 -14   79.04   18.56
 -10  -5 -14   92.17   44.57
  10   5 -14   99.93   35.94
  10  -5 -14   93.14   34.74
 -10   5  14  102.81   26.09
 -10   5 -15    8.92    6.15
 -10  -5 -15    6.74    8.52
  10   5 -15   10.26    7.68
  10  -5 -15    6.96    5.92
 -10   5  15    6.41    4.07
 -10   5 -16   10.84    5.72
 -10  -5 -16    3.94    6.60
  10   5 -16    7.38    8.11
  10  -5 -16   13.36    8.61
 -10   5  16    9.51    5.49
 -10  -6   0    4.57    4.52
  10  -6   0    8.25    3.90
  10   6   0    4.66    2.34
 -10   6   0    2.81    5.83
 -10   6  -1  231.98   19.09
 -10  -6  -1  243.47   16.73
 -10  -6   1  238.13   15.91
  10  -6  -1  235.04   14.03
  10   6  -1  219.71   14.42
 -10   6  -1  240.70   16.62
 -10   6   1  234.27   15.67
 -10   6  -2    4.59    3.33
 -10  -6  -2   -2.64    5.34
 -10  -6   2    7.47    5.05
  10   6  -2    7.79    4.51
 -10   6   2    7.34    7.56
 -10   6  -3   72.22   15.02
 -10  -6  -3   59.69   24.85
 -10  -6   3   72.17    7.36
  10   6  -3   54.09   10.73
 -10   6   3   56.67   20.51
 -10   6  -4   55.10   18.27
 -10  -6  -4   56.05   18.33
 -10  -6   4   57.82   15.75
 -10   6  -4   61.10    9.96
  10   6  -4   61.93    6.53
 -10   6   4   42.87   17.60
 -10   6  -5    4.38    3.91
 -10  -6  -5    0.91    5.08
 -10  -6   5    5.63    3.48
 -10   6  -5   -0.23    1.51
  10   6  -5    0.87    1.79
 -10   6   5   -3.61    4.96
 -10   6  -6   10.06    5.11
 -10  -6  -6    4.91    3.72
 -10  -6   6    7.55    3.78
 -10   6  -6   10.68    3.54
  10   6  -6    6.33    2.24
 -10   6   6   10.00    6.56
 -10   6  -7    7.21    4.86
 -10  -6  -7    1.55    3.51
 -10  -6   7    6.59    2.50
 -10   6  -7    3.97    3.13
  10   6  -7    3.37    2.11
 -10   6   7    0.13    5.49
 -10   6  -8   88.86   13.66
 -10  -6  -8  109.19   15.54
 -10  -6   8   88.90   15.66
 -10   6  -8  102.72    9.96
  10   6  -8  134.04   17.73
 -10   6   8  111.36   28.52
 -10   6  -9   13.15    9.30
 -10  -6  -9   17.59    9.61
  10   6  -9   13.22    6.45
  10  -6  -9   13.94    8.20
 -10   6   9   17.69    5.54
 -10   6 -10   24.67   13.31
 -10  -6 -10   11.66    8.38
  10   6 -10   14.15    7.05
  10  -6 -10   11.22    4.03
 -10   6  10    9.74    8.46
 -10   6 -11   86.56   30.27
 -10  -6 -11  111.09   34.76
  10   6 -11  119.59   14.40
  10  -6 -11   94.84   30.92
 -10   6  11  104.48    9.84
 -10   6 -12   13.64    5.98
 -10  -6 -12   22.92    6.53
  10   6 -12    8.05    6.26
  10  -6 -12    7.32    4.29
 -10   6  12    6.44    8.17
 -10   6 -13   85.15   29.72
 -10  -6 -13   56.12   25.07
  10   6 -13   48.72   20.52
  10  -6 -13   68.34   18.66
 -10   6  13   56.74   29.44
 -10   6 -14    6.12    6.90
 -10  -6 -14   -6.97    8.45
  10   6 -14    2.80    3.82
  10  -6 -14    7.71    5.85
 -10   6  14    5.41    6.96
 -10   6 -15   27.79   18.57
 -10  -6 -15   11.11   12.75
  10   6 -15   18.04    9.41
  10  -6 -15   12.72   10.29
 -10   6  15   13.72    6.32
 -10  -7   0   29.96    5.32
  10  -7   0   34.15   14.43
 -10   7   0   35.69    8.82
 -10  -7  -1  175.03   10.16
 -10  -7   1  131.75    9.94
  10  -7  -1  152.00   12.36
  10  -7   1  161.65   13.43
  10   7  -1  169.06    6.43
 -10   7  -1  161.40    8.63
 -10   7   1  175.89   21.36
 -10  -7  -2   61.76   19.82
 -10  -7   2   86.95   16.99
  10  -7   2   65.22   19.06
  10   7  -2   74.38   11.87
 -10   7  -2   77.40   13.26
 -10   7   2   70.61    9.93
 -10   7  -3    5.28    3.75
 -10  -7  -3   -4.61    5.20
 -10  -7   3    2.50    4.83
 -10   7  -3    5.90    4.37
  10   7  -3    3.53    3.05
 -10   7   3    7.59    3.67
 -10   7  -4  105.45   16.25
 -10  -7  -4   82.97    6.76
 -10  -7   4  115.91    8.86
 -10   7  -4   99.10   11.79
  10   7  -4   94.62    8.28
 -10   7   4  104.83   21.50
 -10   7  -5   76.75   22.25
 -10  -7  -5   75.37    8.13
 -10  -7   5   85.80    9.41
 -10   7  -5   74.93    5.77
  10   7  -5   81.23   10.23
 -10   7   5   96.57   14.79
 -10   7  -6   14.95    9.35
 -10  -7  -6   12.41    6.26
 -10  -7   6   13.43    5.68
 -10   7  -6   21.01    5.88
  10   7  -6   24.96    9.54
 -10   7   6   22.08    8.04
 -10   7  -7  196.66   20.17
 -10  -7  -7  177.72   23.51
 -10  -7   7  162.86   18.06
 -10   7  -7  181.36   13.80
  10   7  -7  163.92   20.14
 -10   7   7  212.59   31.03
 -10   7  -8  111.22   18.67
 -10  -7  -8  110.18   16.61
 -10  -7   8  106.07   12.67
 -10   7  -8  119.78    6.15
  10   7  -8  122.21   14.78
 -10   7   8  127.92   12.78
 -10   7  -9   28.32   13.47
 -10  -7  -9   22.96   13.08
  10   7  -9   12.55    4.93
 -10   7   9   27.30   16.86
 -10   7 -10   -2.11    6.16
 -10  -7 -10   -0.21    6.22
  10   7 -10    9.18    4.94
  10  -7 -10    7.85    5.85
 -10   7  10    7.84    6.33
 -10   7 -11   90.73   13.29
 -10  -7 -11   53.40   22.93
  10   7 -11   59.74   24.98
  10  -7 -11   88.16   13.35
 -10   7  11   76.74    8.01
 -10   7 -12    3.34    5.00
 -10  -7 -12   13.43    7.88
  10   7 -12   16.76    8.40
  10  -7 -12   10.72    6.24
 -10   7  12   10.03    5.11
 -10   7 -13   11.04    8.90
 -10  -7 -13   14.30    8.83
  10   7 -13   22.82    6.99
  10  -7 -13   18.14    9.96
 -10   7  13   22.27    9.10
 -10   7 -14   22.00   13.12
 -10  -7 -14   23.03   18.30
  10   7 -14   16.01   11.16
  10  -7 -14   17.74    9.47
 -10   7  14   20.97    7.71
 -10   7 -15    3.30    4.03
 -10  -7 -15    4.01    5.20
  10   7 -15    4.49    4.40
  10  -7 -15    7.12    5.24
 -10   7  15    1.61    4.61
 -10  -8   0   28.75    9.04
  10  -8   0   38.60    4.90
 -10   8   0   32.64   14.14
 -10  -8  -1   59.63   11.81
 -10  -8   1   51.23   24.36
  10  -8  -1   45.34    9.10
  10  -8   1   53.64    9.40
  10   8  -1   61.74    6.83
 -10   8  -1   42.50   13.81
 -10   8   1   49.08   20.04
 -10  -8  -2  122.68    7.54
 -10  -8   2  126.79   11.97
  10  -8   2  118.96   10.42
  10   8  -2  146.24    5.97
 -10   8  -2  120.40   10.22
 -10   8   2  131.45   16.62
 -10  -8  -3  132.60   26.65
 -10  -8   3  113.09   18.96
  10  -8   3  120.42   10.66
 -10   8  -3  105.38    5.96
  10   8  -3  107.63    9.53
 -10   8  -3  112.44   16.96
 -10   8   3  127.06   14.81
 -10  -8  -4   19.18   11.54
 -10  -8   4   19.80    8.68
 -10   8  -4   24.73    9.04
  10   8  -4   27.45   15.82
 -10   8   4   17.43    4.78
 -10   8  -5   55.42    9.70
 -10  -8  -5   41.20   16.27
 -10  -8   5   47.88   18.89
 -10   8  -5   50.37   16.72
  10   8  -5   28.32   14.25
 -10   8   5   64.73   16.15
 -10   8  -6   92.67   25.35
 -10  -8  -6  138.28   16.87
 -10  -8   6   78.99   16.37
 -10   8  -6  105.24    9.88
  10   8  -6   97.18   16.73
 -10   8   6  127.07   38.91
 -10   8  -7   36.63   13.07
 -10  -8  -7   43.38   14.25
 -10  -8   7   28.93   12.26
 -10   8  -7   40.95   12.46
  10   8  -7   38.12   17.50
 -10   8   7   19.76   11.26
 -10   8  -8    4.40    4.50
 -10  -8  -8    8.36    3.98
 -10  -8   8    2.12    3.09
 -10   8  -8    1.91    2.88
  10   8  -8    2.74    2.84
 -10   8   8    2.34    4.03
 -10   8  -9   82.59   25.54
 -10  -8  -9   86.54   14.78
 -10  -8   9   68.07   23.21
 -10   8  -9   75.86   13.35
  10   8  -9   98.28   16.05
 -10   8   9  104.08   13.76
 -10   8 -10   79.00   32.64
 -10  -8 -10   94.04   12.53
  10   8 -10   65.33   20.69
 -10   8  10   73.14   22.32
 -10   8 -11   11.17    8.85
 -10  -8 -11   11.82    5.95
  10   8 -11    8.10    3.58
  10  -8 -11    8.91    7.95
 -10   8  11    5.05    5.93
 -10   8 -12    6.85    6.37
 -10  -8 -12   10.64    8.94
  10   8 -12   -0.36    6.39
  10  -8 -12    1.73    9.70
 -10   8  12    5.30    4.90
 -10   8 -13    8.81    8.76
 -10  -8 -13    3.62    9.33
  10   8 -13    2.02    4.69
  10  -8 -13    9.13   17.51
 -10   8  13    7.62    7.35
 -10   8 -14   47.35   12.71
 -10  -8 -14   44.39    8.76
  10   8 -14   34.25   15.85
  10  -8 -14   38.07   12.23
 -10   8  14   39.93   17.21
 -10  -9   0    6.12    6.06
  10  -9   0    5.69    2.47
 -10   9   0    2.02    2.53
 -10  -9  -1  127.68   13.48
 -10  -9   1  122.44   12.27
  10  -9   1  106.26   16.26
 -10   9  -1  137.39   12.46
 -10   9   1  111.27   14.71
 -10  -9  -2  129.41   12.31
 -10  -9   2  125.56   26.35
  10  -9   2  138.52   15.71
 -10   9  -2  128.76   20.03
  10   9  -2  125.77   15.08
 -10   9  -2  139.68   12.04
 -10   9   2  133.25   20.17
 -10  -9  -3  199.64   18.62
 -10  -9   3  155.82   26.09
  10  -9   3  176.05   21.49
 -10   9  -3  179.90   14.66
  10   9  -3  177.11   13.79
 -10   9  -3  183.71   15.15
 -10   9   3  190.57   18.30
 -10  -9  -4   54.20   20.42
 -10  -9   4   58.56    9.39
  10  -9   4   46.80   18.94
 -10   9  -4   65.14   21.90
  10   9  -4   53.23    9.69
 -10   9   4   53.23   23.45
 -10  -9  -5    3.07    8.61
 -10  -9   5   -5.03    4.75
  10  -9   5    6.18    4.52
 -10   9  -5   10.56    3.60
  10   9  -5    7.39    4.63
 -10   9   5    7.43    5.65
 -10  -9  -6   62.37   23.89
 -10  -9   6   74.57   11.65
  10  -9   6   64.00    9.54
 -10   9  -6   62.89   19.92
  10   9  -6   70.08   12.95
 -10   9   6   62.76   30.83
 -10   9  -7    5.64    5.12
 -10  -9  -7    5.99    5.69
 -10  -9   7    8.69    6.65
 -10   9  -7   13.88    4.91
  10   9  -7   11.76    7.73
 -10   9   7   12.54    5.74
 -10   9  -8   64.09   12.99
 -10  -9  -8   71.70    9.53
 -10  -9   8   54.28   19.97
 -10   9  -8   81.23   14.26
  10   9  -8   72.33   13.97
 -10   9   8   89.01   27.83
 -10   9  -9   20.35    9.90
 -10  -9  -9   20.15    9.87
 -10  -9   9   33.70    7.77
 -10   9  -9   23.04    6.51
  10   9  -9   21.78   17.07
 -10   9   9   14.83    6.07
 -10   9 -10   24.08   10.94
 -10  -9 -10   16.29   10.06
  10   9 -10   16.46    8.19
 -10   9  10   38.99   12.50
 -10   9 -11   82.32   34.79
 -10  -9 -11  108.32   24.30
  10   9 -11  103.82   26.34
 -10   9  11   97.94   35.18
 -10   9 -12    4.90    3.94
 -10  -9 -12    3.45    8.99
  10   9 -12    5.07    4.77
  10  -9 -12   12.44    9.94
 -10   9  12    6.92    6.77
 -10   9 -13   49.25   29.98
 -10  -9 -13   45.73   17.74
  10   9 -13   49.76    8.37
  10  -9 -13   57.27   26.35
 -10   9  13   66.07   18.20
 -10 -10   0  231.74   11.97
  10 -10   0  228.23    7.77
 -10  10   0  230.36   12.02
 -10 -10  -1   38.69   13.62
 -10 -10   1   46.33   14.78
  10 -10   1   23.89    9.74
 -10  10  -1   37.25   12.33
 -10  10   1   33.12    9.26
 -10 -10  -2    6.04    7.60
 -10 -10   2    4.55    3.05
  10 -10   2    6.86    2.43
 -10  10  -2    4.11    2.73
  10  10  -2    6.85    4.02
 -10  10  -2    4.03    2.94
 -10  10   2    6.59    3.46
 -10 -10  -3   73.11   25.51
 -10 -10   3   89.23   11.71
  10 -10   3   70.97   24.64
 -10  10  -3   99.27   16.34
  10  10  -3   65.05    6.61
 -10  10  -3   96.95    5.90
 -10  10   3   74.84   11.74
 -10 -10  -4   64.25   28.00
 -10 -10   4   39.75   20.83
  10 -10   4   64.65    8.57
 -10  10  -4   61.55   21.26
  10  10  -4   56.51    7.93
 -10  10   4   69.96   22.71
 -10 -10  -5   61.89   28.39
 -10 -10   5   42.96   16.87
  10 -10   5   49.58   20.42
 -10  10  -5   42.02   14.47
  10  10  -5   64.07    9.99
 -10  10   5   41.77   20.89
 -10 -10  -6    6.71    7.08
 -10 -10   6   11.67    6.32
  10 -10   6    8.95    8.31
 -10  10  -6   11.72    5.12
  10  10  -6    6.15    6.58
 -10  10   6   10.23    6.15
 -10 -10  -7   23.69   11.82
 -10 -10   7   35.29   14.52
  10 -10   7   36.81   14.84
 -10  10  -7   37.51    9.21
  10  10  -7   26.38   19.40
 -10  10   7   33.06   22.19
 -10 -10  -8    9.43    4.49
 -10 -10   8   11.88    5.71
  10 -10   8    6.57    3.70
 -10  10  -8   12.44    7.97
  10  10  -8   21.94   11.78
 -10  10   8   19.49    8.83
 -10 -10  -9   21.27   11.87
  10 -10   9   19.83   18.66
  10  10  -9   23.97   11.72
 -10  10   9   25.47    9.73
 -10 -10 -10   12.59    7.82
 -10 -10  10    0.07    3.60
 -10  10 -10    8.41    3.58
  10  10 -10    6.92    4.88
 -10  10  10    3.93    4.33
 -10  10 -11    5.95    6.55
 -10 -10 -11    7.45    9.21
  10  10 -11   14.53    8.09
 -10  10  11   11.74    8.00
 -10  10 -12   40.48   10.40
 -10 -10 -12   31.47   15.00
  10  10 -12   28.35   14.37
 -10  10  12   20.81   10.45
 -10 -11   0   92.25   35.92
 -10  11   0  119.31    7.12
 -10 -11  -1    8.07    7.47
 -10 -11   1    8.38    4.94
  10 -11   1    6.91    3.46
 -10  11  -1    4.70    3.48
 -10  11   1    5.04    3.84
 -10 -11  -2   49.81   20.79
 -10 -11   2   40.14   20.58
  10 -11   2   38.67   17.65
 -10  11  -2   42.08   11.35
 -10  11  -2   41.89   13.21
 -10  11   2   36.33   13.09
 -10 -11  -3  148.19   25.49
 -10 -11   3  120.64   33.15
  10 -11   3  149.94   16.09
 -10  11  -3  139.44   19.64
  10  11  -3  149.41   10.06
 -10  11   3  134.57   22.28
 -10 -11  -4   71.93   18.85
 -10 -11   4   62.87   12.47
  10 -11   4   67.69   12.75
 -10  11  -4   51.14   17.12
  10  11  -4   50.24    8.12
 -10  11   4   59.44   26.77
 -10 -11  -5  113.52   40.72
 -10 -11   5  102.39   18.94
  10 -11   5  121.35   14.73
 -10  11  -5  107.26   15.97
  10  11  -5  101.98    7.52
 -10  11   5  120.86   11.54
 -10 -11  -6   19.92   11.42
 -10 -11   6   26.72    9.69
  10 -11   6   19.21    6.78
 -10  11  -6   17.97    6.56
  10  11  -6   14.40    8.62
 -10  11   6   24.28    6.81
 -10 -11  -7   69.52   30.01
 -10 -11   7   78.38   15.10
  10 -11   7   65.16   27.07
 -10  11  -7   88.39   19.38
  10  11  -7   93.80   11.28
 -10  11   7  117.43   17.89
 -10 -11  -8   16.74    9.94
 -10 -11   8   18.04    9.53
  10 -11   8   21.59    8.79
 -10  11  -8   23.11    8.62
  10  11  -8   26.54    7.51
 -10 -11  -9  133.45   27.70
 -10 -11   9  129.35   15.69
  10 -11   9  146.80   19.08
 -10  11  -9  118.78   10.04
  10  11  -9  113.29   23.21
 -10  11   9  132.83   22.92
 -10 -11 -10   16.03    7.89
 -10 -11  10   29.01   16.86
  10 -11  10   27.21   15.51
 -10  11 -10   29.70   15.73
  10  11 -10   31.63   15.93
 -10  11  10   51.45   10.78
 -10 -11 -11    2.56    5.64
  10 -11  11   -0.29    6.47
  10  11 -11    8.15    2.55
 -10  11  11    7.18    9.37
 -10 -12   0    5.12    5.36
 -10  12   0    2.02    3.27
 -10 -12  -1    8.86    7.68
 -10 -12   1   25.91    9.49
  10 -12   1   21.65    7.51
 -10  12  -1   24.77    7.87
 -10  12   1   14.92    5.50
 -10 -12  -2   59.25   29.75
 -10 -12   2   64.75   27.90
  10 -12   2   77.27    8.61
 -10  12  -2   55.92   23.18
 -10  12   2   51.03   20.07
 -10 -12  -3   -3.31    6.98
 -10 -12   3    3.32    5.69
  10 -12   3    2.68    3.97
 -10  12  -3    8.94    8.23
 -10  12   3    3.18    4.68
 -10 -12  -4    9.64   14.64
 -10 -12   4    3.34    5.42
  10 -12   4    6.96    6.02
 -10  12  -4    7.66    6.93
  10  12  -4    4.79    1.78
 -10  12   4    6.22    4.86
 -10 -12  -5    7.55    9.83
 -10 -12   5    3.80    4.78
  10 -12   5    0.42    3.50
 -10  12  -5   -3.61    4.65
  10  12  -5    2.60    2.96
 -10  12   5   -3.63    4.85
 -10 -12  -6   32.33   14.74
 -10 -12   6    8.44    8.10
  10 -12   6   21.92    9.39
 -10  12  -6   16.94    5.26
  10  12  -6   19.41    7.67
 -10  12   6   28.55    8.17
 -10 -12  -7    8.89    6.54
 -10 -12   7    6.51    5.82
  10 -12   7   -1.98    5.59
 -10  12  -7    2.44    4.79
  10  12  -7    5.90    3.39
 -10  12   7    5.43    4.12
 -10 -12  -8    0.47    8.09
 -10 -12   8   -0.44    5.88
  10 -12   8   10.36    7.02
 -10  12  -8    1.90    2.84
  10  12  -8    4.68    3.70
 -10  12   8    6.91    4.44
 -10 -12  -9    1.42    4.42
 -10 -12   9    3.14    3.46
  10 -12   9   -3.95    7.24
 -10  12  -9    2.46    5.05
  10  12  -9    5.28    5.34
 -10  12   9    1.92    8.95
 -10 -12 -10   37.46   20.66
 -10 -12  10   43.19   14.90
  10 -12  10   62.80   29.73
 -10  12 -10   55.04   23.54
  10  12 -10   77.86    8.61
 -10  12  10   78.15   28.53
 -10 -13   0   53.88   24.84
 -10  13   0   53.56   21.05
 -10 -13  -1   15.35    6.43
 -10 -13   1   31.63   11.48
 -10  13   1   28.40    9.11
 -10 -13  -2   49.50   21.22
 -10 -13   2   52.18   23.73
  10 -13   2   51.31   16.40
 -10  13  -2   51.86   21.97
 -10  13   2   55.46   23.85
 -10 -13  -3   15.51   12.91
 -10 -13   3   22.36    8.79
  10 -13   3   19.09    7.62
 -10  13  -3   31.80   14.90
 -10  13   3   19.15   10.03
 -10 -13  -4    5.08    5.58
 -10 -13   4   11.24    8.34
  10 -13   4   15.00    6.48
 -10  13  -4   11.12    6.30
 -10  13   4   12.35    5.72
 -10 -13  -5   11.65   10.53
 -10 -13   5    6.53    6.33
  10 -13   5   15.07    5.28
 -10  13  -5    5.21    5.69
  10  13  -5    5.63    4.91
 -10  13   5    7.10    5.23
 -10 -13  -6   14.67    9.06
 -10 -13   6   11.75    6.84
  10 -13   6   13.57    9.56
 -10  13  -6   13.68    8.68
  10  13  -6   20.67    8.85
 -10  13   6    8.84    5.33
 -10 -13  -7    7.21    7.06
 -10 -13   7   15.26    7.76
  10 -13   7   11.65    4.64
 -10  13  -7    7.98    6.40
  10  13  -7    9.14    5.48
 -10  13   7    3.26    5.40
 -10 -13  -8    2.95   10.32
 -10 -13   8    9.68    7.15
  10 -13   8   10.93    8.23
 -10  13  -8   14.46    6.93
  10  13  -8    3.32    2.30
 -10  13   8    8.26    5.12
 -10 -14   0   38.40   20.45
 -10  14   0   68.94   11.65
 -10 -14  -1   18.74   11.09
 -10 -14   1   24.98    7.76
 -10  14   1   18.65    5.00
 -10 -14  -2    7.33    5.02
 -10 -14   2    7.38    5.01
 -10  14  -2    6.66    4.39
 -10  14   2    5.58    4.17
 -10 -14  -3   29.87    7.32
 -10 -14   3   26.78   13.38
  10 -14   3   14.23    6.96
 -10  14  -3   17.91    6.44
 -10  14   3   10.22    5.24
 -10 -14  -4   23.83   18.41
 -10 -14   4   44.86   17.15
  10 -14   4   43.03   20.27
 -10  14  -4   38.90   17.88
 -10  14   4   45.87   17.89
 -10 -14  -5   39.91   12.78
 -10 -14   5   33.39   14.47
  10 -14   5   21.39    8.04
 -10  14  -5   27.26   11.50
 -10  14   5   21.21    9.93
 -10 -14  -6    7.61    6.08
 -10 -14   6    6.49    3.98
  10 -14   6    3.44    2.78
 -10  14  -6   13.65    9.91
  10  14  -6    4.72    4.09
 -10  14   6   11.60    6.87
 -10 -15   0   -1.29    7.41
 -10 -15  -1   12.32    6.86
 -10 -15   1   23.02    8.07
 -10  15   1   15.85    8.63
 -11   0   0    1.37    2.16
  11   0   0    0.55    2.48
 -11   0   1   17.53    5.64
 -11   0  -1   17.35    4.47
  11   0  -1   14.10    7.78
 -11   0   2  439.51   12.89
 -11   0  -2  403.56   15.87
  11   0  -2  425.93   14.11
 -11   0  -3   34.66    9.93
  11   0  -3   27.93   11.26
 -11   0  -4   -0.48    4.19
  11   0  -4   -0.92    3.26
 -11   0  -5    8.52    6.74
  11   0  -5   11.64    3.67
 -11   0  -6   -2.61    4.71
  11   0  -6    3.37    4.35
 -11   0  -7   26.51   10.18
  11   0  -7   18.36    6.59
 -11   0  -8    2.28    4.49
  11   0  -8   -0.10    5.92
 -11   0  -9   18.33   10.09
  11   0  -9   21.08    8.49
 -11   0 -10   41.81   17.65
  11   0 -10   19.27    6.81
 -11   0 -11   55.49   27.07
  11   0 -11   72.99    9.92
 -11   0 -12    4.26    6.78
  11   0 -12   15.40    6.89
 -11   0 -13    1.82    4.51
  11   0 -13    3.79    7.45
 -11   0 -14  168.02   38.61
  11   0 -14  161.82   37.95
 -11   0 -15   38.00   22.00
  11   0 -15   28.34    8.99
 -11   0 -16    7.51    5.51
  11   0 -16    6.87    4.95
 -11   1   0   19.30    5.84
 -11  -1   0   12.95    4.33
  11  -1   0   14.40    6.55
 -11   1   1  270.37    8.66
 -11   1  -1  246.04   16.84
 -11  -1  -1  268.31    9.79
 -11  -1   1  263.33    9.56
  11   1  -1  261.05    8.94
  11  -1  -1  248.78   14.21
 -11   1   2  326.13   12.22
 -11   1  -2  316.63   12.16
 -11  -1  -2  312.13   11.19
 -11  -1   2  314.14   10.70
  11   1  -2  326.83   11.00
  11  -1  -2  330.15   12.62
 -11   1  -3   25.34   10.69
 -11  -1  -3   24.77    8.85
 -11  -1   3   23.96    5.91
  11   1  -3   26.44    6.25
  11  -1  -3   27.68    8.90
 -11   1  -4   10.78    6.38
 -11  -1  -4    8.63    4.78
  11   1  -4    5.43    1.86
  11  -1  -4   10.42    5.00
 -11   1  -5  106.55   14.77
 -11  -1  -5   90.83    7.14
  11   1  -5   79.29    8.31
  11  -1  -5  104.97    9.29
 -11   1  -6  106.24   11.96
 -11  -1  -6   97.70   21.45
  11   1  -6   89.26   25.59
  11  -1  -6  109.34    9.10
 -11   1  -7  145.24    8.53
 -11  -1  -7  133.62    8.71
  11   1  -7  111.49   22.54
  11  -1  -7  118.79    7.95
 -11   1  -8   13.79   11.88
 -11  -1  -8   22.72    9.71
  11   1  -8   24.20    7.57
  11  -1  -8   17.28   11.81
 -11   1  -9   13.77    7.23
 -11  -1  -9    1.99    3.69
  11   1  -9    9.32    8.01
  11  -1  -9    7.35    6.39
 -11   1 -10  152.40   10.81
 -11  -1 -10  111.57   34.93
  11   1 -10  115.78   35.48
  11  -1 -10  115.03   15.87
 -11   1 -11   55.53   20.82
 -11  -1 -11   45.46   16.22
  11   1 -11   30.27   14.57
  11  -1 -11   39.93   13.05
 -11   1 -12   12.68    7.51
 -11  -1 -12   20.38    8.34
  11   1 -12   27.18    8.50
  11  -1 -12   15.62    7.77
 -11   1 -13   51.62   19.42
 -11  -1 -13   62.73   17.96
  11   1 -13   48.02   18.38
  11  -1 -13   60.86   10.80
 -11   1 -14    8.76    5.02
 -11  -1 -14   12.77    7.03
  11   1 -14    4.09    7.05
  11  -1 -14    1.80    5.77
 -11   1 -15   12.85   10.26
 -11  -1 -15   22.28    7.62
  11   1 -15   16.12    9.12
  11  -1 -15   11.23    7.66
 -11   1 -16   12.84   10.59
 -11  -1 -16   11.79    7.94
  11   1 -16   13.40    7.68
  11  -1 -16    7.44    3.68
 -11   2   0   -0.59    2.26
 -11  -2   0   -0.13    2.76
  11  -2   0    0.26    2.84
 -11   2   1    2.33    1.22
 -11   2  -1    3.97    2.35
 -11  -2  -1   -1.67    3.25
 -11  -2   1    2.80    3.14
  11   2  -1    2.97    1.73
  11  -2  -1    4.24    3.19
  11  -2   1    4.26    2.97
 -11   2   2    3.06    2.18
 -11   2  -2    4.08    2.72
 -11  -2  -2    5.31    4.52
 -11  -2   2    1.93    2.05
  11   2  -2    5.39    3.25
  11  -2  -2   -2.37    3.42
 -11   2  -3  274.46   16.94
 -11  -2  -3  285.87   18.43
 -11  -2   3  241.41   17.09
  11   2  -3  246.51   21.08
  11  -2  -3  246.44   15.42
 -11   2  -4  325.14   20.09
 -11  -2  -4  310.97   19.62
 -11  -2   4  322.29   18.86
  11   2  -4  284.84   17.33
  11  -2  -4  324.48   19.70
 -11   2  -5    5.28    4.57
 -11  -2  -5    6.74    6.22
  11   2  -5    3.73    2.87
  11  -2  -5    1.54    3.38
 -11   2  -6   34.89   13.55
 -11  -2  -6   37.41   12.33
  11   2  -6   35.79    4.72
  11  -2  -6   33.97   12.91
 -11   2  -7   -0.34    5.01
 -11  -2  -7   -0.75    5.51
  11   2  -7    4.28    3.36
  11  -2  -7   -0.30    3.40
 -11   2  -8  362.44   27.09
 -11  -2  -8  403.22   13.49
  11   2  -8  366.62   27.25
  11  -2  -8  339.56   26.55
 -11   2   8  360.12   35.47
 -11   2  -9  177.53   10.65
 -11  -2  -9  183.64   24.99
  11   2  -9  180.06   11.06
  11  -2  -9  173.48   17.79
 -11   2   9  156.18   17.57
 -11   2 -10   -3.84    6.49
 -11  -2 -10    6.87    7.34
  11   2 -10    4.92    5.86
  11  -2 -10    2.60    4.66
 -11   2  10   -0.31    6.62
 -11   2 -11   18.90   10.61
 -11  -2 -11   33.61   12.70
  11   2 -11   31.91    9.49
  11  -2 -11   30.91   11.31
 -11   2  11   16.90    8.18
 -11   2 -12   11.66    7.05
 -11  -2 -12   12.55    5.43
  11   2 -12   10.83    6.68
  11  -2 -12    9.29    5.25
 -11   2  12    8.35    3.22
 -11   2 -13    4.48    3.11
 -11  -2 -13    7.61    4.10
  11   2 -13   -6.29    7.02
  11  -2 -13   -0.97    7.45
 -11   2  13    6.30    5.06
 -11   2 -14    7.47    5.95
 -11  -2 -14   13.32   10.49
  11   2 -14    9.23    8.76
  11  -2 -14   -3.71    7.51
 -11   2  14    1.36    4.06
 -11   2 -15    2.91    4.56
 -11  -2 -15   10.65    8.18
  11   2 -15   12.59    5.36
  11  -2 -15   22.35    9.12
 -11   2  15    2.56    8.19
 -11   3   0  249.45   14.68
 -11  -3   0  240.65   14.90
 -11   3   1   73.90    3.51
 -11   3  -1   58.65    7.34
 -11  -3  -1   65.28   11.92
 -11  -3   1   65.48    4.59
 -11   3  -2   15.47    6.08
 -11  -3  -2   13.29    7.33
 -11  -3   2   15.38    3.77
  11   3  -2   11.34    5.94
 -11   3  -3   82.83   13.19
 -11  -3  -3   91.21    9.19
 -11  -3   3   81.06    4.69
  11   3  -3   80.79    7.78
  11  -3  -3   75.73    8.82
 -11   3  -4  217.59   14.51
 -11  -3  -4  200.45   14.22
 -11  -3   4  214.07   14.41
  11   3  -4  203.74   19.55
  11  -3  -4  212.12   18.60
 -11   3  -5   75.50    8.74
 -11  -3  -5   83.20   17.06
  11   3  -5   89.62   10.30
  11  -3  -5   77.26    6.53
 -11   3   5   77.93   11.44
 -11   3  -6   15.80    7.31
 -11  -3  -6   12.54    6.08
  11   3  -6   13.04    6.07
  11  -3  -6   17.73    3.78
 -11   3   6   11.89    5.70
 -11   3  -7    6.65    3.27
 -11  -3  -7   22.89    7.54
  11   3  -7   10.12    5.79
  11  -3  -7   15.33    8.04
 -11   3   7   19.70   12.76
 -11   3  -8  149.34   19.17
 -11  -3  -8  158.95   19.23
  11   3  -8  122.93   19.08
  11  -3  -8  125.88   19.61
 -11   3   8  146.35   15.11
 -11   3  -9  103.99   25.41
 -11  -3  -9  107.71   27.82
  11   3  -9  106.00   10.09
  11  -3  -9  117.82   13.67
 -11   3   9  118.44   10.56
 -11   3 -10   12.33    9.88
 -11  -3 -10    5.73   13.31
  11   3 -10   10.37   10.21
  11  -3 -10    6.85    4.35
 -11   3  10    8.26    7.66
 -11   3 -11   32.22    8.57
 -11  -3 -11   38.84   16.96
  11   3 -11   50.73    9.32
  11  -3 -11   30.97   13.20
 -11   3  11   43.15   11.96
 -11   3 -12  156.43    9.14
 -11  -3 -12  171.22   22.30
  11   3 -12  137.14    8.47
  11  -3 -12  135.06   12.24
 -11   3  12  159.45   29.53
 -11   3 -13    6.36    8.70
 -11  -3 -13   11.18    7.72
  11   3 -13   24.49   11.04
  11  -3 -13   14.77   11.21
 -11   3  13   24.26    8.67
 -11   3 -14    7.23    9.21
 -11  -3 -14   10.70    7.13
  11   3 -14   13.51   10.05
  11  -3 -14   16.78    8.47
 -11   3  14   -0.89    6.76
 -11   3 -15    4.33    7.28
 -11  -3 -15    8.56    7.53
  11   3 -15   11.27    6.33
  11  -3 -15    9.79    8.24
 -11   3  15   11.42    7.25
 -11   4   0   91.40    4.55
 -11  -4   0   87.31   14.84
 -11   4   1  252.76   15.05
 -11   4  -1  259.21   15.56
 -11  -4  -1  240.42   15.90
 -11  -4   1  249.62   15.50
 -11   4  -2  152.05    9.90
 -11  -4  -2  162.02   12.35
 -11  -4   2  152.77   10.28
  11   4  -2  155.10   11.98
 -11   4  -3  335.27   10.73
 -11  -4  -3  351.68   13.06
 -11  -4   3  358.53   11.20
  11   4  -3  342.76   14.06
 -11   4   3  327.41   12.45
 -11   4  -4    4.43    3.58
 -11  -4  -4    3.41    4.28
 -11  -4   4    2.95    2.43
  11   4  -4    7.96    5.15
 -11   4   4    3.71    4.70
 -11   4  -5  118.00   14.84
 -11  -4  -5  103.26    7.30
 -11  -4   5  121.37    6.71
  11   4  -5  102.62   17.18
  11  -4  -5  112.01   10.19
 -11   4   5  109.85   36.40
 -11   4  -6   31.46    7.81
 -11  -4  -6   35.78   15.50
  11   4  -6   32.03   13.45
  11  -4  -6   30.92    9.17
 -11   4   6   21.74   11.89
 -11   4  -7    5.42    2.85
 -11  -4  -7    0.72    4.89
  11   4  -7    4.19    5.11
  11  -4  -7   10.87    5.57
 -11   4   7   -5.50    6.85
 -11   4  -8   15.56    4.76
 -11  -4  -8   14.03    6.39
  11   4  -8   22.33    7.67
  11  -4  -8   12.47    5.44
 -11   4   8   12.49    4.82
 -11   4  -9  140.01    7.93
 -11  -4  -9  128.04   19.63
  11   4  -9  137.45   11.99
  11  -4  -9  154.42   11.78
 -11   4   9  124.77   13.24
 -11   4 -10  128.32   19.75
 -11  -4 -10  114.69   10.29
  11   4 -10   93.39   11.58
  11  -4 -10   98.24   12.89
 -11   4  10  115.59   35.06
 -11   4 -11   49.67   13.36
 -11  -4 -11   44.42   23.82
  11   4 -11   49.24   18.14
  11  -4 -11   72.46   18.89
 -11   4  11   57.74   17.47
 -11   4 -12   63.26   18.39
 -11  -4 -12   78.78   12.27
  11   4 -12   69.74    9.09
  11  -4 -12   68.86   20.68
 -11   4  12   89.80   28.05
 -11   4 -13   81.22   34.59
 -11  -4 -13  134.09   29.88
  11   4 -13  111.65   24.91
  11  -4 -13  126.74   30.64
 -11   4  13  105.74   39.15
 -11   4 -14   26.76   15.11
 -11  -4 -14   26.32   10.52
  11   4 -14   22.91    8.64
  11  -4 -14   30.73    8.51
 -11   4  14   25.48   12.81
 -11   4 -15  102.25   36.53
 -11  -4 -15   99.16   16.92
  11   4 -15   61.74   25.33
  11  -4 -15   66.91   17.46
 -11   4  15   75.09   25.54
 -11   5   0   59.12    9.38
 -11  -5   0   68.05   10.83
 -11   5  -1   63.08    5.89
 -11  -5  -1   71.06   23.94
 -11  -5   1   68.81    8.77
 -11   5  -2   60.07   14.92
 -11  -5  -2   65.04   20.65
 -11  -5   2   59.50    8.06
 -11   5   2   52.95    6.52
 -11   5  -3   57.97   10.22
 -11  -5  -3   79.65   16.99
 -11  -5   3   67.73    8.03
  11   5  -3   72.39    7.67
 -11   5   3   67.43   27.59
 -11   5  -4   46.41   16.47
 -11  -5  -4   49.18   13.04
 -11  -5   4   41.08   10.77
  11   5  -4   50.32    7.50
 -11   5   4   39.03   14.76
 -11   5  -5    6.05    4.29
 -11  -5  -5    4.50    4.51
 -11  -5   5    3.27    1.74
  11   5  -5    6.66    2.99
 -11   5   5    8.47    5.58
 -11   5  -6  136.04   17.02
 -11  -5  -6  142.56   26.72
 -11  -5   6  133.48   10.61
  11   5  -6  142.39   17.99
 -11   5   6  149.07   27.79
 -11   5  -7   34.08   11.70
 -11  -5  -7   28.97    6.95
  11   5  -7   29.89   10.97
  11  -5  -7   37.10    9.95
 -11   5   7   21.23   18.23
 -11   5  -8   19.31    9.23
 -11  -5  -8   16.60   10.21
  11   5  -8   13.19    5.16
  11  -5  -8    7.92    9.07
 -11   5   8   11.98   10.03
 -11   5  -9   77.34   20.76
 -11  -5  -9   72.62   31.68
  11   5  -9   64.43   27.54
  11  -5  -9   68.87   25.16
 -11   5   9   72.98   27.56
 -11   5 -10   89.87    7.25
 -11  -5 -10  100.60   34.98
  11   5 -10   89.73    9.34
  11  -5 -10  125.07   12.00
 -11   5  10   81.64   30.60
 -11   5 -11   18.49    7.64
 -11  -5 -11   12.80    4.36
  11   5 -11   23.10    8.44
  11  -5 -11   21.82    8.16
 -11   5  11   12.23   10.49
 -11   5 -12   36.11   10.79
 -11  -5 -12   21.05   12.29
  11   5 -12   30.77    9.64
  11  -5 -12   14.80    9.81
 -11   5  12   31.31   15.68
 -11   5 -13    8.95    7.94
 -11  -5 -13   22.12   11.78
  11   5 -13   18.10    8.82
  11  -5 -13   11.82    8.01
 -11   5  13   10.96   12.48
 -11   5 -14    9.21    5.59
 -11  -5 -14   13.19   11.18
  11   5 -14   13.82    7.25
  11  -5 -14    3.74    8.30
 -11   5  14   15.30   10.02
 -11   5 -15   10.96   11.07
 -11  -5 -15   12.61    7.07
  11   5 -15   16.58   10.55
  11  -5 -15   18.04   13.40
 -11   5  15   28.09   12.68
 -11  -6   0    7.00    6.23
  11  -6   0    4.58    4.20
 -11   6   0    0.88    3.82
 -11   6  -1    1.44    1.58
 -11  -6  -1   -5.58    5.39
 -11  -6   1    4.70    3.55
 -11   6   1    3.75    4.31
 -11   6  -2   19.63    6.95
 -11  -6  -2   17.82    5.40
 -11  -6   2   28.07   11.39
 -11   6   2   24.63   12.01
 -11   6  -3   39.49   18.54
 -11  -6  -3   36.24   16.00
 -11  -6   3   44.67    6.95
  11   6  -3   23.60   10.95
 -11   6   3   30.14   14.36
 -11   6  -4   14.80    6.97
 -11  -6  -4   14.40   10.97
 -11  -6   4    9.74    6.73
  11   6  -4   22.28    7.78
 -11   6   4   19.62    8.97
 -11   6  -5  159.96   13.09
 -11  -6  -5  182.40   16.47
 -11  -6   5  148.01   12.03
 -11   6  -5  142.40   10.91
  11   6  -5  164.15   21.41
 -11   6   5  168.50   15.70
 -11   6  -6   27.50   15.96
 -11  -6  -6   46.89   11.90
 -11  -6   6   26.47   10.12
  11   6  -6   32.07   12.27
 -11   6   6   26.54   18.06
 -11   6  -7  388.23   11.20
 -11  -6  -7  377.84   15.64
  11   6  -7  364.20   18.55
 -11   6   7  371.04   13.75
 -11   6  -8    4.76    4.79
 -11  -6  -8    3.24    3.58
  11   6  -8    2.35    5.13
  11  -6  -8   -2.01    6.65
 -11   6   8    4.02    5.71
 -11   6  -9   53.94   22.41
 -11  -6  -9   53.02   23.13
  11   6  -9   40.38   17.57
  11  -6  -9   53.70   11.45
 -11   6   9   37.63   24.37
 -11   6 -10   50.31   16.18
 -11  -6 -10   47.58   10.80
  11   6 -10   25.33   14.82
  11  -6 -10   35.70   12.52
 -11   6  10   30.35   12.42
 -11   6 -11    8.21    3.94
 -11  -6 -11    6.85    5.58
  11   6 -11   13.44    5.93
  11  -6 -11   13.18    7.07
 -11   6  11   12.63    7.54
 -11   6 -12    3.51    6.78
 -11  -6 -12   11.47    9.17
  11   6 -12    6.05    6.07
  11  -6 -12    8.35    6.40
 -11   6  12    3.58    3.55
 -11   6 -13    4.13    4.62
 -11  -6 -13    0.85    5.64
  11   6 -13    5.60    6.36
  11  -6 -13    6.91    5.41
 -11   6  13    5.47    4.69
 -11   6 -14    5.29    3.92
 -11  -6 -14    3.00    8.42
  11   6 -14    5.29   12.01
  11  -6 -14    1.90    4.56
 -11   6  14   14.20    6.41
 -11  -7   0   87.00   15.36
  11  -7   0   76.42   12.94
 -11   7   0   82.01   16.18
 -11  -7  -1  106.84   21.83
 -11  -7   1  116.93   13.45
  11  -7   1  105.98    9.22
 -11   7  -1  107.15   11.71
 -11   7   1  113.19   12.01
 -11  -7  -2   51.63   11.28
 -11  -7   2   49.46   17.59
  11  -7   2   49.82    8.47
 -11   7   2   54.22   15.51
 -11   7  -3  143.74   12.08
 -11  -7  -3  155.26   23.44
 -11  -7   3  138.67   14.94
 -11   7   3  161.48   14.25
 -11   7  -4    7.11    2.81
 -11  -7  -4    7.44    4.29
 -11  -7   4    5.73    4.18
  11   7  -4    1.95    2.72
 -11   7   4    6.79    4.20
 -11   7  -5    6.78    4.90
 -11  -7  -5    9.83    7.54
 -11  -7   5    6.52    5.86
 -11   7  -5    4.04    3.65
  11   7  -5   13.59    5.16
 -11   7   5   11.87    9.49
 -11   7  -6  100.50    8.40
 -11  -7  -6   91.15   37.11
 -11  -7   6  100.49   11.45
  11   7  -6   81.29   25.00
 -11   7   6   94.46   30.22
 -11   7  -7   22.93   10.51
 -11  -7  -7   23.92   11.07
 -11  -7   7   16.00   10.88
  11   7  -7   15.83    9.53
 -11   7   7   23.31    9.10
 -11   7  -8   14.30    8.16
 -11  -7  -8   24.25   12.67
  11   7  -8   23.86   13.56
 -11   7   8   26.41   11.56
 -11   7  -9   45.54   17.86
 -11  -7  -9   33.77   20.05
  11   7  -9   36.92   19.02
  11  -7  -9   45.46   14.20
 -11   7   9   52.58   19.43
 -11   7 -10   40.22   11.40
 -11  -7 -10   25.26   12.73
  11   7 -10   28.86   13.14
  11  -7 -10    8.46   10.29
 -11   7  10   26.50   21.27
 -11   7 -11    8.43    5.59
 -11  -7 -11   24.26    6.94
  11   7 -11   15.69    5.27
  11  -7 -11   15.94    8.30
 -11   7  11   14.76    8.51
 -11   7 -12    8.53    8.37
 -11  -7 -12    6.60    9.34
  11   7 -12    6.71    5.45
  11  -7 -12   17.60    7.66
 -11   7  12    6.62    4.24
 -11   7 -13   17.26    9.05
 -11  -7 -13   20.65   13.30
  11   7 -13   13.39    7.62
  11  -7 -13   51.51   16.12
 -11   7  13   32.41    8.25
 -11  -8   0  134.62   22.32
 -11   8   0  138.41   11.92
 -11  -8  -1  114.99   15.39
 -11  -8   1  113.82   16.22
  11  -8   1  101.40   13.55
 -11   8  -1  106.53   19.18
 -11   8   1  103.24   11.09
 -11  -8  -2   47.57   17.01
 -11  -8   2   37.93   15.82
  11  -8   2   54.66    5.96
 -11   8   2   54.78   23.08
 -11  -8  -3   65.18   10.96
 -11  -8   3   68.54   24.27
  11  -8   3   57.18    6.33
 -11   8   3   64.53   23.57
 -11  -8  -4   47.25   14.90
 -11  -8   4   30.89    9.88
 -11   8  -4   31.90   11.10
  11   8  -4   50.66    5.51
 -11   8   4   43.24   19.35
 -11   8  -5    1.24    2.14
 -11  -8  -5    2.74    3.89
 -11  -8   5    2.80    5.21
 -11   8  -5   -1.12    3.65
  11   8  -5    0.89    2.89
 -11   8   5    1.24    4.19
 -11   8  -6   18.50    7.92
 -11  -8  -6   26.40   12.37
 -11  -8   6   13.07    9.08
 -11   8  -6   16.97    6.11
  11   8  -6   19.59   11.04
 -11   8   6   22.87   13.88
 -11   8  -7    2.70    2.39
 -11  -8  -7    7.89    6.45
 -11  -8   7    2.22    5.01
  11   8  -7    5.52    3.59
 -11   8   7    3.75    3.82
 -11   8  -8    9.75    5.27
 -11  -8  -8    0.71    6.45
  11   8  -8    3.47    4.14
 -11   8   8    1.14    5.50
 -11   8  -9   41.73   16.15
 -11  -8  -9   46.59   16.75
  11   8  -9   43.56   17.43
 -11   8   9   39.09   17.45
 -11   8 -10   13.46    7.40
 -11  -8 -10    3.48    5.70
  11   8 -10    7.46    4.83
  11  -8 -10    9.54    6.99
 -11   8  10    7.66    4.95
 -11   8 -11   46.56   23.34
 -11  -8 -11   55.55   24.67
  11   8 -11   40.03   17.53
  11  -8 -11   49.21   20.05
 -11   8  11   34.77   17.40
 -11   8 -12   51.73   22.04
 -11  -8 -12   65.97   14.03
  11   8 -12   45.69   15.25
  11  -8 -12   70.45   22.89
 -11   8  12   77.16   30.19
 -11   8 -13   39.13   11.36
 -11  -8 -13   31.64   14.79
  11   8 -13   14.36   11.77
  11  -8 -13   37.51   12.77
 -11   8  13   37.79   11.65
 -11  -9   0   47.68    7.81
 -11   9   0   57.50   18.82
 -11  -9  -1   21.81    9.37
 -11  -9   1   18.36   14.06
  11  -9   1   18.71    8.65
 -11   9  -1   19.61    6.32
 -11   9   1   20.12    7.05
 -11  -9  -2   14.92    6.52
 -11  -9   2   40.75   11.68
  11  -9   2   17.79    9.82
 -11   9  -2   37.36   13.05
 -11   9   2   24.48    8.31
 -11  -9  -3  112.25    9.13
 -11  -9   3  106.58    7.63
  11  -9   3  111.90   10.78
 -11   9   3  110.83   11.69
 -11  -9  -4   71.58   20.55
 -11  -9   4   52.47   21.61
  11  -9   4   72.51    9.66
 -11   9  -4   53.98   18.29
 -11   9   4   62.50   21.50
 -11  -9  -5   69.44   26.59
 -11  -9   5   55.83   22.86
  11  -9   5   55.58   20.87
 -11   9  -5   57.15   18.74
  11   9  -5   79.83   11.55
 -11   9   5   67.83   24.59
 -11  -9  -6    6.13    5.32
 -11  -9   6   13.27    6.66
  11  -9   6    6.68    2.72
 -11   9  -6    8.71    6.09
  11   9  -6    4.93    4.24
 -11   9   6    3.24    3.90
 -11   9  -7   35.29   11.77
 -11  -9  -7   41.32    8.64
 -11  -9   7   35.59   14.71
  11   9  -7   24.91   13.28
 -11   9   7   28.74   15.91
 -11   9  -8    9.08    5.15
 -11  -9  -8   13.74    7.80
  11   9  -8   15.59    9.10
 -11   9   8    9.34    7.45
 -11   9  -9   39.46   16.16
 -11  -9  -9   62.37   18.33
  11   9  -9   26.88   15.66
 -11   9   9   48.29   19.96
 -11   9 -10   -6.94    5.15
 -11  -9 -10    2.11    3.79
  11   9 -10    3.02    2.42
 -11   9  10    5.61    6.05
 -11   9 -11    9.31    3.98
 -11  -9 -11   12.31    4.29
  11   9 -11   11.25    7.94
  11  -9 -11    3.24    5.81
 -11   9  11   11.75    8.68
 -11   9 -12   11.53   13.88
 -11  -9 -12   29.97   11.66
  11   9 -12   12.08    8.79
  11  -9 -12   23.67   12.21
 -11   9  12   32.69   13.61
 -11 -10   0    6.89    4.96
 -11  10   0    7.54    3.81
 -11 -10  -1   36.94   13.54
 -11 -10   1   39.76    8.20
 -11  10  -1   37.61   14.20
 -11  10   1   38.11   11.27
 -11 -10  -2   19.00    9.51
 -11 -10   2   19.17    9.16
  11 -10   2   26.29   12.54
 -11  10  -2   14.88    5.66
 -11 -10  -3   15.37    9.94
 -11 -10   3   11.53    8.97
  11 -10   3   18.29    8.83
 -11  10  -3   20.63    4.68
 -11  10   3   13.97    6.85
 -11 -10  -4  255.39   26.49
 -11 -10   4  268.66   10.98
  11 -10   4  267.89    9.81
 -11  10  -4  267.38   13.14
 -11  10   4  267.23   11.72
 -11 -10  -5   22.02    8.80
 -11 -10   5   30.13    7.32
  11 -10   5   24.62   10.37
 -11  10  -5   20.98    8.71
 -11  10   5   18.33    9.64
 -11 -10  -6   68.47   18.12
 -11 -10   6   44.76   19.32
  11 -10   6   49.37   22.66
 -11  10  -6   68.71   15.26
  11  10  -6   63.32    8.06
 -11  10   6   76.98   26.73
 -11 -10  -7   29.90   15.93
 -11 -10   7   15.95    5.67
  11 -10   7   14.54   11.80
 -11  10  -7   16.31   10.30
  11  10  -7   23.40   11.35
 -11  10   7   18.68   12.30
 -11 -10  -8  173.57   42.09
 -11 -10   8  181.21   38.67
  11 -10   8  169.45   40.38
  11  10  -8  158.29   37.95
 -11  10   8  158.33   44.84
 -11 -10  -9   46.59   15.13
  11 -10   9   39.28   20.44
  11  10  -9   29.05    9.73
 -11  10   9   37.84   24.05
  11  10 -10   13.91    8.38
 -11  10  10    7.45    7.90
 -11  10 -11   12.09    7.59
 -11 -10 -11   20.67    9.94
  11  10 -11   11.29    9.24
 -11  10  11   16.33    7.44
 -11 -11   0   51.23   20.12
 -11  11   0   45.30   19.73
 -11 -11  -1   52.73    9.88
 -11 -11   1   32.11   14.56
 -11  11  -1   40.61   14.62
 -11  11   1   41.18   16.63
 -11 -11  -2   33.99   11.93
 -11 -11   2   46.68   18.34
 -11  11   2   29.28   16.17
 -11 -11  -3    3.58    4.47
 -11 -11   3   -0.88    5.98
  11 -11   3    5.72    3.42
 -11  11  -3    3.07    2.56
 -11  11   3    3.17    2.90
 -11 -11  -4   -7.34    6.15
 -11 -11   4    2.18    4.82
  11 -11   4    4.02    2.99
 -11  11  -4   -2.80    3.86
 -11  11   4    3.53    3.24
 -11 -11  -5   16.27   10.91
 -11 -11   5   13.85    8.54
  11 -11   5    9.27    7.82
 -11  11  -5   23.06    6.52
 -11  11   5   27.28    7.77
 -11 -11  -6    9.96    8.12
 -11 -11   6   12.10    8.19
  11 -11   6   11.95    6.76
 -11  11  -6    7.09    4.03
 -11  11   6   44.24   21.53
 -11 -11  -7    3.95    5.94
 -11 -11   7    8.18    6.20
  11 -11   7    5.82    4.75
 -11  11  -7    1.25    3.25
  11  11  -7    9.10    4.73
 -11  11   7    5.14    4.26
 -11 -11  -8   -4.02    8.64
 -11 -11   8    3.45    3.79
  11 -11   8    1.68    2.30
  11  11  -8    6.07    4.99
 -11  11   8   -1.71    6.01
 -11 -11  -9    9.82   12.73
  11 -11   9    9.81    5.76
  11  11  -9    9.37    8.12
 -11  11   9    2.46    5.76
 -11 -11 -10   15.71    8.35
  11 -11  10    8.23   10.52
  11  11 -10   16.62    7.43
 -11  11  10   17.08    8.61
 -11 -12   0   23.39    9.40
 -11  12   0   31.41   12.00
 -11 -12  -1    7.09    4.09
 -11 -12   1    9.38    4.42
 -11  12  -1   19.57    6.43
 -11  12   1   12.45    9.31
 -11 -12  -2  134.98   46.70
 -11 -12   2  147.59   31.81
 -11  12   2  146.86   31.71
 -11 -12  -3   11.53    7.76
 -11 -12   3    9.78    8.39
  11 -12   3   11.12    4.27
 -11  12  -3   10.38    6.41
 -11  12   3   11.45    8.87
 -11 -12  -4    3.21    3.26
 -11 -12   4    5.94    4.04
  11 -12   4    4.37    3.02
 -11  12  -4   -0.08    4.46
 -11  12   4    0.45    3.15
 -11 -12  -5   16.39    5.67
 -11 -12   5   25.31    8.56
  11 -12   5   15.85    8.23
 -11  12  -5    9.38    5.02
 -11  12   5   17.25    9.42
 -11 -12  -6   11.09    6.99
 -11 -12   6    9.31    7.24
  11 -12   6    5.42    6.09
 -11  12  -6   10.07    4.16
 -11  12   6    6.19    4.50
 -11 -12  -7   -0.35    8.63
 -11 -12   7    2.41    4.39
  11 -12   7    9.94    9.05
 -11  12  -7    2.82    5.52
 -11  12   7   14.69    7.78
 -11 -12  -8    1.70    8.17
 -11 -12   8    0.42    3.63
  11 -12   8    4.42    4.15
 -11  12  -8    2.75    2.38
  11  12  -8    6.40    4.80
 -11  12   8    5.20    4.83
 -11 -13   0   12.37    6.72
 -11  13   0   10.32    9.81
 -11 -13  -1   29.50   15.75
 -11 -13   1   34.02   10.15
 -11  13   1   24.45    8.18
 -11 -13  -2   14.57    6.66
 -11 -13   2   13.43    6.12
 -11  13   2    7.51    7.87
 -11 -13  -3   34.51   10.70
 -11 -13   3   17.24    7.73
 -11  13  -3   15.92    9.54
 -11  13   3   19.00    8.47
 -11 -13  -4    8.81    8.26
 -11 -13   4   22.13    7.51
  11 -13   4   21.98   12.43
 -11  13  -4   20.24   10.15
 -11  13   4   19.47   14.10
 -11 -13  -5   20.91    8.21
 -11 -13   5   17.87    5.99
  11 -13   5   13.58   11.32
 -11  13  -5   19.22    5.95
 -11  13   5   20.55    9.14
 -11 -13  -6   23.24   13.94
  11 -13   6   19.28   11.96
 -11  13  -6   28.47   11.04
 -11  13   6   25.35   11.22
 -11 -14   0   10.70    4.97
 -11 -14  -1   -0.74    6.97
 -11 -14   1    5.37    6.15
 -11  14   1    2.06    4.25
 -11 -14  -2    9.68    7.08
 -11 -14   2   -4.36    6.14
 -11  14   2    3.76    3.31
 -12   0   0  475.28   13.14
 -12   0   1   26.22    7.04
 -12   0  -1   26.18    8.58
 -12   0  -2   17.54    4.94
 -12   0  -3   34.04    9.29
  12   0  -3   45.70    7.30
 -12   0  -4  144.73   21.02
  12   0  -4  139.42   10.09
 -12   0  -5   75.77   24.14
  12   0  -5   92.49    6.34
 -12   0  -6   45.29   13.68
  12   0  -6   62.30    6.85
 -12   0  -7   84.65   27.35
  12   0  -7   91.41   13.64
 -12   0  -8   82.57   24.14
  12   0  -8   79.42   15.40
 -12   0  -9   47.95   19.55
  12   0  -9   64.80   11.93
 -12   0 -10   33.47    9.88
  12   0 -10   26.20   11.83
 -12   0 -11   38.74   11.40
  12   0 -11   44.90   12.26
 -12   0 -12   50.04   16.23
  12   0 -12   19.46    5.60
 -12   0 -13    5.74    5.12
  12   0 -13    8.38    8.73
 -12   0 -14    4.85    6.20
  12   0 -14   16.48    9.15
 -12   1   0    6.67    3.72
 -12  -1   0    9.94    3.11
 -12   1  -1   35.78    8.14
 -12  -1  -1   37.19   11.22
 -12  -1   1   36.22   10.28
 -12   1  -2    6.16    2.82
 -12  -1  -2    7.40    3.80
 -12  -1   2    3.01    2.41
  12  -1  -2    3.93    3.08
 -12   1  -3  224.07    9.31
 -12  -1  -3  250.28   10.75
  12   1  -3  231.31   14.99
  12  -1  -3  214.37   18.13
 -12   1  -4   20.75    8.93
 -12  -1  -4   25.70   12.87
  12   1  -4   18.95    4.94
  12  -1  -4   17.71    8.85
 -12   1  -5   28.81    9.30
 -12  -1  -5   24.29    7.55
  12   1  -5    6.52    3.84
  12  -1  -5    7.53    5.11
 -12   1  -6    5.68    2.93
 -12  -1  -6   -0.35    4.59
  12   1  -6    5.67    3.96
  12  -1  -6    6.37    5.68
 -12   1  -7   38.21   15.20
 -12  -1  -7   41.90   17.81
  12   1  -7   62.94    8.46
  12  -1  -7   39.73   13.46
 -12   1  -8   26.39    9.12
 -12  -1  -8   22.96   10.04
  12   1  -8   19.61    6.40
  12  -1  -8   27.72    9.04
 -12   1  -9  122.71    7.68
 -12  -1  -9  138.68   27.71
  12   1  -9  138.97   32.34
  12  -1  -9  120.98   19.21
 -12   1 -10    5.41    3.69
 -12  -1 -10    9.32    5.92
  12   1 -10    6.99    4.90
  12  -1 -10    2.77    3.83
 -12   1 -11    6.48    8.61
 -12  -1 -11    8.68    5.62
  12   1 -11    2.74    3.10
  12  -1 -11   13.36    6.24
 -12   1 -12    5.40    4.45
 -12  -1 -12    6.91    3.71
  12   1 -12   12.94    8.27
  12  -1 -12   13.49    5.91
 -12   1 -13   29.92   13.47
 -12  -1 -13   39.20   20.09
  12   1 -13   42.68   10.44
  12  -1 -13   26.33    8.18
 -12   1 -14   -0.87    5.03
 -12  -1 -14    5.32    6.28
  12   1 -14    4.97    7.30
  12  -1 -14   -0.10    8.83
 -12   2   0  128.28    5.28
 -12  -2   0  129.25    6.36
 -12   2  -1  197.22    7.22
 -12  -2  -1  209.26    8.79
 -12  -2   1  194.78    7.27
  12  -2  -1  230.83    9.33
 -12   2  -2   84.23    4.94
 -12  -2  -2   85.11    8.52
 -12  -2   2   92.30    6.46
  12  -2  -2   86.07    7.43
 -12   2  -3    5.35    3.73
 -12  -2  -3    2.55    3.01
  12  -2  -3    7.37    5.10
 -12   2  -4   47.37   17.87
 -12  -2  -4   46.53   14.95
  12   2  -4   54.66    9.67
  12  -2  -4   31.91   17.48
 -12   2  -5  128.55   16.42
 -12  -2  -5  148.37   25.95
  12   2  -5  148.64    7.19
  12  -2  -5  122.20    8.91
 -12   2  -6  127.84   18.87
 -12  -2  -6  115.73   14.18
  12   2  -6  122.62   16.68
  12  -2  -6  120.57   16.03
 -12   2  -7   57.00   16.73
 -12  -2  -7   59.79    8.56
  12   2  -7   48.47   18.32
  12  -2  -7   53.65   20.43
 -12   2  -8   10.35    7.68
 -12  -2  -8    9.80    4.07
  12   2  -8    8.41    6.79
  12  -2  -8   15.49    6.49
 -12   2  -9   -3.08    5.37
 -12  -2  -9    5.49    4.46
  12   2  -9   -4.39    6.34
  12  -2  -9    4.17    7.56
 -12   2 -10   31.92   24.56
 -12  -2 -10   57.64   22.93
  12   2 -10   43.57   18.72
  12  -2 -10   53.29   10.42
 -12   2 -11   78.17   26.41
 -12  -2 -11   59.71   23.37
  12   2 -11   56.96   29.55
  12  -2 -11   51.30   16.02
 -12   2 -12   12.62    6.77
 -12  -2 -12    8.14    5.37
  12   2 -12    7.31    6.20
  12  -2 -12   11.10    6.19
 -12   2 -13   35.16   13.09
 -12  -2 -13   31.62   23.56
  12   2 -13   47.61   21.14
  12  -2 -13   37.58   19.64
 -12   2 -14    5.34    4.32
 -12  -2 -14    9.02    5.95
  12   2 -14    8.59   10.03
  12  -2 -14    6.33    5.86
 -12  -3   0  164.22   14.38
 -12   3  -1   32.60    8.43
 -12  -3  -1   39.47   10.17
 -12  -3   1   30.24    9.26
  12  -3  -1   37.69   15.74
 -12   3  -2  105.06    9.49
 -12  -3  -2  100.13   11.69
 -12  -3   2   97.35   10.86
  12  -3  -2   96.96   10.03
 -12   3  -3  271.00   12.45
 -12  -3  -3  295.81   10.14
 -12  -3   3  287.77    8.47
  12  -3  -3  284.93    9.21
 -12   3  -4   47.51   12.59
 -12  -3  -4   35.93   14.51
  12   3  -4   26.88   12.73
  12  -3  -4   37.54   15.99
 -12   3  -5   35.19   11.97
 -12  -3  -5   39.24    7.19
  12   3  -5   17.05    7.68
  12  -3  -5   25.98    7.08
 -12   3  -6   43.06   15.20
 -12  -3  -6   51.57   15.22
  12   3  -6   40.45   17.30
  12  -3  -6   48.68   16.23
 -12   3  -7   26.07   10.99
 -12  -3  -7   23.21   11.26
  12   3  -7   27.48    8.11
  12  -3  -7   16.05    6.35
 -12   3  -8   53.87   18.99
 -12  -3  -8   61.48   24.42
  12   3  -8   55.70   23.52
  12  -3  -8   55.32   25.49
 -12   3   8   62.83   29.09
 -12   3  -9  160.18    9.50
 -12  -3  -9  192.81   33.21
  12   3  -9  139.80    8.44
  12  -3  -9  173.04   11.77
 -12   3   9  181.66   19.30
 -12   3 -10   38.06   13.47
 -12  -3 -10   10.72    7.29
  12   3 -10   24.51   12.97
  12  -3 -10   43.28   14.45
 -12   3  10   29.77   11.27
 -12   3 -11    3.84    3.05
 -12  -3 -11    5.25    5.38
  12   3 -11    3.71    4.46
  12  -3 -11    3.04    5.78
 -12   3  11    3.27    5.76
 -12   3 -12   13.77   11.40
  12   3 -12   21.17    7.07
  12  -3 -12   22.32    7.34
 -12   3  12   29.44   12.91
 -12   3 -13   25.30   13.03
 -12  -3 -13   18.24   12.10
  12   3 -13   24.35   10.57
  12  -3 -13   22.06    8.91
 -12   3  13   12.99    9.19
 -12   3 -14   55.87   32.66
 -12  -3 -14   45.22   27.42
  12   3 -14   43.02   24.41
  12  -3 -14   55.60   22.63
 -12   3  14   43.19   15.06
 -12  -4   0   17.16    6.08
 -12   4  -1   98.68    4.94
 -12  -4  -1  103.41   12.60
 -12  -4   1  102.55    6.35
 -12   4  -2   29.86    7.72
 -12  -4  -2   17.12    9.87
 -12  -4   2   32.11   10.97
 -12   4  -3   35.64   10.63
 -12  -4  -3   37.17   10.45
 -12  -4   3   31.96   10.30
  12  -4  -3   34.81   15.69
 -12   4  -4   69.89   22.69
 -12  -4  -4   68.10   20.86
  12  -4  -4   83.01    9.89
 -12   4  -5   64.00   15.21
 -12  -4  -5   69.14   11.37
  12   4  -5   47.50   21.09
  12  -4  -5   67.61   10.91
 -12   4   5   61.37   34.66
 -12   4  -6   27.35   13.09
 -12  -4  -6   30.02   12.41
  12   4  -6   30.75   10.76
  12  -4  -6   31.51    7.04
 -12   4   6   47.91   16.35
 -12   4  -7   16.17    5.57
 -12  -4  -7    6.66    4.43
  12   4  -7    6.88    6.92
  12  -4  -7    6.14    6.89
 -12   4   7   13.32    7.93
 -12   4  -8   47.12   17.26
 -12  -4  -8   66.07    9.13
  12   4  -8   59.53    6.54
  12  -4  -8   53.12    8.64
 -12   4   8   58.14   23.58
 -12   4  -9    3.80    3.53
 -12  -4  -9    5.94    5.27
  12   4  -9    6.54    4.82
  12  -4  -9    1.83    4.78
 -12   4   9   15.72    9.74
 -12   4 -10   21.55    9.09
 -12  -4 -10   19.88    8.10
  12   4 -10   26.25    6.47
  12  -4 -10   13.59    8.74
 -12   4  10   22.33    6.48
 -12   4 -11   90.52   13.90
 -12  -4 -11  110.83   36.11
  12   4 -11   93.14   14.33
  12  -4 -11   70.66   26.54
 -12   4  11  110.05   35.43
 -12   4 -12    9.79    4.83
 -12  -4 -12   10.08    7.37
  12   4 -12   11.91    6.60
  12  -4 -12   16.92   15.01
 -12   4  12   12.22    7.95
 -12   4 -13    6.88    4.85
 -12  -4 -13   12.53    8.57
  12   4 -13    6.51    7.22
  12  -4 -13    4.69    8.27
 -12   4  13   -0.97    7.93
 -12   4 -14   27.96    9.17
 -12  -4 -14   22.89    8.55
  12   4 -14   18.90   14.23
  12  -4 -14   25.48    8.89
 -12   4  14   24.33   11.26
 -12  -5   0   75.38   11.48
 -12   5  -1   21.08    7.27
 -12  -5  -1   30.52    8.32
 -12  -5   1   27.20   10.21
 -12   5  -2   30.31    9.18
 -12  -5  -2   22.81    9.73
 -12  -5   2   28.26   11.23
 -12   5  -3    0.39    3.11
 -12  -5  -3    2.24    2.92
 -12  -5   3   -1.62    3.25
 -12   5   3    8.92    6.88
 -12   5  -4   48.18   18.24
 -12  -5  -4   64.80   19.74
 -12  -5   4   46.49   16.48
 -12   5   4   82.04   33.57
 -12   5  -5   26.22    9.53
 -12  -5  -5   24.18    7.24
  12   5  -5   30.22   10.08
  12  -5  -5   27.78    8.60
 -12   5   5   26.91   10.95
 -12   5  -6   86.06   15.89
 -12  -5  -6   88.58   27.83
  12   5  -6   93.50   13.63
  12  -5  -6  101.90   11.57
 -12   5   6  102.62    9.38
 -12   5  -7   11.54    4.61
 -12  -5  -7    5.71    6.72
  12   5  -7    8.18    4.75
  12  -5  -7   13.27    9.67
 -12   5   7   21.56    7.48
 -12   5  -8  122.93    7.36
 -12  -5  -8  103.29   23.70
  12   5  -8  105.77   17.08
  12  -5  -8  122.00   10.44
 -12   5   8  112.87   11.09
 -12   5  -9   -2.80    5.12
 -12  -5  -9    7.05    5.00
  12   5  -9    2.50    5.73
  12  -5  -9    4.05    6.00
 -12   5   9    0.61    4.78
 -12   5 -10   46.08   19.50
 -12  -5 -10   48.92   15.00
  12   5 -10   39.77   14.49
  12  -5 -10   52.74   10.84
 -12   5  10   55.16   25.58
 -12   5 -11   11.38    8.42
 -12  -5 -11    1.11    6.04
  12   5 -11   15.53    7.52
  12  -5 -11   10.89    8.04
 -12   5  11   16.77    6.26
 -12   5 -12   74.12   22.51
 -12  -5 -12   80.00   31.75
  12   5 -12   39.86   26.46
  12  -5 -12   59.55   24.20
 -12   5  12   72.83   34.15
 -12   5 -13    7.26    4.67
 -12  -5 -13   10.61   10.78
  12   5 -13    7.53    4.54
  12  -5 -13    4.38    5.40
 -12   5  13   -3.08    6.41
 -12  -6   0    5.01    3.54
 -12  -6  -1   22.64    7.53
 -12  -6   1   30.10    7.39
 -12   6  -2  121.86   13.35
 -12  -6  -2  109.74   15.18
 -12  -6   2  130.75   11.92
 -12   6   2  156.09   16.14
 -12   6  -3    5.94    3.44
 -12  -6  -3   13.40    4.79
 -12  -6   3    4.84    6.36
 -12   6   3   12.10    6.84
 -12   6  -4    4.15    4.52
 -12  -6  -4    9.31    4.15
 -12  -6   4   -0.80    3.81
 -12   6   4   13.81   10.14
 -12   6  -5  121.81    7.33
 -12  -6  -5  114.76   24.33
 -12   6   5  130.84   17.89
 -12   6  -6    4.77    2.57
 -12  -6  -6   -0.53    6.31
  12   6  -6    4.57    5.26
 -12   6   6    4.90    3.57
 -12   6  -7   92.66   13.70
 -12  -6  -7   94.03   36.40
  12   6  -7   98.94    9.22
  12  -6  -7  101.19   10.48
 -12   6   7   66.48   25.88
 -12   6  -8   17.11    8.07
 -12  -6  -8   19.42   14.48
  12   6  -8   20.75    6.20
  12  -6  -8   21.65    7.45
 -12   6   8   10.41    4.88
 -12   6  -9   17.05   10.02
 -12  -6  -9   30.74   11.84
  12   6  -9   20.59    6.28
  12  -6  -9   12.69    5.67
 -12   6 -10   30.13   12.85
 -12  -6 -10   30.55   11.38
  12   6 -10   31.50   21.50
  12  -6 -10   42.43    9.02
 -12   6  10   42.58   17.38
 -12   6 -11   23.14   11.09
 -12  -6 -11   18.04    7.45
  12   6 -11   13.17    6.06
  12  -6 -11   12.07   15.50
 -12   6  11   25.29   14.09
 -12   6 -12   -3.72    5.04
 -12  -6 -12   12.67   11.85
  12   6 -12    5.39    8.41
  12  -6 -12    6.09    6.91
 -12   6  12    5.41    4.45
 -12   6 -13   10.92    6.00
 -12  -6 -13    7.52    5.60
  12   6 -13   13.44    8.39
  12  -6 -13   11.16    9.50
 -12   6  13    1.42    4.26
 -12  -7   0   38.78   13.83
 -12  -7  -1   -0.29    2.81
 -12  -7   1    4.29    3.57
 -12   7   1   10.07    7.37
 -12  -7  -2   59.80   24.25
 -12  -7   2   73.06    9.04
  12  -7   2   77.59   17.07
 -12   7   2   68.47   10.31
 -12   7  -3    5.07    3.33
 -12  -7  -3    8.33    5.36
 -12  -7   3    9.60    5.07
 -12   7   3    8.18    8.64
 -12   7  -4  100.63   17.09
 -12  -7  -4   99.75   23.19
 -12  -7   4  110.28   13.79
 -12   7   4   95.05    9.57
 -12   7  -5    2.33    2.45
 -12  -7  -5    1.66    6.04
 -12  -7   5    1.76    3.47
 -12   7   5    6.63    4.16
 -12   7  -6   50.33   17.45
 -12  -7  -6   42.57   19.18
 -12   7   6   53.22   23.52
 -12   7  -7   10.61    6.03
 -12  -7  -7   12.45    8.05
  12   7  -7    7.55    4.36
 -12   7   7   12.75    9.19
 -12   7  -8   34.20   11.45
 -12  -7  -8   39.43   13.57
  12   7  -8   30.35   10.37
  12  -7  -8   39.52   10.70
 -12   7   8   39.21   12.26
 -12   7  -9    3.63    4.79
 -12  -7  -9    5.15    3.69
  12   7  -9    3.16    3.34
  12  -7  -9   11.95    8.86
 -12   7   9    7.49    6.28
 -12   7 -10   29.17   13.26
 -12  -7 -10   38.28   10.33
  12   7 -10   23.97   23.81
  12  -7 -10   57.41   21.37
 -12   7  10   36.97   13.14
 -12   7 -11    6.46    3.56
 -12  -7 -11   14.15    8.58
  12   7 -11    5.98    4.53
  12  -7 -11    9.58    9.20
 -12   7  11   -2.79    7.47
 -12   7 -12   18.66    5.74
 -12  -7 -12   21.51   11.41
  12   7 -12   21.33    9.27
  12  -7 -12   23.17   10.93
 -12   7  12   29.65   18.50
 -12  -8   0    1.14    3.64
 -12   8   0    6.44    3.56
 -12  -8  -1   33.49   10.83
 -12  -8   1   35.09   17.96
 -12   8   1   38.12   15.79
 -12  -8  -2   89.30   22.35
 -12  -8   2  117.82    7.85
 -12   8   2  110.07   21.38
 -12  -8  -3    0.55    5.82
 -12  -8   3    4.15    4.26
  12  -8   3   10.21    4.70
 -12   8   3    6.11    5.86
 -12  -8  -4   74.38   12.77
 -12  -8   4   58.41   20.93
  12  -8   4   59.36    6.61
 -12   8   4   60.63   17.94
 -12   8  -5   46.41   11.08
 -12  -8  -5   38.10   13.63
 -12  -8   5   32.89   16.25
 -12   8   5   43.63   17.28
 -12   8  -6   52.19   14.60
 -12  -8  -6   61.03   23.83
 -12   8   6   47.91   26.08
 -12   8  -7   19.29    9.68
 -12   8   7   24.54   13.55
 -12   8  -8   41.68   20.69
 -12  -8  -8   37.61   17.94
  12   8  -8   35.10   17.33
 -12   8   8   40.89   21.41
 -12   8  -9   12.66    8.16
 -12  -8  -9    0.85    3.91
  12   8  -9    1.90    2.46
  12  -8  -9    1.14    7.14
 -12   8   9   -1.35    5.01
 -12   8 -10   -1.02    4.85
 -12  -8 -10    6.20   11.47
  12   8 -10    6.57    4.63
  12  -8 -10    6.43    6.93
 -12   8  10    7.93    7.56
 -12   8 -11   12.51    7.32
 -12  -8 -11   13.18   10.65
  12   8 -11   11.78    7.34
  12  -8 -11   10.86    8.07
 -12   8  11   23.97   12.28
 -12  -9   0   41.88   15.14
 -12   9   0   45.87   17.12
 -12  -9  -1   15.44    8.51
 -12  -9   1   21.66    9.55
 -12   9  -1   11.67    4.79
 -12   9   1   22.60    8.76
 -12  -9  -2   26.52   15.77
 -12  -9   2   24.50   10.22
 -12   9   2   29.35   11.29
 -12  -9  -3   48.41   21.63
 -12  -9   3   51.29   18.47
  12  -9   3   42.69   17.32
 -12   9   3   56.54   21.03
 -12  -9  -4   33.21   10.92
 -12  -9   4   27.85    9.90
  12  -9   4   21.17   10.79
 -12   9   4   23.73   13.59
 -12  -9  -5   57.54   29.56
 -12  -9   5   42.02   14.69
  12  -9   5   54.38    8.04
 -12   9   5   50.82   20.17
 -12  -9  -6   76.82   26.37
 -12  -9   6   83.69   14.15
  12  -9   6   82.65   11.04
 -12   9   6   91.85   16.59
 -12   9  -7   74.58   23.72
 -12  -9  -7   63.83   30.59
 -12   9   7   57.37   27.63
 -12   9  -8   19.65    9.41
 -12  -9  -8   41.79   10.62
 -12   9   8   35.93   12.80
 -12   9  -9   22.67   12.23
 -12  -9  -9   19.15   10.81
  12   9  -9   10.94    9.71
 -12   9   9   11.34   10.78
 -12   9 -10   12.02    4.63
 -12  -9 -10   10.18   12.53
  12   9 -10    7.23    5.36
  12  -9 -10   15.80    8.64
 -12   9  10   17.18   10.84
 -12 -10   0   43.80   14.22
 -12  10   0   24.34   11.76
 -12 -10  -1   57.93   24.33
 -12 -10   1   77.14    9.10
 -12  10  -1   40.00   17.70
 -12  10   1   63.75   25.24
 -12 -10  -2   39.11   15.44
 -12 -10   2   28.93   11.70
 -12  10  -2   19.79   10.97
 -12  10   2   30.19   10.68
 -12 -10  -3    5.69    6.43
 -12 -10   3   -1.22    4.78
 -12  10   3   -3.58    5.11
 -12 -10  -4    8.39    5.33
 -12 -10   4    3.04    3.75
  12 -10   4    4.33    3.44
 -12  10   4    6.44    5.32
 -12 -10  -5   11.05    9.70
 -12 -10   5   20.63   10.31
  12 -10   5   16.12   12.13
 -12  10   5   22.49   10.91
 -12 -10  -6   41.46   24.81
 -12 -10   6   33.77   15.05
  12 -10   6   44.00   20.64
 -12  10   6   36.89   15.61
 -12 -10  -7   -3.18    6.19
  12 -10   7    3.74    3.79
 -12  10   7    1.39    5.61
 -12 -10  -8    7.35    6.39
  12 -10   8    9.57    7.12
 -12  10   8   -2.93    6.15
 -12 -10  -9   14.88   10.13
  12 -10   9   14.06    7.86
 -12  10   9   10.93   13.45
 -12 -11   0   26.54    7.89
 -12  11   0   26.85   15.33
 -12 -11  -1   37.43   14.70
 -12 -11   1   50.15   19.82
 -12  11  -1   40.69   17.21
 -12  11   1   40.80   19.41
 -12 -11  -2    4.84    4.50
 -12 -11   2    8.53    6.74
 -12  11   2    8.13    7.05
 -12 -11  -3   59.43   29.65
 -12 -11   3   59.75   29.68
 -12  11   3   69.33   31.49
 -12 -11  -4   16.67    5.94
 -12 -11   4   20.34    7.21
 -12  11   4   10.86    5.85
 -12 -11  -5    2.98    4.42
 -12 -11   5    2.23    3.80
  12 -11   5    4.61    3.69
 -12  11   5    5.31    3.04
 -12 -11  -6   30.19   12.80
 -12 -11   6   34.81   14.58
  12 -11   6   18.44   12.28
 -12  11   6   27.04   16.98
 -12 -11  -7   18.41   11.11
  12 -11   7   10.72    9.47
 -12  11   7    9.10    7.21
 -12 -11  -8   17.11    9.13
  12 -11   8   10.03    7.50
 -12  11   8   11.79    5.72
 -12 -12   0   42.82   15.47
 -12  12   0   33.44   14.93
 -12 -12  -1   12.13    7.73
 -12 -12   1    6.74    9.11
 -12  12   1   11.88    5.68
 -12 -12  -2   -0.35    5.81
 -12 -12   2    1.65    4.07
 -12  12   2    1.16    4.37
 -12 -12  -3   -0.62    6.10
 -12 -12   3   13.30   10.14
 -12  12   3   10.28    7.88
 -12 -12  -4   12.98    6.17
 -12 -12   4   19.38   12.10
 -12  12   4   25.22   10.63
 -12 -12  -5   27.60   10.56
 -12 -12   5   21.02    6.23
 -12  12   5   14.83   11.73
 -12 -12  -6   33.84   14.81
 -12 -12   6   20.17    9.22
  12 -12   6   31.76   17.39
 -12  12   6   43.59   14.68
 -12 -13   0    6.12    6.13
 -12 -13  -1    0.81    2.79
 -12 -13   1    7.01    5.90
 -12  13   1    1.15    3.05
 -12 -13  -2    9.06    5.53
 -12 -13   2    7.58    5.52
 -12  13   2    3.77    4.29
 -13   0  -1    1.85    2.30
 -13   0  -2    1.07    3.39
 -13   0  -3    5.92    5.33
 -13   0  -4  206.62   16.74
 -13   0  -5    4.53    3.14
 -13   0  -6    2.67    1.87
  13   0  -6    4.38    3.70
 -13   0  -7    9.19    5.42
  13   0  -7   11.51    7.14
 -13   0  -8  111.26    6.92
  13   0  -8  125.66   14.55
 -13   0  -9    6.64    5.13
  13   0  -9    5.17    4.32
 -13   0 -10   -0.65    4.29
  13   0 -10    2.82    2.85
 -13   0 -11    9.92    6.04
  13   0 -11   13.78    8.86
  13   0 -12   14.29    6.96
 -13   0 -13    4.85    3.29
  13   0 -13    5.33    5.61
 -13  -1   0  222.34   16.32
 -13   1  -1   90.08   11.38
 -13  -1  -1   74.76    5.34
 -13   1  -2   53.98   14.86
 -13  -1  -2   48.15   12.34
 -13   1  -3    4.65    2.20
 -13  -1  -3    6.35    4.38
 -13   1  -4   59.10   11.12
 -13  -1  -4   50.02   16.85
 -13   1  -5  159.06    7.24
 -13  -1  -5  142.81   10.99
  13  -1  -5  127.17   18.42
 -13   1  -6   10.14    5.34
 -13  -1  -6    6.41    3.32
  13   1  -6    5.68    4.54
  13  -1  -6    1.39    4.79
 -13   1  -7  105.02   13.27
 -13  -1  -7   68.62   15.86
  13   1  -7   83.79    6.00
  13  -1  -7   71.13   24.94
 -13   1  -8   31.60   14.52
 -13  -1  -8   34.44   15.56
  13   1  -8   28.53   12.03
  13  -1  -8   30.02    7.62
 -13   1  -9    0.10    3.88
 -13  -1  -9    6.65    4.52
  13   1  -9   -1.05    5.30
  13  -1  -9   -0.91    5.91
 -13   1 -10   32.37   10.58
 -13  -1 -10   25.81    6.75
  13   1 -10   13.79    5.93
  13  -1 -10   12.09    5.73
 -13   1 -11   51.47   27.35
 -13  -1 -11   76.17   25.59
  13   1 -11   69.16   18.54
  13  -1 -11   68.11   29.34
 -13   1 -12   18.85   14.16
 -13  -1 -12   40.26   14.67
  13   1 -12   29.32   10.28
  13  -1 -12   30.99   10.17
 -13   1 -13    4.58    4.08
 -13  -1 -13    6.65    8.03
  13   1 -13   15.50    7.16
  13  -1 -13    2.93    4.79
 -13  -2   0   16.87    7.55
 -13  -2  -1   49.02   15.50
 -13   2  -2  332.77   23.65
 -13  -2  -2  337.53   24.84
 -13   2  -3    3.17    2.61
 -13  -2  -3    2.35    2.42
 -13   2  -4   35.26   10.15
 -13  -2  -4   36.94   12.97
  13  -2  -4   28.21   13.60
 -13   2  -5   14.91    4.49
 -13  -2  -5    9.72    6.98
  13  -2  -5   14.49    6.63
 -13   2  -6    4.78    2.75
 -13  -2  -6   14.32    5.47
  13  -2  -6    8.93    4.80
 -13   2  -7   13.79    5.80
 -13  -2  -7   12.90    8.17
  13   2  -7    4.82    2.60
  13  -2  -7   18.27    6.98
 -13   2  -8   29.87   10.77
 -13  -2  -8   33.44   13.36
  13   2  -8   24.20    5.89
  13  -2  -8   26.27    8.36
 -13   2  -9   29.46   10.08
 -13  -2  -9   27.07    5.94
  13   2  -9   17.66    7.36
  13  -2  -9   17.23   15.54
 -13   2 -10   89.61   11.33
 -13  -2 -10   96.47    8.67
  13   2 -10   60.21   24.07
  13  -2 -10   91.96   12.21
 -13   2 -11    4.93    3.11
 -13  -2 -11    0.63    2.95
  13   2 -11    6.48    6.28
  13  -2 -11   -1.43    4.99
 -13   2 -12   13.48    6.77
 -13  -2 -12   13.48    7.33
  13   2 -12   14.77    6.47
  13  -2 -12   20.11    7.71
 -13   2 -13   10.31   10.28
 -13  -2 -13   36.62   12.73
  13   2 -13   25.63    9.19
  13  -2 -13   13.47    4.88
 -13  -3   0   18.78    7.64
 -13  -3  -1   51.78   18.32
 -13  -3   1   44.22   14.55
 -13   3  -2   14.02    3.97
 -13  -3  -2   25.01    9.30
 -13   3  -3   63.42   17.71
 -13  -3  -3   86.73   17.80
 -13   3  -4    7.58    3.55
 -13  -3  -4    7.23    4.10
  13  -3  -4   10.56    6.41
 -13   3  -5    6.05    3.61
 -13  -3  -5   -0.71    4.12
  13  -3  -5   -1.00    4.48
 -13   3  -6   95.79    8.00
 -13  -3  -6  118.96    8.06
  13  -3  -6  106.73   12.17
 -13   3  -7    8.06    3.34
 -13  -3  -7   17.66    9.70
  13  -3  -7   17.47    7.35
 -13   3  -8    4.17    3.90
 -13  -3  -8   -4.22    5.77
  13   3  -8   -0.34    4.10
  13  -3  -8    2.29    6.61
 -13   3  -9   28.30   11.33
 -13  -3  -9   21.33    8.96
  13   3  -9   18.94    7.19
  13  -3  -9   22.32   10.06
 -13   3 -10   47.26   25.10
 -13  -3 -10   66.73   16.88
  13   3 -10   43.54   18.72
  13  -3 -10   46.24   22.09
 -13   3 -11   31.06   13.97
 -13  -3 -11   25.09    9.84
  13   3 -11   22.19    7.04
  13  -3 -11   21.81   14.53
 -13   3 -12   -5.02    5.08
 -13  -3 -12   -1.59    6.08
  13   3 -12   -4.50    6.40
  13  -3 -12    8.68    7.89
 -13   3 -13   29.71   10.38
 -13  -3 -13   12.55    7.91
  13   3 -13   16.93   10.36
  13  -3 -13   15.19    7.83
 -13  -4   0    4.92    4.37
 -13  -4  -1   10.42    5.96
 -13  -4   1   24.21    9.10
 -13  -4  -2    5.44    3.92
 -13   4  -3    2.27    3.25
 -13  -4  -3   11.92    5.95
  13  -4  -3    5.69    5.20
 -13   4  -4   31.80   10.14
 -13  -4  -4   40.26    8.80
  13  -4  -4   41.07   11.25
 -13   4  -5   64.45   16.61
 -13  -4  -5   70.92    7.14
  13  -4  -5   55.89   19.41
 -13   4  -6    5.84    3.02
 -13  -4  -6    7.02    6.15
  13  -4  -6    6.61    2.57
 -13   4  -7  123.07   14.98
 -13  -4  -7  117.93   19.09
  13  -4  -7  151.81   10.76
 -13   4  -8  123.41   17.86
 -13  -4  -8  102.60   20.25
  13   4  -8   91.94    9.87
  13  -4  -8  107.99    9.94
 -13   4  -9   35.55   14.21
 -13  -4  -9   34.02   14.37
  13   4  -9   17.07   13.09
  13  -4  -9   29.49   11.54
 -13   4   9   24.79   15.64
 -13   4 -10   19.82    7.57
 -13  -4 -10   17.16    6.55
  13   4 -10   16.99    7.39
  13  -4 -10   27.44    9.37
 -13   4  10    9.06    6.67
 -13   4 -11   28.50    7.67
 -13  -4 -11   20.90    8.07
  13   4 -11   20.00   10.42
  13  -4 -11   14.68    6.92
 -13   4  11   22.55   17.13
 -13   4 -12    2.83    5.26
 -13  -4 -12   10.72    4.26
  13   4 -12    5.25    7.41
  13  -4 -12    8.36    3.65
 -13   4  12   16.12   10.20
 -13  -5   0   90.01   19.40
 -13  -5  -1   18.71    6.32
 -13  -5   1   15.54    4.73
 -13  -5  -2   -1.56    4.13
 -13  -5   2    5.25    4.67
 -13   5  -3   20.29    7.52
 -13  -5  -3   16.72    6.54
 -13   5  -4  116.85   17.63
 -13  -5  -4   96.66   14.32
  13  -5  -4  114.04    8.17
 -13   5  -5    8.69    4.01
 -13  -5  -5   10.24    5.40
  13  -5  -5   11.19    6.58
 -13   5  -6   98.71    6.87
 -13  -5  -6   89.92   15.37
  13  -5  -6   71.33    9.23
 -13   5   6   71.82   21.60
 -13   5  -7   26.07    9.02
 -13  -5  -7   17.66   10.34
  13  -5  -7   14.71    6.11
 -13   5   7   31.29   16.15
 -13   5  -8    3.81    4.61
 -13  -5  -8   -0.25    5.13
  13  -5  -8    2.64    2.11
 -13   5   8    4.82    5.42
 -13   5  -9   34.16   17.61
 -13  -5  -9   33.12   11.11
  13   5  -9   38.29   20.01
  13  -5  -9   33.77   13.48
 -13   5   9   40.11   17.08
 -13   5 -10    7.42    2.40
 -13  -5 -10   -0.78    5.38
  13   5 -10    6.54    5.94
  13  -5 -10    0.55    6.25
 -13   5  10    3.40    5.09
 -13   5 -11    1.83    2.22
 -13  -5 -11    1.21    5.98
  13   5 -11    7.94    6.22
  13  -5 -11    2.27    6.52
 -13   5  11    4.90    9.39
 -13   5 -12   41.75   11.91
 -13  -5 -12   69.17    9.90
  13   5 -12   30.78   17.92
  13  -5 -12   16.58    8.63
 -13   5  12   66.40   22.61
 -13  -6   0   -0.90    4.38
 -13  -6  -1   99.45   16.96
 -13  -6   1   97.98    8.57
 -13  -6  -2    1.07    2.05
 -13  -6   2    0.21    3.00
 -13  -6  -3   90.29    6.94
 -13   6  -4   29.86    9.02
 -13  -6  -4   25.33   11.51
 -13   6   4   19.64   12.87
 -13   6  -5   31.39    9.29
 -13  -6  -5   34.24   10.65
 -13   6   5   49.36   15.49
 -13   6  -6    6.80    4.14
 -13  -6  -6    5.70    5.79
  13  -6  -6    2.63    3.18
 -13   6   6    5.92    4.11
 -13   6  -7   -1.46    3.88
 -13  -6  -7   -0.24    5.24
  13  -6  -7    2.47    4.15
 -13   6   7   -4.28    6.50
 -13   6  -8   23.75    7.20
 -13  -6  -8    7.80    6.64
  13  -6  -8   14.64    6.19
 -13   6   8   18.91   11.82
 -13   6  -9   14.12    6.29
 -13  -6  -9   12.62    5.57
  13  -6  -9    7.57    3.68
 -13   6   9   11.89    9.24
 -13   6 -10   -0.46    4.42
 -13  -6 -10    5.93    4.07
  13   6 -10   -0.06    2.94
  13  -6 -10   12.09    7.04
 -13   6  10    5.53    3.50
 -13   6 -11   16.44    6.12
 -13  -6 -11   30.96   17.40
  13   6 -11   28.53   11.48
  13  -6 -11   20.84   14.95
 -13   6  11   16.13   10.10
 -13  -7   0   14.17    6.15
 -13  -7  -1   15.62    6.43
 -13  -7   1   20.51    8.67
 -13  -7  -2   15.68    4.88
 -13  -7   2    8.80    5.03
 -13  -7  -3   47.08   19.08
 -13  -7   3   58.26   19.23
 -13   7   3   42.83   14.82
 -13   7  -4   18.45    7.88
 -13  -7  -4   28.76   12.40
 -13   7   4   11.85    4.53
 -13   7  -5   45.04   13.47
 -13  -7  -5   47.31   19.35
 -13   7   5   53.89   22.59
 -13   7  -6   55.06   20.52
 -13  -7  -6   74.40   13.86
 -13   7   6   69.62   24.73
 -13   7  -7   36.10   16.99
 -13  -7  -7   36.46   14.46
  13  -7  -7   41.43   17.36
 -13   7   7   65.57   28.68
 -13   7  -8    3.80    4.49
 -13  -7  -8    2.33    4.51
  13  -7  -8   -1.13    5.96
 -13   7   8    4.69    7.18
 -13   7  -9   41.88   19.17
 -13  -7  -9   37.81    6.58
  13  -7  -9   40.41   16.99
 -13   7   9   48.40   16.64
 -13   7 -10    3.40    5.27
 -13  -7 -10    3.46    3.33
  13  -7 -10    4.44    7.97
 -13   7  10    9.28    6.66
 -13  -8   0    4.99    3.81
 -13  -8  -1    4.57    3.22
 -13  -8   1    3.99    2.47
 -13  -8  -2    2.04    3.98
 -13  -8   2    6.83    5.19
 -13   8   2   38.25   21.11
 -13  -8  -3   32.71   11.83
 -13  -8   3   18.00    9.36
 -13   8   3   33.43   12.93
 -13  -8  -4   32.11    8.39
 -13   8   4   21.85    7.65
 -13   8  -5   97.76   17.50
 -13  -8  -5   61.27   25.79
 -13   8   5   98.58   33.10
 -13   8  -6    1.55    3.40
 -13  -8  -6    6.01    4.15
 -13   8   6    1.99    4.09
 -13   8  -7  148.99   21.14
 -13  -8  -7  124.38   23.22
 -13   8   7  140.68   14.45
 -13   8  -8   23.14   10.20
 -13  -8  -8    7.41    6.33
  13  -8  -8   11.21    6.57
 -13   8   8   15.11    8.27
 -13   8  -9   25.71    9.36
 -13  -8  -9    7.14    7.30
  13  -8  -9    1.84    6.91
 -13   8   9    8.01    5.84
 -13   8 -10    5.48    5.74
 -13  -8 -10   -8.01    7.26
  13  -8 -10   11.17    7.98
 -13   8  10   -0.15    6.99
 -13  -9   0    1.75    2.39
 -13  -9  -1   50.30   21.27
 -13  -9   1   77.50   13.73
 -13   9   1   57.19   25.49
 -13  -9  -2    1.58    4.42
 -13  -9   2    3.58    3.29
 -13   9   2    7.65    6.80
 -13  -9  -3   24.33    8.14
 -13  -9   3   21.89   10.34
 -13   9   3   19.27    6.58
 -13  -9  -4    6.06    6.71
 -13  -9   4   14.05    6.49
 -13   9   4   10.90    4.92
 -13  -9  -5   11.53    5.87
 -13   9   5   12.38    5.27
 -13  -9  -6   40.07   18.43
  13  -9   6   50.73    9.22
 -13   9   6   42.19   20.40
 -13  -9  -7    7.33    3.38
 -13   9   7    3.43    5.45
 -13   9  -8    4.59    3.77
 -13  -9  -8    7.64    5.14
 -13   9   8    3.00    8.24
 -13 -10   0    4.16    4.48
 -13  10   0    4.48    3.28
 -13 -10  -1   45.85   20.33
 -13 -10   1   46.92   22.85
 -13  10   1   46.90   24.76
 -13 -10  -2   37.77   20.41
 -13 -10   2   48.04   15.33
 -13  10   2   39.55   18.06
 -13 -10  -3   -0.87    5.51
 -13 -10   3   10.85    6.49
 -13  10   3   10.75    5.82
 -13 -10  -4    5.09    4.88
 -13 -10   4    6.91    3.56
 -13  10   4    4.30    5.84
 -13 -10  -5   24.21   12.18
 -13  10   5   32.53    9.56
 -13 -10  -6    5.52    6.17
  13 -10   6    1.17    4.68
 -13  10   6    2.29    2.79
 -13 -10  -7    7.61    4.96
  13 -10   7   12.12    9.72
 -13  10   7   14.50    6.86
 -13 -11   0   23.62   15.14
 -13  11   0   16.45    8.57
 -13 -11  -1    7.74    5.79
 -13 -11   1    7.03    6.17
 -13  11   1    6.09    5.57
 -13 -11  -2   23.18    9.32
 -13 -11   2   20.66   10.81
 -13  11   2   21.66   12.89
 -13 -11  -3    5.30    8.01
 -13 -11   3    4.62    4.47
 -13  11   3    8.54    5.26
 -13 -11  -4   11.29    5.84
 -13 -11   4    6.99    7.99
 -13  11   4   10.51    6.96
 -13 -11  -5   49.70   26.77
 -13  11   5   52.25   20.14
 -14   0  -2   -1.19    3.31
 -14   0  -3   25.80    6.07
 -14   0  -4   66.72    9.62
 -14   0  -5   72.49   11.03
 -14   0  -6    3.20    2.22
 -14   0  -7   21.88    7.81
 -14   0  -8   58.52   18.67
 -14   0  -9   19.01    7.65
  14   0  -9    9.53    6.72
 -14   0 -10    7.53    6.50
  14   0 -10    7.49    5.05
 -14   0 -11    6.28    4.07
  14   0 -11    0.68    6.60
 -14  -1  -2   15.19    4.49
 -14   1  -3  122.42    6.49
 -14  -1  -3   92.77   13.19
 -14   1  -4   17.80    6.98
 -14  -1  -4   19.21    5.92
 -14   1  -5    3.53    1.29
 -14  -1  -5    1.28    2.81
 -14   1  -6    8.36    4.73
 -14  -1  -6    6.36    6.25
 -14   1  -7    4.60    2.47
 -14  -1  -7    9.13    6.68
 -14   1  -8   10.93    6.77
 -14  -1  -8    6.49    7.03
 -14   1  -9   88.74   19.61
 -14  -1  -9  107.40   28.62
  14  -1  -9   95.39   21.66
 -14   1 -10    7.78    4.78
 -14  -1 -10   -1.49    4.75
  14   1 -10    8.23    6.53
  14  -1 -10   12.91    6.06
 -14   1 -11   10.98    6.20
 -14  -1 -11   -2.14    5.31
  14   1 -11    2.59    3.12
  14  -1 -11    5.57    7.12
 -14  -2  -2   22.49   10.23
 -14  -2  -3    8.36    4.01
 -14   2  -4   30.31    8.61
 -14  -2  -4   24.34    7.22
 -14   2  -5   37.52    9.13
 -14  -2  -5   31.96    9.94
 -14   2  -6   79.77   10.69
 -14  -2  -6   63.69   21.71
 -14   2  -7   19.08    8.25
 -14  -2  -7   16.74   10.78
 -14   2  -8    7.17    4.83
 -14  -2  -8    3.96    3.34
  14  -2  -8   10.94    5.77
 -14   2  -9   18.88   10.69
 -14  -2  -9   22.59   11.01
  14  -2  -9   19.20   14.11
 -14   2 -10   29.19    9.66
 -14  -2 -10   36.57   12.29
  14  -2 -10   35.64   11.87
 -14   2 -11   26.61    9.33
 -14  -2 -11   22.66   10.06
  14   2 -11   17.81    7.67
  14  -2 -11   28.99   10.03
 -14  -3  -1   13.37    6.90
 -14  -3  -2   19.90    8.49
 -14  -3  -3   39.64   18.24
 -14   3  -4   13.45    5.35
 -14  -3  -4   15.62   14.49
 -14   3  -5   21.56    6.15
 -14  -3  -5   19.81    8.54
 -14   3  -6   31.87   12.90
 -14  -3  -6   37.21   14.53
 -14   3  -7   46.90   13.77
 -14  -3  -7   35.86   23.33
  14  -3  -7   34.93    6.60
 -14   3  -8    0.08    3.53
 -14  -3  -8    6.52    4.45
  14  -3  -8    3.23    2.53
 -14   3  -9   36.86   20.17
 -14  -3  -9   35.02   12.55
  14  -3  -9   31.33   11.85
 -14   3 -10    8.63    4.58
 -14  -3 -10   12.51    5.62
  14  -3 -10   10.77    6.65
 -14   3 -11    7.73    5.27
 -14  -3 -11    3.26    3.55
  14  -3 -11    2.93    3.75
 -14  -4   0    5.02    3.71
 -14  -4  -1   69.11   26.86
 -14  -4  -2    2.72    4.75
 -14  -4  -3   11.57    6.51
 -14  -4  -4   22.97   12.03
 -14   4  -5   43.83   11.39
 -14  -4  -5   38.89   10.27
 -14   4  -6    4.48    2.29
 -14  -4  -6    4.11    2.97
 -14   4  -7   35.07    8.13
 -14  -4  -7   22.00    5.76
  14  -4  -7   32.35   14.32
 -14   4  -8   66.77    5.34
 -14  -4  -8   63.55    9.75
  14  -4  -8   64.30   11.84
 -14   4  -9    2.49    3.18
 -14  -4  -9    9.03    5.38
  14  -4  -9    5.53    4.60
 -14   4 -10   -0.32    4.50
 -14  -4 -10    2.01    3.77
  14  -4 -10    5.79    5.83
 -14  -5   0   11.02    8.83
 -14  -5  -1   13.58    5.39
 -14  -5  -2   27.22   11.27
 -14  -5  -3   28.03   12.13
 -14  -5  -4   36.64   17.49
 -14   5  -5   10.96    4.21
 -14  -5  -5    8.43    5.10
 -14   5  -6   16.95    5.45
 -14  -5  -6   19.23    9.55
  14  -5  -6   11.91    4.70
 -14   5  -7    2.63    2.47
 -14  -5  -7    7.02    3.62
  14  -5  -7    7.34    8.27
 -14   5  -8   33.82   15.79
 -14  -5  -8   30.57   13.52
  14  -5  -8   47.26   16.30
 -14   5  -9    3.19    3.22
 -14  -5  -9    2.99    5.53
  14  -5  -9    3.59    6.33
 -14   5 -10   12.28    7.16
 -14  -5 -10   17.13    6.25
  14  -5 -10    9.62    6.03
 -14  -6   0    7.75    6.16
 -14  -6  -1   19.03    5.98
 -14  -6  -2   40.83   15.34
 -14  -6  -3   10.33    7.15
 -14  -6  -4    5.62    5.08
 -14  -6  -5   61.95   30.90
 -14   6  -6    4.87    2.36
 -14  -6  -6   -4.01    5.68
  14  -6  -6   -0.45    5.52
 -14   6  -7   34.94   14.28
 -14  -6  -7   38.96   19.78
  14  -6  -7   53.41    9.61
 -14   6   7   29.68   16.30
 -14   6  -8   -1.12    2.74
 -14  -6  -8    7.68    4.84
  14  -6  -8    4.23    6.46
 -14   6   8    1.99    4.65
 -14   6  -9   14.80    9.76
 -14  -6  -9   14.43    6.96
  14  -6  -9    9.04    7.33
 -14   6   9    7.38    5.25
 -14  -7   0   36.88    9.21
 -14  -7  -1    6.31    7.27
 -14  -7   1   19.42    4.66
 -14  -7  -2   28.06   16.65
 -14  -7  -3    7.59    4.98
 -14  -7  -4   44.92   15.77
 -14  -7  -5    3.05    6.40
  14  -7  -5   11.15    6.64
 -14   7   5    8.35    6.55
 -14  -7  -6   65.95    9.27
  14  -7  -6   44.01   26.67
 -14   7   6   51.73   23.40
 -14   7  -7    4.86    5.37
 -14  -7  -7    5.87    5.32
  14  -7  -7   10.60    7.14
 -14   7   7    5.11    5.47
 -14   7  -8   33.58   16.49
 -14  -7  -8   41.53   15.27
  14  -7  -8   58.19    9.35
 -14   7   8   52.58   22.94
 -14  -8   0   43.37   20.53
 -14  -8  -1   24.45   12.47
 -14  -8   1   23.65    7.73
 -14  -8  -2    9.12    5.48
 -14  -8  -3    8.00    7.34
 -14  -8  -4   42.80    6.39
 -14   8   4   35.36   13.65
 -14  -8  -5   26.29    8.98
 -14   8   5   23.18    9.53
 -14  -8  -6    5.76    6.60
 -14   8   6    7.97    6.42
 -14   8  -7    4.54    3.88
 -14  -8  -7   12.88    8.49
  14  -8  -7   10.17    6.66
 -14   8   7    9.22    6.49
 -14  -9   0   28.35   16.60
 -14  -9  -1   -0.09    3.07
 -14  -9   1    9.12    4.56
 -14  -9  -2   11.22    5.89
 -14  -9  -3   14.32    6.61
 -14   9   3   12.06    5.53
 -14  -9  -4   13.08   10.07
 -14   9   4    6.07    6.09
 -14  -9  -5   27.15    8.28
 -14   9   5   28.00    9.86
 -14  -9  -6   11.06    4.80
 -14   9   6   15.44    9.45
 -14 -10   0    6.61    5.23
 -14 -10  -1   24.76   17.26
 -14 -10   1   18.29   13.22
 -14 -10  -2   12.32    6.24
 -14 -10   2    6.39    5.00
 -14  10   2   11.74    8.98
 -14 -10  -3    5.06    6.67
 -14  10   3   17.55    8.10
 -15   0  -5    3.33    1.71
 -15   0  -6    2.32    1.86
 -15   0  -7    2.82    2.40
 -15   0  -8    3.61    4.19
 -15   0  -9   35.32   14.72
 -15  -1  -4   14.45    4.51
 -15   1  -5   43.63    8.78
 -15  -1  -5   44.00   15.68
 -15   1  -6    3.53    3.18
 -15  -1  -6    5.51    3.93
 -15   1  -7   37.78   13.77
 -15  -1  -7   35.08   14.05
 -15   1  -8   -1.92    4.53
 -15  -1  -8    7.98    4.63
 -15   1  -9   -0.90    4.76
 -15  -1  -9   -2.23    4.70
 -15  -2  -4   20.11    9.64
 -15  -2  -5    3.63    1.72
 -15   2  -6   16.24    5.71
 -15  -2  -6   14.94    7.53
 -15   2  -7   23.14   10.80
 -15  -2  -7   17.61    8.97
 -15   2  -8   35.40   10.64
 -15  -2  -8   24.86   14.91
 -15   2  -9   25.30   13.22
 -15  -2  -9   34.47   10.90
 -15  -3  -3    3.56    2.54
 -15  -3  -4   54.36   14.36
 -15  -3  -5   22.74   11.87
 -15   3  -6   -0.25    3.51
 -15  -3  -6   -2.56    4.71
 -15   3  -7   10.79    5.50
 -15  -3  -7    6.80    7.55
 -15   3  -8   33.30   12.80
 -15  -3  -8   26.16   12.04
 -15   3  -9    5.60    3.34
 -15  -3  -9    2.60    4.37
 -15  -4  -3   36.23   10.53
 -15  -4  -4   21.51    8.75
 -15  -4  -5   13.06    5.92
 -15  -4  -6    6.81    7.53
 -15   4  -7    4.00    2.46
 -15  -4  -7    2.30    4.73
 -15   4  -8    4.20    2.86
 -15  -4  -8   12.72    8.58
 -15  -5  -2   31.17    7.00
 -15  -5  -3   21.18   13.30
 -15  -5  -5    4.26    4.71
 -15  -5  -6   85.48   17.96
 -15  -5  -7   22.16   13.75
 -15  -6  -2   12.47    5.88
 -15  -6  -3   19.65    9.77
 -15  -6  -4    2.13    2.14
 -15  -6  -5   61.93   14.22
 -15  -6  -6   48.78   27.41
 -15  -6  -7   71.97    8.42
 -15  -7  -1   10.89    5.71
 -15  -7  -2   39.83   14.61
 -15  -7  -3   28.86   14.05
 -15  -7  -4    9.42    7.57
 -15  -7  -5    4.75    3.46
 -15  -8  -1   26.31   12.27
 -15  -8  -2    8.11    4.90
 -15  -8  -3   13.40    6.76
 -16  -2  -6    4.45    3.31
 -16  -4  -5   37.20    8.61
   0   0   0    0.00    0.00
;
_shelx_hkl_checksum              16098
#END Tags that were not found in dictionaries
loop_
_space_group_symop_operation_xyz
'x, y, z'
'-x+1/2, -y, z+1/2'
'x+1/2, -y+1/2, -z'
'-x, y+1/2, -z+1/2'
loop_
_atom_site_label
_atom_site_type_symbol
_atom_site_fract_x
_atom_site_fract_y
_atom_site_fract_z
_atom_site_U_iso_or_equiv
_atom_site_adp_type
_atom_site_occupancy
_atom_site_site_symmetry_order
_atom_site_calc_flag
_atom_site_refinement_flags_posn
_atom_site_refinement_flags_adp
Cu1 Cu 0.44018(5) 0.03698(4) 0.91402(4) 0.03197(18) Uani 1 1 d . .
O1 O 0.7909(3) 0.3573(3) 0.9287(2) 0.0358(9) Uani 1 1 d . .
O2 O 0.7877(4) 0.3924(3) 1.0625(2) 0.0453(10) Uani 1 1 d . .
O3 O 0.6263(4) 0.1972(3) 0.7802(2) 0.0440(10) Uani 1 1 d . .
O4 O 0.5207(3) 0.1373(3) 0.9734(2) 0.0392(10) Uani 1 1 d . .
O5 O 0.3792(4) -0.0785(3) 0.6954(2) 0.0460(11) Uani 1 1 d . .
O6 O 0.3865(3) -0.0511(3) 0.8293(2) 0.0367(9) Uani 1 1 d . .
O7 O 0.6906(8) -0.0002(8) 1.0038(6) 0.149(4) Uani 1 1 d . .
H7D H 0.6411 0.0343 1.0092 0.224 Uiso 1 1 calc R U
C1 C 0.7510(5) 0.3545(4) 1.0019(3) 0.0332(12) Uani 1 1 d . .
C2 C 0.6473(5) 0.3047(4) 1.0093(3) 0.0369(13) Uani 1 1 d . .
H2A H 0.6487 0.2607 1.0552 0.044 Uiso 1 1 calc R U
C3 C 0.5623(5) 0.3767(5) 1.0220(4) 0.0498(16) Uani 1 1 d . .
H3A H 0.4975 0.3456 1.0270 0.075 Uiso 1 1 calc R U
H3B H 0.5604 0.4180 0.9758 0.075 Uiso 1 1 calc R U
H3C H 0.5758 0.4115 1.0710 0.075 Uiso 1 1 calc R U
C4 C 0.5720(4) 0.1841(4) 0.9212(3) 0.0319(12) Uani 1 1 d . .
C5 C 0.5671(5) 0.1563(4) 0.8310(3) 0.0348(12) Uani 1 1 d . .
C6 C 0.4799(5) 0.0492(5) 0.7400(3) 0.0431(15) Uani 1 1 d . .
H6A H 0.5444 0.0278 0.7157 0.052 Uiso 1 1 calc R U
C7 C 0.4288(9) 0.1167(6) 0.6809(5) 0.090(4) Uani 1 1 d . .
H7A H 0.4733 0.1687 0.6716 0.135 Uiso 1 1 calc R U
H7B H 0.3653 0.1380 0.7039 0.135 Uiso 1 1 calc R U
H7C H 0.4155 0.0859 0.6297 0.135 Uiso 1 1 calc R U
C8 C 0.4113(4) -0.0341(4) 0.7544(3) 0.0338(12) Uani 1 1 d . .
C9 C 0.8506(7) 0.3715(6) 0.5383(4) 0.071(3) Uani 1 1 d . .
H9A H 0.7835 0.3983 0.5330 0.107 Uiso 1 1 calc R U
H9B H 0.8584 0.3222 0.4992 0.107 Uiso 1 1 calc R U
H9C H 0.9015 0.4182 0.5284 0.107 Uiso 1 1 calc R U
C10 C 0.8638(5) 0.3329(4) 0.6249(3) 0.0363(13) Uani 1 1 d . .
C11 C 0.9431(4) 0.2890(3) 0.6642(3) 0.0320(11) Uani 1 1 d . .
C12 C 0.9079(5) 0.2752(4) 0.7445(3) 0.0369(13) Uani 1 1 d . .
C13 C 0.9612(7) 0.2342(8) 0.8163(4) 0.081(3) Uani 1 1 d . .
H13A H 0.9164 0.2356 0.8631 0.122 Uiso 1 1 calc R U
H13B H 1.0220 0.2694 0.8280 0.122 Uiso 1 1 calc R U
H13C H 0.9796 0.1712 0.8043 0.122 Uiso 1 1 calc R U
C14 C 0.4975(7) -0.1934(5) 0.9491(4) 0.068(2) Uani 1 1 d . .
H14A H 0.5009 -0.1551 0.9011 0.102 Uiso 1 1 calc R U
H14B H 0.4536 -0.2455 0.9387 0.102 Uiso 1 1 calc R U
H14C H 0.5650 -0.2151 0.9627 0.102 Uiso 1 1 calc R U
C15 C 0.4560(5) -0.1386(4) 1.0184(3) 0.0347(12) Uani 1 1 d . .
C16 C 0.4371(4) -0.1672(4) 1.0993(3) 0.0337(12) Uani 1 1 d . .
C17 C 0.4508(5) -0.2642(4) 1.1332(4) 0.0398(13) Uani 1 1 d . .
H17A H 0.4324 -0.3081 1.0906 0.048 Uiso 1 1 calc R U
H17B H 0.4026 -0.2724 1.1779 0.048 Uiso 1 1 calc R U
C18 C 0.3990(6) -0.0900(5) 1.1383(3) 0.0442(16) Uani 1 1 d . .
C19 C 0.3648(8) -0.0713(7) 1.2250(4) 0.080(3) Uani 1 1 d . .
H19A H 0.3433 -0.0078 1.2298 0.121 Uiso 1 1 calc R U
H19B H 0.4208 -0.0826 1.2619 0.121 Uiso 1 1 calc R U
H19C H 0.3086 -0.1115 1.2386 0.121 Uiso 1 1 calc R U
C20 C 0.7918(10) 0.1041(9) 1.1268(10) 0.115(4) Uani 1 1 d . .
H20A H 0.8054 0.1190 1.0724 0.138 Uiso 1 1 calc R U
C21 C 0.8220(12) 0.1632(11) 1.1903(12) 0.142(6) Uani 1 1 d . .
H21A H 0.8563 0.2183 1.1792 0.170 Uiso 1 1 calc R U
C22 C 0.7995(15) 0.1380(16) 1.2699(12) 0.145(7) Uani 1 1 d . .
H22A H 0.8168 0.1790 1.3117 0.174 Uiso 1 1 calc R U
C23 C 0.7538(15) 0.0572(15) 1.2908(10) 0.146(7) Uani 1 1 d . .
H23A H 0.7445 0.0401 1.3452 0.175 Uiso 1 1 calc R U
C24 C 0.7214(12) 0.0007(11) 1.2260(9) 0.122(5) Uani 1 1 d . .
H24A H 0.6852 -0.0534 1.2375 0.146 Uiso 1 1 calc R U
C25 C 0.7415(8) 0.0230(8) 1.1468(7) 0.084(3) Uani 1 1 d . .
C26 C 0.7119(10) -0.0467(10) 1.0820(8) 0.110(4) Uani 1 1 d . .
H26A H 0.6502 -0.0798 1.0999 0.132 Uiso 1 1 calc R U
C27 C 0.7960(12) -0.1160(10) 1.0663(10) 0.149(6) Uani 1 1 d . .
H27A H 0.7743 -0.1590 1.0248 0.223 Uiso 1 1 calc R U
H27B H 0.8110 -0.1490 1.1159 0.223 Uiso 1 1 calc R U
H27C H 0.8564 -0.0840 1.0480 0.223 Uiso 1 1 calc R U
N1 N 0.6307(4) 0.2555(3) 0.9322(3) 0.0351(11) Uani 1 1 d . .
N2 N 0.5018(4) 0.0918(3) 0.8185(3) 0.0377(12) Uani 1 1 d . .
N3 N 0.8113(4) 0.3067(3) 0.7516(3) 0.0353(11) Uani 1 1 d . .
N4 N 0.7868(4) 0.3408(3) 0.6779(3) 0.0351(10) Uani 1 1 d . .
H4A H 0.7283 0.3650 0.6662 0.042 Uiso 1 1 calc R U
N5 N 0.3974(4) -0.0204(3) 1.0830(3) 0.0386(11) Uani 1 1 d . .
H5A H 0.3776 0.0352 1.0935 0.046 Uiso 1 1 calc R U
N6 N 0.4307(4) -0.0490(3) 1.0093(3) 0.0334(10) Uani 1 1 d . .
Cu2 Cu 0.70991(5) 0.29449(4) 0.83967(4) 0.03177(18) Uani 1 1 d . .
loop_
_atom_site_aniso_label
_atom_site_aniso_U_11
_atom_site_aniso_U_22
_atom_site_aniso_U_33
_atom_site_aniso_U_23
_atom_site_aniso_U_13
_atom_site_aniso_U_12
Cu1 0.0382(4) 0.0307(3) 0.0270(3) 0.0004(3) 0.0002(3) -0.0083(3)
O1 0.040(2) 0.0363(19) 0.0313(18) -0.0006(15) 0.0024(18) -0.0122(18)
O2 0.052(3) 0.053(2) 0.0310(18) -0.0061(18) -0.004(2) -0.015(2)
O3 0.057(3) 0.045(2) 0.0304(18) -0.0032(19) 0.0087(19) -0.019(2)
O4 0.047(3) 0.042(2) 0.0288(18) 0.0013(17) 0.0021(18) -0.0176(19)
O5 0.062(3) 0.042(2) 0.0343(19) -0.0115(18) 0.001(2) -0.021(2)
O6 0.045(2) 0.036(2) 0.0293(17) -0.0026(17) -0.0007(17) -0.0110(18)
O7 0.172(10) 0.165(10) 0.111(6) -0.007(7) -0.021(7) 0.028(8)
C1 0.042(3) 0.029(3) 0.028(2) 0.004(2) 0.000(2) -0.007(2)
C2 0.049(4) 0.037(3) 0.026(2) -0.002(2) 0.004(2) -0.013(3)
C3 0.048(4) 0.052(4) 0.050(3) -0.009(3) 0.011(3) -0.005(3)
C4 0.033(3) 0.034(3) 0.028(2) 0.000(2) -0.003(2) -0.006(2)
C5 0.042(3) 0.034(3) 0.028(2) -0.001(2) 0.004(3) -0.006(2)
C6 0.057(4) 0.046(3) 0.026(2) -0.004(2) 0.006(3) -0.022(3)
C7 0.156(10) 0.061(5) 0.053(4) 0.025(4) -0.040(6) -0.046(6)
C8 0.033(3) 0.031(3) 0.037(3) -0.003(2) 0.001(2) -0.002(2)
C9 0.087(6) 0.082(6) 0.044(4) 0.021(4) 0.024(4) 0.040(5)
C10 0.045(4) 0.035(3) 0.029(2) -0.001(2) 0.008(3) 0.007(3)
C11 0.035(3) 0.026(2) 0.034(2) -0.004(2) 0.003(2) 0.003(2)
C12 0.035(3) 0.041(3) 0.035(3) -0.001(2) 0.002(2) 0.007(2)
C13 0.078(6) 0.126(8) 0.040(3) 0.008(4) -0.004(4) 0.053(6)
C14 0.105(7) 0.049(4) 0.050(4) -0.002(3) 0.010(4) 0.027(4)
C15 0.038(3) 0.029(2) 0.037(3) 0.003(2) -0.004(2) 0.003(2)
C16 0.027(3) 0.036(3) 0.038(3) 0.008(2) -0.006(2) 0.001(2)
C17 0.032(3) 0.038(3) 0.050(3) 0.012(2) -0.007(3) 0.000(3)
C18 0.052(4) 0.049(4) 0.031(3) 0.010(3) -0.002(3) 0.017(3)
C19 0.113(8) 0.088(7) 0.040(4) 0.016(4) 0.019(4) 0.054(6)
C20 0.107(10) 0.090(8) 0.149(11) -0.008(9) -0.016(9) -0.005(8)
C21 0.139(13) 0.100(10) 0.186(17) -0.019(12) -0.033(13) -0.011(9)
C22 0.171(17) 0.150(16) 0.115(12) -0.046(12) -0.024(12) 0.066(14)
C23 0.171(17) 0.154(16) 0.113(11) 0.005(12) 0.013(11) 0.073(14)
C24 0.147(12) 0.105(9) 0.114(9) -0.002(8) 0.023(10) 0.029(9)
C25 0.077(7) 0.090(7) 0.084(6) -0.003(6) -0.003(5) 0.001(6)
C26 0.105(9) 0.115(9) 0.110(8) -0.008(9) -0.004(8) -0.019(8)
C27 0.134(12) 0.109(10) 0.204(17) -0.062(11) 0.015(12) -0.011(10)
N1 0.047(3) 0.033(2) 0.025(2) -0.0037(18) 0.002(2) -0.010(2)
N2 0.049(3) 0.037(2) 0.027(2) -0.0035(19) -0.001(2) -0.016(2)
N3 0.038(3) 0.037(3) 0.031(2) 0.0059(19) 0.004(2) 0.005(2)
N4 0.034(3) 0.043(2) 0.029(2) 0.0007(19) 0.002(2) 0.010(2)
N5 0.050(3) 0.034(2) 0.032(2) 0.004(2) 0.000(2) 0.016(2)
N6 0.040(3) 0.028(2) 0.031(2) 0.0028(18) 0.000(2) 0.005(2)
Cu2 0.0372(4) 0.0297(3) 0.0284(3) -0.0007(3) 0.0046(3) -0.0058(3)
loop_
_atom_type_symbol
_atom_type_description
_atom_type_scat_dispersion_real
_atom_type_scat_dispersion_imag
_atom_type_scat_source
C C 0.0033 0.0016 'International Tables Vol C Tables 4.2.6.8 and 6.1.1.4'
H H 0.0000 0.0000 'International Tables Vol C Tables 4.2.6.8 and 6.1.1.4'
N N 0.0061 0.0033 'International Tables Vol C Tables 4.2.6.8 and 6.1.1.4'
O O 0.0106 0.0060 'International Tables Vol C Tables 4.2.6.8 and 6.1.1.4'
Cu Cu 0.3201 1.2651 'International Tables Vol C Tables 4.2.6.8 and 6.1.1.4'
loop_
_geom_angle_atom_site_label_1
_geom_angle_atom_site_label_2
_geom_angle_atom_site_label_3
_geom_angle
_geom_angle_site_symmetry_3
N2 Cu1 N6 156.0(2) .
N2 Cu1 O6 81.25(17) .
N6 Cu1 O6 97.00(17) .
N2 Cu1 O4 82.99(17) .
N6 Cu1 O4 95.90(17) .
O6 Cu1 O4 163.81(16) .
N2 Cu1 O2 108.6(2) 3_457
N6 Cu1 O2 95.35(18) 3_457
O6 Cu1 O2 95.45(17) 3_457
O4 Cu1 O2 93.04(17) 3_457
C1 O1 Cu2 116.0(4) .
C1 O2 Cu1 132.8(4) 3_557
C5 O3 Cu2 109.5(3) .
C4 O4 Cu1 109.2(3) .
C8 O5 Cu2 143.2(4) 4_646
C8 O6 Cu1 116.4(3) .
O2 C1 O1 124.7(5) .
O2 C1 C2 119.2(5) .
O1 C1 C2 116.0(5) .
N1 C2 C3 109.7(5) .
N1 C2 C1 106.8(4) .
C3 C2 C1 109.3(5) .
O4 C4 N1 129.6(5) .
O4 C4 C5 118.9(5) .
N1 C4 C5 111.5(5) .
N2 C5 O3 129.5(5) .
N2 C5 C4 111.8(5) .
O3 C5 C4 118.6(5) .
N2 C6 C8 108.4(4) .
N2 C6 C7 112.0(6) .
C8 C6 C7 110.3(6) .
O5 C8 O6 123.9(5) .
O5 C8 C6 119.4(5) .
O6 C8 C6 116.6(5) .
N4 C10 C11 107.8(5) .
N4 C10 C9 119.0(6) .
C11 C10 C9 133.2(6) .
C10 C11 C12 104.7(5) .
C10 C11 C17 129.9(5) 2_654
C12 C11 C17 125.3(5) 2_654
N3 C12 C11 109.8(5) .
N3 C12 C13 120.4(6) .
C11 C12 C13 129.8(6) .
N6 C15 C16 110.1(5) .
N6 C15 C14 121.2(5) .
C16 C15 C14 128.7(5) .
C18 C16 C15 105.1(5) .
C18 C16 C17 128.4(5) .
C15 C16 C17 126.4(5) .
C16 C17 C11 116.6(5) 2_655
N5 C18 C16 107.3(5) .
N5 C18 C19 119.4(6) .
C16 C18 C19 133.3(6) .
C25 C20 C21 118.4(14) .
C22 C21 C20 118.5(16) .
C23 C22 C21 123.9(18) .
C22 C23 C24 116.4(16) .
C25 C24 C23 121.4(16) .
C24 C25 C20 121.2(13) .
C24 C25 C26 117.3(12) .
C20 C25 C26 121.4(11) .
O7 C26 C25 110.6(11) .
O7 C26 C27 107.0(12) .
C25 C26 C27 112.0(11) .
C4 N1 C2 126.3(5) .
C4 N1 Cu2 116.4(4) .
C2 N1 Cu2 117.2(3) .
C5 N2 C6 125.5(5) .
C5 N2 Cu1 116.7(4) .
C6 N2 Cu1 117.3(4) .
N4 N3 C12 105.8(5) .
N4 N3 Cu2 122.0(4) .
C12 N3 Cu2 131.6(4) .
C10 N4 N3 111.8(5) .
N6 N5 C18 111.5(5) .
C15 N6 N5 106.0(4) .
C15 N6 Cu1 132.1(4) .
N5 N6 Cu1 121.8(3) .
N1 Cu2 N3 165.6(2) .
N1 Cu2 O1 81.15(17) .
N3 Cu2 O1 97.74(18) .
N1 Cu2 O3 83.32(18) .
N3 Cu2 O3 94.27(19) .
O1 Cu2 O3 160.23(16) .
N1 Cu2 O5 99.3(2) 4_656
N3 Cu2 O5 95.11(18) 4_656
O1 Cu2 O5 95.10(17) 4_656
O3 Cu2 O5 99.43(19) 4_656
loop_
_geom_bond_atom_site_label_1
_geom_bond_atom_site_label_2
_geom_bond_distance
_geom_bond_site_symmetry_2
Cu1 N2 1.922(5) .
Cu1 N6 1.991(4) .
Cu1 O6 2.003(4) .
Cu1 O4 2.033(4) .
Cu1 O2 2.267(5) 3_457
O1 C1 1.303(6) .
O1 Cu2 2.010(4) .
O2 C1 1.225(6) .
O2 Cu1 2.267(5) 3_557
O3 C5 1.277(7) .
O3 Cu2 2.024(4) .
O4 C4 1.276(6) .
O5 C8 1.229(7) .
O5 Cu2 2.243(4) 4_646
O6 C8 1.287(6) .
O7 C26 1.467(16) .
C1 C2 1.536(8) .
C2 N1 1.460(7) .
C2 C3 1.533(9) .
C4 N1 1.295(7) .
C4 C5 1.526(7) .
C5 N2 1.277(7) .
C6 N2 1.449(7) .
C6 C8 1.514(8) .
C6 C7 1.523(11) .
C9 C10 1.527(8) .
C10 N4 1.330(7) .
C10 C11 1.372(8) .
C11 C12 1.401(7) .
C11 C17 1.516(8) 2_654
C12 N3 1.344(7) .
C12 C13 1.485(9) .
C14 C15 1.481(9) .
C15 N6 1.341(7) .
C15 C16 1.405(8) .
C16 C18 1.375(9) .
C16 C17 1.513(7) .
C17 C11 1.516(8) 2_655
C18 N5 1.349(7) .
C18 C19 1.506(9) .
C20 C25 1.378(16) .
C20 C21 1.398(19) .
C21 C22 1.38(2) .
C22 C23 1.35(3) .
C23 C24 1.40(2) .
C24 C25 1.357(17) .
C25 C26 1.508(15) .
C26 C27 1.506(18) .
N1 Cu2 1.913(4) .
N3 N4 1.336(6) .
N3 Cu2 1.961(5) .
N5 N6 1.342(6) .
Cu2 O5 2.243(4) 4_656
